#------------------------------------------------------------------------------
#$Date: 2019-03-01 01:27:00 +0200 (Fri, 01 Mar 2019) $
#$Revision: 213903 $
#$URL: file:///home/coder/svn-repositories/cod/cif/1/55/06/1550667.cif $
#------------------------------------------------------------------------------
#
# This file is available in the Crystallography Open Database (COD),
# http://www.crystallography.net/
#
# All data on this site have been placed in the public domain by the
# contributors.
#
data_1550667
loop_
_publ_author_name
'Kong, Xiang-Jing'
'He, Tao'
'Zhang, Yongzheng'
'Wu, Xue-Qian'
'Wang, Si-Nan'
'Xu, Ming-Ming'
'Si, Guang-Rui'
'Li, Jian-Rong Jeff'
_publ_section_title
;
 Constructing New Metal-Organic Frameworks with Complicated Ligands
 Generated from &#x201C;One-Pot&#x201D; In Situ Reactions
;
_journal_name_full               'Chemical Science'
_journal_paper_doi               10.1039/C9SC00178F
_journal_year                    2019
_chemical_formula_moiety         '0.25(C160 H88 N8 O64 Zr12)'
_chemical_formula_sum            'C40 H22 N2 O16 Zr3'
_chemical_formula_weight         1060.25
_space_group_crystal_system      monoclinic
_space_group_IT_number           12
_space_group_name_Hall           '-C 2y'
_space_group_name_H-M_alt        'C 1 2/m 1'
_symmetry_space_group_name_Hall  '-C 2y'
_symmetry_space_group_name_H-M   'C 1 2/m 1'
_atom_sites_solution_hydrogens   geom
_atom_sites_solution_primary     dual
_audit_creation_date             2018-07-30
_audit_creation_method
;
Olex2 1.2
(compiled 2018.05.29 svn.r3508 for OlexSys, GUI svn.r5506)
;
_audit_update_record
;
2019-01-04 deposited with the CCDC.    2019-02-28 downloaded from the CCDC.
;
_cell_angle_alpha                90
_cell_angle_beta                 92.956(7)
_cell_angle_gamma                90
_cell_formula_units_Z            4
_cell_length_a                   35.346(2)
_cell_length_b                   18.477(4)
_cell_length_c                   18.0998(12)
_cell_measurement_reflns_used    1568
_cell_measurement_temperature    173.00(10)
_cell_measurement_theta_max      68.4800
_cell_measurement_theta_min      4.4380
_cell_volume                     11805(3)
_computing_cell_refinement
;
CrysAlisPro, Agilent Technologies,
Version 1.171.37.35 (release 13-08-2014 CrysAlis171 .NET)
(compiled Aug 13 2014,18:06:01)
;
_computing_data_collection
;
CrysAlisPro, Agilent Technologies,
Version 1.171.37.35 (release 13-08-2014 CrysAlis171 .NET)
(compiled Aug 13 2014,18:06:01)
;
_computing_data_reduction
;
CrysAlisPro, Agilent Technologies,
Version 1.171.37.35 (release 13-08-2014 CrysAlis171 .NET)
(compiled Aug 13 2014,18:06:01)
;
_computing_molecular_graphics    'Olex2 (Dolomanov et al., 2009)'
_computing_publication_material  'Olex2 (Dolomanov et al., 2009)'
_computing_structure_refinement  'ShelXL (Sheldrick, 2015)'
_computing_structure_solution    'ShelXT (Sheldrick, 2015)'
_diffrn_ambient_environment      N~2~
_diffrn_ambient_temperature      173.00(10)
_diffrn_detector                 'CCD plate'
_diffrn_detector_area_resol_mean 10.3376
_diffrn_detector_type            AtlasS2
_diffrn_measured_fraction_theta_full 0.998
_diffrn_measured_fraction_theta_max 0.998
_diffrn_measurement_details
;
#__ type_ start__ end____ width___ exp.time_
  1 omega  -45.00    0.00   1.0000   20.0000
omega____ theta____ kappa____ phi______ frames
    -      -41.5605   38.0000  -90.0000 45

#__ type_ start__ end____ width___ exp.time_
  2 omega -114.00  -23.00   1.0000   20.0000
omega____ theta____ kappa____ phi______ frames
    -      -41.5605  -57.0000  150.0000 91

#__ type_ start__ end____ width___ exp.time_
  3 omega  -84.00   -2.00   1.0000   20.0000
omega____ theta____ kappa____ phi______ frames
    -      -41.5605  125.0000  -90.0000 82

#__ type_ start__ end____ width___ exp.time_
  4 omega   92.00  151.00   1.0000   20.0000
omega____ theta____ kappa____ phi______ frames
    -      105.8759   45.0000  150.0000 59

#__ type_ start__ end____ width___ exp.time_
  5 omega   33.00  117.00   1.0000   20.0000
omega____ theta____ kappa____ phi______ frames
    -      105.8759 -125.0000    0.0000 84

#__ type_ start__ end____ width___ exp.time_
  6 omega   53.00  176.00   1.0000   20.0000
omega____ theta____ kappa____ phi______ frames
    -      105.8759   15.0000  -90.0000 123

#__ type_ start__ end____ width___ exp.time_
  7 omega   23.00  109.00   1.0000   20.0000
omega____ theta____ kappa____ phi______ frames
    -      105.8759  -94.0000  150.0000 86

#__ type_ start__ end____ width___ exp.time_
  8 omega  132.00  160.00   1.0000   20.0000
omega____ theta____ kappa____ phi______ frames
    -      105.8759  125.0000  -30.0000 28

#__ type_ start__ end____ width___ exp.time_
  9 omega   39.00  125.00   1.0000   20.0000
omega____ theta____ kappa____ phi______ frames
    -      105.8759  -61.0000  -30.0000 86
;
_diffrn_measurement_device       'four-circle diffractometer'
_diffrn_measurement_device_type  'SuperNova, Dual, Cu at zero, AtlasS2'
_diffrn_measurement_method       '\w scans'
_diffrn_orient_matrix_UB_11      0.0093288000
_diffrn_orient_matrix_UB_12      -0.0740417000
_diffrn_orient_matrix_UB_13      -0.0337216000
_diffrn_orient_matrix_UB_21      -0.0058862000
_diffrn_orient_matrix_UB_22      -0.0366931000
_diffrn_orient_matrix_UB_23      0.0749797000
_diffrn_orient_matrix_UB_31      -0.0422270000
_diffrn_orient_matrix_UB_32      -0.0112508000
_diffrn_orient_matrix_UB_33      -0.0223300000
_diffrn_radiation_monochromator  mirror
_diffrn_radiation_probe          x-ray
_diffrn_radiation_type           CuK\a
_diffrn_radiation_wavelength     1.54178
_diffrn_reflns_av_R_equivalents  0.1807
_diffrn_reflns_av_unetI/netI     0.2013
_diffrn_reflns_Laue_measured_fraction_full 0.998
_diffrn_reflns_Laue_measured_fraction_max 0.998
_diffrn_reflns_limit_h_max       34
_diffrn_reflns_limit_h_min       -40
_diffrn_reflns_limit_k_max       17
_diffrn_reflns_limit_k_min       -21
_diffrn_reflns_limit_l_max       20
_diffrn_reflns_limit_l_min       -20
_diffrn_reflns_number            22058
_diffrn_reflns_point_group_measured_fraction_full 0.998
_diffrn_reflns_point_group_measured_fraction_max 0.998
_diffrn_reflns_theta_full        62.991
_diffrn_reflns_theta_max         62.991
_diffrn_reflns_theta_min         3.408
_diffrn_source                   'sealed X-ray tube'
_diffrn_source_type              'SuperNova (Cu) X-ray Source'
_exptl_absorpt_coefficient_mu    2.362
_exptl_absorpt_correction_T_max  1.00000
_exptl_absorpt_correction_T_min  0.29262
_exptl_absorpt_correction_type   multi-scan
_exptl_absorpt_process_details
;
CrysAlisPro, Agilent Technologies,
Version 1.171.37.35 (release 13-08-2014 CrysAlis171 .NET)
(compiled Aug 13 2014,18:06:01)
Empirical absorption correction using spherical harmonics,
 implemented in SCALE3 ABSPACK scaling algorithm.
Empirical absorption correction using spherical harmonics,
 implemented in SCALE3 ABSPACK scaling algorithm.
;
_exptl_crystal_colour            yellow
_exptl_crystal_colour_primary    yellow
_exptl_crystal_density_diffrn    0.597
_exptl_crystal_description       block
_exptl_crystal_F_000             2096
_exptl_crystal_size_max          0.13
_exptl_crystal_size_mid          0.06
_exptl_crystal_size_min          0.06
_refine_diff_density_max         3.506
_refine_diff_density_min         -1.576
_refine_diff_density_rms         0.163
_refine_ls_extinction_method     none
_refine_ls_goodness_of_fit_ref   0.927
_refine_ls_hydrogen_treatment    constr
_refine_ls_matrix_type           full
_refine_ls_number_parameters     274
_refine_ls_number_reflns         9846
_refine_ls_number_restraints     265
_refine_ls_restrained_S_all      0.936
_refine_ls_R_factor_all          0.1846
_refine_ls_R_factor_gt           0.1305
_refine_ls_shift/su_max          0.001
_refine_ls_shift/su_mean         0.000
_refine_ls_structure_factor_coef Fsqd
_refine_ls_weighting_details
'w=1/[\s^2^(Fo^2^)+(0.1802P)^2^] where P=(Fo^2^+2Fc^2^)/3'
_refine_ls_weighting_scheme      calc
_refine_ls_wR_factor_gt          0.3114
_refine_ls_wR_factor_ref         0.3681
_reflns_Friedel_coverage         0.000
_reflns_number_gt                3861
_reflns_number_total             9846
_reflns_threshold_expression     'I > 2\s(I)'
_cod_data_source_file            c9sc00178f2.cif
_cod_data_source_block           BUT-104
_cod_database_code               1550667
_shelx_shelxl_version_number     2018/3
_chemical_oxdiff_formula         'C H O N Zr'
_shelx_space_group_comment
;
The symmetry employed for this shelxl refinement is uniquely defined
by the following loop, which should always be used as a source of
symmetry information in preference to the above space-group names.
They are only intended as comments.
;
_shelx_estimated_absorpt_t_max   0.871
_shelx_estimated_absorpt_t_min   0.749
_reflns_odcompleteness_completeness 99.87
_reflns_odcompleteness_iscentric 1
_reflns_odcompleteness_theta     64.99
_olex2_refinement_description
;
1. Fixed Uiso
 At 1.2 times of:
  All C(H) groups
2. Restrained distances
 Zr1-O2_$1
 2.02 with sigma of 0.002
 Zr2-O2
 2.02 with sigma of 0.002
3. Rigid bond restraints
 All non-hydrogen atoms
 with sigma for 1-2 distances of 0.01 and sigma for 1-3 distances of 0.01
4. Uiso/Uaniso restraints and constraints
All non-hydrogen atoms have similar U: within 2A with sigma of 0.04 and sigma
for terminal atoms of 0.08
Uanis(Zr1) \\sim Ueq, Uanis(Zr2) \\sim Ueq: with sigma of 0.01 and sigma for
terminal atoms of 0
Uanis(O5) = Uanis(O6)
5.a Aromatic/amide H refined with riding coordinates:
 C3(H3), C19(H19), C18(H18), C4(H4), C13(H13), C11(H11), C7(H7), C16(H16),
 C9(H9), C6(H6), C15(H15)
;
_shelx_res_file
;
TITL 12_a.res in C2/m
    12.res
    created by SHELXL-2018/3 at 17:13:31 on 30-Jul-2018
REM Old TITL 12 in C2/m
REM SHELXT solution in C2/m: R1 0.475, Rweak 0.006, Alpha 0.199
REM <I/s> 0.000 for 0 systematic absences, Orientation as input
REM Formula found by SHELXT: C38 N16 O19 Zr3
CELL 1.54178 35.3462 18.4773 18.0998 90 92.956 90
ZERR 4 0.0024 0.0043 0.0012 0 0.007 0
LATT 7
SYMM -X,+Y,-Z
SFAC C H N O Zr
UNIT 160 88 8 64 12
EQIV $1 1.5-X,1.5-Y,1-Z
DFIX 2.02 0.002 Zr1 O2_$1
DFIX 2.02 0.002 Zr2 O2
DELU
SIMU
ISOR 0.01 0 Zr1 Zr2
EADP O5 O6

L.S. 20
PLAN  1
SIZE 0.06 0.06 0.13
list 4
ABIN
fmap 2 53
acta
OMIT -2 126
OMIT -13 19 5
OMIT 4 2 0
OMIT 5 1 0
OMIT 8 0 2
OMIT 0 0 6
OMIT 3 3 0
OMIT 1 1 6
OMIT -32 12 1
OMIT 3 3 1
REM <olex2.extras>
REM <HklSrc "%.\\12.hkl">
REM </olex2.extras>

WGHT    0.180200
FVAR       0.13601
ZR1   5    0.568967    1.000000    0.500669    10.50000    0.02795    0.17008 =
         0.02417    0.00000   -0.00343    0.00000
ZR2   5    1.002318    0.595914    0.598218    11.00000    0.02985    0.17477 =
         0.02981   -0.00448   -0.00294   -0.00089
O4    4    0.900635    0.573722    0.573543    11.00000    0.02514    0.14072 =
         0.04421    0.01048   -0.00946    0.00398
O6    4    0.602699    0.928500    0.575003    11.00000    0.02829    0.17382 =
         0.05589   -0.00069   -0.00647   -0.00049
O2    4    0.967122    0.585489    0.506504    11.00000    0.08830    0.26162 =
         0.02035   -0.00397   -0.01152   -0.04763
O7    4    0.560706    0.870802    0.635741    11.00000    0.02640    0.17761 =
         0.10500   -0.04292    0.01353   -0.02379
O8    4    1.004282    0.591346    0.719723    11.00000    0.04849    0.18926 =
         0.03353   -0.00466   -0.01461    0.00271
O9    4    1.002625    0.715399    0.598106    11.00000    0.05952    0.16450 =
         0.06550    0.00060    0.00361    0.01217
O3    4    0.971396    0.500000    0.598268    10.50000    0.07466    0.14348 =
         0.09518    0.00000   -0.04745    0.00000
C20   1    0.594047    0.884041    0.622204    11.00000    0.04565    0.16647 =
         0.02913   -0.01016   -0.02568   -0.00135
C3    1    0.887645    0.683080    0.732811    11.00000    0.04679    0.22420 =
         0.03946   -0.02132   -0.00059   -0.00318
AFIX  43
H3    2    0.912350    0.692021    0.750644    11.00000   -1.20000
AFIX   0
C2    1    0.880919    0.643322    0.664995    11.00000    0.03895    0.21432 =
         0.04673   -0.00870   -0.00483    0.01539
C1    1    0.910531    0.614367    0.621304    11.00000    0.04666    0.16941 =
         0.03550    0.01543    0.01168    0.01390
C5    1    0.821507    0.699574    0.748315    11.00000    0.05781    0.23930 =
         0.03270   -0.00580   -0.00184    0.03567
C17   1    0.626801    0.856074    0.667281    11.00000    0.05029    0.21799 =
         0.04064    0.00715    0.00321    0.03100
C19   1    0.654155    0.783933    0.770330    11.00000    0.05301    0.22274 =
         0.04122    0.01501    0.00055    0.00339
AFIX  43
H19   2    0.650628    0.754536    0.811111    11.00000   -1.20000
AFIX   0
N1    3    0.764243    0.738798    0.983456    11.00000    0.09482    0.34231 =
         0.02150    0.01599   -0.00290    0.03986
C18   1    0.623187    0.811840    0.732505    11.00000    0.05004    0.21621 =
         0.05725    0.02575   -0.00150    0.00447
AFIX  43
H18   2    0.599201    0.802253    0.748959    11.00000   -1.20000
AFIX   0
C4    1    0.859237    0.706657    0.769421    11.00000    0.04763    0.24859 =
         0.03951   -0.01790   -0.00972    0.02933
AFIX  43
H4    2    0.865074    0.730420    0.813850    11.00000   -1.20000
AFIX   0
C13   1    0.756131    0.750625    0.753748    11.00000    0.04319    0.31689 =
         0.03097    0.00492   -0.00459    0.03415
AFIX  43
H13   2    0.755497    0.755077    0.702519    11.00000   -1.20000
AFIX   0
C11   1    0.725879    0.767830    0.867224    11.00000    0.06187    0.29819 =
         0.03493    0.01410   -0.00037    0.06354
AFIX  43
H11   2    0.704642    0.779203    0.893190    11.00000   -1.20000
AFIX   0
C7    1    0.843498    0.632695    0.641423    11.00000    0.04287    0.24989 =
         0.05377   -0.03484    0.00626   -0.00466
AFIX  43
H7    2    0.837657    0.606940    0.598184    11.00000   -1.20000
AFIX   0
C8    1    0.788086    0.721454    0.788253    11.00000    0.05930    0.30856 =
         0.02566    0.00552    0.00180    0.05846
C16   1    0.663375    0.866812    0.644975    11.00000    0.04899    0.26986 =
         0.05526    0.04550   -0.01237    0.00814
AFIX  43
H16   2    0.666782    0.892330    0.601530    11.00000   -1.20000
AFIX   0
C12   1    0.725652    0.773231    0.788916    11.00000    0.05267    0.29652 =
         0.02754   -0.00474   -0.00922    0.04499
C9    1    0.790568    0.722354    0.866070    11.00000    0.03627    0.33627 =
         0.04096   -0.00661   -0.00296    0.05021
AFIX  43
H9    2    0.812728    0.708189    0.892031    11.00000   -1.20000
AFIX   0
C10   1    0.759468    0.744672    0.903113    11.00000    0.06812    0.31488 =
         0.01863   -0.00763   -0.00136    0.06455
C6    1    0.814249    0.660817    0.682807    11.00000    0.04995    0.29462 =
         0.05021   -0.02440    0.00458    0.02272
AFIX  43
H6    2    0.789245    0.653363    0.666001    11.00000   -1.20000
AFIX   0
C14   1    0.690655    0.797815    0.750169    11.00000    0.05137    0.26166 =
         0.03095    0.01515    0.00206    0.03114
C15   1    0.695579    0.840436    0.685788    11.00000    0.04354    0.32011 =
         0.05416    0.04333    0.00317    0.01970
AFIX  43
H15   2    0.719766    0.850778    0.670802    11.00000   -1.20000
AFIX   0
O5    4    0.946215    0.630788    0.636907    11.00000    0.02829    0.17382 =
         0.05589   -0.00069   -0.00647   -0.00049
O1    4    1.034837    0.500000    0.600370    10.50000    0.08025    0.13938 =
         0.10152    0.00000    0.05501    0.00000
HKLF 4




REM  12_a.res in C2/m
REM wR2 = 0.3681, GooF = S = 0.927, Restrained GooF = 0.936 for all data
REM R1 = 0.1305 for 3861 Fo > 4sig(Fo) and 0.1846 for all 9846 data
REM 274 parameters refined using 265 restraints

END

WGHT      0.1789      0.0000

REM Highest difference peak  3.506,  deepest hole -1.576,  1-sigma level  0.163
Q1    1   0.6200  1.0000  0.4982  10.50000  0.05    3.51
;
_shelx_res_checksum              88531
_shelx_fab_file
;
-40 0 1 -19.6353 6.6371
-40 0 2 0.1881 -3.3264
-40 0 3 -12.6298 1.4443
-40 0 4 12.5662 0.4978
-40 0 5 1.8736 -2.5140
-40 2 1 -8.9689 -0.0072
-40 2 2 -26.2495 -0.0123
-40 2 3 10.5903 0.3375
-40 2 4 -8.3133 -1.0452
-40 4 1 2.7182 -0.7140
-40 4 2 27.7200 0.4813
-39 1 1 -0.2775 0.7266
-39 1 2 -1.3038 -2.0935
-39 1 3 18.2736 1.1656
-39 1 4 -6.1840 0.5263
-39 1 5 -5.9139 -1.2179
-39 1 6 -3.1138 0.3870
-39 1 7 6.2990 0.7405
-39 3 1 17.0791 -0.6762
-39 3 2 -2.7019 0.9339
-39 3 3 36.1804 -0.2661
-39 3 4 -8.9868 -0.3974
-39 3 5 0.6432 0.3082
-39 3 6 5.4794 0.2291
-39 5 1 -1.3419 0.9384
-39 5 2 7.1427 -0.9568
-39 5 3 11.6217 0.6182
-39 5 4 5.9147 0.1597
-38 0 1 13.5367 4.4033
-38 0 2 13.8358 -0.8978
-38 0 3 8.8727 -1.4582
-38 0 4 -3.0164 3.4670
-38 0 5 0.3565 -5.5913
-38 0 6 5.8576 6.3130
-38 0 7 -0.6818 -5.0088
-38 0 8 -4.3492 3.6509
-38 2 1 14.4990 -1.6394
-38 2 2 -0.4080 1.2957
-38 2 3 0.8634 -0.4856
-38 2 4 1.7324 -0.3844
-38 2 5 -17.0373 1.0462
-38 2 6 10.0197 -1.4687
-38 2 7 -6.4454 0.6240
-38 2 8 2.7658 0.0376
-38 4 1 12.6868 0.9992
-38 4 2 3.6309 -0.5604
-38 4 3 8.8173 -0.0320
-38 4 4 5.3235 0.2374
-38 4 5 13.5010 0.0345
-38 4 6 -11.9302 -0.2571
-38 4 7 -26.0261 0.8826
-38 6 1 -2.2770 -0.2170
-38 6 2 -7.0507 0.2603
-38 6 3 -10.5635 -0.6306
-38 6 4 -10.4024 0.7772
-38 6 5 9.1742 -0.2699
-37 1 1 6.4866 1.4473
-37 1 2 25.2929 -2.3432
-37 1 3 15.2568 1.4999
-37 1 4 5.2391 -0.2477
-37 1 5 -7.5825 -0.2101
-37 1 6 3.6916 0.7905
-37 1 7 -2.4755 -0.8158
-37 1 8 -0.0153 0.1937
-37 1 9 0.3642 0.6948
-37 3 1 -8.4419 -1.0422
-37 3 2 -0.7266 0.9599
-37 3 3 18.9042 -0.7484
-37 3 4 15.9300 0.3103
-37 3 5 12.1385 0.1380
-37 3 6 -19.4812 -0.2862
-37 3 7 -5.9114 -0.0863
-37 3 8 -14.9252 -0.0269
-37 3 9 12.6627 0.2840
-37 5 1 -9.0366 -0.1767
-37 5 2 -5.2041 -0.0973
-37 5 3 0.3344 0.6251
-37 5 4 17.0034 -0.6269
-37 5 5 19.4082 -0.0371
-37 5 6 0.2543 0.2145
-37 5 7 -3.6073 0.0269
-37 5 8 11.9811 -0.1414
-37 7 1 -9.1021 0.0928
-37 7 2 28.0819 -0.1998
-37 7 3 -18.6492 0.3850
-37 7 4 -11.0329 -0.7278
-37 7 5 5.3940 0.9185
-37 7 6 -9.2756 -0.1059
-37 9 1 -12.2106 -0.4076
-36 0 1 -1.9387 3.7020
-36 0 2 19.4608 -0.3358
-36 0 3 -15.3200 -2.5849
-36 0 4 -10.2668 4.7126
-36 0 5 1.6002 -6.6164
-36 0 6 7.7639 6.9792
-36 0 7 6.6980 -5.8185
-36 0 8 -6.4663 3.7165
-36 0 9 -10.7048 -1.5569
-36 0 10 -14.5511 -0.3164
-36 2 1 -10.8394 -1.4159
-36 2 2 -1.2036 0.8829
-36 2 3 6.6292 0.6691
-36 2 4 -5.8665 -1.3924
-36 2 5 7.2055 1.1626
-36 2 6 -10.7098 -0.8321
-36 2 7 19.0357 1.2327
-36 2 8 9.4630 -1.0940
-36 2 9 8.1610 0.3988
-36 2 10 -1.4757 0.1565
-36 4 1 -5.9527 1.1856
-36 4 2 -10.4908 -0.7528
-36 4 3 1.1263 0.0318
-36 4 4 25.9694 0.1264
-36 4 5 -9.2063 -0.0049
-36 4 6 0.0377 -0.2567
-36 4 7 0.3124 0.1719
-36 4 8 -9.1141 0.0843
-36 4 9 9.5461 -0.6154
-36 4 10 -17.8508 1.3626
-36 6 1 17.7169 -0.1624
-36 6 2 -9.2185 0.1129
-36 6 3 14.2074 -0.2600
-36 6 4 3.3354 0.6190
-36 6 5 19.2973 -0.7530
-36 6 6 12.3813 0.8259
-36 6 7 9.1294 -0.6632
-36 6 8 7.0155 0.3856
-36 8 1 -21.5023 -0.1815
-36 8 2 -3.4593 0.2947
-36 8 3 4.1263 -0.2442
-36 8 4 13.7488 0.1714
-36 8 5 4.8281 -0.0813
-36 8 6 -2.0706 -0.1601
-36 10 1 27.1340 0.6782
-36 10 2 -6.6424 -0.6130
-35 1 1 -26.4286 1.6739
-35 1 2 23.1330 -2.3665
-35 1 3 2.2707 1.0997
-35 1 4 0.7499 0.4903
-35 1 5 -7.1476 -1.2698
-35 1 6 3.2024 1.0504
-35 1 7 -0.1636 -0.8907
-35 1 8 1.4041 0.2351
-35 1 9 -1.1297 0.7203
-35 1 10 12.5374 -0.6735
-35 1 11 1.4171 0.8355
-35 3 1 -4.3859 -1.2766
-35 3 2 0.4459 1.3889
-35 3 3 -1.8456 -1.3202
-35 3 4 -0.4753 0.5850
-35 3 5 -15.6080 0.5290
-35 3 6 18.4629 -0.7363
-35 3 7 -8.7582 0.1948
-35 3 8 -7.0458 0.5789
-35 3 9 1.0721 -0.8012
-35 3 10 -4.6821 0.0033
-35 3 11 -1.8630 -0.1011
-35 5 1 8.5650 0.4209
-35 5 2 12.5600 -0.4102
-35 5 3 6.2275 0.4662
-35 5 4 0.3119 -0.1652
-35 5 5 -19.6349 -0.1904
-35 5 6 35.1482 0.2453
-35 5 7 -11.7618 -0.0934
-35 5 8 -22.6511 -0.3569
-35 5 9 -11.9945 0.8301
-35 5 10 5.3568 -1.0002
-35 7 1 0.6965 0.1236
-35 7 2 -3.6505 -0.1075
-35 7 3 7.2219 -0.0640
-35 7 4 -10.8832 0.0433
-35 7 5 13.6165 0.0969
-35 7 6 10.5084 -0.2828
-35 7 7 -6.2108 0.1523
-35 7 8 -13.5126 0.2426
-35 7 9 5.8909 0.1310
-35 9 1 -7.3719 -0.2257
-35 9 2 -14.3064 0.3311
-35 9 3 9.4508 -0.0972
-35 9 4 -10.1244 -0.1296
-35 9 5 8.3154 0.1993
-35 9 6 2.8710 -0.4468
-35 9 7 -7.8863 0.8173
-35 11 1 7.5427 0.0865
-34 0 1 5.0294 5.6957
-34 0 2 -6.6459 -1.5236
-34 0 3 -1.2464 -1.6382
-34 0 4 -5.0751 3.7229
-34 0 5 2.4532 -5.2590
-34 0 6 -3.0202 5.7868
-34 0 7 2.4045 -4.5363
-34 0 8 5.5668 2.4368
-34 0 9 -24.6503 -0.2090
-34 0 10 -2.5441 -1.6749
-34 0 11 -21.1332 2.2564
-34 0 12 -8.6885 -1.4356
-34 2 1 -0.7272 -1.6868
-34 2 2 -0.2992 0.9869
-34 2 3 -9.0731 0.7249
-34 2 4 9.6753 -1.5595
-34 2 5 -2.5797 1.0481
-34 2 6 1.6599 -0.7177
-34 2 7 -2.4491 0.7791
-34 2 8 22.4044 -0.8092
-34 2 9 6.6357 0.3373
-34 2 10 -3.9642 0.0597
-34 2 11 -3.7024 -0.4301
-34 2 12 1.3198 -0.1615
-34 4 1 10.9900 0.7450
-34 4 2 -4.9037 -0.4926
-34 4 3 -8.5647 0.1088
-34 4 4 -4.3928 0.0921
-34 4 5 -1.5820 0.0814
-34 4 6 1.6940 -0.2072
-34 4 7 -12.4754 0.2574
-34 4 8 15.4527 -0.1688
-34 4 9 -8.1987 -0.0721
-34 4 10 -0.1160 0.6655
-34 4 11 -6.2706 -0.0916
-34 6 1 5.5692 -0.3461
-34 6 2 7.1081 0.0415
-34 6 3 -2.9767 0.1058
-34 6 4 -0.5415 -0.1112
-34 6 5 -5.8239 -0.3504
-34 6 6 -5.8448 0.8316
-34 6 7 -14.1103 -0.6767
-34 6 8 -7.6730 0.2574
-34 6 9 3.8814 0.2047
-34 6 10 -5.2023 -0.7227
-34 8 1 -13.1277 -0.3197
-34 8 2 -6.5539 0.2436
-34 8 3 -8.7780 0.0309
-34 8 4 -2.2923 -0.4537
-34 8 5 9.8054 0.8402
-34 8 6 -13.2059 -0.8226
-34 8 7 -10.1232 0.5593
-34 8 8 7.3273 -0.7573
-34 8 9 -3.0458 0.5219
-34 10 1 -12.8231 0.4207
-34 10 2 0.9128 -0.5342
-34 10 3 -6.1040 0.3239
-34 10 4 8.3082 0.3289
-34 10 5 -3.3668 -0.8258
-34 10 6 -11.5497 1.0184
-34 10 7 0.8242 -0.9944
-33 1 1 6.9139 0.6246
-33 1 2 -1.2096 -2.2054
-33 1 3 2.9529 0.7788
-33 1 4 -4.1911 1.1879
-33 1 5 5.5998 -1.6910
-33 1 6 8.2592 1.8159
-33 1 7 -7.0176 -1.6597
-33 1 8 2.8502 0.8281
-33 1 9 -9.0347 0.1067
-33 1 10 1.6296 -1.0436
-33 1 11 -1.0381 1.3985
-33 1 12 7.2801 -0.5611
-33 1 13 -4.5074 0.2949
-33 3 1 -3.2420 -0.7545
-33 3 2 -4.3447 1.0132
-33 3 3 -14.3818 -0.8127
-33 3 4 -8.4481 -0.1074
-33 3 5 11.8391 1.0473
-33 3 6 -6.2923 -1.3687
-33 3 7 -7.2098 0.8439
-33 3 8 -1.7275 -0.0614
-33 3 9 -0.8882 -0.1919
-33 3 10 8.6730 0.5075
-33 3 11 5.8670 -0.8096
-33 3 12 18.1522 0.6166
-33 5 1 -2.8660 0.7946
-33 5 2 0.1984 -0.5376
-33 5 3 4.8787 0.3518
-33 5 4 -5.8957 0.1723
-33 5 5 4.1276 -0.7001
-33 5 6 13.2311 0.6657
-33 5 7 -7.5808 -0.3147
-33 5 8 0.4864 0.0309
-33 5 9 -0.5462 -0.0832
-33 5 10 9.7547 -0.0267
-33 5 11 -3.1688 0.1426
-33 5 12 1.5938 -0.9316
-33 7 1 -6.4819 -0.2661
-33 7 2 0.9826 0.2741
-33 7 3 9.6667 -0.3300
-33 7 4 -1.3514 0.3063
-33 7 5 -3.5780 0.0741
-33 7 6 1.5593 -0.4343
-33 7 7 -4.8199 0.1860
-33 7 8 5.6097 0.5536
-33 7 9 17.5103 -0.8332
-33 7 10 -2.2868 0.5306
-33 7 11 0.1401 0.9879
-33 9 1 -1.7433 0.1752
-33 9 2 10.1802 0.0392
-33 9 3 -2.5719 -0.2321
-33 9 4 -9.5749 0.2041
-33 9 5 -4.6384 -0.1762
-33 9 6 10.4803 0.2509
-33 9 7 -1.2364 -0.1748
-33 9 8 0.0941 0.1374
-33 9 9 -6.3895 -0.3546
-33 11 1 -2.8317 0.1305
-33 11 2 5.8904 -0.0385
-33 11 3 0.0036 0.0786
-33 11 4 6.1203 -0.1978
-33 11 5 3.1124 0.1666
-33 11 6 3.1423 -0.3235
-32 0 1 -27.4400 10.3922
-32 0 2 11.7307 -4.0885
-32 0 3 3.9296 0.8423
-32 0 4 -7.0766 1.0329
-32 0 5 -13.7454 -2.7285
-32 0 6 8.9868 3.0922
-32 0 7 -5.4540 -1.8398
-32 0 8 2.0181 -0.2505
-32 0 9 3.4508 2.4561
-32 0 10 3.8722 -4.1495
-32 0 11 3.1824 4.8216
-32 0 12 -4.1732 -3.8721
-32 0 13 5.1454 1.8878
-32 2 1 -22.5464 -1.7542
-32 2 2 6.5882 1.3545
-32 2 3 6.6251 0.1197
-32 2 4 -17.0488 -0.8512
-32 2 5 -18.6522 0.2460
-32 2 6 -10.7617 0.1705
-32 2 7 -7.9414 0.1619
-32 2 8 4.3472 -0.1041
-32 2 9 6.7443 -0.1922
-32 2 10 9.5798 0.5518
-32 2 11 0.8032 -0.7196
-32 2 12 -0.6520 0.5647
-32 2 13 2.7273 0.1371
-32 4 1 13.2171 0.1790
-32 4 2 5.9093 -0.2398
-32 4 3 12.5822 -0.2900
-32 4 4 -2.3439 0.4473
-32 4 5 -7.5220 0.0252
-32 4 6 5.6603 -0.3041
-32 4 7 17.5289 0.1922
-32 4 8 -2.4908 -0.1362
-32 4 9 -7.1823 -0.1645
-32 4 10 -2.0311 0.1671
-32 4 11 -16.9271 -0.3427
-32 4 12 0.3102 0.0887
-32 4 13 -1.1556 0.0849
-32 6 1 15.1702 0.0722
-32 6 2 -0.2352 -0.2368
-32 6 3 1.0452 0.2500
-32 6 4 -0.1342 -0.1809
-32 6 5 -14.2626 -0.1575
-32 6 6 8.2411 0.5893
-32 6 7 3.3035 -0.5416
-32 6 8 -7.8734 -0.1325
-32 6 9 -4.5178 0.8613
-32 6 10 -4.8271 -0.6856
-32 6 11 -1.3525 0.7392
-32 6 12 1.0626 0.0146
-32 8 1 24.3251 -0.2618
-32 8 2 -7.1454 0.2270
-32 8 3 -5.0530 0.1237
-32 8 4 -2.0053 -0.3419
-32 8 5 9.4468 0.3754
-32 8 6 -5.9519 -0.3935
-32 8 7 15.1704 0.5390
-32 8 8 -11.5502 -0.5366
-32 8 9 9.2362 0.1903
-32 8 10 -4.2030 -0.0784
-32 8 11 6.6178 -0.3743
-32 10 1 -11.0463 0.0109
-32 10 2 -6.2019 -0.1872
-32 10 3 -9.2060 0.0662
-32 10 4 6.8553 0.1104
-32 10 5 1.7331 -0.2213
-32 10 6 3.7175 0.1878
-32 10 7 -2.9986 -0.1602
-32 10 8 3.6631 0.1480
-32 10 9 7.5737 0.2849
-32 12 2 0.9794 0.0508
-32 12 3 -10.1779 -0.0092
-32 12 4 -0.3750 -0.0725
-32 12 5 12.3077 0.2516
-32 12 6 2.8556 -0.1970
-31 1 1 -0.0133 -0.5933
-31 1 2 -1.9019 -1.9657
-31 1 3 -31.3128 0.3622
-31 1 4 -23.5751 1.9495
-31 1 5 14.1384 -2.5869
-31 1 6 2.6739 2.5375
-31 1 7 -14.4974 -2.1338
-31 1 8 5.6903 1.1488
-31 1 9 2.7112 0.0546
-31 1 10 -5.1770 -0.8271
-31 1 11 3.9453 0.8185
-31 1 12 -3.7926 -0.7436
-31 1 13 2.1341 -0.3181
-31 1 14 -7.7678 0.5861
-31 3 1 1.8809 -0.5014
-31 3 2 -4.0398 0.8905
-31 3 3 1.7329 -0.0545
-31 3 4 -2.0004 -1.2315
-31 3 5 11.5236 2.1793
-31 3 6 5.2721 -2.3350
-31 3 7 -13.0330 1.5598
-31 3 8 9.7613 -0.8035
-31 3 9 -14.2638 0.1619
-31 3 10 -2.4313 0.3223
-31 3 11 -8.5461 0.0012
-31 3 12 12.6018 -0.0992
-31 3 13 2.5028 -0.0715
-31 3 14 5.5902 0.7296
-31 5 1 6.6113 0.7901
-31 5 2 -14.3225 -0.6290
-31 5 3 2.9803 0.3375
-31 5 4 6.9562 0.3839
-31 5 5 1.3218 -1.1441
-31 5 6 -5.0038 1.2287
-31 5 7 11.3056 -0.7035
-31 5 8 6.3930 0.5767
-31 5 9 3.5440 -0.3474
-31 5 10 -4.7845 -0.1810
-31 5 11 -7.9603 0.1995
-31 5 12 0.4379 -0.0298
-31 5 13 5.8857 -0.2580
-31 7 1 16.2853 -0.6262
-31 7 2 11.5194 0.5750
-31 7 3 -12.7110 -0.3799
-31 7 4 13.5544 0.0454
-31 7 5 -1.2673 0.3748
-31 7 6 -62.5903 -0.6419
-31 7 7 -0.5318 0.2466
-31 7 8 1.5927 0.2426
-31 7 9 8.9883 -0.4034
-31 7 10 -3.7072 0.2838
-31 7 11 10.0301 -0.1734
-31 7 12 -3.1152 -0.1655
-31 9 1 13.5792 0.4985
-31 9 2 -0.2466 -0.3035
-31 9 3 -20.7184 0.0667
-31 9 4 12.1828 -0.0448
-31 9 5 11.1745 0.1462
-31 9 6 -21.2136 -0.1493
-31 9 7 8.4914 0.1757
-31 9 8 -5.4672 -0.2139
-31 9 9 -7.0502 0.1577
-31 9 10 7.1513 0.1929
-31 9 11 7.3230 -0.6947
-31 11 1 -1.2474 0.0791
-31 11 2 -0.5133 -0.0510
-31 11 3 -9.9540 0.0567
-31 11 4 -1.8977 0.1183
-31 11 5 7.6255 -0.3337
-31 11 6 -4.4655 0.4879
-31 11 7 7.9508 -0.4086
-31 11 8 -5.9829 0.2513
-31 11 9 -5.4782 -0.3879
-31 13 1 -1.6981 -0.3504
-31 13 2 -6.6298 0.3231
-31 13 3 0.2107 -0.2926
-31 13 4 3.6735 0.1637
-31 13 5 7.4787 -0.2225
-30 0 1 8.8300 13.3758
-30 0 2 6.2017 -6.5824
-30 0 3 3.1913 3.3304
-30 0 4 15.7578 -1.5397
-30 0 5 3.6154 -0.5163
-30 0 6 10.6063 0.9852
-30 0 7 10.0842 0.4361
-30 0 8 8.2265 -2.3699
-30 0 9 7.2979 4.4865
-30 0 10 3.2835 -6.6217
-30 0 11 5.0586 7.0895
-30 0 12 -4.7807 -5.8378
-30 0 13 1.4404 3.7287
-30 0 14 2.9548 -1.4326
-30 2 1 -6.2933 -1.7489
-30 2 2 2.1695 1.6890
-30 2 3 3.1829 -0.5525
-30 2 4 -13.5182 -0.0161
-30 2 5 -3.7381 -0.3507
-30 2 6 7.0807 0.6656
-30 2 7 -11.4904 -0.5903
-30 2 8 8.1136 0.5635
-30 2 9 -2.7758 -0.8771
-30 2 10 8.2463 1.1213
-30 2 11 -7.3889 -1.3077
-30 2 12 -1.2066 1.3441
-30 2 13 -6.5803 -0.5082
-30 2 14 -2.3167 -0.4811
-30 4 1 0.4976 0.0599
-30 4 2 -6.6398 -0.1023
-30 4 3 7.0022 -0.4757
-30 4 4 -4.0909 0.5715
-30 4 5 -4.0177 -0.0771
-30 4 6 11.1965 -0.2713
-30 4 7 -3.0306 0.2223
-30 4 8 0.8477 0.1055
-30 4 9 -0.6587 -0.2229
-30 4 10 -1.4026 0.3880
-30 4 11 -16.1604 -0.4781
-30 4 12 -7.5226 0.5518
-30 4 13 -6.4892 -0.4200
-30 4 14 -3.1186 -0.7605
-30 6 1 -12.2607 0.4555
-30 6 2 4.6311 -0.5092
-30 6 3 -12.9009 0.4378
-30 6 4 6.9456 -0.3482
-30 6 5 1.3943 0.1050
-30 6 6 -3.2240 0.3757
-30 6 7 7.9236 -0.3853
-30 6 8 11.0165 -0.4344
-30 6 9 -1.2960 0.8869
-30 6 10 5.0993 -0.7979
-30 6 11 -0.6459 0.5919
-30 6 12 1.0803 -0.5587
-30 6 13 3.9872 0.4712
-30 8 1 11.8848 -0.4759
-30 8 2 0.8157 0.3386
-30 8 3 -11.2426 -0.1267
-30 8 4 5.8511 -0.0720
-30 8 5 22.2306 0.0989
-30 8 6 1.1228 -0.1434
-30 8 7 9.2953 0.2190
-30 8 8 2.9284 0.0917
-30 8 9 -2.2625 -0.4743
-30 8 10 8.0849 0.6096
-30 8 11 -2.7018 -0.6603
-30 8 12 -2.6993 0.7182
-30 10 1 -11.6422 -0.0580
-30 10 2 -0.8003 0.0207
-30 10 3 4.7406 -0.0779
-30 10 4 12.8544 0.3506
-30 10 5 3.0011 -0.5060
-30 10 6 -6.5059 0.4631
-30 10 7 10.8728 -0.4422
-30 10 8 3.8779 0.2419
-30 10 9 14.3789 -0.0174
-30 10 10 18.1537 -0.0956
-30 10 11 -0.5427 1.0940
-30 12 1 -11.3978 0.1148
-30 12 2 -15.3962 -0.1659
-30 12 3 -10.4792 0.2515
-30 12 4 -7.1450 -0.4138
-30 12 5 -26.5851 0.4974
-30 12 6 -13.6394 -0.3312
-30 12 7 -10.1238 0.2220
-30 12 8 6.6658 -0.2623
-30 14 1 -11.9239 0.0177
-30 14 2 -4.1222 0.0536
-30 14 3 -1.8260 0.0346
-30 14 4 4.1307 -0.1831
-29 1 1 -9.2504 -1.0303
-29 1 2 -3.4396 -1.8798
-29 1 3 13.2441 0.2242
-29 1 4 24.2379 2.2633
-29 1 5 0.4410 -3.0436
-29 1 6 -3.3932 2.8719
-29 1 7 10.3929 -2.6371
-29 1 8 -10.0680 1.3468
-29 1 9 -5.6667 0.3448
-29 1 10 -9.2573 -0.8385
-29 1 11 4.7246 1.0162
-29 1 12 -0.4892 -0.8156
-29 1 13 -0.7597 0.0781
-29 1 14 1.4188 1.2180
-29 1 15 3.1204 -1.1699
-29 3 1 6.7310 -0.3428
-29 3 2 26.4415 0.6817
-29 3 3 23.0973 0.2892
-29 3 4 12.1579 -1.7530
-29 3 5 2.1797 2.6961
-29 3 6 -5.6607 -2.5931
-29 3 7 4.9599 2.1038
-29 3 8 -2.4948 -1.3255
-29 3 9 -3.7789 0.4633
-29 3 10 -13.6814 -0.0440
-29 3 11 -7.4087 -0.1218
-29 3 12 -4.9288 -0.3851
-29 3 13 -2.2841 0.5914
-29 3 14 1.3133 -0.3794
-29 3 15 -0.8893 -0.5529
-29 5 1 1.9260 0.6779
-29 5 2 3.2401 -0.4809
-29 5 3 -7.3491 0.1815
-29 5 4 2.3861 0.7717
-29 5 5 -7.5552 -1.7023
-29 5 6 -8.9162 1.4995
-29 5 7 1.4320 -0.8841
-29 5 8 -1.5502 0.5095
-29 5 9 6.4508 -0.2441
-29 5 10 -16.5421 0.0464
-29 5 11 2.5726 0.0505
-29 5 12 -10.2973 0.0022
-29 5 13 4.6837 0.2253
-29 5 14 5.4642 0.5519
-29 7 1 8.1883 -0.8986
-29 7 2 -14.5285 0.6833
-29 7 3 -0.4468 -0.4134
-29 7 4 0.6886 0.0404
-29 7 5 7.8832 0.4284
-29 7 6 15.4267 -0.5867
-29 7 7 -6.7331 0.3070
-29 7 8 10.8872 0.1987
-29 7 9 -8.4992 -0.3795
-29 7 10 -2.4818 0.1309
-29 7 11 -1.4421 0.2302
-29 7 12 2.2028 -0.3436
-29 7 13 1.3993 0.2018
-29 9 1 -5.6847 0.8244
-29 9 2 -13.4648 -0.4828
-29 9 3 -8.7144 0.2591
-29 9 4 6.3609 -0.2335
-29 9 5 22.6689 0.3190
-29 9 6 58.1094 -0.4370
-29 9 7 19.8766 0.4776
-29 9 8 -6.0335 -0.5389
-29 9 9 4.4610 0.5268
-29 9 10 -8.7533 -0.3137
-29 9 11 3.3091 0.0513
-29 9 12 -2.5189 -0.1854
-29 11 1 13.7173 -0.0227
-29 11 2 -8.6041 -0.0350
-29 11 3 -11.6539 0.0310
-29 11 4 -9.0082 0.0071
-29 11 5 3.4819 -0.2199
-29 11 6 1.2969 0.3266
-29 11 7 13.0426 -0.2295
-29 11 8 -6.0030 0.2261
-29 11 9 -5.2568 -0.1530
-29 11 10 -9.7867 -0.0834
-29 13 1 -0.8761 -0.4420
-29 13 2 12.8574 0.4575
-29 13 3 -7.6038 -0.4486
-29 13 4 2.9187 0.2791
-29 13 5 5.5087 0.2097
-29 13 6 -8.9062 -0.3880
-29 13 7 -5.3957 0.1314
-29 13 8 5.6155 0.1031
-29 15 1 9.0290 0.4846
-28 0 1 4.4843 14.0703
-28 0 2 -14.6274 -6.1613
-28 0 3 -21.9839 3.3624
-28 0 4 -9.3286 -1.8379
-28 0 5 1.9877 -0.3586
-28 0 6 1.8711 1.2141
-28 0 7 -5.8912 0.3701
-28 0 8 -0.3983 -2.6035
-28 0 9 -4.8774 4.8074
-28 0 10 -1.9858 -6.7073
-28 0 11 -2.1929 7.4032
-28 0 12 2.4288 -5.9558
-28 0 13 -5.2222 3.6236
-28 0 14 -1.5569 -1.2814
-28 0 15 3.3109 -0.6293
-28 2 1 7.9053 -1.9733
-28 2 2 5.1677 1.6346
-28 2 3 0.5038 -0.6072
-28 2 4 -10.3049 0.1491
-28 2 5 9.1804 -0.5244
-28 2 6 -8.4101 0.6983
-28 2 7 18.7985 -0.5292
-28 2 8 -13.0013 0.7526
-28 2 9 17.4492 -1.1035
-28 2 10 0.8187 1.0569
-28 2 11 -8.1921 -1.1613
-28 2 12 3.3488 1.3432
-28 2 13 -9.6114 -1.1673
-28 2 14 -11.4552 0.1531
-28 2 15 -0.2735 0.5919
-28 4 1 7.1795 0.0766
-28 4 2 7.2896 -0.1400
-28 4 3 3.3279 -0.4338
-28 4 4 9.0053 0.4045
-28 4 5 -4.5945 0.2280
-28 4 6 -5.3525 -0.5218
-28 4 7 -8.8735 0.1451
-28 4 8 6.6854 0.1952
-28 4 9 24.2710 -0.3858
-28 4 10 10.4521 0.4742
-28 4 11 2.5224 -0.3359
-28 4 12 -13.3907 0.2900
-28 4 13 -3.9804 -0.3344
-28 4 14 1.2946 0.4491
-28 4 15 5.8057 0.7653
-28 6 1 6.4208 0.7505
-28 6 2 0.0893 -0.6553
-28 6 3 5.1338 0.4739
-28 6 4 -10.1449 -0.3972
-28 6 5 -3.7354 0.1786
-28 6 6 1.0375 0.3208
-28 6 7 0.5597 -0.3369
-28 6 8 -11.9074 -0.2947
-28 6 9 -0.9395 0.8255
-28 6 10 -5.3470 -0.9162
-28 6 11 -1.7086 0.9236
-28 6 12 9.3405 -0.6688
-28 6 13 -1.4141 -0.1360
-28 6 14 -1.1914 -0.1037
-28 8 1 5.2550 -0.5266
-28 8 2 -16.3402 0.4204
-28 8 3 -1.1769 -0.1036
-28 8 4 -18.2100 -0.1084
-28 8 5 -2.0931 0.1807
-28 8 6 81.6223 -0.2506
-28 8 7 -4.0071 0.1915
-28 8 8 -14.1545 0.1360
-28 8 9 -0.6442 -0.4843
-28 8 10 -2.2176 0.7316
-28 8 11 -7.2784 -0.9035
-28 8 12 -13.1887 0.9805
-28 8 13 -12.0623 -0.7865
-28 10 1 -5.9458 -0.0579
-28 10 2 5.0072 -0.0384
-28 10 3 1.8061 -0.1717
-28 10 4 3.0981 0.4189
-28 10 5 -6.9792 -0.5285
-28 10 6 24.4632 0.6164
-28 10 7 8.2758 -0.5418
-28 10 8 -9.7577 0.2669
-28 10 9 19.4701 -0.0629
-28 10 10 -1.0373 -0.1934
-28 10 11 -7.0712 0.2001
-28 10 12 -12.3470 -0.0154
-28 12 1 7.0190 0.0505
-28 12 2 7.2148 -0.1022
-28 12 3 14.2118 0.2443
-28 12 4 4.2082 -0.3344
-28 12 5 10.1959 0.2556
-28 12 6 -37.9724 -0.2066
-28 12 7 -7.6602 0.1648
-28 12 8 -7.6587 -0.1915
-28 12 9 0.9681 0.2429
-28 12 10 -7.2367 0.0307
-28 14 1 -8.9582 0.0445
-28 14 2 -9.7098 0.0063
-28 14 3 12.5300 0.0146
-28 14 4 -7.3097 0.0394
-28 14 5 9.1763 0.0000
-28 14 6 -19.3727 -0.1169
-28 14 7 -11.4672 0.1929
-27 1 1 3.4132 -0.3847
-27 1 2 8.8886 -2.2151
-27 1 3 -0.3126 0.3622
-27 1 4 -0.3447 2.2458
-27 1 5 -1.6316 -2.8745
-27 1 6 -8.3834 2.7576
-27 1 7 5.3108 -2.3436
-27 1 8 -3.2070 0.9053
-27 1 9 -15.6473 0.6741
-27 1 10 6.2260 -1.2943
-27 1 11 5.0386 1.2785
-27 1 12 -7.3061 -1.2003
-27 1 13 -11.3291 0.4531
-27 1 14 -5.2131 0.6451
-27 1 15 11.4645 -1.3545
-27 1 16 -12.5172 0.9293
-27 3 1 9.6773 -0.7202
-27 3 2 15.6061 0.9970
-27 3 3 -3.8117 0.0868
-27 3 4 13.7581 -1.5676
-27 3 5 -10.5433 2.3402
-27 3 6 7.4011 -2.3156
-27 3 7 11.7004 1.7601
-27 3 8 8.4817 -0.9103
-27 3 9 -11.9300 0.1027
-27 3 10 8.2591 0.4857
-27 3 11 6.0977 -0.6193
-27 3 12 5.6789 0.3900
-27 3 13 -8.8147 0.3051
-27 3 14 3.1645 -0.7224
-27 3 15 5.9595 0.6972
-27 3 16 6.2976 0.2027
-27 5 1 -4.2206 0.6168
-27 5 2 6.8588 -0.4788
-27 5 3 -3.7255 0.1961
-27 5 4 10.0434 0.7480
-27 5 5 -2.0825 -1.6104
-27 5 6 7.5801 1.5209
-27 5 7 5.7390 -0.9196
-27 5 8 6.8384 0.3801
-27 5 9 -10.1905 0.0073
-27 5 10 6.7683 -0.2181
-27 5 11 -4.9093 0.0930
-27 5 12 2.5343 0.0068
-27 5 13 -3.7051 0.1864
-27 5 14 -4.9996 -0.4574
-27 5 15 -3.9066 -0.8704
-27 7 1 4.1281 -0.8949
-27 7 2 20.3968 0.6018
-27 7 3 -2.6649 -0.2364
-27 7 4 -5.6522 -0.1144
-27 7 5 -10.7614 0.3770
-27 7 6 16.2750 -0.4813
-27 7 7 7.5970 0.3286
-27 7 8 7.1022 0.1073
-27 7 9 -1.9297 -0.2290
-27 7 10 0.6788 0.0586
-27 7 11 -2.4103 -0.2064
-27 7 12 2.4086 0.0914
-27 7 13 -15.0947 0.3844
-27 7 14 -11.2709 -0.2125
-27 9 1 3.3265 0.5911
-27 9 2 20.9557 -0.3066
-27 9 3 -2.4407 0.0969
-27 9 4 -5.1995 -0.1027
-27 9 5 -8.4755 0.1825
-27 9 6 43.2048 -0.2312
-27 9 7 -11.9091 0.2768
-27 9 8 -11.8601 -0.4353
-27 9 9 -2.3613 0.3104
-27 9 10 -3.4832 0.1062
-27 9 11 -4.2582 -0.0575
-27 9 12 2.3163 -0.1951
-27 9 13 -3.3218 0.7010
-27 11 1 3.8142 -0.0020
-27 11 2 5.4527 -0.0657
-27 11 3 2.5549 0.1469
-27 11 4 6.9645 0.0483
-27 11 5 15.5573 -0.3228
-27 11 6 2.4744 0.4178
-27 11 7 -6.7621 -0.3580
-27 11 8 -10.4502 0.2896
-27 11 9 -20.5605 -0.0614
-27 11 10 -3.7576 -0.2599
-27 11 11 -1.0613 0.3975
-27 11 12 6.0971 -0.3864
-27 13 1 0.9032 -0.2815
-27 13 2 -7.8073 0.3054
-27 13 3 5.5045 -0.2558
-27 13 4 -0.4301 -0.0088
-27 13 5 12.4775 0.2982
-27 13 6 0.3738 -0.5144
-27 13 7 5.0747 0.5250
-27 13 8 4.0244 -0.2135
-27 13 9 0.0676 -0.1675
-27 15 1 2.9769 0.4430
-27 15 2 -1.0068 -0.3918
-27 15 3 -0.4755 0.1292
-27 15 4 -5.9092 0.1227
-27 15 5 -9.3627 -0.2788
-27 15 6 7.6263 0.5135
-26 0 1 6.7916 10.9265
-26 0 2 -0.8524 -3.8800
-26 0 3 4.3992 0.5404
-26 0 4 21.5017 1.1006
-26 0 5 2.5377 -3.2762
-26 0 6 -10.3950 3.6663
-26 0 7 4.9181 -1.9319
-26 0 8 15.9965 -0.3660
-26 0 9 2.9176 2.5936
-26 0 10 -0.3287 -4.7051
-26 0 11 -2.4914 5.1058
-26 0 12 -1.9429 -3.7233
-26 0 13 18.0824 1.3938
-26 0 14 -2.2512 0.8368
-26 0 15 18.2852 -2.7370
-26 0 16 -8.4092 3.2844
-26 2 1 9.7507 -1.8018
-26 2 2 6.7290 1.2306
-26 2 3 4.0999 0.1188
-26 2 4 4.3680 -0.5563
-26 2 5 -16.6436 0.0965
-26 2 6 -3.7626 0.1275
-26 2 7 9.8542 -0.0666
-26 2 8 3.9853 0.2246
-26 2 9 1.2094 -0.4697
-26 2 10 -2.0726 0.5589
-26 2 11 12.3598 -0.4883
-26 2 12 5.4507 0.6412
-26 2 13 -5.1589 -0.3984
-26 2 14 -10.3305 -0.0038
-26 2 15 -8.0425 0.4847
-26 2 16 -10.4021 -0.7708
-26 4 1 -3.3573 0.5763
-26 4 2 -16.7945 -0.2409
-26 4 3 -4.9310 -0.4031
-26 4 4 -4.1661 0.3286
-26 4 5 -15.4567 0.4659
-26 4 6 5.8968 -0.7700
-26 4 7 -2.3733 0.5399
-26 4 8 -5.4680 -0.1836
-26 4 9 -12.4700 -0.1826
-26 4 10 18.5728 0.4030
-26 4 11 12.6674 -0.2777
-26 4 12 -4.3051 -0.1269
-26 4 13 3.4035 -0.1273
-26 4 14 -6.9251 0.3457
-26 4 15 0.5220 -0.0410
-26 4 16 0.7055 -0.8012
-26 6 1 -10.8649 0.4469
-26 6 2 -0.1660 -0.4235
-26 6 3 -2.4654 0.0750
-26 6 4 4.9740 0.0298
-26 6 5 -17.1589 -0.2954
-26 6 6 1.8617 0.7010
-26 6 7 8.5256 -0.6195
-26 6 8 -16.2112 0.0794
-26 6 9 -17.2092 0.4076
-26 6 10 -9.0630 -0.6783
-26 6 11 3.7568 0.8442
-26 6 12 15.8802 -0.5591
-26 6 13 5.2079 -0.0056
-26 6 14 2.7415 0.6962
-26 6 15 -1.6468 -0.1040
-26 8 1 -19.2641 -0.4201
-26 8 2 -6.4849 0.3960
-26 8 3 -0.7651 -0.1029
-26 8 4 -16.4320 -0.1614
-26 8 5 5.7752 0.4813
-26 8 6 13.4017 -0.7317
-26 8 7 13.5035 0.5328
-26 8 8 -11.7029 -0.1190
-26 8 9 8.0140 -0.4609
-26 8 10 3.3383 0.7195
-26 8 11 5.7771 -0.4070
-26 8 12 -4.7154 0.2006
-26 8 13 3.4135 -0.4182
-26 8 14 -2.3366 0.2196
-26 10 1 -9.9305 0.4103
-26 10 2 -20.8080 -0.3806
-26 10 3 1.7010 0.0050
-26 10 4 -3.9093 0.3029
-26 10 5 -12.0384 -0.3955
-26 10 6 0.8676 0.3911
-26 10 7 -9.1857 -0.2805
-26 10 8 9.0305 0.1792
-26 10 9 2.7420 0.2035
-26 10 10 -1.8144 -0.5036
-26 10 11 -9.7194 0.3913
-26 10 12 3.1365 -0.2688
-26 10 13 5.3949 -0.2641
-26 12 1 -0.3369 -0.2346
-26 12 2 -8.4616 0.2312
-26 12 3 1.4823 -0.0416
-26 12 4 -8.4010 -0.2387
-26 12 5 -15.7169 0.4394
-26 12 6 -25.0834 -0.3303
-26 12 7 -12.8138 0.0886
-26 12 8 -4.1586 -0.0359
-26 12 9 1.4891 -0.0560
-26 12 10 -11.3033 0.1361
-26 12 11 9.0135 -0.0546
-26 14 1 -5.5238 0.0217
-26 14 2 2.4286 -0.0065
-26 14 3 -2.5077 -0.0106
-26 14 4 -8.3087 0.0676
-26 14 5 -40.0519 -0.1947
-26 14 6 12.3375 0.1675
-26 14 7 0.0508 -0.0125
-26 14 8 4.9542 -0.0355
-26 14 9 0.6437 -0.0962
-26 16 1 10.1949 -0.0772
-26 16 2 10.2438 -0.0203
-26 16 3 1.7961 0.1385
-26 16 4 5.5756 -0.0697
-25 1 1 4.8326 0.9822
-25 1 2 6.0446 -2.7631
-25 1 3 5.6325 0.5850
-25 1 4 10.5599 1.6519
-25 1 5 -1.0411 -2.1384
-25 1 6 -0.9502 2.1950
-25 1 7 -2.1673 -1.7262
-25 1 8 2.3006 0.1917
-25 1 9 11.6251 1.4680
-25 1 10 6.0836 -2.1804
-25 1 11 -6.3794 2.0562
-25 1 12 29.6210 -1.7820
-25 1 13 4.9694 0.8683
-25 1 14 -3.4958 0.3683
-25 1 15 -7.3263 -0.9317
-25 1 16 4.8727 0.7389
-25 1 17 5.5169 -0.3893
-25 3 1 7.5681 -1.3138
-25 3 2 0.1076 1.4836
-25 3 3 -13.4157 -0.5526
-25 3 4 2.1057 -0.7317
-25 3 5 -8.3982 1.4829
-25 3 6 8.7027 -1.4928
-25 3 7 -11.7154 0.7825
-25 3 8 13.1805 0.1214
-25 3 9 -4.2605 -0.9000
-25 3 10 -5.4497 1.3952
-25 3 11 4.8300 -1.4642
-25 3 12 0.1575 1.2283
-25 3 13 -0.9548 -0.6146
-25 3 14 4.2666 -0.1096
-25 3 15 0.8006 0.1301
-25 3 16 11.7347 -0.0920
-25 5 1 5.0063 0.5890
-25 5 2 -17.9158 -0.7648
-25 5 3 -0.7738 0.6074
-25 5 4 5.2491 0.3505
-25 5 5 2.9371 -1.2356
-25 5 6 -3.6604 1.1686
-25 5 7 -0.9160 -0.4460
-25 5 8 -4.2439 -0.0086
-25 5 9 5.0100 0.3838
-25 5 10 1.3883 -0.6856
-25 5 11 -10.1952 0.4615
-25 5 12 3.7427 -0.1424
-25 5 13 -0.2466 0.3035
-25 5 14 0.3648 -0.4928
-25 5 15 5.7942 0.4296
-25 5 16 1.9154 0.9521
-25 7 1 7.7782 -0.4945
-25 7 2 -3.6155 0.3019
-25 7 3 5.4353 0.1549
-25 7 4 2.9603 -0.3948
-25 7 5 2.7575 0.4964
-25 7 6 -2.1401 -0.5799
-25 7 7 15.2020 0.2381
-25 7 8 17.8430 0.0245
-25 7 9 16.2187 0.0243
-25 7 10 -3.0216 -0.0379
-25 7 11 9.9726 -0.0554
-25 7 12 -4.1046 0.1259
-25 7 13 -14.5332 0.1071
-25 7 14 8.3014 -0.2895
-25 7 15 -2.0734 -0.3934
-25 9 1 -7.9931 0.0595
-25 9 2 -7.7582 0.0605
-25 9 3 12.6222 -0.1706
-25 9 4 -6.1318 0.1114
-25 9 5 -2.9289 -0.1660
-25 9 6 -9.2871 0.3226
-25 9 7 -3.7245 -0.1211
-25 9 8 -5.3551 -0.0160
-25 9 9 -12.4606 -0.0604
-25 9 10 6.3001 0.2650
-25 9 11 -7.0495 -0.6484
-25 9 12 15.2918 0.6056
-25 9 13 -3.1911 -0.2616
-25 9 14 4.4171 -0.3980
-25 11 1 -12.6689 -0.1080
-25 11 2 -8.0459 -0.0407
-25 11 3 6.6340 0.2071
-25 11 4 27.2049 -0.0133
-25 11 5 1.4845 -0.3532
-25 11 6 -3.2519 0.4679
-25 11 7 -2.8361 -0.3613
-25 11 8 -0.8537 0.0858
-25 11 9 -1.3983 0.1397
-25 11 10 -10.9413 -0.3235
-25 11 11 38.9609 0.3135
-25 11 12 1.4968 0.0477
-25 11 13 -4.4531 0.3422
-25 13 1 -22.9264 -0.0462
-25 13 2 6.7785 0.0182
-25 13 3 8.1003 -0.0396
-25 13 4 -4.1292 -0.1009
-25 13 5 -1.7164 0.3735
-25 13 6 -10.6954 -0.5637
-25 13 7 5.4517 0.5060
-25 13 8 3.8156 -0.2210
-25 13 9 6.0189 -0.0292
-25 13 10 -1.6793 0.3685
-25 13 11 5.8332 -0.2832
-25 15 1 -8.1642 0.1814
-25 15 2 10.1568 -0.0855
-25 15 3 2.1859 -0.0126
-25 15 4 6.2414 0.1355
-25 15 5 -28.4539 -0.2804
-25 15 6 -16.1963 0.5130
-25 15 7 -7.1264 -0.6009
-25 15 8 -5.2076 0.2433
-24 0 3 -1.7834 -2.7590
-24 0 4 -3.9086 5.3447
-24 0 5 -6.0965 -7.4588
-24 0 6 -4.5891 7.5955
-24 0 7 -0.0674 -5.5138
-24 0 8 -5.9605 2.9672
-24 0 9 -8.5149 -0.3677
-24 0 10 -3.9698 -1.7262
-24 0 12 5.8814 -0.4743
-24 0 13 -7.6892 -1.5002
-24 0 14 -1.5778 3.5908
-24 0 15 7.8282 -5.3067
-24 0 16 1.9808 5.7862
-24 0 17 0.9023 -4.3674
-24 2 1 -8.5025 -1.7837
-24 2 2 31.7127 0.8138
-24 2 3 2.5582 1.0349
-24 2 4 0.8740 -1.6203
-24 2 5 -11.4962 0.9075
-24 2 6 1.3231 -0.5651
-24 2 7 -10.7018 0.7904
-24 2 8 -1.8367 -0.6108
-24 2 9 -12.6929 0.2469
-24 2 10 -10.5884 -0.2365
-24 2 11 -0.6593 0.1548
-24 2 13 -1.4448 0.2076
-24 2 14 7.3426 -0.7375
-24 2 15 -0.4784 1.1224
-24 2 16 -8.0296 -0.8989
-24 2 17 -0.6376 0.5159
-24 4 1 -1.9929 0.8444
-24 4 2 14.0228 -0.3267
-24 4 3 -13.9591 -0.3652
-24 4 4 10.6656 0.0636
-24 4 5 -1.8487 0.7267
-24 4 6 3.2956 -1.0665
-24 4 7 -12.8167 0.7418
-24 4 8 -1.4288 -0.3962
-24 4 9 -10.1622 0.0315
-24 4 10 7.3153 0.3103
-24 4 11 4.4763 -0.1126
-24 4 12 -0.1224 -0.2362
-24 4 13 -5.6098 0.2947
-24 4 14 21.0109 0.0177
-24 4 15 6.4863 0.1431
-24 4 16 3.1087 -0.7505
-24 4 17 -3.2583 0.1851
-24 6 1 7.3613 0.1313
-24 6 2 5.9447 0.0068
-24 6 3 -0.0335 -0.4116
-24 6 4 -7.8600 0.6214
-24 6 5 17.7270 -0.8077
-24 6 6 2.0168 1.2901
-24 6 7 -7.0003 -1.3456
-24 6 8 7.6943 0.6380
-24 6 9 1.7413 -0.0269
-24 6 10 -1.0979 -0.1939
-24 6 11 9.2249 0.2986
-24 6 12 5.5989 -0.2791
-24 6 13 -7.8375 -0.3047
-24 6 14 4.1964 0.7937
-24 6 15 2.0363 -0.7179
-24 6 16 -12.2131 -0.2137
-24 8 1 -7.7899 -0.4428
-24 8 2 8.1261 0.4510
-24 8 3 -16.2290 -0.1779
-24 8 4 -17.5005 -0.3868
-24 8 5 -0.1123 0.9347
-24 8 6 4.0943 -1.1074
-24 8 7 -9.9576 1.0247
-24 8 8 -6.3474 -0.4288
-24 8 9 -17.3957 -0.2681
-24 8 10 22.9866 0.5324
-24 8 11 -3.2004 -0.2745
-24 8 12 1.6236 0.0178
-24 8 13 -5.8729 0.0200
-24 8 14 12.3807 -0.2461
-24 8 15 4.9281 0.7241
-24 10 1 -8.9850 0.8372
-24 10 2 5.7917 -0.7002
-24 10 3 -6.3013 0.2658
-24 10 4 -9.0489 0.2359
-24 10 5 -3.7771 -0.4328
-24 10 6 11.9800 0.2497
-24 10 7 6.5605 -0.2216
-24 10 8 13.7445 0.0368
-24 10 9 -1.5022 0.3241
-24 10 10 -8.6116 -0.5913
-24 10 11 -6.1067 0.7376
-24 10 12 -5.5387 -0.6812
-24 10 13 -7.9386 0.6161
-24 10 14 2.9546 0.4326
-24 12 1 -1.1395 -0.4205
-24 12 2 16.2672 0.4438
-24 12 3 -14.0848 -0.3346
-24 12 4 -18.7501 0.0170
-24 12 5 14.2152 0.2295
-24 12 6 -1.1753 -0.1555
-24 12 7 20.4726 -0.0296
-24 12 8 15.5544 0.2012
-24 12 9 18.9054 -0.3596
-24 12 10 -2.7489 0.3674
-24 12 11 3.8388 -0.2418
-24 12 12 -0.4629 -0.1884
-24 14 1 0.8371 0.0930
-24 14 2 7.4119 -0.0725
-24 14 3 -13.2689 0.0590
-24 14 4 -24.3271 0.0695
-24 14 5 -2.5530 -0.1296
-24 14 6 17.9653 -0.0260
-24 14 7 35.2179 0.2706
-24 14 8 12.2194 -0.2049
-24 14 9 12.3569 0.0264
-24 14 10 -0.9621 0.1467
-24 16 1 8.4113 0.2782
-24 16 2 -1.2223 -0.2351
-24 16 3 -5.9342 0.1521
-24 16 4 -3.0872 -0.1082
-24 16 5 13.9863 0.1203
-24 16 6 -13.2020 -0.1211
-24 16 7 7.1799 0.0000
-23 1 1 -2.2763 2.4473
-23 1 2 4.8858 -3.2568
-23 1 3 3.7667 0.9644
-23 1 4 -5.7337 1.1591
-23 1 5 9.3364 -1.5416
-23 1 6 4.4560 1.4182
-23 1 7 1.8843 -0.9883
-23 1 8 -15.1082 -0.5816
-23 1 9 -3.5880 2.2175
-23 1 10 2.8594 -2.7241
-23 1 11 -7.1451 2.8446
-23 1 12 -8.3562 -2.4342
-23 1 13 14.9445 1.3180
-23 1 14 -13.3854 0.1218
-23 1 15 2.6236 -0.6695
-23 1 16 -0.5380 0.7902
-23 1 17 10.3310 -0.2696
-23 3 1 0.6096 -1.7337
-23 3 2 -4.2252 1.6372
-23 3 3 -5.8977 -1.2140
-23 3 4 -0.9358 0.2130
-23 3 5 -4.6472 0.7799
-23 3 6 -10.2393 -0.8023
-23 3 7 2.9094 -0.0062
-23 3 8 -16.6919 0.9768
-23 3 9 3.0663 -1.7284
-23 3 10 -10.5195 2.1764
-23 3 11 7.2383 -2.2957
-23 3 12 -10.9888 1.8669
-23 3 13 5.0952 -1.1610
-23 3 14 -5.9594 0.3837
-23 3 15 -2.3416 -0.0034
-23 3 16 9.4709 0.1601
-23 3 17 9.2874 -0.1805
-23 5 1 -4.7526 0.6978
-23 5 2 -3.1053 -0.7261
-23 5 3 7.9074 0.8669
-23 5 4 -2.4467 -0.0469
-23 5 5 -4.9778 -0.9392
-23 5 6 -2.1342 0.7055
-23 5 7 -13.2311 0.1272
-23 5 8 -8.2198 -0.5173
-23 5 9 -0.9705 0.7480
-23 5 10 3.3541 -1.1421
-23 5 11 3.2994 1.0537
-23 5 12 8.5773 -0.5204
-23 5 13 9.9829 0.4181
-23 5 14 -0.2723 -0.5867
-23 5 15 -7.7639 -0.0407
-23 5 16 4.3443 0.6171
-23 5 17 -0.4202 -0.2932
-23 7 1 -5.9780 -0.1894
-23 7 2 -1.3696 -0.1121
-23 7 3 -6.2561 0.3371
-23 7 4 -3.5837 -0.4019
-23 7 5 6.0559 0.4851
-23 7 6 -6.9162 -0.6043
-23 7 7 -4.8854 0.4751
-23 7 8 -0.4576 -0.1276
-23 7 9 1.9796 0.1214
-23 7 10 3.7847 -0.1976
-23 7 11 1.7694 0.0135
-23 7 12 3.7405 0.0091
-23 7 13 9.1395 0.2938
-23 7 14 -7.7485 -0.2517
-23 7 15 0.2992 -0.0977
-23 7 16 -17.8001 0.5490
-23 9 1 -11.7145 -0.2400
-23 9 2 -5.1918 0.2741
-23 9 3 -4.7088 -0.2817
-23 9 4 -0.2114 0.3198
-23 9 5 -7.7767 -0.4063
-23 9 6 -4.8031 0.4761
-23 9 7 -5.7318 -0.4848
-23 9 8 -10.2371 0.3104
-23 9 9 -4.9479 -0.3465
-23 9 10 3.1368 0.6626
-23 9 11 -8.2048 -0.8951
-23 9 12 -2.7694 0.7589
-23 9 13 12.5368 -0.4396
-23 9 14 -7.4727 0.2920
-23 9 15 8.3661 0.4315
-23 11 1 -4.0362 -0.0491
-23 11 2 -9.2374 -0.0794
-23 11 3 16.1814 0.2113
-23 11 4 -9.0931 -0.1485
-23 11 5 3.8940 -0.1289
-23 11 6 -15.5915 0.3089
-23 11 7 9.5955 -0.0969
-23 11 8 6.5065 -0.1524
-23 11 9 18.7206 0.3199
-23 11 10 2.8301 -0.5035
-23 11 11 4.7184 0.6826
-23 11 12 7.3483 -0.2587
-23 11 13 -14.2046 -0.3746
-23 11 14 -6.2195 -0.6014
-23 13 1 9.0439 -0.0003
-23 13 2 16.8299 -0.0709
-23 13 3 14.3907 0.1848
-23 13 4 14.4618 -0.3165
-23 13 5 -3.8849 0.5395
-23 13 6 -18.5256 -0.6323
-23 13 7 -1.9580 0.4525
-23 13 8 1.5636 -0.2000
-23 13 9 5.6712 -0.0034
-23 13 10 -8.0079 0.0735
-23 13 11 0.1071 -0.4463
-23 13 12 2.4900 0.3326
-23 15 1 -8.0112 -0.0396
-23 15 2 -14.1323 0.1128
-23 15 3 16.8556 -0.2408
-23 15 4 14.8256 0.3112
-23 15 5 -4.8547 -0.5586
-23 15 6 -22.1170 0.7632
-23 15 7 0.9330 -0.7109
-23 15 8 -3.7377 0.4264
-23 15 9 -6.8437 0.0796
-23 17 1 -0.9936 -0.1941
-23 17 2 0.2538 0.0539
-23 17 3 -5.3541 0.0565
-23 17 4 4.4883 -0.0798
-23 17 5 20.4765 0.2414
-22 0 1 -0.7834 4.7862
-22 0 2 1.7550 1.1501
-22 0 3 -3.8032 -5.0280
-22 0 4 -4.1446 7.7300
-22 0 5 2.4868 -10.1494
-22 0 6 -11.7627 10.0908
-22 0 7 -2.7333 -7.8482
-22 0 8 1.1141 4.9451
-22 0 9 11.2267 -2.1373
-22 0 10 0.4998 -0.1723
-22 0 11 -2.6021 0.5726
-22 0 12 -17.1968 0.8752
-22 0 13 4.0510 -3.2468
-22 0 14 7.2157 5.1227
-22 0 15 -5.1035 -6.6695
-22 0 16 -2.5466 6.7947
-22 0 17 0.0776 -5.3976
-22 0 18 9.7925 3.3184
-22 2 1 7.9392 -1.9935
-22 2 2 -1.5260 0.7559
-22 2 3 7.9100 1.5414
-22 2 4 6.5713 -2.2849
-22 2 5 1.3802 1.4453
-22 2 6 -1.2624 -1.0398
-22 2 7 1.9481 1.2446
-22 2 8 8.1318 -1.0861
-22 2 9 2.6534 0.6859
-22 2 10 1.4448 -0.5875
-22 2 11 6.2304 0.5490
-22 2 12 -2.5707 -0.4269
-22 2 13 14.8848 0.6898
-22 2 14 3.8509 -0.9492
-22 2 15 9.8194 1.0684
-22 2 16 -1.7522 -1.4650
-22 2 17 -6.0667 1.1660
-22 2 18 9.1481 -0.0556
-22 4 1 -1.6027 1.1620
-22 4 2 -9.7763 -0.4415
-22 4 3 -4.7465 -0.2089
-22 4 4 -5.5990 -0.0479
-22 4 5 -18.6306 0.8833
-22 4 6 -4.3674 -1.0143
-22 4 7 6.0639 0.7255
-22 4 8 0.9629 -0.4201
-22 4 9 5.3373 0.1070
-22 4 10 6.4716 0.1969
-22 4 11 5.3189 -0.1546
-22 4 12 -5.9404 -0.2209
-22 4 13 -19.7551 0.3220
-22 4 14 -4.7681 -0.0538
-22 4 15 -12.8065 0.2586
-22 4 16 -2.3447 -0.7153
-22 4 17 -12.0430 0.6643
-22 6 1 9.2159 -0.1446
-22 6 2 3.4453 0.0541
-22 6 3 2.4475 -0.5461
-22 6 4 -0.3796 0.8147
-22 6 5 -6.5619 -1.1064
-22 6 6 -13.2672 1.6439
-22 6 7 -12.3454 -1.7474
-22 6 8 -1.7759 0.9548
-22 6 9 5.1831 -0.2123
-22 6 10 -7.4818 0.1314
-22 6 11 10.6408 0.0073
-22 6 12 -7.2014 -0.0325
-22 6 13 1.1252 -0.5909
-22 6 14 -3.6710 0.9993
-22 6 15 13.3649 -0.5173
-22 6 16 -17.4166 0.1418
-22 6 17 -2.4695 -0.5695
-22 8 1 5.5517 -0.4764
-22 8 2 11.0895 0.5610
-22 8 3 -0.3709 -0.0661
-22 8 4 24.3583 -0.6283
-22 8 5 8.6938 1.0930
-22 8 6 -10.6053 -1.2953
-22 8 7 -0.1226 1.0921
-22 8 8 -3.1933 -0.5170
-22 8 9 -3.2873 -0.1963
-22 8 10 -6.6661 0.3324
-22 8 11 -2.4842 -0.0783
-22 8 12 6.7323 0.0201
-22 8 13 -2.1462 0.0392
-22 8 14 10.6199 -0.3722
-22 8 15 5.9079 0.5072
-22 8 16 3.4348 -0.3666
-22 10 1 -9.1130 0.9908
-22 10 2 0.9970 -0.8038
-22 10 3 -2.6473 0.2241
-22 10 4 2.0851 0.3287
-22 10 5 8.9246 -0.4557
-22 10 6 6.5277 0.4195
-22 10 7 6.8778 -0.2648
-22 10 8 8.2617 0.0156
-22 10 9 2.3023 0.4112
-22 10 10 -7.2116 -0.6852
-22 10 11 -9.1374 0.5267
-22 10 12 -5.4726 -0.4306
-22 10 13 -7.4618 0.3429
-22 10 14 2.2608 -0.1255
-22 10 15 16.6192 -0.8563
-22 12 1 6.0992 -0.6685
-22 12 2 -0.5676 0.6594
-22 12 3 -18.0749 -0.4223
-22 12 4 -9.1172 0.0159
-22 12 5 10.7492 0.1521
-22 12 6 -12.1014 -0.0039
-22 12 7 -2.4485 -0.2681
-22 12 8 -10.5439 0.4617
-22 12 9 14.0296 -0.4666
-22 12 10 -4.4037 0.6022
-22 12 11 0.8096 -0.5242
-22 12 12 3.1182 0.3639
-22 12 13 -6.5327 0.0027
-22 14 1 -1.3349 0.2091
-22 14 2 -10.7130 -0.1446
-22 14 3 -9.9680 0.0596
-22 14 4 -17.2462 0.1117
-22 14 5 -1.8961 -0.1361
-22 14 6 10.7989 -0.1352
-22 14 7 0.5484 0.3315
-22 14 8 -5.7444 -0.4133
-22 14 9 -17.3273 0.1317
-22 14 10 -5.1481 0.0224
-22 14 11 -8.1125 -0.1398
-22 16 1 3.3607 0.2827
-22 16 2 3.8436 -0.3590
-22 16 3 1.7933 0.3575
-22 16 4 1.4875 -0.2874
-22 16 5 -4.3949 0.1329
-22 16 6 8.5899 0.0564
-22 16 7 -4.0426 0.0154
-22 16 8 -1.2908 -0.0135
-21 1 1 1.2340 2.5453
-21 1 2 20.1659 -3.3712
-21 1 3 0.3064 1.0534
-21 1 4 0.7560 1.1602
-21 1 5 2.0536 -1.5233
-21 1 6 4.9966 1.3746
-21 1 7 -7.2955 -0.8747
-21 1 8 1.8291 -0.7008
-21 1 9 12.1237 2.3434
-21 1 10 1.0560 -3.0716
-21 1 11 -11.3153 3.0600
-21 1 12 -14.8741 -2.4916
-21 1 13 -7.5580 1.0905
-21 1 14 0.4619 0.1527
-21 1 15 -4.1785 -1.0481
-21 1 16 3.3635 0.9221
-21 1 17 -6.2928 -0.5013
-21 1 18 -3.0316 -0.2550
-21 3 1 4.4857 -1.8091
-21 3 2 0.8211 1.6519
-21 3 3 -3.3291 -1.3107
-21 3 4 -10.0586 0.3146
-21 3 5 -2.2772 0.6648
-21 3 6 -4.3350 -0.7099
-21 3 7 -12.4312 -0.1495
-21 3 8 -0.1122 1.2166
-21 3 9 -3.2171 -1.8828
-21 3 10 3.6192 2.2884
-21 3 11 2.6249 -2.4265
-21 3 12 12.2391 2.0442
-21 3 13 1.3527 -1.1378
-21 3 14 -7.8558 0.2030
-21 3 15 4.6621 0.3296
-21 3 16 -2.0467 0.2444
-21 3 17 -7.7325 -0.6133
-21 3 18 -2.9510 -0.5341
-21 5 1 -13.4083 0.6249
-21 5 2 7.5406 -0.5515
-21 5 3 3.2912 0.7745
-21 5 4 -2.0749 -0.0545
-21 5 5 -8.5407 -0.8564
-21 5 6 12.8125 0.5246
-21 5 7 3.4402 0.3110
-21 5 8 -14.4050 -0.6740
-21 5 9 -3.2492 0.8345
-21 5 10 -2.0133 -1.1735
-21 5 11 14.5659 1.2001
-21 5 12 4.1530 -0.7096
-21 5 13 -5.6633 0.4857
-21 5 14 -2.2197 -0.5242
-21 5 15 -0.2668 0.1498
-21 5 16 2.3018 0.5319
-21 5 17 -3.6761 -0.2093
-21 7 1 6.5392 -0.0755
-21 7 2 2.3461 -0.1869
-21 7 3 3.7088 0.2558
-21 7 4 -7.8845 -0.3308
-21 7 5 -6.8672 0.5212
-21 7 6 -5.2528 -0.5848
-21 7 7 -8.6723 0.4054
-21 7 8 -7.2845 -0.0918
-21 7 9 -13.1837 0.0541
-21 7 10 -2.0128 -0.2082
-21 7 11 -2.5823 0.0374
-21 7 12 8.4205 -0.0177
-21 7 13 0.2444 0.3285
-21 7 14 -4.7247 -0.3571
-21 7 15 2.0003 -0.1246
-21 7 16 0.6923 -0.0062
-21 7 17 -1.0636 0.3277
-21 9 1 -19.4221 -0.2781
-21 9 2 -10.8115 0.3813
-21 9 3 0.5313 -0.3034
-21 9 4 0.7334 0.2943
-21 9 5 -4.8170 -0.3344
-21 9 6 6.1256 0.3435
-21 9 7 9.0584 -0.3198
-21 9 8 -7.7237 0.2767
-21 9 9 -2.5857 -0.3598
-21 9 10 -6.6583 0.7385
-21 9 11 4.7123 -0.8444
-21 9 12 -1.9048 0.6249
-21 9 13 1.2005 -0.3437
-21 9 14 -1.0156 0.1475
-21 9 15 4.0427 0.0534
-21 9 16 29.7123 -0.5042
-21 11 1 -11.7767 0.0467
-21 11 2 -5.5508 -0.2417
-21 11 3 -0.2098 0.2627
-21 11 4 -6.1154 -0.0710
-21 11 5 -25.2756 -0.2399
-21 11 6 -2.4534 0.2524
-21 11 7 27.5353 0.0393
-21 11 8 10.1514 -0.2640
-21 11 9 -2.7102 0.3612
-21 11 10 -0.6869 -0.6825
-21 11 11 -12.0618 0.8292
-21 11 12 -8.7272 -0.7431
-21 11 13 1.1811 0.2478
-21 11 14 -7.4062 0.3329
-21 13 1 1.6155 0.0961
-21 13 2 23.9490 -0.1281
-21 13 3 12.7371 0.1427
-21 13 4 -14.9837 -0.2613
-21 13 5 -18.4702 0.5494
-21 13 6 -33.1587 -0.7138
-21 13 7 4.4711 0.5290
-21 13 8 4.7773 -0.2147
-21 13 9 11.5777 -0.0552
-21 13 10 -2.3594 0.3331
-21 13 11 6.5090 -0.2064
-21 13 12 1.1280 0.2210
-21 13 13 -6.7814 -0.0066
-21 15 1 -9.6678 -0.0039
-21 15 2 -23.7747 0.1215
-21 15 3 6.5489 -0.2612
-21 15 4 -16.2915 0.3825
-21 15 5 -11.8712 -0.4666
-21 15 6 7.7129 0.6499
-21 15 7 6.2144 -0.6761
-21 15 8 -17.7668 0.4822
-21 15 9 -1.6925 -0.1689
-21 15 10 4.7944 -0.3415
-21 17 1 26.1786 -0.1320
-21 17 2 -2.9122 0.1349
-21 17 3 -7.9228 -0.0672
-21 17 4 -3.9300 -0.1283
-21 17 5 -21.7160 0.3022
-21 17 6 11.6118 -0.4196
-21 17 7 -11.1662 0.3109
-20 0 1 10.1782 7.1703
-20 0 2 0.7185 -0.0325
-20 0 3 11.5353 -4.2291
-20 0 4 -4.8981 7.1831
-20 0 5 18.8738 -9.2981
-20 0 6 4.8371 9.2874
-20 0 7 8.9796 -6.7266
-20 0 8 -13.1003 3.6790
-20 0 9 5.9937 -0.7781
-20 0 10 3.7160 -1.3620
-20 0 11 13.9306 1.7198
-20 0 12 -1.7613 -0.1252
-20 0 13 10.0404 -2.0036
-20 0 14 -3.8178 4.3518
-20 0 15 -10.8504 -5.6123
-20 0 16 1.5942 5.7933
-20 0 17 9.4412 -4.7909
-20 0 18 -2.9032 2.7267
-20 2 1 1.3415 -2.1343
-20 2 2 1.4442 0.9455
-20 2 3 0.9210 1.3574
-20 2 4 -6.2721 -2.1910
-20 2 5 4.5859 1.3567
-20 2 6 -1.6550 -0.8792
-20 2 7 -10.5684 1.0944
-20 2 8 -3.0547 -0.9596
-20 2 9 -7.4412 0.5215
-20 2 10 4.6590 -0.3327
-20 2 11 -2.4401 0.3439
-20 2 12 4.1797 -0.3407
-20 2 13 7.0811 0.4535
-20 2 14 0.8576 -0.6623
-20 2 15 3.1813 0.9552
-20 2 16 3.3113 -1.0151
-20 2 17 3.3803 0.9831
-20 2 18 -10.4333 -0.3693
-20 4 1 5.6909 1.1584
-20 4 2 1.4197 -0.5433
-20 4 3 1.6975 -0.2423
-20 4 4 -5.1701 0.0653
-20 4 5 15.4138 0.6760
-20 4 6 -8.2582 -0.9964
-20 4 7 1.3555 0.6647
-20 4 8 6.1354 -0.3408
-20 4 9 8.2832 -0.0898
-20 4 10 -6.2474 0.4532
-20 4 11 0.1118 -0.3449
-20 4 12 -0.2340 -0.1130
-20 4 13 -18.6747 0.2128
-20 4 14 2.7906 -0.1223
-20 4 15 -9.2325 -0.0540
-20 4 16 -10.2163 -0.6166
-20 4 17 -10.6348 0.8119
-20 4 18 -13.8728 0.6737
-20 6 1 8.2729 -0.0548
-20 6 2 2.4867 -0.0807
-20 6 3 -1.0707 -0.3513
-20 6 4 -9.3025 0.6808
-20 6 5 14.3145 -0.9359
-20 6 6 -6.7241 1.5104
-20 6 7 -5.8234 -1.5240
-20 6 8 2.5291 0.6731
-20 6 9 1.9644 0.1064
-20 6 10 -7.9080 -0.2385
-20 6 11 2.5490 0.1744
-20 6 12 -0.2467 -0.1175
-20 6 13 9.9132 -0.2950
-20 6 14 15.6160 0.9518
-20 6 15 17.4265 -0.8054
-20 6 16 -1.0143 0.3772
-20 6 17 3.4246 -0.5029
-20 8 1 3.4188 -0.5012
-20 8 2 6.5261 0.5745
-20 8 3 -5.0319 -0.0307
-20 8 4 -8.3837 -0.6037
-20 8 5 9.5055 0.9929
-20 8 6 6.8274 -1.1664
-20 8 7 -0.4049 1.0509
-20 8 8 15.2940 -0.4295
-20 8 9 -11.8198 -0.2670
-20 8 10 3.2135 0.5361
-20 8 11 -4.5040 -0.3298
-20 8 12 15.5516 0.1273
-20 8 13 2.4295 -0.0405
-20 8 14 -3.7331 -0.2840
-20 8 15 -4.5816 0.7040
-20 8 16 -2.9709 -0.3919
-20 10 1 6.3836 0.8627
-20 10 2 -21.0538 -0.7824
-20 10 3 -2.2919 0.1689
-20 10 4 -5.4984 0.3215
-20 10 5 8.9429 -0.5263
-20 10 6 -8.1284 0.5589
-20 10 7 3.1489 -0.5083
-20 10 8 -9.5964 0.1341
-20 10 9 5.2295 0.3483
-20 10 10 -2.4195 -0.5729
-20 10 11 23.8028 0.5372
-20 10 12 -12.5379 -0.1870
-20 10 13 5.1011 -0.0087
-20 10 14 -7.6785 -0.0944
-20 10 15 20.9258 -0.1534
-20 12 1 -14.8879 -0.6238
-20 12 2 -0.5745 0.6494
-20 12 3 -16.2882 -0.2447
-20 12 4 1.5179 -0.1358
-20 12 5 1.6129 0.2688
-20 12 6 -20.4601 -0.0932
-20 12 7 -12.9359 -0.1636
-20 12 8 -11.7868 0.2657
-20 12 9 -4.0330 -0.3853
-20 12 10 1.0649 0.3937
-20 12 11 3.4089 -0.5506
-20 12 12 -2.7682 0.3766
-20 12 13 1.8383 -0.1760
-20 12 14 -6.9108 0.0704
-20 14 1 -23.3479 0.0868
-20 14 2 11.1119 -0.0738
-20 14 3 -7.3128 -0.0100
-20 14 4 -6.4142 0.0700
-20 14 5 20.0854 -0.1251
-20 14 6 8.3183 0.0395
-20 14 7 4.0243 0.2386
-20 14 8 -4.3555 -0.2415
-20 14 9 -10.5816 0.2377
-20 14 10 -2.7108 0.0038
-20 14 11 0.7733 -0.0899
-20 14 12 -1.9815 0.2355
-20 16 1 -2.1938 0.2040
-20 16 2 -17.3689 -0.2866
-20 16 3 4.0690 0.3377
-20 16 4 -1.6823 -0.1909
-20 16 5 13.4826 -0.0777
-20 16 6 15.6883 0.1466
-20 16 7 9.5798 -0.1543
-20 16 8 -5.2325 -0.0276
-20 16 9 7.6050 0.0741
-20 18 1 -5.1156 -0.3990
-20 18 2 -6.4983 0.3289
-20 18 3 -15.4177 -0.2425
-20 18 4 1.6258 0.1770
-20 18 5 -0.3612 -0.0279
-19 1 1 -12.4805 1.1664
-19 1 2 -16.0416 -2.9454
-19 1 3 12.4386 0.5661
-19 1 4 7.5977 1.8234
-19 1 5 -6.8752 -2.2836
-19 1 6 -7.1075 2.0241
-19 1 7 -11.1664 -1.4097
-19 1 8 17.8608 -0.0818
-19 1 9 -7.0641 1.7740
-19 1 10 2.7512 -2.5772
-19 1 11 -8.8204 2.5038
-19 1 12 -11.1704 -1.8434
-19 1 13 4.4443 0.6314
-19 1 14 9.0850 0.7608
-19 1 15 4.0863 -1.4130
-19 1 16 3.0907 1.5620
-19 1 17 -8.7158 -0.6561
-19 1 18 9.3554 -0.0611
-19 3 1 -7.7979 -1.3133
-19 3 2 -5.9498 1.4048
-19 3 3 11.4793 -0.6837
-19 3 4 5.0761 -0.4442
-19 3 5 -3.0773 1.4052
-19 3 6 -10.8621 -1.3548
-19 3 7 1.6525 0.3908
-19 3 8 1.1047 0.5668
-19 3 9 13.5136 -1.2652
-19 3 10 -1.0015 1.6701
-19 3 11 0.3436 -1.7488
-19 3 12 8.6105 1.4003
-19 3 13 -1.4335 -0.5923
-19 3 14 5.4511 -0.3558
-19 3 15 -6.7270 0.8679
-19 3 16 5.7874 -0.8004
-19 3 17 -3.9373 0.1266
-19 3 18 18.0353 0.0659
-19 5 1 -2.7869 0.5009
-19 5 2 -15.1033 -0.4220
-19 5 3 15.8248 0.4804
-19 5 4 3.4352 0.2006
-19 5 5 -6.4532 -1.1058
-19 5 6 0.2506 0.9038
-19 5 7 -8.6830 -0.0291
-19 5 8 20.3552 -0.2749
-19 5 9 -7.0507 0.5212
-19 5 10 10.1906 -0.9865
-19 5 11 0.8073 1.0240
-19 5 12 6.1150 -0.5151
-19 5 13 -12.4827 0.0993
-19 5 14 3.3304 -0.1021
-19 5 15 -1.3852 -0.0903
-19 5 16 4.1178 0.5560
-19 5 17 -0.9086 -0.6238
-19 5 18 6.3471 -0.8158
-19 7 1 -20.9332 -0.1426
-19 7 2 11.0553 0.0113
-19 7 3 -2.6830 0.1278
-19 7 4 -6.7799 -0.1956
-19 7 5 -8.9225 0.3681
-19 7 6 -5.3617 -0.4961
-19 7 7 5.8745 0.1740
-19 7 8 -4.2056 0.1895
-19 7 9 3.6215 -0.1697
-19 7 10 8.2564 -0.0125
-19 7 11 2.6517 -0.0293
-19 7 12 6.5780 0.1463
-19 7 13 6.2126 0.0675
-19 7 14 0.6972 -0.2359
-19 7 15 -7.3918 0.1831
-19 7 16 2.7992 0.0744
-19 7 17 3.4814 0.2501
-19 9 1 -3.8693 -0.1232
-19 9 2 -8.4031 0.1468
-19 9 3 3.0639 -0.1938
-19 9 4 2.9786 0.0955
-19 9 5 0.3605 -0.0356
-19 9 6 -0.5961 0.0612
-19 9 7 -17.1153 -0.0190
-19 9 8 -5.7632 -0.0541
-19 9 9 -8.9095 -0.0918
-19 9 10 13.9998 0.3679
-19 9 11 -3.9448 -0.5436
-19 9 12 -2.9623 0.2807
-19 9 13 -1.8539 0.0134
-19 9 14 -0.7478 -0.0002
-19 9 15 10.9984 -0.1285
-19 9 16 6.3476 -0.3591
-19 11 1 -0.7038 0.0850
-19 11 2 -4.6765 -0.1230
-19 11 3 -6.5216 0.1313
-19 11 4 -0.2582 0.1412
-19 11 5 4.6290 -0.3396
-19 11 6 11.2722 0.3038
-19 11 7 9.5932 -0.1423
-19 11 8 12.4163 0.0162
-19 11 9 15.9504 0.2262
-19 11 10 2.4791 -0.5034
-19 11 11 1.8960 0.7075
-19 11 12 -7.5046 -0.4936
-19 11 13 2.5774 0.1584
-19 11 14 -0.1424 0.2096
-19 11 15 -12.4737 -0.2493
-19 13 1 2.3632 -0.1089
-19 13 2 24.4408 0.0435
-19 13 3 -23.1821 0.0362
-19 13 4 -8.7827 -0.2686
-19 13 5 3.2878 0.4724
-19 13 6 9.3001 -0.5684
-19 13 7 9.5138 0.4612
-19 13 8 12.8135 -0.1174
-19 13 9 4.4575 -0.2554
-19 13 10 4.5486 0.4266
-19 13 11 5.1753 -0.4910
-19 13 12 2.5799 0.2017
-19 13 13 2.2452 -0.0816
-19 15 1 5.2559 0.2274
-19 15 2 -1.9457 -0.1522
-19 15 3 -9.0054 -0.0930
-19 15 4 -12.6775 0.3082
-19 15 5 19.0780 -0.3407
-19 15 6 9.0773 0.3949
-19 15 7 -6.9426 -0.4588
-19 15 8 11.2448 0.1869
-19 15 9 -42.3894 0.1324
-19 15 10 5.9821 -0.2738
-19 15 11 -12.2462 0.5466
-19 17 1 10.1207 -0.2038
-19 17 2 5.7107 0.1620
-19 17 3 -7.1212 -0.0370
-19 17 4 -8.7411 -0.1167
-19 17 5 14.0919 0.2143
-19 17 6 -31.6421 -0.2657
-19 17 7 -3.9229 0.2911
-19 17 8 -1.6697 -0.1100
-18 0 1 5.3529 12.2308
-18 0 2 14.6741 -3.2510
-18 0 3 -0.9431 -1.1377
-18 0 4 -16.4947 3.6446
-18 0 5 35.0907 -5.8034
-18 0 6 5.1648 5.3382
-18 0 7 9.4739 -2.8781
-18 0 8 41.4342 -0.2439
-18 0 9 3.3037 3.0610
-18 0 10 5.0013 -5.0617
-18 0 11 1.5270 5.0420
-18 0 12 5.6623 -3.2718
-18 0 13 -11.7278 0.8170
-18 0 14 -11.4698 1.2581
-18 0 15 -11.6997 -3.1790
-18 0 16 -0.8172 3.4345
-18 0 17 18.0712 -2.3775
-18 0 18 29.1269 0.5322
-18 0 19 14.9452 2.2946
-18 2 1 -8.4629 -2.3304
-18 2 2 32.0622 1.3836
-18 2 3 -18.9575 0.5709
-18 2 4 -3.4327 -1.3447
-18 2 5 -18.5627 0.6494
-18 2 6 22.7861 -0.1007
-18 2 7 -9.8894 0.2254
-18 2 8 9.7165 -0.1065
-18 2 9 4.2279 -0.2353
-18 2 10 -8.1988 0.3371
-18 2 11 2.9709 -0.3463
-18 2 12 -1.0488 0.2719
-18 2 13 0.4187 -0.1358
-18 2 14 -12.4197 -0.0809
-18 2 15 -19.2547 0.1173
-18 2 16 18.0962 -0.3205
-18 2 17 5.3737 0.1539
-18 2 18 13.5476 0.0624
-18 2 19 14.9219 0.6229
-18 4 1 22.4132 0.7791
-18 4 2 11.1070 -0.4300
-18 4 3 0.1203 -0.4552
-18 4 4 -24.3898 0.4313
-18 4 5 13.6227 0.4459
-18 4 6 4.8846 -0.7628
-18 4 7 6.8568 0.4598
-18 4 8 -0.1329 -0.0436
-18 4 9 -3.6967 -0.3533
-18 4 10 -2.1701 0.8268
-18 4 11 -11.8450 -0.7860
-18 4 12 12.3279 0.2829
-18 4 13 10.0936 0.1591
-18 4 14 -14.4861 0.0620
-18 4 15 3.7759 0.0984
-18 4 16 -3.1502 -0.1716
-18 4 17 3.6479 0.3836
-18 4 18 0.9508 -0.0537
-18 6 1 6.8017 0.2144
-18 6 2 17.2697 -0.3245
-18 6 3 -14.3903 0.1116
-18 6 4 2.8773 0.1244
-18 6 5 -2.3522 -0.5044
-18 6 6 11.2687 0.9868
-18 6 7 -1.7357 -0.8730
-18 6 8 5.9069 -0.0937
-18 6 9 -1.7143 0.7976
-18 6 10 -0.0816 -0.8576
-18 6 11 0.5153 0.7689
-18 6 12 -9.6201 -0.6081
-18 6 13 -4.1854 0.1746
-18 6 14 2.6093 0.1274
-18 6 15 -15.2552 -0.4424
-18 6 16 7.5402 0.3227
-18 6 17 -6.4424 -0.1272
-18 6 18 -7.4033 0.4027
-18 8 1 -13.2005 -0.6007
-18 8 2 -3.7847 0.5034
-18 8 3 -21.7839 -0.0858
-18 8 4 1.0201 -0.4107
-18 8 5 -10.3489 0.7142
-18 8 6 3.9323 -0.9009
-18 8 7 12.5000 0.8025
-18 8 8 -6.7802 -0.2206
-18 8 9 -13.0751 -0.5707
-18 8 10 -9.8581 0.9042
-18 8 11 -8.5992 -0.6355
-18 8 12 3.0059 0.2442
-18 8 13 8.1302 -0.1224
-18 8 14 -8.4292 -0.0547
-18 8 15 2.5548 0.3014
-18 8 16 -3.3645 -0.4573
-18 8 17 9.4498 0.2571
-18 10 1 -2.4766 0.6250
-18 10 2 -4.1882 -0.4240
-18 10 3 -4.1067 0.0298
-18 10 4 4.0796 0.4084
-18 10 5 -3.2664 -0.6310
-18 10 6 -6.6243 0.7124
-18 10 7 -16.5139 -0.5216
-18 10 8 -14.3708 0.1353
-18 10 9 -20.9208 0.2958
-18 10 10 -5.2994 -0.5060
-18 10 11 3.1985 0.3008
-18 10 12 3.1748 -0.0514
-18 10 13 1.8978 -0.0444
-18 10 14 22.4712 0.1098
-18 10 15 7.6866 -0.0383
-18 10 16 6.5327 0.5580
-18 12 1 4.6485 -0.3396
-18 12 2 -3.7966 0.2189
-18 12 3 -9.3488 0.0046
-18 12 4 5.3625 -0.3316
-18 12 5 -3.9075 0.4651
-18 12 6 4.1871 -0.3986
-18 12 7 -16.9970 0.2084
-18 12 8 -21.0304 -0.0649
-18 12 9 -15.0105 0.0266
-18 12 10 -3.8952 0.1106
-18 12 11 13.8408 0.0330
-18 12 12 8.7822 -0.0699
-18 12 13 0.0630 0.1309
-18 12 14 -1.5027 -0.1941
-18 12 15 -15.7872 -0.0318
-18 14 1 19.0468 0.1268
-18 14 2 8.2799 -0.0044
-18 14 3 2.9205 -0.0675
-18 14 4 -4.2203 0.1446
-18 14 5 11.0511 -0.1688
-18 14 6 -1.2324 0.0759
-18 14 7 21.7026 0.0425
-18 14 8 8.4253 -0.1131
-18 14 9 -9.3137 -0.0821
-18 14 10 2.0066 0.1118
-18 14 11 30.1030 -0.2848
-18 14 12 -0.4910 0.1736
-18 14 13 -0.4878 -0.0235
-18 16 1 -7.4725 0.0616
-18 16 2 -6.0207 -0.0694
-18 16 3 6.2842 0.0977
-18 16 4 19.9732 -0.0074
-18 16 5 9.1343 -0.1589
-18 16 6 -1.9187 0.2849
-18 16 7 15.7651 -0.2456
-18 16 8 60.3140 0.2150
-18 16 9 -6.5321 0.0312
-18 16 10 25.2942 -0.1477
-18 18 1 -2.2441 -0.2177
-18 18 2 -18.7408 0.1553
-18 18 3 -15.8647 -0.0310
-18 18 4 -0.4806 -0.1567
-18 18 5 15.4242 0.2539
-18 18 6 -6.6165 -0.3427
-17 1 1 2.5924 -0.6523
-17 1 2 -6.4318 -2.3163
-17 1 3 10.2194 0.0443
-17 1 4 10.5859 2.7670
-17 1 5 5.7817 -3.3365
-17 1 6 -21.2366 3.0167
-17 1 7 -3.4994 -2.3101
-17 1 8 10.1534 0.7006
-17 1 9 10.2605 1.0357
-17 1 10 -5.1801 -1.8086
-17 1 11 0.6675 1.8132
-17 1 12 -9.0388 -1.0965
-17 1 13 -17.3072 -0.2627
-17 1 14 1.6156 1.5892
-17 1 15 -2.1710 -2.3149
-17 1 16 -5.6060 2.3252
-17 1 17 -5.5128 -1.2048
-17 1 18 -8.0191 -0.6395
-17 1 19 -2.5094 -0.7085
-17 3 1 -5.3768 -0.5808
-17 3 2 3.1135 0.8876
-17 3 3 18.0076 0.3192
-17 3 4 6.1491 -1.8077
-17 3 5 -7.8589 2.5387
-17 3 6 4.8088 -2.4006
-17 3 7 2.2715 1.6176
-17 3 8 7.4606 -0.5881
-17 3 9 -6.3885 -0.2811
-17 3 10 3.5853 0.7380
-17 3 11 -13.8082 -0.7049
-17 3 12 3.7017 0.4377
-17 3 13 0.0344 0.1691
-17 3 14 -11.0342 -1.2297
-17 3 15 -3.8908 1.8567
-17 3 16 1.9640 -1.6262
-17 3 17 0.6034 0.9552
-17 3 18 12.1056 -0.1346
-17 3 19 2.9826 -0.2526
-17 5 1 -12.1699 0.5472
-17 5 2 7.8723 -0.3142
-17 5 3 -0.4083 0.0335
-17 5 4 9.7285 0.7483
-17 5 5 4.8579 -1.5516
-17 5 6 -12.7164 1.3473
-17 5 7 8.1409 -0.6014
-17 5 8 -9.4648 0.2153
-17 5 9 -11.9983 0.0481
-17 5 10 -7.2029 -0.5479
-17 5 11 1.8843 0.5484
-17 5 12 -11.4276 -0.2058
-17 5 13 -1.3178 -0.1179
-17 5 14 -0.0664 0.5736
-17 5 15 0.6494 -0.7843
-17 5 16 -5.0851 0.6740
-17 5 17 6.9346 -0.5037
-17 5 18 4.2322 0.3811
-17 7 1 2.1606 -0.4979
-17 7 2 -18.7127 0.3210
-17 7 3 -9.0329 -0.1289
-17 7 4 3.8062 -0.0294
-17 7 5 0.9776 0.3273
-17 7 6 5.2766 -0.4123
-17 7 7 8.0620 -0.0633
-17 7 8 -5.6255 0.5396
-17 7 9 -6.6459 -0.4062
-17 7 10 -6.9880 0.1742
-17 7 11 9.5709 -0.2257
-17 7 12 -0.1696 0.4133
-17 7 13 4.6657 -0.3585
-17 7 14 1.7837 0.0737
-17 7 15 5.4760 0.0217
-17 7 16 -4.7306 -0.0870
-17 7 17 0.8444 -0.1572
-17 7 18 5.3405 0.0706
-17 9 1 -12.9648 0.2787
-17 9 2 -0.5279 -0.1033
-17 9 3 -4.7977 0.0719
-17 9 4 3.9481 -0.2152
-17 9 5 -1.7409 0.3777
-17 9 6 2.8998 -0.4085
-17 9 7 9.5921 0.4263
-17 9 8 3.3672 -0.3554
-17 9 9 -1.2137 0.2207
-17 9 10 -6.2825 -0.0696
-17 9 11 -13.5336 -0.0373
-17 9 12 -2.3389 -0.0429
-17 9 13 0.3851 0.3204
-17 9 14 7.7876 -0.3638
-17 9 15 3.7670 0.3793
-17 9 16 -6.6701 -0.3521
-17 9 17 -5.9146 0.4309
-17 11 1 5.9924 0.0986
-17 11 2 10.1650 -0.2112
-17 11 3 6.0913 0.0709
-17 11 4 -5.9579 0.2421
-17 11 5 -4.6109 -0.5786
-17 11 6 1.4860 0.6390
-17 11 7 -2.0675 -0.5473
-17 11 8 -4.7626 0.2863
-17 11 9 7.2965 0.0057
-17 11 10 -3.1019 -0.2886
-17 11 11 -2.5685 0.4247
-17 11 12 -1.3737 -0.2602
-17 11 13 15.3917 -0.2481
-17 11 14 4.6331 0.4102
-17 11 15 3.8512 -0.3400
-17 11 16 -4.0087 -0.0352
-17 13 1 9.5062 -0.4634
-17 13 2 11.8614 0.4155
-17 13 3 -2.6717 -0.1850
-17 13 4 -1.3666 -0.0834
-17 13 5 11.4739 0.3961
-17 13 6 5.1843 -0.4818
-17 13 7 -6.4076 0.3464
-17 13 8 -21.8946 0.0133
-17 13 9 3.9021 -0.4189
-17 13 10 -5.5391 0.6348
-17 13 11 8.7883 -0.6970
-17 13 12 -13.4992 0.5954
-17 13 13 -0.1126 -0.0943
-17 13 14 -6.1838 -0.0261
-17 15 1 19.9274 0.4546
-17 15 2 25.4598 -0.4091
-17 15 3 14.9104 0.1703
-17 15 4 12.8666 0.0593
-17 15 5 1.3622 -0.2409
-17 15 6 0.2045 0.2933
-17 15 7 3.1974 -0.2094
-17 15 8 -12.3298 -0.0801
-17 15 9 1.1590 0.5280
-17 15 10 5.1762 -0.6582
-17 15 11 1.3101 0.5651
-17 15 12 -2.3204 -0.5308
-17 17 1 -9.4465 -0.3114
-17 17 2 -1.1138 0.1592
-17 17 3 -6.3919 -0.0245
-17 17 4 5.7208 -0.0666
-17 17 5 -10.5447 0.1925
-17 17 6 -3.9373 -0.2049
-17 17 7 8.7379 0.1130
-17 17 8 6.7806 -0.0135
-17 17 9 1.4641 -0.2184
-17 19 1 10.6110 0.0487
-17 19 2 -7.8293 0.0929
-17 19 3 -5.4353 -0.1782
-17 19 4 -19.1633 0.1288
-16 0 1 8.7047 16.9907
-16 0 2 -0.4888 -6.3353
-16 0 3 -10.4219 1.6997
-16 0 4 -1.2858 0.0084
-16 0 5 -1.4840 -1.5039
-16 0 6 8.3407 1.5516
-16 0 7 1.8774 1.0256
-16 0 8 -19.4964 -4.0731
-16 0 9 -2.7593 6.9016
-16 0 10 -10.9920 -8.6217
-16 0 11 10.4926 8.4516
-16 0 12 4.7066 -6.5187
-16 0 13 -8.7599 3.7661
-16 0 14 0.0450 -0.7452
-16 0 15 10.0448 -0.7581
-16 0 16 -0.7765 0.9522
-16 0 17 8.0767 0.2750
-16 0 18 -5.8815 -2.0474
-16 0 19 5.6432 4.1619
-16 2 1 5.2370 -2.4782
-16 2 2 -14.9199 1.7877
-16 2 3 14.6819 -0.2324
-16 2 4 -4.0643 -0.3432
-16 2 5 -5.8159 -0.2745
-16 2 6 2.7194 0.7069
-16 2 7 -0.5374 -0.7205
-16 2 8 2.5709 0.8134
-16 2 9 -3.7863 -1.0793
-16 2 10 15.8996 1.1259
-16 2 11 -6.2377 -1.0992
-16 2 12 5.8593 1.0407
-16 2 13 -12.7091 -0.6187
-16 2 14 -5.4910 0.4519
-16 2 15 7.7004 -0.2717
-16 2 16 6.6133 -0.0603
-16 2 17 -18.2232 -0.3191
-16 2 18 -9.1220 1.3712
-16 2 19 -4.6183 -0.1504
-16 4 1 -16.3791 0.2909
-16 4 2 10.0360 -0.2063
-16 4 3 -20.2906 -0.6571
-16 4 4 -2.6712 0.7803
-16 4 5 -8.6545 0.0729
-16 4 6 -7.8134 -0.5956
-16 4 7 3.2134 0.1708
-16 4 8 -3.4862 0.3591
-16 4 9 8.6630 -0.7360
-16 4 10 1.4682 1.0350
-16 4 11 -6.9700 -1.0105
-16 4 12 -11.6767 0.5313
-16 4 13 -1.0117 -0.3111
-16 4 14 1.2723 0.0534
-16 4 15 3.6147 -0.1296
-16 4 16 3.3824 0.0535
-16 4 17 -5.3617 0.1144
-16 4 18 2.5257 -0.5376
-16 4 19 -0.9290 -0.2391
-16 6 1 25.8664 0.5716
-16 6 2 6.2664 -0.6288
-16 6 3 5.8914 0.5433
-16 6 4 5.2506 -0.4134
-16 6 5 -2.8863 -0.0320
-16 6 6 -0.7810 0.5643
-16 6 7 -7.4612 -0.2052
-16 6 8 3.9325 -0.8041
-16 6 9 -4.7504 1.4339
-16 6 10 15.1600 -1.4208
-16 6 11 -18.5446 1.3125
-16 6 12 -11.8058 -1.1058
-16 6 13 -14.8860 0.7168
-16 6 14 4.5103 -0.3040
-16 6 15 -6.4111 0.1345
-16 6 16 2.5052 0.1861
-16 6 17 -2.7974 -0.0535
-16 6 18 5.4331 -0.2960
-16 8 1 -1.6727 -0.5204
-16 8 2 6.7088 0.4009
-16 8 3 5.7628 -0.1269
-16 8 4 7.2386 -0.1725
-16 8 5 -1.9374 0.4055
-16 8 6 -7.5302 -0.4624
-16 8 7 1.1768 0.3652
-16 8 8 -19.1626 0.0539
-16 8 9 0.9306 -0.7706
-16 8 10 -11.5449 1.2158
-16 8 11 -2.8223 -0.9591
-16 8 12 -0.0192 0.4826
-16 8 13 4.7298 -0.1457
-16 8 14 -12.8916 0.0096
-16 8 15 -0.8199 0.2368
-16 8 16 5.4414 -0.1853
-16 8 17 5.1423 0.0532
-16 10 1 7.2845 0.1594
-16 10 2 -4.4664 -0.0276
-16 10 3 14.7455 -0.1717
-16 10 4 2.6256 0.4575
-16 10 5 -8.9712 -0.7665
-16 10 6 1.0203 0.7765
-16 10 7 9.7321 -0.5672
-16 10 8 -5.3555 0.1815
-16 10 9 -3.4163 0.1969
-16 10 10 9.0577 -0.3407
-16 10 11 -14.6863 0.1428
-16 10 12 -5.5434 0.0999
-16 10 13 -2.9869 -0.1433
-16 10 14 -3.2775 0.0431
-16 10 15 -2.5532 -0.5254
-16 10 16 5.0822 0.7286
-16 12 1 0.2183 -0.0242
-16 12 2 -12.2426 -0.1212
-16 12 3 -11.2941 0.2694
-16 12 4 9.8089 -0.4896
-16 12 5 3.2151 0.6951
-16 12 6 9.1771 -0.6642
-16 12 7 8.0922 0.5309
-16 12 8 3.1259 -0.4069
-16 12 9 5.5108 0.3097
-16 12 10 2.9378 -0.2672
-16 12 11 -0.2843 0.2915
-16 12 12 -7.8472 -0.5312
-16 12 13 1.9213 0.4803
-16 12 14 -10.9272 -0.1584
-16 12 15 2.4378 0.2685
-16 14 1 12.2867 0.0915
-16 14 2 -9.5065 0.0556
-16 14 3 -35.7651 -0.0301
-16 14 4 -5.6071 0.0861
-16 14 5 3.9073 -0.1949
-16 14 6 3.4665 0.1491
-16 14 7 14.1184 -0.0240
-16 14 8 -8.0390 0.0966
-16 14 9 8.0093 -0.2568
-16 14 10 -0.5486 0.3693
-16 14 11 0.0924 -0.2496
-16 14 12 -7.6722 0.3817
-16 14 13 3.3155 -0.2408
-16 16 1 17.0139 -0.0871
-16 16 2 -8.7471 0.0709
-16 16 3 0.1398 -0.1838
-16 16 4 8.6712 0.2326
-16 16 5 -10.3173 -0.3027
-16 16 6 -29.7708 0.3561
-16 16 7 -10.4664 -0.3517
-16 16 8 -9.5855 0.2199
-16 16 9 4.0654 -0.0523
-16 16 10 3.2668 -0.2125
-16 16 11 -20.9961 0.1997
-16 18 1 1.6511 0.0606
-16 18 2 -2.9819 0.0237
-16 18 3 -16.5771 0.1422
-16 18 4 -7.8421 -0.3498
-16 18 5 0.6728 0.5232
-16 18 6 -10.5807 -0.6076
-16 18 7 -6.2300 0.5231
-16 18 8 -7.0395 -0.3101
-15 1 1 -1.3639 -1.7451
-15 1 2 22.9086 -1.8180
-15 1 3 17.1275 -0.3783
-15 1 4 5.9442 3.4962
-15 1 5 -5.9314 -4.0990
-15 1 6 14.7260 3.6305
-15 1 7 7.1106 -2.8582
-15 1 8 2.1141 1.1083
-15 1 9 4.9068 0.6533
-15 1 10 3.8959 -1.4092
-15 1 11 3.4483 1.2537
-15 1 12 -4.7017 -0.6258
-15 1 13 -3.6391 -0.7198
-15 1 14 -14.3646 2.0605
-15 1 15 -2.9027 -2.8654
-15 1 16 -3.2817 2.7922
-15 1 17 15.4406 -1.7683
-15 1 18 -3.6349 0.4456
-15 1 19 -0.7150 -0.0741
-15 3 1 8.8689 -0.1571
-15 3 2 12.6735 0.5192
-15 3 3 -5.4722 0.9275
-15 3 4 -3.5153 -2.7827
-15 3 5 1.6754 3.4062
-15 3 6 -2.4136 -3.0537
-15 3 7 13.6547 2.3346
-15 3 8 -10.5199 -1.3103
-15 3 9 -15.2582 0.3635
-15 3 10 -5.5201 0.1251
-15 3 11 -4.0905 -0.1772
-15 3 12 4.3069 -0.1190
-15 3 13 -4.0218 0.8277
-15 3 14 3.5955 -1.7730
-15 3 15 -1.2074 2.3020
-15 3 16 -2.7650 -1.8078
-15 3 17 4.3229 1.2773
-15 3 18 7.4037 -1.1694
-15 3 19 -8.3835 0.2481
-15 5 1 17.8781 0.5478
-15 5 2 3.4241 -0.2204
-15 5 3 -9.8090 -0.1391
-15 5 4 -8.8013 1.1114
-15 5 5 4.9214 -1.8271
-15 5 6 2.7955 1.6441
-15 5 7 5.0806 -1.0106
-15 5 8 2.4347 0.5389
-15 5 9 -9.6275 -0.1373
-15 5 10 -6.2526 -0.2169
-15 5 11 5.9002 0.3412
-15 5 12 -1.1829 0.0068
-15 5 13 0.3829 -0.3528
-15 5 14 -0.5797 0.7694
-15 5 15 -3.3610 -1.0755
-15 5 16 4.5666 0.7816
-15 5 17 0.7192 -0.6189
-15 5 18 25.0534 0.6797
-15 5 19 2.1391 -0.0622
-15 7 1 5.6964 -0.8195
-15 7 2 7.5710 0.5740
-15 7 3 -5.3022 -0.3275
-15 7 4 7.2834 0.0059
-15 7 5 9.8502 0.2554
-15 7 6 -5.3477 -0.3506
-15 7 7 -1.7976 -0.0654
-15 7 8 3.4043 0.6266
-15 7 9 -11.4452 -0.6017
-15 7 10 -4.4214 0.2223
-15 7 11 -1.9829 -0.3272
-15 7 12 12.4373 0.4948
-15 7 13 -1.3306 -0.4472
-15 7 14 -0.2429 0.3105
-15 7 15 4.7386 -0.1711
-15 7 16 0.3699 -0.0474
-15 7 17 5.5158 0.2187
-15 7 18 17.1387 0.4107
-15 9 1 12.1394 0.5017
-15 9 2 -3.3869 -0.3539
-15 9 3 -6.0197 0.2677
-15 9 4 0.4054 -0.3442
-15 9 5 -3.1109 0.6028
-15 9 6 -3.6794 -0.8352
-15 9 7 -1.3074 0.7969
-15 9 8 8.4253 -0.6340
-15 9 9 5.9233 0.4807
-15 9 10 1.3691 -0.3535
-15 9 11 -7.3005 0.2882
-15 9 12 5.0580 -0.3291
-15 9 13 -7.1815 0.4283
-15 9 14 7.8039 -0.5244
-15 9 15 1.2719 0.5740
-15 9 16 2.0899 -0.7603
-15 9 17 -12.7518 0.4180
-15 11 1 2.8155 0.2169
-15 11 2 -6.1523 -0.1756
-15 11 3 -3.7158 0.0036
-15 11 4 -5.0365 0.3262
-15 11 5 -7.2038 -0.5968
-15 11 6 0.2791 0.7886
-15 11 7 -3.6324 -0.6860
-15 11 8 -3.8168 0.4344
-15 11 9 5.3176 -0.1379
-15 11 10 -10.9199 -0.1696
-15 11 11 4.7707 0.3985
-15 11 12 -5.4641 -0.2058
-15 11 13 -7.1840 -0.2863
-15 11 14 2.9222 0.6624
-15 11 15 13.0482 -0.2903
-15 11 16 -8.8519 0.1418
-15 13 1 12.6478 -0.6401
-15 13 2 12.5084 0.5822
-15 13 3 0.5353 -0.4193
-15 13 4 3.1780 0.0125
-15 13 5 -0.2076 0.3609
-15 13 6 6.0035 -0.4965
-15 13 7 -9.4363 0.2210
-15 13 8 -6.4378 0.1501
-15 13 9 -4.2517 -0.4241
-15 13 10 1.2104 0.7024
-15 13 11 0.7220 -0.8636
-15 13 12 -4.2979 0.6868
-15 13 13 -13.8027 -0.1974
-15 13 14 -1.3133 -0.2766
-15 13 15 -4.7803 -0.2798
-15 15 1 13.1113 0.6489
-15 15 2 -1.5648 -0.5729
-15 15 3 -3.6641 0.3347
-15 15 4 -6.6035 -0.0406
-15 15 5 5.0806 -0.1601
-15 15 6 -0.6215 0.2527
-15 15 7 0.0406 -0.0876
-15 15 8 -4.7622 -0.2905
-15 15 9 -0.1159 0.6098
-15 15 10 -2.1042 -0.8213
-15 15 11 -1.0051 0.7774
-15 15 12 1.5305 -0.6537
-15 15 13 2.0610 0.2730
-15 17 1 4.0165 -0.3261
-15 17 2 -26.8486 0.1414
-15 17 3 -6.8235 0.0454
-15 17 4 -7.2999 -0.1069
-15 17 5 -15.6329 0.1535
-15 17 6 -23.4988 -0.1747
-15 17 7 4.3515 0.0889
-15 17 8 11.2437 0.0836
-15 17 9 -2.0494 -0.2970
-15 17 10 -4.7947 0.5216
-15 19 1 16.6810 -0.1268
-15 19 2 -0.4623 0.1939
-15 19 3 2.4513 -0.3006
-15 19 4 -25.6612 0.3091
-15 19 5 -5.0472 -0.2704
-15 19 6 -12.2751 0.2242
-14 0 1 -17.8609 18.2866
-14 0 2 -9.3064 -7.0876
-14 0 3 -0.9441 2.7969
-14 0 4 -2.6176 -0.9611
-14 0 5 -1.8661 -1.1148
-14 0 6 14.2891 0.7052
-14 0 7 -20.9578 2.0447
-14 0 8 15.7138 -5.2703
-14 0 9 -18.5673 7.7783
-14 0 10 1.6917 -9.7362
-14 0 11 -11.8672 9.6741
-14 0 12 -1.9753 -7.0307
-14 0 13 -7.1516 3.8139
-14 0 14 3.9104 -1.7031
-14 0 15 2.4355 -0.3176
-14 0 16 -6.4550 0.6129
-14 0 17 -2.6783 0.6598
-14 0 18 19.1572 -2.4945
-14 0 19 7.7894 4.3750
-14 2 1 -9.6562 -2.5471
-14 2 2 -11.6746 1.8593
-14 2 3 5.0299 -0.4165
-14 2 4 11.3349 -0.1080
-14 2 5 11.9201 -0.3457
-14 2 6 -27.5042 0.7702
-14 2 7 2.6033 -0.8625
-14 2 8 -12.1739 1.1008
-14 2 9 6.4472 -1.2548
-14 2 10 0.3936 1.3301
-14 2 11 -0.4548 -1.3358
-14 2 12 -2.9013 1.0351
-14 2 13 -4.5112 -0.8194
-14 2 14 24.6818 0.7434
-14 2 15 10.4734 -0.4119
-14 2 16 -8.1481 -0.0179
-14 2 17 -3.0770 -0.1877
-14 2 18 -3.7260 0.9337
-14 2 19 4.5305 -1.2028
-14 4 1 -17.1958 0.2278
-14 4 2 -5.2185 -0.1794
-14 4 3 -7.9547 -0.7627
-14 4 4 32.1847 0.8738
-14 4 5 -3.5771 0.0222
-14 4 6 4.0156 -0.4321
-14 4 7 -15.9809 0.0812
-14 4 8 6.5130 0.4058
-14 4 9 1.8610 -0.8016
-14 4 10 12.0897 1.1291
-14 4 11 -5.4318 -1.0652
-14 4 12 -10.9586 0.6967
-14 4 13 5.9536 -0.2282
-14 4 14 8.0402 0.1325
-14 4 15 5.3847 0.0090
-14 4 16 -7.0730 -0.0187
-14 4 17 -6.8048 -0.0098
-14 4 18 2.0742 0.2838
-14 4 19 1.1165 -0.0798
-14 6 1 -6.7222 0.6666
-14 6 2 -15.1577 -0.7220
-14 6 3 15.8252 0.6671
-14 6 4 -5.4897 -0.5356
-14 6 5 12.9772 0.0556
-14 6 6 -12.0029 0.3371
-14 6 7 4.9149 0.0063
-14 6 8 5.2595 -0.9341
-14 6 9 9.9154 1.5115
-14 6 10 2.0994 -1.5795
-14 6 11 -18.8731 1.4647
-14 6 12 -7.8917 -1.1429
-14 6 13 1.8866 0.6239
-14 6 14 -0.1983 -0.3606
-14 6 15 -4.4668 0.2183
-14 6 16 3.9878 0.0474
-14 6 17 -9.2675 -0.1428
-14 6 18 10.2213 -0.5207
-14 6 19 -4.1686 0.3915
-14 8 1 -9.2381 -0.4465
-14 8 2 -6.8853 0.3757
-14 8 3 -10.8072 -0.0996
-14 8 4 6.7132 -0.1773
-14 8 5 -6.1819 0.3810
-14 8 6 5.5542 -0.3335
-14 8 7 1.1753 0.1370
-14 8 8 2.6715 0.2162
-14 8 9 6.7477 -0.8711
-14 8 10 2.0343 1.3585
-14 8 11 -4.6261 -1.1848
-14 8 12 -3.6304 0.5444
-14 8 13 6.7321 -0.1996
-14 8 14 -8.5317 -0.1060
-14 8 15 -9.9087 0.2155
-14 8 16 -22.1237 -0.0696
-14 8 17 2.6291 -0.0960
-14 8 18 -11.7896 -0.3047
-14 10 1 3.9371 -0.0054
-14 10 2 -14.1798 0.0589
-14 10 3 1.7081 -0.2717
-14 10 4 -0.4533 0.5332
-14 10 5 -9.3048 -0.8290
-14 10 6 26.0311 0.8881
-14 10 7 4.0511 -0.6134
-14 10 8 -8.8655 0.2186
-14 10 9 6.2843 0.1744
-14 10 10 8.7960 -0.2750
-14 10 11 0.3290 0.1061
-14 10 12 0.2948 0.2417
-14 10 13 -15.1874 -0.2098
-14 10 14 5.8126 0.1869
-14 10 15 -12.5080 -0.3647
-14 10 16 -8.9115 0.7803
-14 10 17 -0.1847 -0.3121
-14 12 1 -12.9956 0.0593
-14 12 2 1.2718 -0.1779
-14 12 3 14.2131 0.4143
-14 12 4 0.8369 -0.5744
-14 12 5 -12.0506 0.6251
-14 12 6 7.0734 -0.5935
-14 12 7 -7.5967 0.5496
-14 12 8 -1.3765 -0.4812
-14 12 9 8.5081 0.3525
-14 12 10 2.0575 -0.3268
-14 12 11 13.9849 0.3204
-14 12 12 -5.0860 -0.4351
-14 12 13 -13.6820 0.5266
-14 12 14 3.4718 -0.4057
-14 12 15 -3.9337 0.1850
-14 12 16 -0.5120 -0.4432
-14 14 1 23.0281 0.0444
-14 14 2 -4.7092 -0.0227
-14 14 3 3.0743 0.0036
-14 14 4 -9.0314 0.1103
-14 14 5 -12.3454 -0.2341
-14 14 6 15.2320 0.1262
-14 14 7 3.1688 -0.0227
-14 14 8 -9.0935 0.1381
-14 14 9 2.5071 -0.3419
-14 14 10 -3.2104 0.4363
-14 14 11 0.9894 -0.3635
-14 14 12 -5.2178 0.2804
-14 14 13 -4.3998 -0.3182
-14 14 14 0.7415 -0.1285
-14 16 1 1.0059 -0.1706
-14 16 2 -12.2787 0.2227
-14 16 3 7.4397 -0.2694
-14 16 4 -2.9052 0.2969
-14 16 5 -11.3187 -0.3192
-14 16 6 -23.3205 0.4075
-14 16 7 -18.3895 -0.3958
-14 16 8 -3.0970 0.2183
-14 16 9 -0.6499 0.0293
-14 16 10 -7.4169 -0.1995
-14 16 11 8.9373 0.2288
-14 16 12 -13.1082 -0.0963
-14 18 1 5.7090 0.0510
-14 18 2 -6.3428 -0.0557
-14 18 3 -2.2695 0.1738
-14 18 4 7.9877 -0.4095
-14 18 5 -21.8454 0.5766
-14 18 6 -0.4444 -0.6185
-14 18 7 -13.6220 0.5530
-14 18 8 -0.9178 -0.3363
-14 18 9 0.5785 0.1363
-14 20 1 -0.9073 0.3592
-13 1 1 11.0946 -1.3851
-13 1 2 5.9979 -1.9769
-13 1 3 -0.5935 -0.4053
-13 1 4 -24.6107 3.4677
-13 1 5 10.5040 -4.0880
-13 1 6 -8.3435 3.5002
-13 1 7 -17.1351 -2.6485
-13 1 8 -0.0646 0.9287
-13 1 9 -0.4683 0.9482
-13 1 10 3.6440 -1.6809
-13 1 11 -2.2349 1.6036
-13 1 12 3.5060 -0.7433
-13 1 13 -13.4270 -0.5669
-13 1 14 -5.5372 1.9736
-13 1 15 -6.5353 -2.7099
-13 1 16 7.1429 2.6396
-13 1 17 7.1429 -1.7822
-13 1 18 14.5914 0.1634
-13 1 19 -11.2962 0.8764
-13 1 20 2.7930 1.6871
-13 3 1 3.8751 -0.3003
-13 3 2 -2.3989 0.6667
-13 3 3 -12.5100 0.7636
-13 3 4 -5.4637 -2.5257
-13 3 5 -7.9540 3.1862
-13 3 6 25.6551 -2.7840
-13 3 7 -0.8806 2.0300
-13 3 8 11.6347 -0.9878
-13 3 9 -31.3774 -0.0389
-13 3 10 5.1206 0.4323
-13 3 11 -5.8652 -0.4058
-13 3 12 9.3903 0.1082
-13 3 13 5.5823 0.6880
-13 3 14 4.9374 -1.6527
-13 3 15 -22.9591 2.0325
-13 3 16 -6.1639 -1.7286
-13 3 17 4.6557 1.2871
-13 3 18 -0.8084 -1.0075
-13 3 19 -10.6039 0.2376
-13 5 1 10.4469 0.5589
-13 5 2 39.8065 -0.2627
-13 5 3 3.3211 -0.1488
-13 5 4 -13.4310 1.0837
-13 5 5 -9.6405 -1.8237
-13 5 6 7.7813 1.5021
-13 5 7 9.4883 -0.8425
-13 5 8 -6.7634 0.3579
-13 5 9 -9.3302 0.0381
-13 5 10 -21.0839 -0.3265
-13 5 11 -4.5701 0.3233
-13 5 12 8.0048 -0.2144
-13 5 13 3.2310 -0.2865
-13 5 14 -8.1841 0.7538
-13 5 15 5.2952 -0.9918
-13 5 16 2.9706 0.7764
-13 5 17 0.6537 -0.4091
-13 5 18 -0.2496 0.5284
-13 5 19 -3.9444 -0.0653
-13 7 1 -3.5556 -0.7601
-13 7 2 16.3959 0.5790
-13 7 3 -3.9286 -0.2826
-13 7 4 1.8672 -0.0222
-13 7 5 -2.7811 0.2967
-13 7 6 4.7352 -0.3003
-13 7 7 -2.8008 -0.0680
-13 7 8 8.2114 0.5584
-13 7 9 -17.6828 -0.4921
-13 7 10 -11.9227 0.1375
-13 7 11 0.9931 -0.1421
-13 7 12 5.2810 0.4041
-13 7 13 3.7390 -0.2068
-13 7 14 1.8516 0.1725
-13 7 15 11.2364 -0.2095
-13 7 16 -6.1892 -0.0044
-13 7 17 7.2172 0.1287
-13 7 18 -1.3336 0.0349
-13 9 1 11.2412 0.4566
-13 9 2 8.1992 -0.3055
-13 9 3 8.8914 0.1862
-13 9 4 8.3716 -0.2767
-13 9 5 -0.0938 0.5741
-13 9 6 4.3206 -0.7708
-13 9 7 15.7594 0.6839
-13 9 8 -3.6040 -0.5256
-13 9 9 10.6377 0.3862
-13 9 10 -16.9360 -0.2226
-13 9 11 -2.3224 0.1847
-13 9 12 5.9391 -0.2985
-13 9 13 -2.5826 0.3854
-13 9 14 9.4478 -0.4122
-13 9 15 13.6897 0.5016
-13 9 16 -12.3911 -0.6954
-13 9 17 17.1937 0.5321
-13 9 18 1.2457 0.5064
-13 11 1 -15.2425 0.2149
-13 11 2 2.2540 -0.1894
-13 11 3 -9.3159 0.0566
-13 11 4 -11.6759 0.2273
-13 11 5 -7.2577 -0.5792
-13 11 6 0.1083 0.6914
-13 11 7 3.8332 -0.5528
-13 11 8 13.0913 0.3231
-13 11 9 -3.5743 -0.0407
-13 11 10 -8.0780 -0.3310
-13 11 11 5.1138 0.4620
-13 11 12 5.2568 -0.2791
-13 11 13 2.7155 -0.2195
-13 11 14 8.7579 0.5399
-13 11 15 0.9449 -0.5216
-13 11 16 1.6040 0.2084
-13 13 1 17.0149 -0.6214
-13 13 2 11.9880 0.5304
-13 13 3 1.3340 -0.3937
-13 13 4 -8.7766 0.0126
-13 13 5 -3.6931 0.4965
-13 13 6 1.8045 -0.5931
-13 13 7 6.8445 0.2518
-13 13 8 7.7052 0.1044
-13 13 9 6.9960 -0.3792
-13 13 10 -14.3009 0.6626
-13 13 11 4.4874 -0.7598
-13 13 12 -4.0560 0.5489
-13 13 13 7.2588 -0.1566
-13 13 14 -3.7666 -0.0706
-13 13 15 -1.4427 0.1739
-13 15 1 15.4767 0.6371
-13 15 2 -6.6093 -0.4804
-13 15 3 1.8023 0.2508
-13 15 4 -0.7393 0.0020
-13 15 5 21.6212 -0.1940
-13 15 6 12.1073 0.2796
-13 15 7 7.1914 -0.1179
-13 15 8 11.0581 -0.2169
-13 15 9 3.8020 0.5750
-13 15 10 -10.1898 -0.7310
-13 15 11 -8.1990 0.7361
-13 15 12 -3.0074 -0.5081
-13 15 13 14.0806 0.2129
-13 17 1 7.3068 -0.2897
-13 17 2 1.6819 0.1120
-13 17 3 -8.8659 0.0684
-13 17 4 8.2647 -0.1866
-13 17 5 -11.9420 0.1761
-13 17 6 -2.9824 -0.1889
-13 17 7 -4.9084 0.1015
-13 17 8 7.8589 0.0821
-13 17 9 2.7749 -0.2566
-13 17 10 -6.1067 0.3345
-13 17 11 3.1388 -0.3868
-13 19 1 8.6292 -0.0875
-13 19 2 5.6137 0.1247
-13 19 3 -14.8110 -0.2186
-13 19 4 -2.0612 0.3117
-13 19 6 2.8299 0.1638
-13 19 7 -2.8778 -0.1500
-12 0 1 -43.7109 15.2574
-12 0 2 11.9835 -4.8170
-12 0 3 -31.0633 0.1081
-12 0 4 24.6129 2.0632
-12 0 5 -0.2101 -4.0659
-12 0 6 10.7210 4.0841
-12 0 7 0.8232 -1.0085
-12 0 8 6.1030 -2.4793
-12 0 9 15.6208 5.4656
-12 0 10 1.7472 -7.5024
-12 0 11 12.3376 7.2097
-12 0 12 5.5156 -4.7987
-12 0 13 -3.6287 1.8946
-12 0 14 4.5741 1.0262
-12 0 15 -6.1281 -2.4427
-12 0 16 -9.1242 2.5889
-12 0 17 -10.2044 -1.1864
-12 0 18 15.3881 -0.6024
-12 0 19 3.0100 2.9405
-12 0 20 -3.6137 -5.4700
-12 2 1 43.0260 -2.4480
-12 2 2 -24.5298 1.5554
-12 2 3 41.4437 0.2554
-12 2 4 -9.6173 -0.8955
-12 2 5 16.3443 0.3549
-12 2 6 -25.7444 0.0155
-12 2 7 -9.4128 -0.1781
-12 2 8 -1.0312 0.3440
-12 2 9 -10.5563 -0.5804
-12 2 10 -2.4348 0.8686
-12 2 11 -5.7410 -0.9009
-12 2 12 -16.2969 0.6446
-12 2 13 9.7006 -0.3945
-12 2 14 6.3022 0.1564
-12 2 15 4.5966 0.0160
-12 2 16 1.6778 -0.2100
-12 2 17 0.6960 0.0237
-12 2 18 -0.1895 0.7140
-12 2 19 9.3459 -0.8399
-12 2 20 -6.2031 -0.8107
-12 4 1 -26.2580 0.5099
-12 4 2 -6.4432 -0.2939
-12 4 3 8.7412 -0.5565
-12 4 4 8.4104 0.5411
-12 4 5 -26.9021 0.2230
-12 4 6 -11.1766 -0.5349
-12 4 7 -4.0179 0.1641
-12 4 8 11.8075 0.2765
-12 4 9 4.0911 -0.6512
-12 4 10 9.5722 0.8421
-12 4 11 -14.0786 -0.7866
-12 4 12 -7.1604 0.4685
-12 4 13 -8.6964 -0.1169
-12 4 14 7.4034 -0.1378
-12 4 15 -0.5744 0.1853
-12 4 16 4.3927 -0.1686
-12 4 17 -4.3071 -0.0485
-12 4 18 2.1153 -0.0686
-12 4 19 -4.2440 -0.0679
-12 6 1 5.3901 0.3713
-12 6 2 4.2924 -0.5548
-12 6 3 14.9028 0.3999
-12 6 4 5.5936 -0.0850
-12 6 5 11.3513 -0.2723
-12 6 6 -3.3541 0.6427
-12 6 7 -5.5185 -0.3596
-12 6 8 -9.8705 -0.4962
-12 6 9 2.3096 1.1217
-12 6 10 -6.6699 -1.1973
-12 6 11 2.7940 1.0780
-12 6 12 7.4966 -0.7303
-12 6 13 -10.0938 0.1824
-12 6 14 1.1755 0.0357
-12 6 15 1.8396 -0.0914
-12 6 16 1.7788 0.4588
-12 6 17 -5.9830 -0.4084
-12 6 18 -5.1698 -0.2974
-12 6 19 5.3484 0.2462
-12 8 1 -9.2472 -0.4493
-12 8 2 -10.1142 0.3956
-12 8 3 -13.4342 -0.0260
-12 8 4 11.0550 -0.4185
-12 8 5 6.2099 0.5386
-12 8 6 18.9432 -0.5371
-12 8 7 -7.7785 0.4459
-12 8 8 -9.5341 -0.0108
-12 8 9 -3.0300 -0.7126
-12 8 10 -5.0876 1.1492
-12 8 11 4.9373 -0.9252
-12 8 12 -0.8667 0.5304
-12 8 13 -8.1495 -0.0944
-12 8 14 2.4452 -0.1721
-12 8 15 8.3528 0.3850
-12 8 16 -7.9797 -0.3344
-12 8 17 -6.6481 0.1995
-12 8 18 -0.7704 0.0102
-12 10 1 -6.0725 0.1963
-12 10 2 -13.3791 -0.1796
-12 10 3 -3.3444 -0.1362
-12 10 4 -13.6543 0.5621
-12 10 5 6.5412 -0.7508
-12 10 6 9.2544 0.7326
-12 10 7 11.2794 -0.5051
-12 10 8 -15.2426 0.1017
-12 10 9 -1.2322 0.2575
-12 10 10 -6.7537 -0.4116
-12 10 11 -18.6086 0.1882
-12 10 12 -1.4806 -0.0686
-12 10 13 -13.3810 -0.1208
-12 10 14 -11.7076 0.1715
-12 10 15 7.6146 -0.3294
-12 10 16 -12.3468 0.5129
-12 10 17 1.6743 -0.5348
-12 12 1 -0.1882 -0.0885
-12 12 2 13.4044 0.0729
-12 12 3 -0.8744 0.1763
-12 12 4 -5.8964 -0.4422
-12 12 5 4.6420 0.4585
-12 12 6 -8.1587 -0.4016
-12 12 7 4.7349 0.3149
-12 12 8 -0.0554 -0.2029
-12 12 9 13.6277 0.0982
-12 12 10 -3.9519 0.0117
-12 12 11 15.1567 0.1439
-12 12 12 -8.9729 -0.1525
-12 12 13 9.6038 0.1786
-12 12 14 -17.3508 -0.2455
-12 12 15 2.2661 0.2321
-12 12 16 -2.4343 0.0004
-12 14 1 4.5457 0.0289
-12 14 2 4.0813 -0.0553
-12 14 3 4.9314 0.0690
-12 14 4 -5.0868 0.0588
-12 14 5 -7.2923 -0.1672
-12 14 6 2.1502 0.1150
-12 14 7 -4.3315 0.0637
-12 14 8 4.0982 0.0049
-12 14 9 1.5897 -0.2874
-12 14 10 4.3041 0.3371
-12 14 11 -8.1145 -0.3325
-12 14 12 -3.4103 0.2472
-12 14 13 11.6171 -0.0730
-12 14 14 -1.8583 -0.0755
-12 16 1 8.0784 0.0246
-12 16 2 5.4542 0.0608
-12 16 3 7.5123 -0.1783
-12 16 4 -10.5454 0.2392
-12 16 5 -16.2806 -0.2904
-12 16 6 -18.7364 0.3084
-12 16 7 -3.1273 -0.3264
-12 16 8 4.7850 0.2123
-12 16 9 7.3767 0.1436
-12 16 10 9.7263 -0.3700
-12 16 11 -4.8312 0.3035
-12 16 12 -3.6371 -0.0828
-12 18 1 15.3384 -0.1044
-12 18 2 15.9709 0.0753
-12 18 3 -2.8083 0.0723
-12 18 4 -5.7059 -0.2789
-12 18 5 -7.9644 0.4349
-12 18 6 -15.6772 -0.4752
-12 18 7 6.1311 0.3801
-12 18 8 -7.3108 -0.2107
-12 18 9 2.1449 -0.1179
-12 20 1 -20.4241 0.3003
-12 20 2 12.2958 -0.1593
-12 20 3 -11.1855 0.0093
-12 20 4 27.6026 0.1508
-11 1 1 -5.7788 0.3494
-11 1 2 28.7720 -2.6244
-11 1 3 -13.9153 -0.0600
-11 1 4 6.2681 2.7964
-11 1 5 -4.3428 -3.2300
-11 1 6 2.5383 2.6574
-11 1 7 -8.7354 -1.6419
-11 1 8 -0.5416 -0.0762
-11 1 9 6.0181 1.7981
-11 1 10 -6.7899 -2.6081
-11 1 11 -0.5113 2.3943
-11 1 12 -3.9213 -1.5957
-11 1 13 -4.0868 -0.0168
-11 1 14 3.2275 1.4143
-11 1 15 10.8143 -1.9845
-11 1 16 9.0196 2.0617
-11 1 17 9.8282 -1.2489
-11 1 18 -3.6147 -0.5568
-11 1 19 -1.3851 0.9648
-11 1 20 -11.7362 0.5273
-11 3 1 -5.9228 -1.0776
-11 3 2 6.0849 1.1462
-11 3 3 -26.5985 0.0367
-11 3 4 8.7520 -1.4100
-11 3 5 11.0781 2.1181
-11 3 6 5.0020 -1.8799
-11 3 7 9.1010 0.9476
-11 3 8 -16.5498 0.1999
-11 3 9 7.8507 -1.1219
-11 3 10 0.2238 1.4942
-11 3 11 4.2583 -1.3742
-11 3 12 -1.8791 0.9441
-11 3 13 3.2257 -0.1078
-11 3 14 -1.8249 -0.8814
-11 3 15 -11.1888 1.3087
-11 3 16 -4.6808 -1.2167
-11 3 17 -10.7439 0.7367
-11 3 18 -4.5669 0.1250
-11 3 19 -6.2121 -0.4944
-11 3 20 -13.8300 0.2503
-11 5 1 3.1444 0.6941
-11 5 2 11.9680 -0.3526
-11 5 3 8.6882 0.0951
-11 5 4 -10.4216 0.6546
-11 5 5 10.8574 -1.3542
-11 5 6 4.6251 1.0915
-11 5 7 3.0548 -0.2934
-11 5 8 2.0769 -0.1775
-11 5 9 5.2335 0.5049
-11 5 10 -5.3146 -0.7120
-11 5 11 -13.4071 0.7165
-11 5 12 4.2604 -0.4526
-11 5 13 -5.6303 0.1814
-11 5 14 -10.3015 0.5006
-11 5 15 2.7003 -0.7933
-11 5 16 -2.5752 0.4070
-11 5 17 5.9175 -0.0348
-11 5 18 2.3243 0.2520
-11 5 19 3.5128 0.0321
-11 7 1 -0.5458 -0.4190
-11 7 2 6.8210 0.2085
-11 7 3 -2.7231 0.0110
-11 7 4 -1.8262 -0.2357
-11 7 5 -3.1381 0.4117
-11 7 6 3.9217 -0.4151
-11 7 7 -0.5516 0.0168
-11 7 8 1.9605 0.3408
-11 7 9 5.5671 -0.2591
-11 7 10 -2.1005 -0.0147
-11 7 11 7.2684 -0.0799
-11 7 12 4.8994 0.0972
-11 7 13 -3.6146 -0.0320
-11 7 14 13.3749 -0.1113
-11 7 15 -23.8990 0.0926
-11 7 16 26.9227 -0.2417
-11 7 17 -19.6911 0.1344
-11 7 18 4.9773 0.1186
-11 7 19 3.0359 0.2564
-11 9 1 -3.3312 0.1384
-11 9 2 8.5998 0.0679
-11 9 3 20.1864 -0.1427
-11 9 4 6.5776 0.0225
-11 9 5 -7.6404 0.2263
-11 9 6 2.4136 -0.2915
-11 9 7 -6.1168 0.1959
-11 9 8 10.5655 -0.0718
-11 9 9 12.9217 -0.0957
-11 9 10 2.9434 0.2913
-11 9 11 0.6584 -0.3399
-11 9 12 8.0349 0.2002
-11 9 13 -4.9415 -0.0150
-11 9 14 -26.7009 -0.1658
-11 9 15 -6.3526 0.3215
-11 9 16 -22.3406 -0.2019
-11 9 17 -11.4335 0.1352
-11 9 18 -6.3729 0.0623
-11 11 1 3.2806 0.1664
-11 11 2 8.4957 -0.2353
-11 11 3 1.3996 0.1295
-11 11 4 3.2733 0.1676
-11 11 5 -5.4393 -0.4646
-11 11 6 -3.8167 0.5184
-11 11 7 -4.7103 -0.3873
-11 11 8 -9.8918 0.1234
-11 11 9 12.3292 0.2772
-11 11 10 4.5729 -0.5727
-11 11 11 -0.4922 0.6093
-11 11 12 12.2181 -0.2977
-11 11 13 2.4418 0.0767
-11 11 14 -6.5382 0.2745
-11 11 15 5.2239 -0.5811
-11 11 16 2.6097 0.2311
-11 11 17 -9.5903 0.2304
-11 13 1 14.9389 -0.2886
-11 13 2 4.0533 0.2730
-11 13 3 -0.0141 -0.1615
-11 13 4 -5.0691 -0.1782
-11 13 5 -8.8772 0.6050
-11 13 6 17.4337 -0.6472
-11 13 7 4.2189 0.3475
-11 13 8 0.4758 0.0298
-11 13 9 3.2050 -0.2843
-11 13 10 -2.8834 0.4774
-11 13 11 1.6810 -0.5999
-11 13 12 -9.9531 0.3119
-11 13 13 3.9476 0.0690
-11 13 14 -7.9372 -0.3070
-11 13 15 17.0846 0.4140
-11 15 1 -2.3364 0.3289
-11 15 2 -8.2619 -0.2628
-11 15 3 10.9607 0.0407
-11 15 4 13.0918 0.1880
-11 15 5 3.2455 -0.4337
-11 15 6 6.2247 0.4844
-11 15 7 5.2002 -0.3255
-11 15 8 -6.8256 -0.0745
-11 15 9 5.1621 0.3135
-11 15 10 6.7819 -0.3802
-11 15 11 -4.8603 0.4209
-11 15 12 4.1956 -0.3736
-11 15 13 -1.3777 -0.0094
-11 15 14 -1.9427 0.4414
-11 17 1 5.8067 -0.2868
-11 17 2 -4.5976 0.1173
-11 17 3 5.9913 0.0849
-11 17 4 -11.5992 -0.1510
-11 17 5 -9.0726 0.2610
-11 17 6 -2.3226 -0.2611
-11 17 7 10.0256 0.2142
-11 17 8 -5.6717 -0.0308
-11 17 9 -5.2398 -0.1508
-11 17 10 0.2835 0.2387
-11 17 11 0.4979 -0.0836
-11 19 1 -6.6867 0.0933
-11 19 2 11.1609 -0.0496
-11 19 3 -29.1966 -0.0755
-11 19 4 -6.6739 0.1028
-11 19 5 -22.2165 -0.0448
-11 19 6 3.5863 -0.0829
-11 19 7 27.0925 0.0602
-10 0 1 18.1427 9.7406
-10 0 2 -40.2840 -0.4932
-10 0 3 25.5193 -4.0912
-10 0 4 -3.1494 6.9257
-10 0 5 -13.9193 -9.1642
-10 0 6 19.1689 8.7142
-10 0 7 5.9171 -6.0234
-10 0 8 7.4634 2.3889
-10 0 9 -32.8645 1.3599
-10 0 10 2.6690 -3.6419
-10 0 11 10.9044 3.3297
-10 0 12 17.3280 -1.0636
-10 0 13 -9.7745 -1.9153
-10 0 14 -5.6937 4.4859
-10 0 15 -10.7701 -6.3889
-10 0 16 -8.6637 5.8590
-10 0 17 3.4614 -4.1164
-10 0 18 0.6776 1.8403
-10 0 19 0.2972 0.2982
-10 0 20 8.0677 -2.4705
-10 2 1 -8.0743 -2.2421
-10 2 2 34.9112 0.8876
-10 2 3 -17.0804 1.2815
-10 2 4 13.8171 -1.9937
-10 2 5 -15.3839 1.3471
-10 2 6 7.1412 -0.8661
-10 2 7 18.5414 0.9376
-10 2 8 -5.9701 -0.8151
-10 2 9 -2.7634 0.2920
-10 2 10 0.4746 0.0119
-10 2 11 13.3412 -0.0627
-10 2 12 2.0469 -0.0273
-10 2 13 -16.5053 0.4128
-10 2 14 0.3365 -0.5975
-10 2 15 -0.7659 0.6867
-10 2 16 -1.1814 -0.8501
-10 2 17 1.5215 0.8920
-10 2 18 2.9125 -0.3095
-10 2 19 5.0618 -0.0590
-10 2 20 -16.0590 -0.1147
-10 4 1 19.1113 0.9782
-10 4 2 17.6001 -0.4159
-10 4 3 6.2198 -0.3908
-10 4 4 9.0616 0.1811
-10 4 5 -36.5919 0.5579
-10 4 6 -10.7187 -0.7452
-10 4 7 -4.2347 0.4351
-10 4 8 -2.4749 0.0035
-10 4 9 -5.3357 -0.3116
-10 4 10 3.2425 0.4975
-10 4 11 0.3474 -0.3660
-10 4 12 -5.7467 0.0456
-10 4 13 -5.5259 0.1500
-10 4 14 8.2524 -0.4151
-10 4 15 14.2649 0.6323
-10 4 16 -2.8123 -0.2338
-10 4 17 0.3100 0.0352
-10 4 18 6.3475 -0.6629
-10 4 19 -0.1245 0.4490
-10 4 20 2.9945 1.8858
-10 6 1 -10.6129 -0.0260
-10 6 2 24.0503 -0.1571
-10 6 3 -8.1157 -0.2571
-10 6 4 -6.1135 0.6555
-10 6 5 5.4435 -0.9103
-10 6 6 1.3218 1.2243
-10 6 7 22.7185 -1.0831
-10 6 8 15.5131 0.2020
-10 6 9 -6.1116 0.4670
-10 6 10 -7.8987 -0.5890
-10 6 11 8.8107 0.4963
-10 6 12 -5.1296 -0.1420
-10 6 13 17.6782 -0.4054
-10 6 14 -0.8604 0.6715
-10 6 15 2.6803 -0.7399
-10 6 16 -3.8506 0.9024
-10 6 17 -3.0833 -0.7240
-10 6 18 -14.0290 0.1238
-10 6 19 3.9685 -0.0804
-10 8 1 5.4311 -0.4822
-10 8 2 -8.2198 0.4244
-10 8 3 -3.7663 0.1478
-10 8 4 14.0218 -0.6690
-10 8 5 -8.1534 0.8783
-10 8 6 16.2038 -0.9839
-10 8 7 9.5957 0.8626
-10 8 8 18.4782 -0.2297
-10 8 9 -8.3526 -0.5094
-10 8 10 4.8451 0.7405
-10 8 11 12.2524 -0.4894
-10 8 12 4.4377 0.1010
-10 8 13 -8.7283 0.1717
-10 8 14 14.1166 -0.3967
-10 8 15 -17.3765 0.4394
-10 8 16 16.1585 -0.5871
-10 8 17 -10.2501 0.6113
-10 8 18 -4.7401 -0.3585
-10 10 1 -3.8382 0.6257
-10 10 2 -4.7071 -0.5542
-10 10 3 -20.4028 0.0934
-10 10 4 -6.4945 0.3663
-10 10 5 -7.5482 -0.5710
-10 10 6 -6.0598 0.5372
-10 10 7 1.5357 -0.2821
-10 10 8 -1.1545 -0.1229
-10 10 9 -4.5738 0.4843
-10 10 10 -7.0701 -0.6106
-10 10 11 3.5798 0.5830
-10 10 12 13.9507 -0.3092
-10 10 13 -5.2569 0.0598
-10 10 14 -6.0079 0.1643
-10 10 15 3.9300 -0.0793
-10 10 16 -10.1539 0.1916
-10 10 17 -4.4523 -0.3898
-10 10 18 -5.8547 0.1759
-10 12 1 6.8992 -0.4472
-10 12 2 3.3746 0.4174
-10 12 3 -6.5863 -0.1047
-10 12 4 -5.6839 -0.2010
-10 12 5 -5.3768 0.2178
-10 12 6 12.5333 -0.0842
-10 12 7 -14.9752 0.0138
-10 12 8 -14.0820 0.1062
-10 12 9 -7.0081 -0.3271
-10 12 10 -0.8886 0.3423
-10 12 11 -3.5999 -0.2379
-10 12 12 1.6498 0.1435
-10 12 13 9.2782 -0.3274
-10 12 14 5.3331 0.2153
-10 12 15 10.2615 -0.0123
-10 12 16 6.0801 0.0669
-10 14 1 4.1341 0.0435
-10 14 2 -2.8509 -0.0631
-10 14 3 -0.7362 0.0679
-10 14 4 -10.5683 0.0266
-10 14 5 6.4022 -0.0588
-10 14 6 19.0205 -0.1072
-10 14 7 5.6335 0.2164
-10 14 8 -7.0948 -0.1118
-10 14 9 1.2453 -0.0284
-10 14 10 1.0965 0.1468
-10 14 11 -7.6271 -0.1466
-10 14 12 2.3623 0.1602
-10 14 13 6.4402 0.0162
-10 14 14 10.0563 -0.2374
-10 14 15 4.1547 0.4181
-10 16 1 0.1056 0.2342
-10 16 2 4.3471 -0.1665
-10 16 3 9.2679 0.0508
-10 16 4 -13.2831 0.0329
-10 16 5 8.1407 -0.0867
-10 16 6 7.1931 0.1687
-10 16 7 6.0482 -0.2357
-10 16 8 3.1695 0.0652
-10 16 9 -4.5346 0.3131
-10 16 10 -3.4564 -0.6338
-10 16 11 8.0093 0.4725
-10 16 12 11.0736 -0.1091
-10 16 13 4.8204 0.0613
-10 18 1 2.2364 -0.2777
-10 18 2 -3.9489 0.3015
-10 18 3 -15.5509 -0.0862
-10 18 4 -10.9840 -0.1721
-10 18 5 -11.7480 0.2229
-10 18 6 -2.6169 -0.1587
-10 18 7 3.7488 0.1724
-10 18 8 -2.0165 0.0262
-10 18 9 1.8350 -0.3648
-10 18 10 2.6478 0.6485
-10 20 1 10.5232 0.2482
-10 20 2 -5.7716 -0.1792
-10 20 3 7.6368 -0.0115
-10 20 4 6.4143 0.2186
-10 20 5 -3.3320 -0.3814
-9 1 1 -4.7674 2.2548
-9 1 2 -59.6178 -3.2107
-9 1 3 49.5298 0.3784
-9 1 4 -3.1785 1.9843
-9 1 5 19.8446 -2.2140
-9 1 6 -31.5615 1.8055
-9 1 7 -9.3291 -0.7197
-9 1 8 2.3145 -1.1715
-9 1 9 17.0659 2.7740
-9 1 10 2.7112 -3.4870
-9 1 11 -9.0784 3.4461
-9 1 12 -2.8135 -2.3423
-9 1 13 -6.2373 0.6322
-9 1 14 1.2999 0.7540
-9 1 15 0.2349 -1.4301
-9 1 16 8.9001 1.5384
-9 1 17 -7.1561 -0.6996
-9 1 18 2.8506 -0.7256
-9 1 19 -3.5648 1.5405
-9 1 20 -7.9500 -0.9069
-9 3 1 50.5687 -1.8199
-9 3 2 -34.9512 1.5445
-9 3 3 11.8846 -0.8022
-9 3 4 13.0297 -0.3044
-9 3 5 29.5137 1.1178
-9 3 6 13.2864 -0.9665
-9 3 7 -19.7363 -0.2761
-9 3 8 2.1428 1.5044
-9 3 9 -2.5212 -2.1630
-9 3 10 -0.6393 2.5639
-9 3 11 -11.2620 -2.4858
-9 3 12 1.3362 1.8145
-9 3 13 2.4815 -0.9049
-9 3 14 -3.8603 0.1160
-9 3 15 -1.4291 0.5568
-9 3 16 -7.1447 -0.6690
-9 3 17 2.5816 -0.1570
-9 3 18 1.7930 1.2731
-9 3 19 -1.5420 -1.2797
-9 3 20 -22.4820 -0.3204
-9 5 1 -2.0284 0.7430
-9 5 2 -13.6702 -0.4846
-9 5 3 -9.3669 0.5349
-9 5 4 -13.4043 0.1709
-9 5 5 5.5175 -1.0104
-9 5 6 -9.8907 0.6613
-9 5 7 -3.6098 0.3594
-9 5 8 11.2748 -0.8075
-9 5 9 21.5884 0.9073
-9 5 10 7.5721 -1.1923
-9 5 11 1.4542 0.9945
-9 5 12 10.7751 -0.7162
-9 5 13 16.6613 0.4807
-9 5 14 -4.3405 -0.0624
-9 5 15 -19.8810 -0.4801
-9 5 16 -3.4724 0.1661
-9 5 17 -3.3558 0.2202
-9 5 18 6.3247 0.1268
-9 5 19 1.8666 0.0410
-9 5 20 -5.4305 -2.8175
-9 7 1 -9.6178 -0.1145
-9 7 2 -5.7436 -0.1820
-9 7 3 -9.1632 0.3841
-9 7 4 -3.3483 -0.4401
-9 7 5 -2.9686 0.6057
-9 7 6 0.4019 -0.5600
-9 7 7 -7.8132 0.1610
-9 7 8 11.1862 0.0511
-9 7 9 -1.4085 0.1371
-9 7 10 14.2345 -0.1805
-9 7 11 -11.6514 0.1530
-9 7 12 -1.6616 -0.0684
-9 7 13 9.0608 0.2050
-9 7 14 13.5834 -0.2845
-9 7 15 1.9960 0.3632
-9 7 16 7.8088 -0.2350
-9 7 17 10.7346 0.0488
-9 7 18 -13.8533 0.1622
-9 7 19 4.2851 0.6020
-9 9 1 2.8012 -0.1762
-9 9 2 -3.2356 0.4252
-9 9 3 -16.7857 -0.5255
-9 9 4 6.8317 0.3063
-9 9 5 -11.8522 -0.2195
-9 9 6 -9.9367 0.2679
-9 9 7 -4.5412 -0.2822
-9 9 8 -21.0873 0.3410
-9 9 9 -12.7056 -0.5197
-9 9 10 -7.9432 0.8023
-9 9 11 -6.8016 -0.9756
-9 9 12 0.7618 0.7571
-9 9 13 -7.4687 -0.3231
-9 9 14 5.2255 0.0602
-9 9 15 -12.0979 -0.0670
-9 9 16 0.4655 0.1790
-9 9 17 1.8759 -0.3985
-9 9 18 7.2568 0.1941
-9 11 1 -10.5921 0.0698
-9 11 2 -10.0983 -0.2437
-9 11 3 -6.7744 0.2109
-9 11 4 4.6747 0.1059
-9 11 5 -3.0069 -0.3049
-9 11 6 5.2817 0.3430
-9 11 7 6.3153 -0.2015
-9 11 8 -6.2077 -0.1524
-9 11 9 -12.2247 0.5373
-9 11 10 16.1863 -0.7828
-9 11 11 2.1915 0.6670
-9 11 12 9.8700 -0.5053
-9 11 13 -11.0881 0.2479
-9 11 14 5.9996 0.0854
-9 11 15 -2.9988 -0.4368
-9 11 16 -2.9444 0.3551
-9 11 17 -1.4719 0.3803
-9 13 1 -7.3111 0.0226
-9 13 2 12.6447 -0.0526
-9 13 3 3.7072 0.0980
-9 13 4 -4.6945 -0.3477
-9 13 5 -12.6959 0.6629
-9 13 6 5.2309 -0.7960
-9 13 7 17.5870 0.4842
-9 13 8 3.8941 -0.0762
-9 13 9 -14.8903 -0.1988
-9 13 10 2.9730 0.4170
-9 13 11 -18.0122 -0.4269
-9 13 12 -4.1230 0.1949
-9 13 13 4.0530 0.3019
-9 13 14 -3.3856 -0.5559
-9 13 15 9.3117 0.4275
-9 13 16 3.9270 -0.4757
-9 15 1 -2.5645 0.0831
-9 15 2 -6.6844 0.0512
-9 15 3 7.5730 -0.2271
-9 15 4 -13.6860 0.4340
-9 15 5 0.6703 -0.5907
-9 15 6 -14.7171 0.7344
-9 15 7 3.4234 -0.5300
-9 15 8 3.5301 0.2305
-9 15 9 -6.5956 -0.0284
-9 15 10 -19.4150 -0.0187
-9 15 11 -3.5962 0.1052
-9 15 12 0.9776 -0.0580
-9 15 13 -2.1400 -0.3122
-9 15 14 -14.8712 0.8215
-9 17 1 -1.1299 -0.2270
-9 17 2 -4.9532 0.0505
-9 17 3 -7.2452 0.0564
-9 17 4 -5.5420 -0.1440
-9 17 5 6.1746 0.1932
-9 17 6 -1.3489 -0.2894
-9 17 7 -5.3144 0.2335
-9 17 8 19.3915 -0.1281
-9 17 9 -17.5806 -0.0878
-9 17 10 -3.9195 0.1284
-9 17 11 -10.0298 -0.0015
-9 17 12 12.2999 -0.2585
-9 19 1 16.2307 0.2340
-9 19 2 -1.9275 -0.1845
-9 19 3 -23.3937 0.0846
-9 19 4 5.8028 -0.0435
-9 19 5 11.0191 0.1975
-9 19 6 5.0880 -0.2968
-9 19 7 -0.8471 0.1857
-9 19 8 -0.3023 -0.0346
-8 0 1 20.7553 5.2239
-8 0 2 -14.4512 2.5114
-8 0 3 -34.5639 -7.1938
-8 0 4 -7.0197 10.5289
-8 0 5 24.0490 -12.5920
-8 0 6 21.6784 11.8738
-8 0 7 27.7296 -8.9427
-8 0 8 -57.1574 4.9877
-8 0 9 -21.7499 -1.2793
-8 0 10 -35.4532 -0.8567
-8 0 11 4.6445 0.4840
-8 0 12 -4.4122 1.6806
-8 0 13 17.7750 -4.4818
-8 0 14 -5.5064 7.2934
-8 0 15 -17.7863 -8.6646
-8 0 16 3.0739 8.4881
-8 0 17 4.2390 -6.2050
-8 0 18 -4.5367 3.4865
-8 0 19 -14.8644 -0.9847
-8 0 20 0.9861 -0.5241
-8 2 1 -0.2058 -2.1152
-8 2 2 -56.6424 0.4345
-8 2 3 -41.7637 2.0059
-8 2 4 -80.1997 -2.8382
-8 2 5 -3.4005 1.9421
-8 2 6 12.4560 -1.4255
-8 2 7 16.7233 1.7391
-8 2 8 15.0053 -1.4467
-8 2 9 -5.0957 0.8645
-8 2 10 15.2530 -0.6259
-8 2 11 4.3633 0.4679
-8 2 12 7.8787 -0.5525
-8 2 13 12.0012 0.9666
-8 2 14 -5.2675 -1.2614
-8 2 15 1.1813 1.2079
-8 2 16 -1.2721 -1.3566
-8 2 17 5.5080 1.2928
-8 2 18 7.4801 -0.9760
-8 2 19 -5.3113 0.2984
-8 2 20 4.1884 0.3273
-8 4 1 -1.0416 1.2945
-8 4 2 -22.0197 -0.4572
-8 4 3 38.8084 -0.1255
-8 4 4 2.8281 -0.0621
-8 4 5 12.8772 0.8097
-8 4 6 -7.6329 -1.0176
-8 4 7 8.6297 0.5675
-8 4 8 -16.2024 -0.2351
-8 4 9 2.4226 -0.0884
-8 4 10 -6.1595 0.2905
-8 4 11 -1.7910 -0.0158
-8 4 12 -9.5272 -0.2432
-8 4 13 -9.0400 0.3447
-8 4 14 -1.8486 -0.7062
-8 4 15 1.8484 0.7874
-8 4 16 -0.5744 -0.3215
-8 4 17 -2.6051 0.3130
-8 4 18 -4.1571 -0.9216
-8 4 19 5.3424 0.5656
-8 4 20 -1.5019 2.2592
-8 6 1 2.3364 -0.2638
-8 6 2 7.2937 0.1562
-8 6 3 3.6491 -0.7907
-8 6 4 -15.7654 1.0223
-8 6 5 -6.3230 -1.2669
-8 6 6 -0.2705 1.7138
-8 6 7 -5.3395 -1.5739
-8 6 8 -2.8258 0.7522
-8 6 9 -8.2083 -0.0786
-8 6 10 -8.1741 -0.1162
-8 6 11 4.4321 0.0987
-8 6 12 -7.5025 0.2425
-8 6 13 -14.7726 -0.8351
-8 6 14 -1.6142 1.2263
-8 6 15 6.0477 -1.1243
-8 6 16 -1.5623 1.0225
-8 6 17 -13.0109 -0.8774
-8 6 18 -0.5844 0.1131
-8 6 19 -6.3138 -0.2289
-8 8 1 0.7791 -0.5046
-8 8 2 -5.2493 0.3700
-8 8 3 7.7791 0.2512
-8 8 4 -3.6074 -0.7551
-8 8 5 13.5722 1.1212
-8 8 6 0.4075 -1.2945
-8 8 7 3.9227 1.1046
-8 8 8 -3.9884 -0.3580
-8 8 9 -1.5184 -0.3956
-8 8 10 23.8777 0.5396
-8 8 11 4.7090 -0.2795
-8 8 12 17.6547 -0.0673
-8 8 13 -11.3535 0.3099
-8 8 14 -3.0621 -0.5440
-8 8 15 1.3453 0.7916
-8 8 16 -9.1972 -0.9004
-8 8 17 -6.0427 0.9834
-8 8 18 6.2981 -0.4289
-8 8 19 8.8062 -0.8346
-8 10 1 -0.2259 0.9726
-8 10 2 13.1273 -0.7454
-8 10 3 2.9250 0.2074
-8 10 4 13.6532 0.2791
-8 10 5 -0.3448 -0.4758
-8 10 6 10.7011 0.3236
-8 10 7 14.9248 -0.1471
-8 10 8 7.9034 -0.1443
-8 10 9 0.2574 0.5431
-8 10 10 -4.9405 -0.8314
-8 10 11 15.2417 0.8782
-8 10 12 11.1734 -0.5470
-8 10 13 -0.1392 0.0696
-8 10 14 -0.5718 0.0762
-8 10 15 13.3638 -0.0843
-8 10 16 1.3192 -0.0038
-8 10 17 -4.4616 -0.1310
-8 10 18 -3.6867 0.2620
-8 12 1 -9.0807 -0.6727
-8 12 2 14.6242 0.6409
-8 12 3 4.7127 -0.3253
-8 12 4 4.8333 0.0027
-8 12 5 -9.8322 0.0409
-8 12 6 -14.0766 0.1564
-8 12 7 1.7698 -0.2638
-8 12 8 -7.8290 0.4052
-8 12 9 -9.3147 -0.6260
-8 12 10 2.6402 0.6458
-8 12 11 -10.4078 -0.4409
-8 12 12 -2.1576 0.3956
-8 12 13 -8.5089 -0.4666
-8 12 14 -3.2141 0.4611
-8 12 15 11.0082 -0.0839
-8 12 16 21.6120 0.1352
-8 12 17 1.6431 -0.7512
-8 14 1 2.3129 0.0824
-8 14 2 6.8261 -0.0442
-8 14 3 3.3047 0.0756
-8 14 4 -14.8963 -0.0798
-8 14 5 5.6496 0.0374
-8 14 6 -14.3585 -0.1364
-8 14 7 1.2743 0.2680
-8 14 8 -1.5536 -0.2525
-8 14 9 5.7342 0.1293
-8 14 10 8.2898 -0.0447
-8 14 11 -12.3180 -0.0187
-8 14 12 0.5797 -0.0385
-8 14 13 -8.8646 0.1513
-8 14 14 -0.4897 -0.4106
-8 14 15 6.9951 0.4159
-8 16 1 16.4061 0.3940
-8 16 2 5.1432 -0.3668
-8 16 3 0.9521 0.2311
-8 16 4 -8.1544 -0.0868
-8 16 5 -7.3916 0.0166
-8 16 6 -6.5228 0.0389
-8 16 7 3.2674 -0.0564
-8 16 8 -3.4721 -0.0768
-8 16 9 -7.3456 0.4880
-8 16 10 -3.4107 -0.7900
-8 16 11 22.0227 0.6348
-8 16 12 14.1039 -0.2713
-8 16 13 1.0816 0.1934
-8 18 1 13.7492 -0.4478
-8 18 2 -25.5644 0.4412
-8 18 3 -6.5378 -0.2167
-8 18 4 11.6901 -0.0315
-8 18 5 7.2153 0.1157
-8 18 6 -10.0838 -0.1109
-8 18 7 -6.8114 0.0123
-8 18 8 3.2774 0.1409
-8 18 9 -1.6792 -0.5239
-8 18 10 4.0359 0.8559
-8 20 1 -5.6009 0.1531
-8 20 2 0.1042 -0.1479
-8 20 3 -21.3710 0.0519
-8 20 4 33.5017 0.1635
-8 20 5 24.8389 -0.3852
-8 20 6 7.3280 0.4635
-7 1 1 -17.4175 3.1157
-7 1 2 101.7146 -3.3101
-7 1 3 31.2857 0.4693
-7 1 4 46.4776 1.7512
-7 1 5 -46.0296 -2.0374
-7 1 6 -16.5169 1.5304
-7 1 7 -10.9329 -0.4163
-7 1 8 35.2142 -1.5454
-7 1 9 -1.9710 3.1120
-7 1 10 12.6667 -3.7814
-7 1 11 5.6941 3.7058
-7 1 12 11.2154 -2.5880
-7 1 13 -10.7158 0.8255
-7 1 14 0.8092 0.5284
-7 1 15 8.5186 -1.2346
-7 1 16 6.1671 1.2455
-7 1 17 -2.2083 -0.5401
-7 1 18 0.2403 -0.7794
-7 1 19 -7.9299 1.8838
-7 1 20 9.6906 -1.6381
-7 3 1 -10.7680 -2.0898
-7 3 2 13.6637 1.7019
-7 3 3 -24.2783 -1.2034
-7 3 4 26.4112 0.1241
-7 3 5 14.7703 0.9519
-7 3 6 -1.9451 -0.6728
-7 3 7 9.6348 -0.6833
-7 3 8 -7.3806 1.8989
-7 3 9 -6.9101 -2.5229
-7 3 10 -17.5465 2.8817
-7 3 11 -0.6430 -2.8747
-7 3 12 3.7487 2.1315
-7 3 13 -2.0196 -1.2247
-7 3 14 -10.0267 0.4383
-7 3 15 20.4769 0.2876
-7 3 16 9.8177 -0.4952
-7 3 17 10.2318 -0.2461
-7 3 18 -2.9155 1.3922
-7 3 19 -1.1682 -1.6853
-7 3 20 -13.4430 -0.1648
-7 5 1 -2.6441 0.7776
-7 5 2 9.4522 -0.5920
-7 5 3 9.8840 0.6294
-7 5 4 31.9685 0.1839
-7 5 5 -12.7140 -1.0410
-7 5 6 13.2873 0.5378
-7 5 7 -5.8065 0.5187
-7 5 8 -1.8057 -0.9346
-7 5 9 -11.9818 1.1524
-7 5 10 -5.3598 -1.3007
-7 5 11 7.1095 1.1690
-7 5 12 9.1003 -0.8423
-7 5 13 0.7854 0.7153
-7 5 14 7.3833 -0.1290
-7 5 15 4.3770 -0.4630
-7 5 16 -5.0143 0.2061
-7 5 17 2.2987 0.3187
-7 5 18 0.7545 0.0860
-7 5 19 -14.0897 0.3048
-7 5 20 -4.3647 -3.0461
-7 7 1 3.0097 -0.0055
-7 7 2 7.2314 -0.2632
-7 7 3 3.7711 0.4459
-7 7 4 -13.4031 -0.5605
-7 7 5 3.0501 0.6792
-7 7 6 -1.0709 -0.6284
-7 7 7 8.1284 0.2902
-7 7 8 3.4972 -0.1069
-7 7 9 -4.1674 0.2367
-7 7 10 -3.6691 -0.3748
-7 7 11 1.8906 0.2013
-7 7 12 -3.8122 -0.1744
-7 7 13 8.4237 0.2572
-7 7 14 0.0408 -0.3837
-7 7 15 15.4287 0.3854
-7 7 16 2.0727 -0.3256
-7 7 17 0.3873 -0.0642
-7 7 18 -9.9039 0.2551
-7 7 19 -7.8344 0.5561
-7 9 1 -7.9423 -0.3515
-7 9 2 -17.7676 0.5295
-7 9 3 -2.0704 -0.5035
-7 9 4 0.1184 0.3889
-7 9 5 -8.7862 -0.3852
-7 9 6 2.3173 0.4887
-7 9 7 -8.1766 -0.4647
-7 9 8 -0.2770 0.3916
-7 9 9 -11.1969 -0.6502
-7 9 10 12.2382 1.0479
-7 9 11 -13.6371 -1.1647
-7 9 12 1.3294 0.8547
-7 9 13 4.2176 -0.3628
-7 9 14 3.0669 0.1168
-7 9 15 -2.1897 -0.2610
-7 9 16 2.9878 0.5074
-7 9 17 7.8327 -0.4604
-7 9 18 -0.9521 0.1716
-7 11 1 -6.8350 0.0558
-7 11 2 -12.6764 -0.2431
-7 11 3 4.7530 0.2101
-7 11 4 4.8856 0.0022
-7 11 5 -6.1641 -0.2108
-7 11 6 -0.4606 0.2593
-7 11 7 2.8039 -0.0735
-7 11 8 -1.3835 -0.3146
-7 11 9 6.2358 0.7875
-7 11 10 11.8462 -0.8567
-7 11 11 31.4405 0.7071
-7 11 12 -15.0695 -0.4883
-7 11 13 -1.3436 0.2598
-7 11 14 -15.5592 0.1234
-7 11 15 3.2179 -0.3376
-7 11 16 -3.8489 0.1921
-7 11 17 1.1211 0.2043
-7 13 1 4.8253 0.1234
-7 13 2 5.0697 -0.2190
-7 13 3 6.7070 0.2224
-7 13 4 -7.1506 -0.3717
-7 13 5 5.8129 0.7085
-7 13 6 -4.2018 -0.8161
-7 13 7 8.7698 0.5352
-7 13 8 -15.0567 -0.1142
-7 13 9 -13.1199 -0.1648
-7 13 10 -11.6231 0.2730
-7 13 11 -14.1881 -0.3962
-7 13 12 -8.7910 0.1830
-7 13 13 -5.6360 0.3352
-7 13 14 -0.1346 -0.6263
-7 13 15 -9.0510 0.4448
-7 13 16 8.6924 -0.3945
-7 15 1 -11.9825 -0.1123
-7 15 2 -8.6338 0.1930
-7 15 3 -6.0431 -0.2878
-7 15 4 1.3439 0.4724
-7 15 5 14.9927 -0.7267
-7 15 6 11.0388 0.7945
-7 15 7 -1.0278 -0.6215
-7 15 8 -14.6656 0.2585
-7 15 9 -4.1382 -0.1221
-7 15 10 -1.2591 0.1142
-7 15 11 -4.3183 -0.0632
-7 15 12 -16.1696 0.1142
-7 15 13 -18.9578 -0.5129
-7 15 14 1.1530 0.7956
-7 17 1 37.3372 -0.1669
-7 17 2 -12.8528 -0.0045
-7 17 3 11.8472 0.0683
-7 17 4 -1.7706 -0.0948
-7 17 5 0.1817 0.2075
-7 17 6 -3.9588 -0.2793
-7 17 7 6.5654 0.2723
-7 17 8 -11.6009 -0.0723
-7 17 9 23.4120 -0.0632
-7 17 10 11.2789 0.1290
-7 17 11 28.1755 0.0764
-7 17 12 -6.8483 -0.2711
-7 19 1 16.5285 0.3066
-7 19 2 0.0261 -0.1836
-7 19 3 1.6895 0.1184
-7 19 4 15.8315 -0.1712
-7 19 5 -2.7292 0.3022
-7 19 6 -10.5751 -0.3032
-7 19 7 6.3389 0.1487
-7 19 8 -5.0021 -0.1109
-7 19 9 2.5970 0.1757
-7 21 1 -11.0534 -0.0775
-6 0 1 59.6252 5.5452
-6 0 2 -62.5968 2.1768
-6 0 3 84.5638 -7.1375
-6 0 4 -54.3985 10.2978
-6 0 5 75.4189 -11.6973
-6 0 6 32.3763 10.8681
-6 0 7 2.0173 -7.7586
-6 0 8 -8.3084 3.9138
-6 0 9 -20.0568 -0.3160
-6 0 10 11.1234 -1.5870
-6 0 11 -9.2353 1.1582
-6 0 13 4.4918 -4.4195
-6 0 14 -3.6782 6.9670
-6 0 15 -12.0400 -8.4462
-6 0 16 -7.8952 7.7849
-6 0 17 8.3245 -5.7089
-6 0 18 -9.0595 2.8305
-6 0 19 -2.9974 -0.5816
-6 0 20 15.4102 -1.0249
-6 2 1 -15.9948 -2.0100
-6 2 2 110.9536 0.4537
-6 2 3 -57.5949 2.1961
-6 2 4 -4.6788 -2.7755
-6 2 5 -31.2716 1.5589
-6 2 6 24.4896 -1.2555
-6 2 7 -15.5754 1.4650
-6 2 8 -15.6110 -1.1060
-6 2 9 -3.6814 0.6333
-6 2 10 0.3251 -0.5210
-6 2 11 -19.2369 0.4409
-6 2 12 2.9285 -0.5144
-6 2 13 3.2230 0.9109
-6 2 14 10.1737 -1.1289
-6 2 15 -8.1039 1.0680
-6 2 16 10.9643 -1.0172
-6 2 17 -6.5295 1.1692
-6 2 18 -0.1169 -0.7837
-6 2 19 -3.6272 0.1132
-6 2 20 5.2007 0.3338
-6 4 1 8.7045 1.1069
-6 4 2 -19.6424 -0.5150
-6 4 3 -10.9884 -0.2044
-6 4 4 -8.3216 -0.1184
-6 4 5 -3.5339 0.8902
-6 4 6 10.0311 -0.9745
-6 4 7 -25.8734 0.6454
-6 4 8 4.3076 -0.2891
-6 4 9 20.5097 -0.2116
-6 4 10 19.6840 0.3700
-6 4 11 -9.0247 -0.0988
-6 4 12 -5.2040 -0.1043
-6 4 13 6.4005 0.2871
-6 4 14 -0.2307 -0.7012
-6 4 15 5.2813 0.9459
-6 4 16 -4.1596 -0.4562
-6 4 17 5.5304 0.0952
-6 4 18 -4.6454 -0.6834
-6 4 19 -0.5465 0.6005
-6 4 20 -1.7289 1.9849
-6 6 1 -34.7852 -0.1034
-6 6 2 32.8450 0.2174
-6 6 3 -10.1451 -0.6342
-6 6 4 -17.2381 0.8974
-6 6 5 3.7738 -1.2030
-6 6 6 11.5806 1.6746
-6 6 7 -4.0088 -1.4697
-6 6 8 6.5614 0.6123
-6 6 9 3.5496 0.0753
-6 6 10 2.8171 -0.2158
-6 6 11 -7.1310 0.1597
-6 6 12 -4.5790 0.1476
-6 6 13 -3.0729 -0.8771
-6 6 14 -3.7890 1.1482
-6 6 15 4.2001 -1.0488
-6 6 16 3.7845 1.1218
-6 6 17 12.0627 -0.9550
-6 6 18 5.4916 0.0499
-6 6 19 1.6665 0.0435
-6 8 1 19.2701 -0.5092
-6 8 2 -3.6665 0.2630
-6 8 3 4.0869 0.2168
-6 8 4 -11.9644 -0.7084
-6 8 5 5.5516 1.0962
-6 8 6 13.2933 -1.3118
-6 8 7 -9.5762 0.9508
-6 8 8 -6.7755 -0.2402
-6 8 9 -9.8676 -0.4328
-6 8 10 3.7231 0.6354
-6 8 11 -6.9164 -0.2958
-6 8 12 12.6928 -0.0157
-6 8 13 -14.0156 0.3320
-6 8 14 -1.0591 -0.5728
-6 8 15 -25.3472 0.7633
-6 8 16 5.6012 -0.8571
-6 8 17 -7.7053 0.7908
-6 8 18 1.7835 -0.2954
-6 8 19 3.3266 -0.6521
-6 10 1 -6.0205 0.9004
-6 10 2 7.3375 -0.6264
-6 10 3 -9.5716 0.1151
-6 10 4 10.0087 0.3363
-6 10 5 -3.7082 -0.4807
-6 10 6 6.0716 0.3930
-6 10 7 -0.7953 -0.1256
-6 10 8 5.4132 -0.0856
-6 10 9 -18.0662 0.4450
-6 10 10 -1.8382 -0.8945
-6 10 11 10.2190 0.8267
-6 10 12 2.1262 -0.4150
-6 10 13 -1.2223 0.0403
-6 10 14 -4.2759 0.0832
-6 10 15 7.8018 -0.0822
-6 10 16 -8.0166 0.0952
-6 10 17 -5.5026 -0.1057
-6 10 18 -1.8300 -0.0722
-6 12 1 -10.2713 -0.6248
-6 12 2 -9.3290 0.6017
-6 12 3 10.0957 -0.2851
-6 12 4 2.0511 -0.0232
-6 12 5 2.4529 -0.0159
-6 12 6 -4.4906 0.1267
-6 12 7 -7.3245 -0.2261
-6 12 8 11.3320 0.4019
-6 12 9 -3.7568 -0.6245
-6 12 10 3.2186 0.6654
-6 12 11 16.6340 -0.4323
-6 12 12 2.4089 0.3176
-6 12 13 -13.3229 -0.4404
-6 12 14 6.6783 0.3701
-6 12 15 8.4840 -0.0945
-6 12 16 8.8297 0.0709
-6 12 17 4.8618 -0.4454
-6 14 1 -22.4576 0.1092
-6 14 2 -11.8813 -0.0301
-6 14 3 8.1117 0.0251
-6 14 4 -3.8220 -0.0331
-6 14 5 5.1119 0.1424
-6 14 6 -8.4361 -0.2268
-6 14 7 -1.3678 0.2385
-6 14 8 2.6489 -0.2051
-6 14 9 7.5644 0.0617
-6 14 10 -2.3771 0.0704
-6 14 11 10.3829 -0.0098
-6 14 12 -4.0913 -0.0768
-6 14 13 9.8047 0.1218
-6 14 14 6.7716 -0.1921
-6 14 15 14.2452 0.3419
-6 16 1 -2.4214 0.3869
-6 16 2 -0.3310 -0.3140
-6 16 3 9.2851 0.1802
-6 16 4 1.2263 -0.0774
-6 16 5 -1.9942 -0.0358
-6 16 6 7.6385 0.1016
-6 16 7 4.8046 -0.1008
-6 16 8 14.6540 -0.0582
-6 16 9 12.2371 0.4538
-6 16 10 -6.7291 -0.7632
-6 16 11 20.2701 0.6051
-6 16 12 7.1326 -0.2603
-6 16 13 -6.2542 0.1410
-6 18 1 30.1508 -0.4173
-6 18 2 6.7107 0.4184
-6 18 3 1.7937 -0.2175
-6 18 4 10.7696 -0.0490
-6 18 5 -29.4592 0.1426
-6 18 6 -9.7883 -0.1006
-6 18 7 6.7696 0.0638
-6 18 8 9.6214 0.1970
-6 18 9 10.9854 -0.5892
-6 18 10 -0.1371 0.7876
-6 20 1 -0.5312 0.1500
-6 20 2 -4.9862 -0.1383
-6 20 3 -1.9860 0.0683
-6 20 4 -9.6622 0.1888
-6 20 5 -8.1803 -0.4285
-6 20 6 -1.1626 0.3857
-5 1 1 16.8344 2.0114
-5 1 2 -79.9798 -2.6712
-5 1 3 59.1316 -0.0374
-5 1 4 -19.9273 2.2909
-5 1 5 12.1166 -2.6915
-5 1 6 -61.8259 2.1778
-5 1 7 18.7989 -0.9704
-5 1 8 0.2035 -1.0528
-5 1 9 9.7203 2.8304
-5 1 10 -4.1015 -3.3582
-5 1 11 22.6489 3.0670
-5 1 12 -4.0267 -2.0776
-5 1 13 -14.4881 0.3283
-5 1 14 -1.1942 1.1670
-5 1 15 11.0859 -1.5916
-5 1 16 1.1831 1.4929
-5 1 17 0.4029 -0.8714
-5 1 18 -5.4819 -0.5320
-5 1 19 -10.3160 1.6336
-5 1 20 -4.5637 -1.3550
-5 3 1 21.9249 -1.6930
-5 3 2 -34.7322 1.4733
-5 3 3 -78.5353 -0.7316
-5 3 4 -26.0446 -0.7909
-5 3 5 -2.3365 1.7769
-5 3 6 -9.6831 -1.2065
-5 3 7 0.9149 -0.0616
-5 3 8 -13.8127 1.1313
-5 3 9 -11.4444 -1.8844
-5 3 10 -20.6846 2.3254
-5 3 11 30.9247 -2.2308
-5 3 12 -4.3493 1.5193
-5 3 13 13.3963 -0.5379
-5 3 14 -15.8928 -0.2213
-5 3 15 3.6514 0.7004
-5 3 16 -18.7493 -0.8622
-5 3 17 6.3731 0.2673
-5 3 18 -8.0851 0.7900
-5 3 19 11.5588 -1.0058
-5 3 20 -7.9491 0.2187
-5 5 1 17.0440 0.6866
-5 5 2 -32.9656 -0.6052
-5 5 3 26.8910 0.4590
-5 5 4 -18.6605 0.6764
-5 5 5 32.6172 -1.3571
-5 5 6 1.4397 0.7154
-5 5 7 2.5688 0.0624
-5 5 8 6.4364 -0.5414
-5 5 9 -19.6134 0.8760
-5 5 10 4.5915 -1.0617
-5 5 11 -4.1755 0.8559
-5 5 12 1.3301 -0.6576
-5 5 13 4.1675 0.4848
-5 5 14 11.8857 0.0942
-5 5 15 -5.1742 -0.7204
-5 5 16 -9.5651 0.2899
-5 5 17 -12.3764 0.3151
-5 5 18 2.0414 0.2584
-5 5 19 1.0160 -0.4194
-5 5 20 5.5928 -2.6642
-5 7 1 -3.0969 -0.2597
-5 7 2 8.2051 0.0502
-5 7 3 16.8678 0.2633
-5 7 4 -6.7394 -0.5696
-5 7 5 5.1520 0.6402
-5 7 6 -14.0686 -0.5688
-5 7 7 -5.6522 0.3004
-5 7 8 -11.5752 0.0888
-5 7 9 13.2641 0.0475
-5 7 10 -7.9828 -0.2760
-5 7 11 14.3964 0.0814
-5 7 12 -1.2198 0.0636
-5 7 13 -2.7783 0.1639
-5 7 14 4.0116 -0.2667
-5 7 15 12.2402 0.2639
-5 7 16 13.8264 -0.3187
-5 7 17 -4.9118 0.2740
-5 7 18 -16.5102 -0.0634
-5 7 19 11.4057 0.2544
-5 9 1 13.5652 -0.0423
-5 9 2 -2.4204 0.2064
-5 9 3 0.7213 -0.3592
-5 9 4 12.1168 0.3178
-5 9 5 -11.5996 -0.1947
-5 9 6 7.5507 0.2490
-5 9 7 9.2330 -0.2337
-5 9 8 -13.4295 0.1813
-5 9 9 -5.5349 -0.4157
-5 9 10 7.3718 0.8480
-5 9 11 -3.3495 -0.8193
-5 9 12 12.0342 0.4317
-5 9 13 8.2800 -0.1353
-5 9 14 10.7179 0.0741
-5 9 15 -0.3298 -0.0410
-5 9 16 4.5718 0.0592
-5 9 17 5.8371 -0.1305
-5 9 18 -1.1506 0.2756
-5 11 1 1.9765 0.0135
-5 11 2 0.7446 -0.1708
-5 11 3 3.8762 0.2153
-5 11 4 4.8201 -0.0184
-5 11 5 9.0210 -0.2657
-5 11 6 0.8048 0.3484
-5 11 7 11.0364 -0.1968
-5 11 8 12.8509 -0.2995
-5 11 9 -13.2371 0.6379
-5 11 10 0.9634 -0.7427
-5 11 11 4.1280 0.6248
-5 11 12 3.8604 -0.4793
-5 11 13 3.1426 0.1372
-5 11 14 11.5612 0.2163
-5 11 15 4.0787 -0.4132
-5 11 16 9.8337 0.2452
-5 11 17 0.1699 -0.0109
-5 13 1 -4.9020 0.0406
-5 13 2 3.2185 -0.1214
-5 13 3 20.9884 0.1024
-5 13 4 -4.5829 -0.2322
-5 13 5 -5.8165 0.5875
-5 13 6 -9.1244 -0.7176
-5 13 7 15.3303 0.4569
-5 13 8 2.0642 0.0319
-5 13 9 5.8019 -0.2693
-5 13 10 -0.3795 0.3706
-5 13 11 1.1361 -0.4230
-5 13 12 6.3826 0.2493
-5 13 13 13.9294 0.3004
-5 13 14 2.6981 -0.6342
-5 13 15 4.5931 0.4810
-5 13 16 0.4972 -0.2865
-5 15 1 -15.6595 0.0052
-5 15 2 -19.0754 0.0657
-5 15 3 8.6261 -0.1584
-5 15 4 5.4319 0.3204
-5 15 5 -3.6504 -0.5909
-5 15 6 -0.2830 0.6826
-5 15 7 -21.1107 -0.4554
-5 15 8 -0.5089 0.1156
-5 15 9 -6.7605 0.1339
-5 15 10 6.8749 -0.1634
-5 15 11 2.4473 0.1165
-5 15 12 -8.8152 -0.0084
-5 15 13 -0.7014 -0.1864
-5 15 14 -7.7824 0.4942
-5 17 1 -4.4195 -0.1597
-5 17 2 -15.3847 -0.0170
-5 17 3 -27.8820 0.1041
-5 17 4 -1.3517 -0.1002
-5 17 5 19.2803 0.2054
-5 17 6 0.6179 -0.2958
-5 17 7 -4.3602 0.2337
-5 17 8 -11.5089 -0.1455
-5 17 9 6.2405 -0.0493
-5 17 10 -16.7432 0.1098
-5 17 11 -11.8702 -0.0109
-5 17 12 -1.9930 -0.1987
-5 19 1 2.0971 0.1725
-5 19 2 -10.8728 -0.1475
-5 19 3 -22.6625 0.0394
-5 19 4 3.5583 -0.1023
-5 19 5 -22.1410 0.2335
-5 19 6 -4.5635 -0.2103
-5 19 7 5.3475 0.0702
-5 19 8 7.6094 -0.0459
-5 19 9 -1.6431 0.1389
-5 21 1 -9.3156 -0.0126
-5 21 2 -0.5876 0.0546
-4 0 1 -80.6853 10.6945
-4 0 2 -65.7777 -1.4051
-4 0 3 -91.5525 -3.7319
-4 0 4 8.2422 6.3379
-4 0 5 0.5032 -7.8268
-4 0 6 28.9061 6.6705
-4 0 7 21.0751 -3.4342
-4 0 8 -16.3803 -0.4106
-4 0 9 4.7435 3.6371
-4 0 10 -13.7984 -5.7575
-4 0 12 11.3995 -1.8891
-4 0 13 21.8209 -1.1352
-4 0 14 -12.7334 3.7481
-4 0 15 -15.3229 -5.3431
-4 0 16 -11.0747 4.9481
-4 0 17 1.3776 -2.5743
-4 0 18 15.1697 0.1211
-4 0 19 10.1375 1.9536
-4 0 20 10.4366 -3.4288
-4 2 1 -24.5274 -2.1076
-4 2 2 61.4698 0.5101
-4 2 3 63.7754 1.4714
-4 2 4 57.8166 -1.3531
-4 2 5 15.5626 0.6439
-4 2 6 38.5741 -0.5674
-4 2 7 42.7172 0.5737
-4 2 8 13.8999 -0.1323
-4 2 9 -10.2616 -0.3154
-4 2 10 16.6196 0.4536
-4 2 11 -18.0897 -0.3501
-4 2 12 -8.3972 0.2114
-4 2 13 -1.3104 0.1380
-4 2 14 5.3117 -0.5139
-4 2 15 -12.9790 0.4353
-4 2 16 -10.8936 -0.3225
-4 2 17 -1.0143 0.4213
-4 2 18 -1.3179 -0.1494
-4 2 19 -5.2010 -0.5245
-4 2 20 -14.5108 0.5280
-4 4 1 9.0498 0.7619
-4 4 2 40.5374 -0.2289
-4 4 3 58.0376 -0.4409
-4 4 4 -24.1391 0.0684
-4 4 5 -18.1278 0.5743
-4 4 6 -46.2082 -0.7680
-4 4 7 2.0122 0.5139
-4 4 8 12.5004 0.1050
-4 4 9 26.2437 -0.4981
-4 4 10 2.8863 0.5812
-4 4 11 -10.1569 -0.3627
-4 4 12 -14.8883 0.1464
-4 4 13 9.6584 -0.0634
-4 4 14 1.7920 -0.3477
-4 4 15 0.4966 0.7715
-4 4 16 3.0589 -0.3986
-4 4 17 3.8534 -0.2093
-4 4 18 -4.3676 -0.3611
-4 4 19 -4.1685 0.5696
-4 4 20 3.9462 1.3180
-4 6 1 -11.7256 0.2969
-4 6 2 2.7295 -0.1240
-4 6 3 9.5455 -0.2270
-4 6 4 1.5794 0.4632
-4 6 5 -32.9452 -0.8675
-4 6 6 7.1042 1.2342
-4 6 7 -11.8538 -0.8079
-4 6 8 27.2820 -0.2116
-4 6 9 1.7525 0.6206
-4 6 10 12.2143 -0.7468
-4 6 11 -9.5342 0.8522
-4 6 12 -10.6260 -0.3872
-4 6 13 1.1362 -0.3521
-4 6 14 -3.0889 0.6670
-4 6 15 -0.5757 -0.5845
-4 6 16 16.6811 0.8733
-4 6 17 -0.0596 -0.7292
-4 6 18 -10.0268 -0.1954
-4 6 19 8.1031 0.6995
-4 6 20 -5.3870 1.0275
-4 8 1 10.5277 -0.6292
-4 8 2 -14.3852 0.3087
-4 8 3 -6.3376 0.2199
-4 8 4 -0.9876 -0.6688
-4 8 5 -6.2382 0.9197
-4 8 6 -3.1261 -0.8771
-4 8 7 5.7634 0.6124
-4 8 8 -13.7582 -0.0372
-4 8 9 5.6985 -0.6108
-4 8 10 1.1599 0.9088
-4 8 11 -2.7247 -0.7001
-4 8 12 -11.7253 0.2447
-4 8 13 -7.6976 0.0638
-4 8 14 -14.1582 -0.4736
-4 8 15 18.2748 0.6586
-4 8 16 -3.4656 -0.6185
-4 8 17 4.4118 0.1841
-4 8 18 5.5769 0.1604
-4 8 19 -4.7052 -0.2136
-4 10 1 2.1122 0.6636
-4 10 2 -0.2202 -0.3336
-4 10 3 -4.2675 -0.1538
-4 10 4 -0.8849 0.5358
-4 10 5 -14.4683 -0.5955
-4 10 6 -4.5215 0.3764
-4 10 7 8.5599 -0.2502
-4 10 8 7.3931 0.0812
-4 10 9 -3.6425 0.4168
-4 10 10 1.1124 -0.7841
-4 10 11 1.2571 0.5725
-4 10 12 9.4769 -0.0342
-4 10 13 17.5191 -0.1350
-4 10 14 3.3260 0.1766
-4 10 15 -6.0854 -0.2616
-4 10 16 -0.3293 0.5087
-4 10 17 8.0344 -0.3003
-4 10 18 0.9115 -0.4469
-4 12 1 7.5909 -0.4544
-4 12 2 6.7920 0.3202
-4 12 3 2.3780 0.0476
-4 12 4 4.1556 -0.2929
-4 12 5 0.4865 0.2293
-4 12 6 -6.1796 -0.0521
-4 12 7 16.2907 -0.0248
-4 12 8 27.6649 0.0659
-4 12 9 16.8875 -0.2089
-4 12 10 7.9701 0.2726
-4 12 11 -6.8713 -0.1810
-4 12 12 2.2242 0.0753
-4 12 13 14.9859 -0.0933
-4 12 14 4.2445 -0.0033
-4 12 15 -3.5373 0.0522
-4 12 16 10.8347 -0.0371
-4 12 17 -1.8065 -0.0382
-4 14 1 -11.3875 0.0811
-4 14 2 -8.3342 -0.0163
-4 14 3 1.3513 -0.0334
-4 14 4 -1.4807 -0.0157
-4 14 5 -13.5715 0.0678
-4 14 6 0.3333 -0.1183
-4 14 7 13.4134 0.2053
-4 14 8 8.8470 -0.0997
-4 14 9 -3.1174 -0.1410
-4 14 10 9.6697 0.2379
-4 14 11 -13.4188 -0.1514
-4 14 12 8.7074 0.0745
-4 14 13 13.4939 -0.0930
-4 14 14 11.7556 0.0932
-4 14 15 -2.0050 0.1903
-4 16 1 -11.9089 0.1793
-4 16 2 -15.7817 -0.1028
-4 16 3 -25.3499 0.0095
-4 16 4 1.5565 0.1211
-4 16 5 16.9507 -0.2336
-4 16 6 -5.5543 0.2827
-4 16 7 18.4763 -0.2779
-4 16 8 2.1355 0.0570
-4 16 9 18.4120 0.2960
-4 16 10 -2.6061 -0.5111
-4 16 11 -25.4417 0.4220
-4 16 12 -4.3162 -0.1390
-4 16 13 0.5349 -0.0739
-4 18 1 9.9555 -0.2787
-4 18 2 0.0176 0.2552
-4 18 3 -20.8615 -0.0235
-4 18 4 3.0152 -0.1832
-4 18 5 2.5612 0.2687
-4 18 6 -2.0041 -0.3225
-4 18 7 -17.5291 0.2535
-4 18 8 7.0646 0.0924
-4 18 9 2.0374 -0.4881
-4 18 10 0.5569 0.6143
-4 18 11 -25.2924 -0.4388
-4 20 1 8.1104 0.1998
-4 20 2 12.1564 -0.1370
-4 20 3 -9.3613 0.0063
-4 20 4 12.2027 0.1705
-4 20 5 -19.7163 -0.3566
-4 20 6 -7.7406 0.4082
-4 20 7 -1.3726 -0.2146
-3 1 1 29.1849 -0.3111
-3 1 2 18.5718 -1.9269
-3 1 3 -14.7446 -0.6534
-3 1 4 23.8358 3.1409
-3 1 5 -0.9151 -3.6592
-3 1 6 7.1076 3.2936
-3 1 7 -14.8995 -1.9866
-3 1 8 18.9696 -0.2063
-3 1 9 1.8140 1.9772
-3 1 10 5.6923 -2.4322
-3 1 11 1.9986 2.0403
-3 1 12 -8.8121 -1.1479
-3 1 13 -9.0981 -0.5731
-3 1 14 15.9740 2.1289
-3 1 15 8.3071 -2.5269
-3 1 16 12.9352 2.2430
-3 1 17 -4.6419 -1.6180
-3 1 18 -7.5492 0.1911
-3 1 19 -19.6639 1.3945
-3 1 20 1.5112 -1.3205
-3 3 1 6.5171 -0.8328
-3 3 2 11.8795 1.4571
-3 3 3 -76.1637 0.3333
-3 3 4 -7.6691 -2.4468
-3 3 5 -6.1724 2.9502
-3 3 6 27.6798 -2.1843
-3 3 7 13.6373 1.0973
-3 3 8 -12.2837 -0.1375
-3 3 9 -9.3631 -0.7286
-3 3 10 8.6449 1.1641
-3 3 11 -6.4801 -1.0543
-3 3 12 11.4884 0.4705
-3 3 13 -17.2352 0.5635
-3 3 14 4.3226 -1.3601
-3 3 15 -10.3937 1.6654
-3 3 16 2.6864 -1.7399
-3 3 17 -8.9370 1.2926
-3 3 18 3.5321 -0.0931
-3 3 19 -12.3885 -0.7764
-3 3 20 2.3956 0.3087
-3 5 1 40.9626 0.7062
-3 5 2 -88.7285 -0.7914
-3 5 3 -32.6962 -0.0208
-3 5 4 -37.8731 1.2362
-3 5 5 9.5234 -1.6657
-3 5 6 61.8974 1.2358
-3 5 7 -5.2507 -0.6312
-3 5 8 11.9824 0.1156
-3 5 9 -40.2530 0.5299
-3 5 10 7.8180 -0.5818
-3 5 11 -10.8487 0.2430
-3 5 12 7.7537 -0.2519
-3 5 13 -8.3675 0.1326
-3 5 14 9.0269 0.6406
-3 5 15 -10.9842 -1.2545
-3 5 16 -3.6068 0.7729
-3 5 17 -4.3220 -0.0481
-3 5 18 -10.4428 0.3088
-3 5 19 -15.3360 -0.4076
-3 5 20 -2.8620 -1.1646
-3 7 1 11.5323 -0.6552
-3 7 2 -10.5892 0.4348
-3 7 3 -39.3589 -0.0422
-3 7 4 35.3402 -0.3094
-3 7 5 11.3526 0.6501
-3 7 6 -7.3854 -0.6122
-3 7 7 -4.2273 0.0126
-3 7 8 -5.2765 0.3767
-3 7 9 -6.4341 -0.1948
-3 7 10 0.6794 -0.0827
-3 7 11 1.8718 -0.0997
-3 7 12 -1.6535 0.3122
-3 7 13 -13.5053 -0.0872
-3 7 14 -5.6754 -0.0357
-3 7 15 6.8038 -0.0083
-3 7 16 5.7075 -0.1633
-3 7 17 -19.2160 0.3136
-3 7 18 14.7227 0.0827
-3 7 19 3.8849 -0.4061
-3 9 1 1.9539 0.3650
-3 9 2 0.6551 -0.1990
-3 9 3 11.3688 0.0626
-3 9 4 15.4835 -0.0098
-3 9 5 -13.1809 -0.0093
-3 9 6 -3.0717 -0.1600
-3 9 7 -11.6066 0.2940
-3 9 8 4.0475 -0.2215
-3 9 9 -3.3892 -0.1380
-3 9 10 9.7323 0.3749
-3 9 11 12.5662 -0.2271
-3 9 12 3.8219 -0.2159
-3 9 13 -5.1276 0.3642
-3 9 14 -14.3397 -0.3194
-3 9 15 7.7914 0.2948
-3 9 16 -22.9749 -0.4207
-3 9 17 3.5218 0.3735
-3 9 18 11.3823 -0.0643
-3 11 1 -7.4586 -0.0223
-3 11 2 20.9947 -0.0894
-3 11 3 -5.8257 0.0595
-3 11 4 5.3124 0.1526
-3 11 5 -4.1567 -0.3831
-3 11 6 5.0198 0.5424
-3 11 7 -6.3334 -0.2722
-3 11 8 14.4247 -0.0058
-3 11 9 -4.8304 0.2883
-3 11 10 11.4498 -0.4511
-3 11 11 -1.7723 0.5438
-3 11 12 11.8907 -0.3058
-3 11 13 -14.9149 -0.1114
-3 11 14 -3.7484 0.5754
-3 11 15 -9.2704 -0.5440
-3 11 16 4.3837 0.1195
-3 11 17 -13.3010 0.0665
-3 13 1 -8.2837 -0.1909
-3 13 2 6.0192 0.1673
-3 13 3 2.9304 -0.1564
-3 13 4 1.7649 -0.0730
-3 13 5 6.8935 0.4198
-3 13 6 9.5191 -0.5963
-3 13 7 9.3238 0.2200
-3 13 8 -10.0553 0.1552
-3 13 9 19.1702 -0.4451
-3 13 10 9.6866 0.6203
-3 13 11 15.3238 -0.6499
-3 13 12 15.1090 0.3689
-3 13 13 2.9836 0.0280
-3 13 14 -6.4265 -0.3950
-3 13 15 -1.4163 0.4645
-3 13 16 6.6225 -0.2398
-3 15 1 2.5545 0.2701
-3 15 2 24.4381 -0.2369
-3 15 3 -7.1133 0.1102
-3 15 4 18.4829 0.1152
-3 15 5 0.9273 -0.2816
-3 15 6 -16.8800 0.3782
-3 15 7 -4.0885 -0.1949
-3 15 8 -10.2145 -0.1399
-3 15 9 -2.8321 0.4316
-3 15 10 29.2989 -0.5497
-3 15 11 -3.6226 0.4563
-3 15 12 17.5111 -0.3084
-3 15 13 -12.1181 0.1627
-3 15 14 0.6674 0.0854
-3 17 1 6.7369 -0.1029
-3 17 2 5.3895 0.0385
-3 17 3 -31.1709 0.0035
-3 17 4 17.6492 -0.0927
-3 17 5 6.5136 0.1887
-3 17 6 14.8390 -0.2369
-3 17 7 -8.4263 0.1509
-3 17 8 -4.5910 -0.0094
-3 17 9 10.8701 -0.0746
-3 17 10 -3.7288 0.1945
-3 17 11 -22.4277 -0.1832
-3 17 12 1.5346 0.0397
-3 19 1 -15.4334 -0.0424
-3 19 2 -1.7229 0.0565
-3 19 3 4.6467 -0.1085
-3 19 4 29.3324 0.0528
-3 19 5 4.7481 0.0625
-3 19 6 -5.4007 0.0081
-3 19 7 -23.3539 -0.1358
-3 19 8 4.2109 0.1264
-3 19 9 1.4200 -0.0810
-3 21 1 -6.1442 0.1376
-3 21 2 11.2247 -0.0834
-3 21 3 9.1129 0.0625
-2 0 1 152.8352 16.8293
-2 0 2 -92.0631 -4.4615
-2 0 3 -31.5417 0.1678
-2 0 4 -170.8565 2.0424
-2 0 5 52.2030 -3.5003
-2 0 6 -43.9937 2.0651
-2 0 7 -9.5601 1.4619
-2 0 8 -2.3287 -4.8866
-2 0 9 -56.9074 8.4993
-2 0 11 3.7430 8.8881
-2 0 12 8.7356 -5.9253
-2 0 13 13.8472 2.7744
-2 0 14 -21.4298 -0.0628
-2 0 15 9.1491 -1.6513
-2 0 16 -27.1938 1.4440
-2 0 17 -7.0555 0.6513
-2 0 18 0.1990 -3.1841
-2 0 19 12.6110 4.6645
-2 0 20 22.0783 -5.7442
-2 2 1 -24.0442 -2.1915
-2 2 2 1.4834 0.2531
-2 2 3 19.3327 0.2608
-2 2 4 13.6390 0.0173
-2 2 5 -22.1787 -0.2565
-2 2 6 -8.1492 0.2980
-2 2 7 39.7507 -0.5211
-2 2 8 -2.7734 0.9666
-2 2 9 25.5008 -1.3734
-2 2 10 -37.4485 1.3483
-2 2 11 18.1076 -1.1425
-2 2 12 0.3600 0.9378
-2 2 13 4.3999 -0.7212
-2 2 14 -3.6750 0.4811
-2 2 15 13.4125 -0.3249
-2 2 16 -21.9222 0.2975
-2 2 17 -4.5547 -0.3376
-2 2 18 -4.2273 0.4736
-2 2 19 11.9608 -1.0656
-2 2 20 -12.3681 1.2456
-2 4 1 15.2581 -0.0663
-2 4 2 0.1589 0.2536
-2 4 3 57.6407 -0.5379
-2 4 4 -4.6196 0.3548
-2 4 5 -3.9580 0.2933
-2 4 6 -27.7867 -0.6086
-2 4 7 -16.7230 0.2632
-2 4 8 24.4934 0.3475
-2 4 9 21.0723 -0.9548
-2 4 10 -8.3175 0.9266
-2 4 11 -7.8919 -0.6469
-2 4 12 -4.8048 0.5649
-2 4 13 -11.7194 -0.4163
-2 4 14 -5.5721 -0.2085
-2 4 15 18.5085 0.6813
-2 4 16 -2.9458 -0.1465
-2 4 17 -1.9597 -0.4579
-2 4 18 -0.3181 0.2149
-2 4 19 -2.3583 0.4675
-2 4 20 17.8514 0.3290
-2 6 1 1.2115 0.8042
-2 6 2 11.4525 -0.5938
-2 6 3 39.6857 0.3530
-2 6 4 -0.7470 -0.0234
-2 6 5 14.5652 -0.5611
-2 6 6 -10.5400 0.6866
-2 6 7 12.7555 0.0964
-2 6 8 -2.1236 -0.9220
-2 6 9 12.5108 1.2596
-2 6 10 -11.1752 -1.3581
-2 6 11 -2.0488 1.4743
-2 6 12 9.8306 -0.9517
-2 6 13 1.4277 0.1521
-2 6 14 0.0857 -0.0051
-2 6 15 -9.0592 0.0381
-2 6 16 8.9537 0.1982
-2 6 17 6.5024 -0.3245
-2 6 18 7.6209 -0.5975
-2 6 19 -4.4592 0.9455
-2 6 20 10.6414 0.0601
-2 8 1 24.9722 -0.6937
-2 8 2 5.3200 0.4999
-2 8 3 -3.7308 0.1089
-2 8 4 5.6265 -0.6152
-2 8 5 15.6370 0.6877
-2 8 6 -5.5860 -0.4659
-2 8 7 18.7498 0.1776
-2 8 8 0.6744 0.3269
-2 8 9 4.4020 -0.9104
-2 8 10 -6.9189 1.2023
-2 8 11 19.4668 -1.0346
-2 8 12 -2.3264 0.5574
-2 8 13 7.4156 -0.0954
-2 8 14 -10.2471 -0.2000
-2 8 15 14.2896 0.5211
-2 8 16 -0.5246 -0.3089
-2 8 17 1.8669 -0.0553
-2 8 18 -7.1825 0.3221
-2 8 19 5.5975 0.2374
-2 10 1 -2.3089 0.3578
-2 10 2 3.2389 -0.1265
-2 10 3 -0.8509 -0.4432
-2 10 4 0.9689 0.7271
-2 10 5 6.0194 -0.6916
-2 10 6 4.6832 0.5924
-2 10 7 9.3322 -0.4779
-2 10 8 -7.1612 0.0468
-2 10 9 -3.9926 0.4015
-2 10 10 1.5318 -0.5422
-2 10 11 3.6487 0.2180
-2 10 12 8.9211 0.2293
-2 10 13 -6.3030 -0.3572
-2 10 14 -8.0653 0.1475
-2 10 15 11.2453 -0.4114
-2 10 16 -3.4111 0.7832
-2 10 17 9.7051 -0.7091
-2 10 18 2.3183 -0.5883
-2 12 1 -7.4958 -0.0934
-2 12 2 7.2275 -0.0402
-2 12 3 5.8879 0.3737
-2 12 4 1.4988 -0.5914
-2 12 5 -7.7347 0.5785
-2 12 6 -14.5525 -0.3562
-2 12 7 2.2421 0.2395
-2 12 8 -9.4174 -0.2204
-2 12 9 13.9674 0.2259
-2 12 10 0.1363 -0.1802
-2 12 11 -7.9063 0.2126
-2 12 12 -3.9075 -0.3119
-2 12 13 -9.5351 0.4289
-2 12 14 5.4242 -0.3788
-2 12 15 -10.5716 0.3430
-2 12 16 -7.8177 -0.1296
-2 12 17 -5.2916 0.2839
-2 14 1 0.0051 0.0340
-2 14 2 13.9820 0.0779
-2 14 3 11.7834 -0.0213
-2 14 4 15.3694 0.0842
-2 14 5 -1.6562 -0.1749
-2 14 6 -8.4447 -0.0476
-2 14 7 8.9029 0.1689
-2 14 8 -10.5531 0.0568
-2 14 9 -12.5104 -0.3387
-2 14 10 1.4569 0.3998
-2 14 11 -1.9364 -0.3196
-2 14 12 5.8690 0.1929
-2 14 13 -6.1564 -0.1590
-2 14 14 2.8408 0.0865
-2 14 15 3.5347 0.0296
-2 16 1 -9.4272 -0.0724
-2 16 2 -6.2964 0.0493
-2 16 3 -15.0985 -0.1949
-2 16 4 11.5926 0.2961
-2 16 5 -6.2187 -0.3620
-2 16 6 -2.0076 0.4798
-2 16 7 -9.3777 -0.4143
-2 16 8 1.8799 0.1777
-2 16 9 7.7776 0.1300
-2 16 10 23.9794 -0.3731
-2 16 11 -1.3208 0.3675
-2 16 12 -13.7489 0.0077
-2 16 13 -3.1287 -0.2591
-2 18 1 -30.7166 -0.0656
-2 18 2 -7.7716 -0.0004
-2 18 3 -18.3211 0.2444
-2 18 4 0.7948 -0.4162
-2 18 5 -15.6532 0.4515
-2 18 6 13.6413 -0.5442
-2 18 7 3.6249 0.5458
-2 18 8 0.5307 -0.2503
-2 18 9 23.6985 -0.2130
-2 18 10 15.1703 0.3514
-2 18 11 2.4021 -0.1205
-2 20 1 -16.5051 0.2077
-2 20 2 16.7667 -0.1273
-2 20 3 -3.7980 -0.0364
-2 20 4 16.3998 0.2243
-2 20 5 -18.7684 -0.3270
-2 20 6 -2.8106 0.3255
-2 20 7 1.2584 -0.2185
-1 1 1 -190.8242 -0.9026
-1 1 2 -35.8422 -1.4991
-1 1 3 112.4798 -1.4473
-1 1 4 23.4815 3.9800
-1 1 5 -2.7701 -4.4300
-1 1 6 -24.7505 4.0833
-1 1 7 1.3522 -2.6748
-1 1 8 1.5082 0.3133
-1 1 9 41.1393 1.3018
-1 1 10 -0.3416 -1.6725
-1 1 11 -5.5557 1.3361
-1 1 12 -26.9676 -0.2906
-1 1 13 18.9816 -1.3212
-1 1 14 6.8157 2.8247
-1 1 15 4.7342 -3.3259
-1 1 16 -12.7415 2.8682
-1 1 17 7.3522 -2.0789
-1 1 18 -23.0811 0.6576
-1 1 19 -12.1789 1.3107
-1 1 20 -4.7269 -1.1966
-1 3 1 28.8849 -0.3436
-1 3 2 65.4147 0.7893
-1 3 3 72.3733 1.4400
-1 3 4 44.5459 -3.4069
-1 3 5 -66.7027 3.7158
-1 3 6 17.7230 -3.0722
-1 3 7 3.3289 2.0517
-1 3 8 -19.9903 -0.9733
-1 3 9 -15.2977 0.1980
-1 3 10 11.3822 0.3023
-1 3 11 -22.3416 -0.3000
-1 3 12 -2.2013 -0.4150
-1 3 13 7.8604 1.4503
-1 3 14 3.9746 -2.2104
-1 3 15 -17.4057 2.3406
-1 3 16 -5.6837 -2.2758
-1 3 17 10.2754 1.9491
-1 3 18 -3.8791 -0.8194
-1 3 19 -1.6909 -0.3750
-1 3 20 -0.1620 0.1864
-1 5 1 -68.7512 0.6634
-1 5 2 118.5071 -0.4659
-1 5 3 -11.8046 -0.4603
-1 5 4 -44.8935 1.5590
-1 5 5 -25.0306 -2.0385
-1 5 6 -9.4105 1.7380
-1 5 7 27.6363 -1.1193
-1 5 8 -33.1847 0.4092
-1 5 9 9.0027 0.1283
-1 5 10 3.5245 -0.1936
-1 5 11 33.8445 -0.0923
-1 5 12 3.9916 0.0260
-1 5 13 25.7981 -0.1200
-1 5 14 -2.3498 1.0843
-1 5 15 -10.9456 -1.6778
-1 5 16 -9.1869 1.0970
-1 5 17 4.6686 -0.3460
-1 5 18 1.6142 0.4397
-1 5 19 -12.9638 -0.5355
-1 5 20 -2.5669 -0.4734
-1 7 1 15.4314 -0.8673
-1 7 2 18.5744 0.5510
-1 7 3 41.6429 -0.3227
-1 7 4 -37.6277 -0.0967
-1 7 5 -9.2963 0.6147
-1 7 6 -3.2931 -0.5187
-1 7 7 -14.0277 -0.1691
-1 7 8 6.7630 0.5397
-1 7 9 11.0379 -0.2851
-1 7 10 1.4899 0.1131
-1 7 11 -4.3589 -0.3084
-1 7 12 8.0367 0.4488
-1 7 13 9.1664 -0.3207
-1 7 14 -4.2924 0.1840
-1 7 15 -3.4587 -0.2349
-1 7 16 -1.9959 -0.0780
-1 7 17 7.9779 0.2661
-1 7 18 -7.7285 0.1592
-1 7 19 9.0689 -0.6228
-1 9 1 10.5973 0.5855
-1 9 2 -0.0947 -0.4203
-1 9 3 -12.2972 0.3777
-1 9 4 1.0253 -0.3191
-1 9 5 -3.8966 0.3867
-1 9 6 -7.3516 -0.5815
-1 9 7 8.8085 0.7129
-1 9 8 -7.4580 -0.5165
-1 9 9 5.9948 0.2240
-1 9 10 3.4303 -0.0310
-1 9 11 9.6654 0.2321
-1 9 12 -5.7478 -0.5335
-1 9 13 2.0140 0.6391
-1 9 14 -17.7416 -0.4637
-1 9 15 -10.1887 0.5065
-1 9 16 -9.0482 -0.6349
-1 9 17 -2.4445 0.7852
-1 9 18 0.0616 -0.1956
-1 11 1 -9.9146 -0.0708
-1 11 2 19.9049 -0.0675
-1 11 3 -5.1981 0.0181
-1 11 4 -4.7349 0.3267
-1 11 5 8.7944 -0.6878
-1 11 6 -2.6115 0.6013
-1 11 7 6.5924 -0.3990
-1 11 8 0.7563 0.1576
-1 11 9 10.5420 0.0320
-1 11 10 -4.0720 -0.3596
-1 11 11 0.2349 0.3957
-1 11 12 5.7079 -0.1455
-1 11 13 3.4153 -0.3813
-1 11 14 -7.0085 0.7745
-1 11 15 14.9062 -0.7193
-1 11 16 -30.0879 0.0945
-1 11 17 -5.6321 -0.1294
-1 13 1 -7.3280 -0.4117
-1 13 2 -5.8858 0.4037
-1 13 3 -6.1019 -0.3464
-1 13 4 2.9252 0.0004
-1 13 5 -7.3236 0.4335
-1 13 6 21.9527 -0.3801
-1 13 7 9.9937 0.0679
-1 13 8 17.0458 0.3577
-1 13 9 -7.5463 -0.5935
-1 13 10 -0.0198 0.7820
-1 13 11 -19.7027 -0.7831
-1 13 12 16.8392 0.5875
-1 13 13 -9.2344 -0.1823
-1 13 14 0.0614 -0.1948
-1 13 15 -22.9010 0.3745
-1 13 16 23.7633 -0.0919
-1 15 1 0.5816 0.4567
-1 15 2 -7.9723 -0.4182
-1 15 3 12.0056 0.2505
-1 15 4 8.5607 -0.0702
-1 15 5 19.9405 -0.1034
-1 15 6 6.6452 0.1646
-1 15 7 2.0908 -0.0074
-1 15 8 0.2536 -0.4473
-1 15 9 -16.1648 0.7285
-1 15 10 -10.2294 -0.7399
-1 15 11 4.0557 0.6601
-1 15 12 1.2929 -0.5282
-1 15 13 -11.7784 0.3490
-1 15 14 -3.3302 -0.0594
-1 17 1 -10.9464 -0.1215
-1 17 2 11.7295 0.1187
-1 17 3 -3.6445 -0.0466
-1 17 4 18.4010 -0.0733
-1 17 5 2.4688 0.1615
-1 17 6 29.1732 -0.1150
-1 17 7 -1.7790 -0.0349
-1 17 8 6.0148 0.1476
-1 17 9 -4.5048 -0.1726
-1 17 10 2.6506 0.2775
-1 17 11 -0.9604 -0.3729
-1 17 12 -4.8501 0.2389
-1 19 1 -20.5997 -0.2182
-1 19 2 -1.7645 0.2058
-1 19 3 -4.6206 -0.2013
-1 19 4 -10.7404 0.2142
-1 19 5 -1.9736 -0.1571
-1 19 6 5.1417 0.1498
-1 19 7 32.1470 -0.2622
-1 19 8 -15.3274 0.2991
-1 19 9 8.2089 -0.2861
-1 21 1 1.9197 0.2546
-1 21 2 -4.5089 -0.3097
-1 21 3 10.1541 0.2117
0 0 2 -113.6817 -6.1995
0 0 3 -246.1495 2.4952
0 0 4 113.9116 -0.1257
0 0 5 105.0722 -1.5593
0 0 7 -36.6391 3.4919
0 0 8 32.0157 -7.3046
0 0 9 -39.9352 10.0061
0 0 10 -21.6347 -11.7994
0 0 11 -2.6133 10.7224
0 0 12 53.2998 -7.5560
0 0 13 -25.7657 4.2028
0 0 14 7.6416 -1.5396
0 0 15 -24.7370 -0.2086
0 0 16 28.6279 -0.0837
0 0 17 -30.8049 2.1676
0 0 18 26.7372 -4.2952
0 0 19 2.6270 5.6795
0 0 20 9.6744 -6.7308
0 2 1 57.1691 -2.8077
0 2 2 -241.9144 1.3265
0 2 3 -53.5235 -0.1494
0 2 4 17.6289 0.2132
0 2 5 26.3914 -0.6694
0 2 6 19.6484 0.8056
0 2 7 -13.9498 -0.9871
0 2 8 8.3076 1.5468
0 2 9 -18.4976 -1.7085
0 2 10 17.9466 1.6329
0 2 11 13.9117 -1.5744
0 2 12 19.7517 1.3802
0 2 13 -8.9919 -1.0608
0 2 14 -2.9715 0.7917
0 2 15 7.0588 -0.5375
0 2 16 -6.0598 0.5049
0 2 17 0.9760 -0.6218
0 2 18 4.0972 0.8782
0 2 19 1.4877 -1.3919
0 2 20 0.7005 1.4894
0 4 0 92.6309 0.3147
0 4 1 -32.7905 0.3005
0 4 2 99.6443 0.3237
0 4 3 -262.7782 -0.9653
0 4 4 125.1231 0.5143
0 4 5 -34.0463 0.3673
0 4 6 37.0793 -0.4855
0 4 7 -11.0156 -0.0030
0 4 8 22.9291 0.6175
0 4 9 5.2272 -1.0212
0 4 10 3.4617 1.0606
0 4 11 10.0620 -0.6979
0 4 12 -6.7999 0.6799
0 4 13 -27.3329 -0.5662
0 4 14 16.8458 -0.1103
0 4 15 8.9778 0.5637
0 4 16 13.9824 -0.0968
0 4 17 -23.2294 -0.5802
0 4 18 -15.4756 0.1829
0 4 19 -2.1941 0.2900
0 4 20 8.6758 0.2860
0 6 0 33.0162 -0.9965
0 6 1 7.0500 0.8685
0 6 2 -67.2751 -0.8195
0 6 3 -2.9776 0.7284
0 6 4 -37.9939 -0.4330
0 6 5 70.9693 -0.2022
0 6 6 -19.9960 0.3694
0 6 7 -25.4031 0.3712
0 6 8 -2.7983 -1.2133
0 6 9 -10.4665 1.5199
0 6 10 0.7821 -1.7506
0 6 11 -5.4028 1.7654
0 6 12 -3.4024 -1.1855
0 6 13 -8.7660 0.3066
0 6 14 8.3786 -0.1779
0 6 15 7.8220 0.3396
0 6 16 2.5893 0.1094
0 6 17 -1.9064 -0.1243
0 6 18 14.2705 -0.5948
0 6 19 12.5213 1.1550
0 6 20 1.1017 -0.1711
0 8 0 40.4513 0.6420
0 8 1 -14.7294 -0.6734
0 8 2 -10.3465 0.4156
0 8 3 -41.2351 -0.0275
0 8 4 58.7930 -0.2807
0 8 5 -22.5864 0.4091
0 8 6 14.0552 -0.3998
0 8 7 -8.5377 0.0680
0 8 8 5.7476 0.5100
0 8 9 -6.5844 -1.1469
0 8 10 -2.1300 1.3399
0 8 11 1.5870 -1.1040
0 8 12 6.3461 0.6790
0 8 13 0.0682 -0.0906
0 8 14 14.5200 -0.3576
0 8 15 -8.3630 0.4500
0 8 16 -6.3299 -0.2586
0 8 17 -2.1820 -0.3708
0 8 18 10.6712 0.4485
0 8 19 -9.2476 0.2100
0 10 0 35.7030 -0.1703
0 10 1 12.8390 0.2098
0 10 2 -16.9501 0.1291
0 10 3 -5.5717 -0.4674
0 10 4 7.8574 0.6960
0 10 5 4.8669 -0.7415
0 10 6 7.6060 0.8033
0 10 7 0.9450 -0.6104
0 10 8 12.2558 0.1906
0 10 9 -15.8832 0.3309
0 10 10 -4.3738 -0.4023
0 10 11 1.5623 0.1057
0 10 12 -2.6611 0.2496
0 10 13 9.3343 -0.3634
0 10 14 -2.1378 0.2719
0 10 15 0.7352 -0.3373
0 10 16 2.4338 0.7775
0 10 17 3.8523 -0.5831
0 10 18 10.8350 -0.6968
0 12 0 30.3106 -0.0231
0 12 1 -5.4627 0.0786
0 12 2 -7.3622 -0.2121
0 12 3 -17.1680 0.4442
0 12 4 7.1571 -0.7069
0 12 5 1.6665 0.6645
0 12 6 2.6535 -0.5628
0 12 7 3.0144 0.5190
0 12 8 5.7358 -0.5260
0 12 9 -1.6365 0.3575
0 12 10 13.1099 -0.2601
0 12 11 -1.0840 0.3503
0 12 12 19.8067 -0.5204
0 12 13 15.8066 0.5824
0 12 14 2.3992 -0.6019
0 12 15 2.9122 0.4022
0 12 16 13.4444 -0.2233
0 12 17 10.5990 0.4831
0 14 0 20.4009 -0.1685
0 14 1 18.8214 -0.0030
0 14 2 -2.3163 0.0095
0 14 3 1.9637 0.0048
0 14 4 3.9876 0.1221
0 14 5 -11.8509 -0.1772
0 14 6 16.1255 0.0717
0 14 7 1.0342 0.0198
0 14 8 5.3406 0.1429
0 14 9 -0.8497 -0.3620
0 14 10 -1.0847 0.4402
0 14 11 7.8463 -0.3478
0 14 12 18.8941 0.2277
0 14 13 -15.0690 -0.1436
0 14 14 4.5747 0.1841
0 14 15 6.6431 0.0391
0 16 0 -4.9599 0.2184
0 16 1 -3.1049 -0.0986
0 16 2 10.5611 0.1488
0 16 3 -0.2814 -0.2612
0 16 4 5.9275 0.4193
0 16 5 -10.5960 -0.4864
0 16 6 -6.8457 0.4199
0 16 7 -13.4929 -0.3623
0 16 8 13.0942 0.2564
0 16 9 -6.5260 0.0029
0 16 10 2.4425 -0.2994
0 16 11 -10.1889 0.2480
0 16 12 -7.1294 0.0352
0 16 13 -16.0938 -0.3073
0 18 0 0.8698 -0.0590
0 18 1 2.7405 0.0453
0 18 2 10.6462 -0.1365
0 18 3 2.5739 0.3196
0 18 4 0.0987 -0.5209
0 18 5 -10.4370 0.6200
0 18 6 -26.6387 -0.6599
0 18 7 10.1013 0.6446
0 18 8 -0.9776 -0.3503
0 18 9 2.2199 -0.0552
0 18 10 -15.2632 0.1729
0 18 11 -17.8914 0.1584
0 20 0 -20.0251 -0.2985
0 20 1 7.2256 0.1888
0 20 2 -3.1192 -0.0400
0 20 3 10.1028 -0.0821
0 20 4 7.4390 0.1834
0 20 5 4.3714 -0.2902
0 20 6 6.4147 0.3445
0 20 7 5.2892 -0.2719
1 1 1 -182.1904 1.6033
1 1 2 -42.3366 -1.2209
1 1 3 101.2160 -2.3492
1 1 4 10.2131 4.3742
1 1 5 10.4938 -4.4927
1 1 7 5.5275 -2.5186
1 1 8 3.7082 0.1523
1 1 9 29.2963 1.3048
1 1 10 13.0720 -1.6662
1 1 11 -3.4739 1.4739
1 1 12 -37.5482 -0.3757
1 1 13 11.7273 -1.3879
1 1 14 -0.0459 2.7602
1 1 15 12.8709 -3.2277
1 1 16 7.1661 2.9775
1 1 17 -14.6424 -2.0420
1 1 18 -11.8891 0.3997
1 1 19 5.8717 1.1672
1 1 20 -3.1576 -1.4191
1 3 0 -250.4997 0.4060
1 3 1 5.9585 -0.8313
1 3 2 69.9529 -0.3941
1 3 3 89.6635 1.9822
1 3 4 52.4535 -3.3144
1 3 5 -73.5393 3.7149
1 3 6 24.4079 -3.1366
1 3 7 12.6922 2.0746
1 3 8 -12.3752 -0.9691
1 3 9 -6.6315 0.1419
1 3 10 -16.1379 0.4219
1 3 11 -11.9860 -0.3910
1 3 12 5.4501 -0.4652
1 3 13 8.3059 1.4694
1 3 14 -4.5503 -2.1243
1 3 15 -7.2707 2.4055
1 3 16 -10.6181 -2.3097
1 3 17 2.7677 1.7563
1 3 18 -1.7412 -0.6081
1 3 19 4.9073 -0.2130
1 3 20 15.4269 0.2736
1 5 0 -42.6360 -0.8802
1 5 1 -77.3910 0.3899
1 5 2 116.9837 -0.0777
1 5 3 -8.6323 -0.5959
1 5 4 -21.9129 1.8686
1 5 5 -18.7435 -2.2540
1 5 6 -9.9508 1.5764
1 5 7 25.2304 -0.8788
1 5 8 -31.5436 0.3523
1 5 9 6.5928 0.0888
1 5 10 -2.5345 -0.1327
1 5 11 44.8835 -0.0991
1 5 12 -8.1634 0.0915
1 5 13 20.2901 -0.1116
1 5 14 -14.3814 1.0513
1 5 15 -12.3728 -1.8161
1 5 16 -17.5018 1.0085
1 5 17 9.5454 -0.1211
1 5 18 -9.4079 0.3777
1 5 19 16.1669 -0.5737
1 5 20 -17.3575 -0.8266
1 7 0 -11.6178 1.2074
1 7 1 18.9235 -0.8732
1 7 2 10.6705 0.5011
1 7 3 8.0896 -0.0656
1 7 4 -31.8023 -0.3026
1 7 5 -10.4886 0.4312
1 7 6 -3.9881 -0.2343
1 7 7 -9.9516 -0.2682
1 7 8 5.9436 0.4843
1 7 9 4.1645 -0.2120
1 7 10 11.7881 0.1615
1 7 11 -8.5068 -0.4225
1 7 12 10.7852 0.4152
1 7 13 -1.1814 -0.2430
1 7 14 -3.0940 0.1991
1 7 15 2.7573 -0.1075
1 7 16 -9.7213 -0.0446
1 7 17 -4.9426 0.2149
1 7 18 13.0593 0.0405
1 7 19 -25.3706 -0.3355
1 9 0 -20.1478 -0.8347
1 9 1 11.3707 0.6582
1 9 2 3.5105 -0.3909
1 9 3 -3.9012 0.2565
1 9 4 -4.4098 -0.4394
1 9 5 -5.0456 0.6131
1 9 6 -9.8980 -0.6546
1 9 7 2.0687 0.7386
1 9 8 -13.0959 -0.6285
1 9 9 10.2422 0.1771
1 9 10 -2.7559 0.0299
1 9 11 8.1021 0.1641
1 9 12 -5.0339 -0.5186
1 9 13 -13.8746 0.5946
1 9 14 -0.7663 -0.4772
1 9 15 -20.0759 0.3688
1 9 16 -10.5570 -0.6265
1 9 17 -5.6024 0.7120
1 9 18 15.1276 -0.1182
1 11 0 1.2278 0.1509
1 11 1 -6.2715 -0.0822
1 11 2 14.4119 -0.1160
1 11 3 2.7776 -0.0075
1 11 4 12.1626 0.4568
1 11 5 32.1244 -0.7211
1 11 6 6.7047 0.6667
1 11 7 -5.3176 -0.4718
1 11 8 4.2485 0.2016
1 11 9 8.0807 0.2287
1 11 10 -10.3348 -0.4370
1 11 11 3.7886 0.4169
1 11 12 -3.6489 -0.0875
1 11 13 6.4046 -0.3419
1 11 14 3.4168 0.7590
1 11 15 33.1711 -0.6654
1 11 16 11.2095 0.2565
1 11 17 -9.6931 -0.1866
1 13 0 -13.9933 0.4201
1 13 1 4.3178 -0.4237
1 13 2 2.1230 0.4415
1 13 3 5.4473 -0.3345
1 13 4 -10.5425 -0.0508
1 13 5 23.0031 0.4821
1 13 6 8.2792 -0.4845
1 13 7 0.1574 -0.0129
1 13 8 -0.8645 0.4716
1 13 9 13.5587 -0.7138
1 13 10 -13.2038 0.7401
1 13 11 -12.7940 -0.7814
1 13 12 -3.8587 0.6132
1 13 13 3.9130 -0.1772
1 13 14 -4.9823 -0.2770
1 13 15 -5.1260 0.3810
1 13 16 17.5255 -0.1477
1 15 0 -20.8896 -0.4455
1 15 1 -0.3482 0.4819
1 15 2 -9.6565 -0.3746
1 15 3 -16.5815 0.2363
1 15 4 -5.4525 -0.0598
1 15 5 -1.0510 -0.1737
1 15 6 2.1037 0.2153
1 15 7 -8.1066 0.0793
1 15 8 -15.9128 -0.4915
1 15 9 -5.5322 0.7845
1 15 10 -13.1409 -0.7712
1 15 11 -17.3072 0.6544
1 15 12 5.5021 -0.5384
1 15 13 -8.5525 0.3255
1 15 14 17.1748 -0.0220
1 17 0 3.1689 0.1144
1 17 1 12.3170 -0.1838
1 17 2 5.4692 0.0886
1 17 3 -2.8447 -0.0060
1 17 4 7.3402 -0.0890
1 17 5 14.7893 0.1885
1 17 6 -1.6348 -0.1006
1 17 7 2.5627 -0.0490
1 17 8 7.4239 0.1516
1 17 9 -5.3049 -0.2556
1 17 10 3.6557 0.2844
1 17 11 -0.6368 -0.2402
1 17 12 -0.0440 0.1489
1 19 0 -6.3991 0.2047
1 19 1 23.5311 -0.1824
1 19 2 -8.3672 0.2122
1 19 3 -8.6788 -0.2756
1 19 4 6.5554 0.2294
1 19 5 4.8013 -0.1408
1 19 6 25.6096 0.1387
1 19 7 18.5454 -0.2503
1 19 8 5.6955 0.2684
1 19 9 -7.5890 -0.2392
1 21 0 -0.5164 -0.1892
1 21 1 18.3327 0.2898
1 21 2 3.6547 -0.2673
1 21 3 3.0614 0.2421
2 0 1 183.4971 10.9311
2 0 2 -70.1659 -5.6046
2 0 3 -2.7838 1.3848
2 0 4 -161.7194 2.1663
2 0 5 66.2543 -3.3493
2 0 6 -55.2975 1.8191
2 0 7 -9.1596 1.4966
2 0 8 -5.7604 -5.0004
2 0 9 -61.7811 8.7853
2 0 10 0.5599 -9.9379
2 0 11 8.1936 8.3680
2 0 12 18.2367 -5.1985
2 0 13 37.2660 2.1008
2 0 14 -13.9850 0.5943
2 0 15 0.0754 -2.0480
2 0 16 -15.0303 1.6319
2 0 17 19.8312 0.5455
2 0 18 -10.4502 -3.0878
2 0 19 -10.3890 4.5809
2 0 20 -5.4704 -5.4311
2 2 0 -188.3785 1.8112
2 2 1 -32.7108 -3.2659
2 2 2 6.9138 2.1038
2 2 3 10.3223 0.3864
2 2 4 15.9071 -0.5214
2 2 5 -28.9652 -0.4057
2 2 6 -4.2853 0.4810
2 2 7 28.2586 -0.5958
2 2 8 -23.8282 1.0667
2 2 9 20.3729 -1.3157
2 2 10 -23.0946 1.1470
2 2 11 20.3302 -1.1448
2 2 12 -9.0763 0.9965
2 2 13 9.2667 -0.5953
2 2 14 -8.0660 0.3933
2 2 15 -1.4297 -0.3915
2 2 16 1.0151 0.1990
2 2 17 4.8396 -0.1422
2 2 18 -5.4175 0.5741
2 2 19 -2.7115 -1.1154
2 2 20 -3.2929 1.0904
2 4 0 -63.5690 -0.5604
2 4 1 6.8368 0.8584
2 4 2 2.2738 0.1624
2 4 3 66.5911 -0.9430
2 4 4 -11.2457 0.1221
2 4 5 2.6871 0.5624
2 4 6 -18.8928 -0.3928
2 4 7 -8.4063 -0.0220
2 4 8 17.5028 0.4105
2 4 9 12.9456 -0.9186
2 4 10 16.8312 0.8498
2 4 11 -15.9622 -0.5139
2 4 12 -10.0974 0.4673
2 4 13 -11.4280 -0.4060
2 4 14 6.8796 -0.3546
2 4 15 22.3209 0.7706
2 4 16 8.8472 -0.0734
2 4 17 20.3487 -0.5286
2 4 18 -18.3577 0.0344
2 4 19 -1.3749 0.4040
2 4 20 11.1714 0.6850
2 6 0 62.3036 -0.6297
2 6 1 11.8173 0.7041
2 6 2 -9.4889 -0.4807
2 6 3 21.7688 0.4034
2 6 4 3.7379 -0.2617
2 6 5 22.0820 -0.1913
2 6 6 -9.8673 0.5338
2 6 7 -3.3019 0.0488
2 6 8 -8.4605 -0.8867
2 6 9 -3.2658 1.2914
2 6 10 -3.8129 -1.4432
2 6 11 -0.8360 1.4634
2 6 12 -16.3250 -0.7961
2 6 13 20.3461 0.0083
2 6 14 0.2104 0.1480
2 6 15 -8.1314 0.0766
2 6 16 -11.0091 0.2342
2 6 17 8.7101 -0.3631
2 6 18 -0.4757 -0.4966
2 6 19 1.1088 0.7367
2 8 0 -11.7135 0.6305
2 8 1 18.9171 -0.6543
2 8 2 2.2684 0.3149
2 8 3 -14.3136 -0.0487
2 8 4 1.9323 -0.1558
2 8 5 22.7412 0.4958
2 8 6 -4.6799 -0.6524
2 8 7 13.0512 0.2799
2 8 8 -0.6761 0.4826
2 8 9 -2.6573 -1.0177
2 8 10 0.4923 1.1089
2 8 11 9.0921 -0.8060
2 8 12 3.4179 0.4671
2 8 13 9.7977 -0.1157
2 8 14 -11.7624 -0.3590
2 8 15 -15.6675 0.4611
2 8 16 -19.6129 -0.2762
2 8 17 16.6777 0.0208
2 8 18 21.7012 0.2772
2 8 19 8.9320 0.0339
2 10 0 -11.4863 -0.3359
2 10 1 -0.2612 0.3101
2 10 2 -6.3727 -0.0102
2 10 3 1.3205 -0.3365
2 10 4 -8.9451 0.5487
2 10 5 -0.9481 -0.7131
2 10 6 1.3655 0.6849
2 10 7 -2.6904 -0.5459
2 10 8 -10.6225 0.1081
2 10 9 2.0955 0.3479
2 10 10 9.2292 -0.5370
2 10 11 -2.1886 0.1819
2 10 12 6.9618 0.1991
2 10 13 -23.1503 -0.3038
2 10 14 -17.2246 0.2972
2 10 15 -9.9935 -0.3094
2 10 16 2.3154 0.5609
2 10 17 -0.4431 -0.5852
2 10 18 10.7756 -0.5963
2 12 0 1.4294 0.0852
2 12 1 -10.7848 -0.0540
2 12 2 -2.2425 -0.0525
2 12 3 7.3593 0.3924
2 12 4 -8.3249 -0.5755
2 12 5 9.0264 0.4988
2 12 6 -0.9917 -0.4078
2 12 7 -1.8339 0.5015
2 12 8 -0.6821 -0.3869
2 12 9 -0.3456 0.1358
2 12 10 -3.6239 -0.0302
2 12 11 19.4108 0.2250
2 12 12 1.8839 -0.3665
2 12 13 8.8995 0.3416
2 12 14 -4.5718 -0.3416
2 12 15 -5.2636 0.2665
2 12 16 -5.6147 -0.0926
2 12 17 -4.5210 0.3181
2 14 0 3.4142 -0.0902
2 14 1 4.5941 0.0213
2 14 2 2.9067 -0.0243
2 14 3 22.4463 -0.0326
2 14 4 -15.9602 0.1146
2 14 5 -2.2234 -0.1027
2 14 6 7.4955 0.0497
2 14 7 12.6593 -0.0024
2 14 8 -7.9401 0.0550
2 14 9 10.2816 -0.2834
2 14 10 -0.4407 0.3899
2 14 11 1.1924 -0.2741
2 14 12 13.1780 0.1400
2 14 13 2.9976 -0.1101
2 14 14 -6.2162 0.1182
2 14 15 1.1743 0.0283
2 16 0 -25.6091 0.1248
2 16 1 -3.3049 -0.0595
2 16 2 1.1810 0.1025
2 16 3 5.6862 -0.2058
2 16 4 10.6095 0.3036
2 16 5 10.5717 -0.4022
2 16 6 24.6911 0.3847
2 16 7 16.7299 -0.3394
2 16 8 27.6103 0.1727
2 16 9 -3.3271 0.1735
2 16 10 11.7100 -0.3216
2 16 11 -6.2498 0.1731
2 16 12 -4.6262 0.1115
2 16 13 1.3260 -0.2193
2 18 0 17.6929 0.0671
2 18 1 3.5525 -0.0429
2 18 2 -10.2229 -0.0813
2 18 3 2.6791 0.2974
2 18 4 -0.9861 -0.4161
2 18 5 -21.6124 0.4394
2 18 6 -9.1807 -0.5017
2 18 7 -9.6904 0.5130
2 18 8 -2.0861 -0.2067
2 18 9 5.1103 -0.2383
2 18 10 -10.5199 0.2949
2 18 11 -14.7549 -0.1073
2 20 0 -17.0913 -0.2378
2 20 1 -10.1628 0.1797
2 20 2 -10.8756 -0.0800
2 20 3 -15.4216 -0.0501
2 20 4 4.0201 0.2152
2 20 5 -11.7534 -0.3172
2 20 6 12.5435 0.3359
2 20 7 -9.9891 -0.2238
3 1 0 -112.3882 -0.2811
3 1 1 20.3154 3.9000
3 1 2 12.4603 -1.6932
3 1 3 -14.2787 -2.0866
3 1 4 6.6347 3.5709
3 1 5 -2.5279 -3.6262
3 1 6 15.1182 3.1680
3 1 7 -19.6387 -1.5508
3 1 8 31.5937 -0.7087
3 1 9 -0.5461 2.0715
3 1 10 23.1848 -2.3435
3 1 11 -14.2871 2.2178
3 1 12 5.8309 -1.1250
3 1 13 -2.5221 -0.8341
3 1 14 -0.1015 2.0710
3 1 15 12.1162 -2.4337
3 1 16 1.9616 2.2953
3 1 17 -1.1700 -1.2788
3 1 18 14.9746 -0.4058
3 1 19 -4.8891 1.5523
3 1 20 -4.0139 -1.1068
3 3 2 53.0280 0.1226
3 3 3 -75.1829 1.1790
3 3 4 3.2895 -2.2711
3 3 5 -11.1705 2.8976
3 3 6 10.5959 -2.2865
3 3 7 -11.9183 0.9946
3 3 8 0.8994 0.0582
3 3 9 -6.4381 -0.9026
3 3 10 -11.7882 1.3417
3 3 11 -17.0070 -1.1826
3 3 12 32.1980 0.3861
3 3 13 -10.2215 0.6136
3 3 14 8.5553 -1.1862
3 3 15 -12.0784 1.6762
3 3 16 17.1219 -1.7798
3 3 17 -23.4317 0.9049
3 3 18 -1.0427 0.2042
3 3 19 6.5950 -0.6900
3 3 20 -2.7317 0.2873
3 5 0 130.0116 -0.9380
3 5 1 53.3775 0.7210
3 5 2 -88.7647 -0.4255
3 5 3 8.3468 -0.3626
3 5 4 -35.7498 1.6901
3 5 5 20.7214 -2.0081
3 5 6 38.1389 1.0611
3 5 7 8.8805 -0.3183
3 5 8 14.3828 0.0215
3 5 9 -25.0825 0.4734
3 5 10 8.4319 -0.5813
3 5 11 -2.1014 0.2715
3 5 12 1.6466 -0.2965
3 5 13 -11.9272 0.1842
3 5 14 -4.9116 0.6221
3 5 15 15.1367 -1.4431
3 5 16 -2.4347 0.8247
3 5 17 5.8371 0.1541
3 5 18 -11.4002 0.3923
3 5 19 -5.2026 -0.4572
3 5 20 9.9271 -1.7648
3 7 0 23.3012 0.8692
3 7 1 7.8450 -0.6001
3 7 2 -20.0664 0.1698
3 7 3 -37.8016 0.1850
3 7 4 21.1612 -0.5056
3 7 5 15.1710 0.6133
3 7 6 13.3650 -0.2801
3 7 7 -2.1293 -0.1925
3 7 8 49.2472 0.2644
3 7 9 -6.2241 0.0097
3 7 10 4.4654 -0.0150
3 7 11 4.1181 -0.2403
3 7 12 -6.4346 0.1976
3 7 13 -5.4137 0.0415
3 7 14 0.3816 -0.0113
3 7 15 3.2758 0.1289
3 7 16 28.4365 -0.3022
3 7 17 -14.3509 0.0809
3 7 18 -4.6113 0.1369
3 7 19 -7.9170 0.0189
3 9 0 -14.4604 -0.5778
3 9 1 1.1774 0.3065
3 9 2 6.1145 -0.0311
3 9 3 2.7113 0.0487
3 9 4 10.0123 -0.1688
3 9 5 4.7584 0.2095
3 9 6 -5.5696 -0.2790
3 9 7 2.8665 0.3519
3 9 8 -1.3155 -0.2393
3 9 9 3.9609 -0.2145
3 9 10 6.2155 0.4968
3 9 11 -5.9366 -0.2699
3 9 12 7.0327 -0.1074
3 9 13 9.8741 0.3445
3 9 14 11.3421 -0.3001
3 9 15 11.5527 0.2262
3 9 16 -22.0270 -0.3050
3 9 17 -10.2071 0.3422
3 9 18 -7.2606 0.0787
3 11 0 5.3848 0.2211
3 11 1 -5.3715 -0.0386
3 11 2 2.1655 -0.1744
3 11 3 -7.6549 -0.0030
3 11 4 -8.3276 0.3931
3 11 5 -1.4865 -0.5936
3 11 6 4.8819 0.5958
3 11 7 9.8546 -0.3559
3 11 8 13.5835 -0.0366
3 11 9 -19.3605 0.4673
3 11 10 -4.8500 -0.6556
3 11 11 4.7533 0.5253
3 11 12 -1.6310 -0.2624
3 11 13 -7.4484 -0.1419
3 11 14 3.3552 0.4388
3 11 15 12.8889 -0.5206
3 11 16 12.6582 0.1719
3 11 17 -3.2334 0.0733
3 13 0 7.9030 0.2073
3 13 1 -5.8268 -0.2230
3 13 2 6.0054 0.2192
3 13 3 9.6954 -0.0826
3 13 4 4.1286 -0.2878
3 13 5 -3.6786 0.6208
3 13 6 28.3008 -0.6305
3 13 7 0.1024 0.1672
3 13 8 4.9866 0.3215
3 13 9 -9.0655 -0.5364
3 13 10 4.6915 0.6300
3 13 11 15.0229 -0.6624
3 13 12 11.3729 0.4118
3 13 13 -2.5483 0.0896
3 13 14 16.8586 -0.4463
3 13 15 -23.9679 0.5297
3 13 16 5.1678 -0.2747
3 15 0 6.8665 -0.3357
3 15 1 8.8731 0.3044
3 15 2 0.3026 -0.2115
3 15 3 4.1559 0.0304
3 15 4 -2.3785 0.1909
3 15 5 2.9160 -0.3663
3 15 6 -9.9490 0.4035
3 15 7 16.6967 -0.1048
3 15 8 9.6582 -0.2665
3 15 9 -4.0476 0.4765
3 15 10 0.1114 -0.5414
3 15 11 10.1134 0.5048
3 15 12 -12.5538 -0.3240
3 15 13 22.5027 0.0784
3 15 14 6.6902 0.2617
3 17 0 32.7098 0.1472
3 17 1 0.3512 -0.1359
3 17 2 1.1218 0.0834
3 17 3 0.9682 0.0268
3 17 4 -2.3694 -0.1473
3 17 5 -25.4914 0.2588
3 17 6 -19.0969 -0.2437
3 17 7 9.8444 0.0380
3 17 8 28.8132 0.0695
3 17 9 5.8467 -0.1106
3 17 10 -6.0168 0.1447
3 17 11 5.1872 -0.0878
3 17 12 15.0532 0.0286
3 19 0 18.4634 -0.0077
3 19 1 -6.9776 -0.0295
3 19 2 -19.6806 0.0777
3 19 3 -2.9491 -0.1430
3 19 4 -16.5436 0.0638
3 19 5 -25.0546 0.0654
3 19 6 -7.7854 -0.0227
3 19 7 11.2410 -0.0842
3 19 8 -2.5207 0.1161
3 19 9 -3.7539 -0.0818
3 21 0 -6.5620 -0.0546
3 21 1 -0.3385 0.1376
3 21 2 -7.6127 -0.1494
3 21 3 5.6080 0.0803
4 0 0 46.1536 -13.3164
4 0 1 -54.3441 4.2756
4 0 2 -43.2678 -0.0189
4 0 3 74.6346 -3.1792
4 0 4 -47.0894 6.8939
4 0 5 -28.5435 -8.2098
4 0 6 3.6848 6.2137
4 0 7 21.8281 -3.0930
4 0 8 -37.5956 -0.8140
4 0 9 10.0315 4.1110
4 0 10 -18.7224 -5.7916
4 0 11 12.5313 3.9218
4 0 12 1.9503 -0.8068
4 0 13 26.7370 -2.2715
4 0 14 -18.8486 4.7319
4 0 15 -1.5195 -6.0107
4 0 16 0.5514 5.0920
4 0 17 11.0229 -2.6643
4 0 18 14.3281 0.1584
4 0 19 -19.2050 1.9944
4 0 20 14.7129 -3.3803
4 2 1 -49.8482 -2.1883
4 2 2 153.1892 0.3029
4 2 3 92.4655 1.3245
4 2 4 108.8436 -1.2484
4 2 5 -5.9230 0.4028
4 2 6 48.3951 -0.4153
4 2 7 -9.8370 0.5570
4 2 8 18.1641 -0.0346
4 2 9 -8.2720 -0.3060
4 2 10 15.5483 0.3377
4 2 11 -10.7760 -0.2962
4 2 12 1.4479 0.1113
4 2 13 16.8498 0.4916
4 2 14 -2.7062 -0.6990
4 2 15 -5.6888 0.4018
4 2 16 5.4208 -0.4686
4 2 17 -0.6204 0.5936
4 2 18 -6.7308 0.0182
4 2 19 18.3659 -0.8416
4 2 20 28.1835 0.4322
4 4 0 20.8849 -1.3090
4 4 1 2.5573 0.7390
4 4 2 17.6000 0.2909
4 4 3 76.7537 -0.3862
4 4 4 -26.6911 -0.4148
4 4 5 -1.0226 1.0116
4 4 6 -30.9917 -0.7027
4 4 7 -5.6059 0.3214
4 4 8 -21.1697 0.0987
4 4 9 29.1563 -0.4132
4 4 10 7.1195 0.5510
4 4 11 -13.2830 -0.2491
4 4 12 -7.5298 0.1296
4 4 13 7.5264 -0.0688
4 4 14 21.7263 -0.5129
4 4 15 7.0789 0.9571
4 4 16 5.7498 -0.2026
4 4 17 5.4972 -0.1491
4 4 18 -0.1314 -0.7774
4 4 19 10.6278 0.9205
4 4 20 20.9964 1.5266
4 6 0 -4.5170 0.0662
4 6 1 -30.1503 0.1813
4 6 2 0.2706 -0.0464
4 6 3 19.2303 -0.2138
4 6 4 -1.1746 0.4625
4 6 5 -31.7865 -1.0671
4 6 6 12.0784 1.2692
4 6 7 -3.1462 -0.6127
4 6 8 19.8332 -0.3446
4 6 9 12.6991 0.5704
4 6 10 3.7466 -0.7013
4 6 11 2.6267 0.7154
4 6 12 -2.9042 -0.1331
4 6 13 29.1075 -0.6134
4 6 14 -7.5870 0.7489
4 6 15 11.9116 -0.7056
4 6 16 4.1268 0.7366
4 6 17 4.1722 -0.6649
4 6 18 -2.1022 -0.2433
4 6 19 -2.2674 0.3729
4 8 0 -46.6764 0.4798
4 8 1 5.4594 -0.6220
4 8 2 -7.5484 0.2920
4 8 3 3.8538 0.2072
4 8 4 -26.3206 -0.5958
4 8 5 -2.3297 0.8750
4 8 6 2.3188 -0.9714
4 8 7 4.3279 0.6128
4 8 8 1.3327 0.2230
4 8 9 8.6914 -0.8223
4 8 10 -1.1116 0.7860
4 8 11 8.2905 -0.4826
4 8 12 8.3341 0.1647
4 8 13 20.9315 0.1830
4 8 14 -4.8443 -0.5584
4 8 15 6.5000 0.6838
4 8 16 13.8846 -0.3627
4 8 17 14.6295 0.3858
4 8 18 16.6497 -0.0834
4 8 19 3.6688 -0.5690
4 10 0 2.1054 -0.6267
4 10 1 -0.0844 0.7176
4 10 2 9.4573 -0.3046
4 10 3 -6.6713 -0.1768
4 10 4 -11.2037 0.4433
4 10 5 0.4360 -0.4598
4 10 6 5.9676 0.4468
4 10 7 2.1645 -0.2754
4 10 8 -14.3434 -0.1102
4 10 9 -9.0024 0.5753
4 10 10 -1.0702 -0.6908
4 10 11 -15.1190 0.4647
4 10 12 11.3330 -0.0432
4 10 13 3.6607 -0.2073
4 10 14 4.1508 0.2094
4 10 15 2.9586 -0.2497
4 10 16 1.1214 0.3075
4 10 17 4.8552 -0.4191
4 10 18 7.9403 -0.2813
4 12 0 3.4513 0.3010
4 12 1 -9.3927 -0.3938
4 12 2 9.2071 0.2848
4 12 3 6.5563 0.0268
4 12 4 -5.6717 -0.2702
4 12 5 3.1547 0.2139
4 12 6 5.9081 -0.0889
4 12 7 1.3437 0.0234
4 12 8 -6.4861 0.0730
4 12 9 0.5981 -0.3027
4 12 10 -16.2876 0.3393
4 12 11 1.7443 -0.1272
4 12 12 -15.4537 0.0067
4 12 13 12.0737 -0.0728
4 12 14 5.8148 0.1512
4 12 15 -8.3093 -0.0663
4 12 16 12.4311 0.1068
4 12 17 5.6297 -0.0958
4 14 0 1.9433 -0.0809
4 14 1 -8.3559 0.0340
4 14 2 1.7849 -0.0037
4 14 3 -7.1141 -0.0196
4 14 4 4.2632 0.0599
4 14 5 -6.2656 -0.0369
4 14 6 17.8252 -0.1200
4 14 7 -4.0338 0.1489
4 14 8 -4.1648 0.0059
4 14 9 2.4551 -0.1480
4 14 10 8.9716 0.1872
4 14 11 -7.9889 -0.1729
4 14 12 -3.8570 0.0727
4 14 13 15.4656 -0.0514
4 14 14 7.0153 -0.0740
4 14 15 6.5658 0.3034
4 16 0 -4.4360 -0.1321
4 16 1 -1.7286 0.2040
4 16 2 2.8742 -0.1470
4 16 3 -6.9697 0.0035
4 16 4 -3.4167 0.1466
4 16 5 26.4430 -0.1974
4 16 6 -14.7572 0.2532
4 16 7 15.7478 -0.1916
4 16 8 5.5295 -0.0179
4 16 9 13.7789 0.3188
4 16 10 -14.1309 -0.5189
4 16 11 7.0042 0.4240
4 16 12 9.2326 -0.1326
4 16 13 -1.2846 0.0024
4 18 0 34.4575 0.2094
4 18 1 3.1678 -0.2661
4 18 2 -14.3973 0.2042
4 18 3 0.5051 0.0218
4 18 4 -2.5103 -0.2131
4 18 5 -4.8488 0.2506
4 18 6 -21.0195 -0.2873
4 18 7 -13.3938 0.2335
4 18 8 6.0563 0.0983
4 18 9 11.4684 -0.5256
4 18 10 -8.9324 0.6576
4 20 0 -8.6675 -0.1997
4 20 1 0.2205 0.1502
4 20 2 -12.8735 -0.0781
4 20 3 7.0452 -0.0413
4 20 4 -23.8388 0.2200
4 20 5 21.1239 -0.4004
4 20 6 -0.8718 0.3926
5 1 1 33.3616 4.4893
5 1 2 -104.0162 -2.2456
5 1 3 60.9654 -1.2045
5 1 4 -32.2816 2.3220
5 1 5 22.8270 -2.3063
5 1 6 -49.7876 2.0364
5 1 7 6.1811 -0.4755
5 1 8 -4.3324 -1.7458
5 1 9 5.0739 3.0743
5 1 10 -13.2810 -3.4106
5 1 11 15.3690 3.1723
5 1 12 -17.1134 -1.9430
5 1 13 -22.3075 -0.1274
5 1 14 -6.5944 1.4472
5 1 15 10.0324 -1.6140
5 1 16 15.2806 1.5395
5 1 17 -5.1752 -0.6640
5 1 18 9.4124 -1.2417
5 1 19 9.2014 2.5488
5 1 20 5.6472 -1.2163
5 3 0 47.4923 2.0315
5 3 1 27.1756 -2.2024
5 3 2 -21.7870 1.5020
5 3 3 -83.9758 -0.1046
5 3 4 -25.1783 -1.1032
5 3 5 -13.4981 1.6344
5 3 6 -16.2823 -0.9473
5 3 7 -15.0377 -0.4471
5 3 8 7.1153 1.5304
5 3 9 -8.7964 -2.0823
5 3 10 -19.6189 2.3984
5 3 11 15.9184 -2.2270
5 3 12 5.2375 1.4715
5 3 13 14.2855 -0.5040
5 3 14 14.8915 -0.2915
5 3 15 14.4958 0.8067
5 3 16 -30.3173 -0.9297
5 3 17 -0.2432 -0.1287
5 3 18 -3.9077 1.6097
5 3 19 8.3345 -1.7290
5 3 20 -0.7520 -0.0881
5 5 0 -17.2051 -1.1251
5 5 1 10.3250 1.0120
5 5 2 -48.9447 -0.9371
5 5 3 18.8007 0.0858
5 5 4 -6.0525 1.0873
5 5 5 11.3489 -1.3026
5 5 6 0.8981 0.3982
5 5 7 14.3094 0.2663
5 5 8 6.5002 -0.5150
5 5 9 -18.5216 0.8814
5 5 10 -2.0850 -1.0943
5 5 11 5.6358 0.8681
5 5 12 11.1038 -0.7056
5 5 13 11.4940 0.5370
5 5 14 29.6414 0.2894
5 5 15 15.5013 -0.7649
5 5 16 -5.4690 0.2309
5 5 17 -16.9660 0.4607
5 5 18 -5.1691 0.0997
5 5 19 6.5347 -0.1708
5 5 20 3.4390 -2.8917
5 7 0 -9.1802 0.3865
5 7 1 -0.4540 -0.2094
5 7 2 9.2171 -0.0977
5 7 3 20.4659 0.2923
5 7 4 -5.0072 -0.6051
5 7 5 1.4543 0.9236
5 7 6 -29.6478 -0.5623
5 7 7 19.4778 -0.0163
5 7 8 -4.9273 -0.0322
5 7 9 2.0293 0.3643
5 7 10 -22.0089 -0.3392
5 7 11 2.3934 0.0409
5 7 12 -11.2170 -0.0232
5 7 13 -10.4216 0.1782
5 7 14 -43.4644 -0.3070
5 7 15 16.8448 0.3970
5 7 16 2.6800 -0.6062
5 7 17 4.5691 0.1505
5 7 18 -9.6429 0.2622
5 7 19 4.3278 0.6394
5 9 0 7.4060 -0.0116
5 9 1 18.4286 -0.1136
5 9 2 -10.5519 0.3028
5 9 3 10.8741 -0.2574
5 9 4 14.8901 0.2527
5 9 5 -16.3632 -0.3436
5 9 6 7.5760 0.2642
5 9 7 14.8279 -0.1398
5 9 8 11.8980 0.3294
5 9 9 0.6872 -0.6107
5 9 10 2.7365 0.9471
5 9 11 9.5424 -0.8554
5 9 12 -9.3174 0.3751
5 9 13 -4.0984 -0.0900
5 9 14 -4.9152 0.1085
5 9 15 -9.8485 -0.1382
5 9 16 -14.4270 0.2398
5 9 17 -11.8603 -0.2578
5 9 18 -5.5847 0.2913
5 11 0 -2.4874 0.1309
5 11 1 -0.5252 0.0083
5 11 2 2.8078 -0.2435
5 11 3 16.3181 0.0734
5 11 4 12.7955 0.2572
5 11 5 -10.5976 -0.4273
5 11 6 -10.7872 0.3124
5 11 7 13.4051 -0.0928
5 11 8 5.6802 -0.3152
5 11 9 -3.0709 0.6529
5 11 10 9.1236 -0.9052
5 11 11 3.9126 0.7165
5 11 12 5.8720 -0.3325
5 11 13 -6.5375 0.0601
5 11 14 -12.7943 0.2295
5 11 15 -5.2780 -0.3286
5 11 16 13.2859 0.0528
5 11 17 5.7820 0.2130
5 13 0 12.5608 -0.0035
5 13 1 -16.6817 0.0484
5 13 2 3.5477 -0.1213
5 13 3 17.9521 0.2785
5 13 4 2.9516 -0.5382
5 13 5 -11.3810 0.8081
5 13 6 -7.8749 -0.6893
5 13 7 11.3100 0.3455
5 13 8 -27.2002 0.0266
5 13 9 -0.9028 -0.2270
5 13 10 28.1953 0.4655
5 13 11 8.7366 -0.4802
5 13 12 1.1876 0.1819
5 13 13 15.7106 0.4063
5 13 14 -9.6572 -0.7498
5 13 15 0.9390 0.4746
5 13 16 14.5117 -0.1874
5 15 0 13.7166 -0.0253
5 15 1 7.8887 -0.0063
5 15 2 -8.5234 0.1045
5 15 3 2.2516 -0.2362
5 15 4 -2.8073 0.4565
5 15 5 -18.1567 -0.7269
5 15 6 -2.2559 0.7129
5 15 7 13.8004 -0.3830
5 15 8 -11.0269 -0.0233
5 15 9 15.5706 0.1309
5 15 10 -3.2943 -0.1519
5 15 11 -6.6000 0.1112
5 15 12 -8.3180 -0.0030
5 15 13 -15.9619 -0.3627
5 15 14 -0.0838 0.6734
5 17 0 8.1995 0.2866
5 17 1 -8.9562 -0.1789
5 17 2 -5.6530 -0.0257
5 17 3 -4.6095 0.1055
5 17 4 -3.0660 -0.1768
5 17 5 -5.0416 0.2565
5 17 6 -2.2207 -0.2675
5 17 7 1.6352 0.1795
5 17 8 18.0597 -0.0317
5 17 9 -8.8790 -0.0227
5 17 10 -11.9062 0.1340
5 17 11 -1.9742 -0.1040
5 17 12 20.8449 -0.1156
5 19 0 9.4294 -0.2344
5 19 1 31.3790 0.2095
5 19 2 -4.1879 -0.1352
5 19 3 17.3689 0.0880
5 19 4 -10.3120 -0.1357
5 19 5 1.4831 0.2602
5 19 6 1.6753 -0.2088
5 19 7 -12.1854 0.0496
5 19 8 2.8215 -0.0568
5 19 9 -2.3864 0.0829
5 21 0 3.7470 0.0519
5 21 1 -0.6803 -0.0169
5 21 2 10.5631 0.0365
6 0 0 -73.5167 -7.7022
6 0 1 83.3445 1.0338
6 0 2 -127.2263 4.5321
6 0 3 34.9084 -7.3403
6 0 4 -73.6783 10.8660
6 0 5 60.6832 -12.2881
6 0 6 32.9780 10.2710
6 0 7 25.9676 -6.7695
6 0 8 -8.9686 3.2276
6 0 9 -15.1553 0.5133
6 0 10 24.8848 -1.7107
6 0 11 -8.8389 0.4583
6 0 12 -0.2977 2.6370
6 0 13 13.1801 -5.5132
6 0 14 4.7795 8.0393
6 0 15 -30.7492 -9.0022
6 0 17 2.7501 -5.3448
6 0 18 8.0806 2.5410
6 0 19 32.3897 -0.3008
6 0 20 -5.2636 -1.5001
6 2 0 -25.7987 2.5024
6 2 1 15.1067 -1.4918
6 2 2 107.0285 -1.3875
6 2 3 -10.5255 2.3975
6 2 4 16.0682 -1.7590
6 2 5 -27.9096 1.2108
6 2 6 22.9903 -1.3842
6 2 7 -14.1909 1.4924
6 2 8 -21.3084 -1.0279
6 2 9 1.7044 0.5401
6 2 10 3.5691 -0.4102
6 2 11 -11.2194 0.3685
6 2 12 -6.1355 -0.7090
6 2 13 -8.7879 1.1598
6 2 14 -1.6969 -1.2963
6 2 15 -14.5729 1.0709
6 2 16 1.2016 -1.1036
6 2 17 -6.3043 1.3630
6 2 18 22.5183 -0.8935
6 2 19 -1.9172 0.1597
6 2 20 35.0466 0.3452
6 4 0 -115.2275 -1.7041
6 4 1 -10.2533 0.7972
6 4 2 -22.2935 0.2519
6 4 3 -18.8666 -0.0906
6 4 4 -26.3497 -0.8187
6 4 5 -10.6166 1.1549
6 4 6 11.6568 -0.9372
6 4 7 -7.8567 0.5731
6 4 8 0.8278 -0.3189
6 4 9 9.2529 -0.2499
6 4 10 25.5777 0.2896
6 4 11 3.9786 -0.0182
6 4 12 1.5688 -0.2308
6 4 13 7.5351 0.4324
6 4 14 6.5591 -0.8260
6 4 15 -21.9572 0.8536
6 4 16 -12.9360 -0.2858
6 4 17 -9.6173 0.0328
6 4 18 7.2735 -1.0851
6 4 19 7.6915 0.7529
6 4 20 -13.2250 2.6035
6 6 0 -3.6422 0.6092
6 6 1 -26.8081 -0.0705
6 6 2 33.4063 0.3299
6 6 3 -12.8104 -0.7390
6 6 4 2.6776 1.1818
6 6 5 16.8090 -1.7798
6 6 6 6.2455 1.9737
6 6 7 -14.7738 -1.1296
6 6 8 -5.6317 0.3626
6 6 9 12.1452 0.0337
6 6 10 6.9654 -0.0806
6 6 11 -5.0536 0.1056
6 6 12 8.9477 0.4130
6 6 13 11.8702 -1.0492
6 6 14 -22.4349 1.1331
6 6 15 -10.8474 -1.1319
6 6 16 6.9389 1.4426
6 6 17 8.1568 -0.9195
6 6 18 -1.1331 0.2841
6 6 19 -2.4758 -0.4574
6 8 0 -4.5845 0.3187
6 8 1 17.5701 -0.5742
6 8 2 -1.8155 0.2430
6 8 3 -5.9371 0.4300
6 8 4 -1.1163 -0.9647
6 8 5 1.6946 1.2519
6 8 6 9.5493 -1.3090
6 8 7 -12.1003 0.8290
6 8 8 4.6803 -0.0110
6 8 9 -2.8130 -0.6469
6 8 10 12.9214 0.5592
6 8 11 1.2626 -0.1669
6 8 12 4.8984 -0.1203
6 8 13 -1.9205 0.4580
6 8 14 -1.7596 -0.6862
6 8 15 -4.8932 0.6996
6 8 16 18.1133 -0.8327
6 8 17 2.7015 0.8113
6 8 18 -12.1153 -0.7219
6 10 0 2.9993 -0.9521
6 10 1 11.8112 0.9600
6 10 2 -6.4047 -0.5479
6 10 3 -8.7483 -0.0565
6 10 4 -2.4474 0.3488
6 10 5 -2.5348 -0.3938
6 10 6 1.1881 0.3449
6 10 7 -2.9797 -0.1057
6 10 8 -6.4386 -0.3512
6 10 9 11.7847 0.7369
6 10 10 -15.1237 -0.8356
6 10 11 20.1202 0.6826
6 10 12 -8.6806 -0.3532
6 10 13 3.5001 -0.0016
6 10 14 -9.7325 0.0511
6 10 15 3.0582 0.0633
6 10 16 -4.9942 0.0851
6 10 17 1.1119 -0.0530
6 10 18 -6.5279 0.0820
6 12 0 6.1469 0.5957
6 12 1 10.4396 -0.6887
6 12 2 18.9900 0.6081
6 12 3 -1.8561 -0.2119
6 12 4 -0.1906 -0.0338
6 12 5 4.8621 -0.0451
6 12 6 1.3837 0.2169
6 12 7 10.5006 -0.3041
6 12 8 1.4814 0.4865
6 12 9 -7.5932 -0.7207
6 12 10 26.4338 0.6533
6 12 11 -17.9957 -0.3691
6 12 12 -10.4490 0.2397
6 12 13 -13.2094 -0.4745
6 12 14 -11.7944 0.5104
6 12 15 -14.5302 -0.2162
6 12 16 0.6013 0.0425
6 14 0 17.5268 -0.1593
6 14 1 16.9721 0.1091
6 14 2 -6.4998 -0.0362
6 14 3 14.3502 -0.0291
6 14 4 -20.0412 0.0249
6 14 5 -0.8032 0.1440
6 14 6 4.4047 -0.3330
6 14 7 15.2789 0.2891
6 14 8 -16.2508 -0.0580
6 14 9 2.3857 -0.0385
6 14 10 -0.6069 0.0524
6 14 11 -7.8325 0.0285
6 14 12 -12.8284 -0.0025
6 14 13 5.0797 0.1221
6 14 14 4.6035 -0.3209
6 14 15 3.6008 0.4872
6 16 0 -9.5675 -0.4422
6 16 1 0.3726 0.4239
6 16 2 7.4804 -0.3036
6 16 3 -0.4594 0.1579
6 16 4 0.0770 -0.0847
6 16 5 -4.5437 0.0082
6 16 6 6.3749 0.0803
6 16 7 -0.2235 -0.0937
6 16 8 5.7588 -0.1722
6 16 9 1.3872 0.6092
6 16 10 -7.9420 -0.8896
6 16 11 -14.8939 0.5966
6 16 12 -8.2863 -0.2433
6 16 13 -2.8734 0.1605
6 18 0 -27.5823 0.3667
6 18 1 4.4056 -0.4408
6 18 2 -26.9942 0.4008
6 18 3 25.9734 -0.1684
6 18 4 1.9639 -0.0510
6 18 5 9.2171 0.1258
6 18 6 12.7739 -0.1351
6 18 7 -2.4448 0.0484
6 18 8 1.0085 0.2758
6 18 9 -13.5275 -0.7088
6 18 10 5.4435 0.9213
6 20 0 -5.9498 -0.1176
6 20 1 2.8048 0.1712
6 20 2 -3.3531 -0.1287
6 20 3 0.6228 -0.0275
6 20 4 -0.1805 0.3042
6 20 5 11.6045 -0.4653
6 20 6 18.0063 0.4076
7 1 0 -45.9744 -3.2529
7 1 1 71.3947 4.6103
7 1 2 95.7684 -2.1763
7 1 3 36.6970 -0.9185
7 1 4 49.9380 1.8304
7 1 5 -18.7374 -1.7079
7 1 6 -17.0425 1.3806
7 1 7 -17.4001 0.1555
7 1 8 16.8640 -2.3555
7 1 9 11.9322 3.5566
7 1 10 9.8015 -3.9445
7 1 11 0.0891 3.5617
7 1 12 -27.4665 -2.1586
7 1 13 -8.1172 0.3285
7 1 14 -4.7113 1.0141
7 1 15 13.0925 -1.2648
7 1 16 18.1229 1.0669
7 1 17 -9.0823 -0.3331
7 1 18 -4.8923 -1.5210
7 1 19 0.9033 1.9467
7 1 20 19.4238 -0.7678
7 3 0 -0.5653 2.6151
7 3 1 -12.7477 -2.5859
7 3 2 -8.0495 2.2067
7 3 3 -52.3593 -0.8290
7 3 4 17.7768 -0.6407
7 3 5 3.4176 0.9565
7 3 6 13.7738 -0.1681
7 3 7 21.3932 -1.2072
7 3 8 8.4596 2.2737
7 3 9 4.8927 -2.7298
7 3 10 -13.0699 2.8882
7 3 11 3.5190 -2.6800
7 3 12 10.2882 2.0272
7 3 13 0.1155 -1.0563
7 3 14 -5.7662 0.0468
7 3 15 -0.8541 0.4181
7 3 16 -6.9346 -0.3299
7 3 17 -5.9619 -0.3504
7 3 18 21.9486 1.9732
7 3 19 -8.4665 -1.9384
7 3 20 0.6100 -0.6391
7 5 0 43.8277 -0.9614
7 5 1 -7.3452 1.0279
7 5 2 -12.2170 -1.2989
7 5 3 -3.9533 0.3224
7 5 4 20.9501 0.9232
7 5 5 8.2648 -0.7817
7 5 6 -11.2454 -0.0809
7 5 7 -1.1603 0.6575
7 5 8 2.4731 -0.9163
7 5 9 -4.1665 1.2532
7 5 10 -12.7866 -1.2953
7 5 11 3.9420 1.0013
7 5 12 7.8929 -0.8855
7 5 13 11.3591 0.5243
7 5 14 -13.7124 0.2424
7 5 15 -7.6448 -0.5048
7 5 16 13.3459 -0.1859
7 5 17 -5.8533 0.2946
7 5 18 3.3178 -0.2058
7 5 19 -9.0067 1.0917
7 7 0 19.0353 0.1549
7 7 1 2.5845 -0.0565
7 7 2 14.1262 -0.0818
7 7 3 -3.5809 0.4430
7 7 4 -5.8373 -0.7645
7 7 5 -17.4727 0.8584
7 7 6 -5.6844 -0.5856
7 7 7 -5.5137 0.0746
7 7 8 13.1444 -0.0890
7 7 9 6.1515 0.5123
7 7 10 -7.2002 -0.4792
7 7 11 5.2523 0.2046
7 7 12 -2.0765 -0.1745
7 7 13 1.8998 0.3242
7 7 14 -5.5246 -0.3627
7 7 15 5.3640 0.6296
7 7 16 18.5734 -0.4730
7 7 17 13.6848 -0.1100
7 7 18 -11.9602 0.5325
7 7 19 -2.6701 1.1352
7 9 0 -13.9348 0.2941
7 9 1 -12.4532 -0.3735
7 9 2 -6.2761 0.3624
7 9 3 5.0132 -0.4466
7 9 4 6.7604 0.4776
7 9 5 -8.0151 -0.4815
7 9 6 8.7245 0.4510
7 9 7 0.2524 -0.4009
7 9 8 -3.8607 0.4924
7 9 9 -12.1582 -0.9673
7 9 10 4.1374 1.2263
7 9 11 5.0621 -1.1413
7 9 12 -10.3065 0.7335
7 9 13 -5.8634 -0.3515
7 9 14 0.1590 0.2328
7 9 15 1.8517 -0.4634
7 9 16 5.8895 0.5237
7 9 17 0.3223 -0.5162
7 9 18 3.0159 0.1746
7 11 0 -7.3182 0.0398
7 11 1 -4.8600 0.0926
7 11 2 -0.8121 -0.2266
7 11 3 8.3316 0.1664
7 11 4 0.2941 0.1617
7 11 5 1.2969 -0.3156
7 11 6 -5.9423 0.2085
7 11 7 3.9590 0.0623
7 11 8 -12.1004 -0.3550
7 11 9 0.8984 0.8977
7 11 10 -4.6310 -1.0209
7 11 11 6.1919 0.7137
7 11 12 1.7071 -0.2843
7 11 13 2.7663 0.1379
7 11 14 16.1451 0.0371
7 11 15 6.8877 -0.3265
7 11 16 13.2149 0.2693
7 11 17 14.0715 0.3781
7 13 0 4.7355 -0.0411
7 13 1 -10.2210 0.1811
7 13 2 -11.4586 -0.2586
7 13 3 -7.1601 0.3231
7 13 4 -18.5134 -0.6240
7 13 5 -24.6390 0.8550
7 13 6 -11.7324 -0.7811
7 13 7 8.5448 0.3989
7 13 8 15.9208 -0.1098
7 13 9 -8.2261 -0.1730
7 13 10 8.2407 0.3789
7 13 11 14.5969 -0.4911
7 13 12 -12.1999 -0.0296
7 13 13 5.8633 0.5953
7 13 14 -5.9821 -0.6275
7 13 15 5.1946 0.3631
7 15 0 -0.6633 0.0500
7 15 1 -2.5024 -0.1535
7 15 2 -0.0791 0.2438
7 15 3 2.7316 -0.3998
7 15 4 -1.5421 0.6471
7 15 5 -8.3144 -0.8747
7 15 6 -13.8074 0.9022
7 15 7 -21.1141 -0.5604
7 15 8 19.8682 0.1856
7 15 9 -4.0849 -0.1002
7 15 10 9.9822 0.1802
7 15 11 4.1241 0.0067
7 15 12 -10.9152 0.1666
7 15 13 -8.5106 -0.6015
7 15 14 -6.3329 0.9004
7 17 0 -60.4403 0.3019
7 17 1 -0.6135 -0.1463
7 17 2 -13.3417 -0.0235
7 17 3 18.0330 0.1425
7 17 4 4.5787 -0.1830
7 17 5 20.6261 0.2696
7 17 6 -6.1247 -0.3119
7 17 7 -9.6350 0.2333
7 17 8 -15.3450 -0.0445
7 17 9 -13.7380 -0.1286
7 17 10 10.6792 0.0480
7 17 11 -5.5453 0.0992
7 19 0 -11.4849 -0.3696
7 19 1 11.0275 0.2514
7 19 2 -2.5974 -0.1953
7 19 3 3.5137 0.1460
7 19 4 -16.2119 -0.2165
7 19 5 -7.1975 0.2855
7 19 6 -5.9200 -0.2612
7 19 7 8.0696 0.1275
7 19 8 -9.2679 -0.0957
7 21 0 -13.0745 0.1234
7 21 1 12.7070 -0.0867
8 0 0 52.8172 -6.9510
8 0 1 27.8905 0.0516
8 0 3 13.6420 -8.0994
8 0 4 15.8981 11.1929
8 0 5 34.0639 -12.7922
8 0 6 13.3440 10.8997
8 0 7 48.8862 -7.4778
8 0 8 -32.8646 3.5354
8 0 9 -9.9014 -0.0767
8 0 10 -39.6095 -1.6218
8 0 11 16.2803 -0.0216
8 0 12 6.8111 2.6325
8 0 13 23.4015 -5.6943
8 0 14 13.9771 8.0897
8 0 15 -12.4221 -9.3004
8 0 16 -11.3988 8.0074
8 0 17 -2.0866 -5.2162
8 0 18 0.4337 2.6174
8 0 19 -1.0262 -0.0701
8 0 20 -9.1064 -1.5806
8 2 0 -37.8072 2.4878
8 2 1 -11.2284 -1.1738
8 2 2 -46.3762 -1.5042
8 2 3 -10.0648 2.7226
8 2 4 -63.8438 -1.7334
8 2 5 -27.7855 1.3379
8 2 6 -13.7920 -1.7272
8 2 7 0.6973 1.7204
8 2 8 10.8187 -1.1632
8 2 9 -32.7449 0.6840
8 2 10 5.8574 -0.3724
8 2 11 -9.9082 0.3749
8 2 12 -10.0877 -0.7657
8 2 13 15.8100 1.1425
8 2 14 -10.3403 -1.1580
8 2 15 12.5041 1.3106
8 2 16 -17.6247 -1.3682
8 2 17 4.0337 0.9809
8 2 18 -8.6039 -0.6062
8 2 19 5.5367 0.4200
8 2 20 -3.2452 -0.1062
8 4 0 52.5018 -1.5814
8 4 1 -2.1154 0.8212
8 4 2 -23.4934 0.2036
8 4 3 23.4803 -0.0028
8 4 4 17.7025 -0.9363
8 4 5 11.8300 1.1975
8 4 6 -1.9994 -0.7899
8 4 7 27.8729 0.5089
8 4 8 -7.7567 -0.1270
8 4 9 5.8402 -0.1819
8 4 10 -0.1652 0.2638
8 4 11 4.6095 0.1733
8 4 12 5.3671 -0.3298
8 4 13 3.6413 0.5452
8 4 14 -1.0296 -0.7984
8 4 15 14.1489 0.7584
8 4 16 1.7175 -0.3515
8 4 17 -14.6145 0.3372
8 4 18 4.0619 -0.5449
8 4 19 7.4553 -0.2190
8 6 0 16.5255 0.2512
8 6 1 17.4801 -0.0935
8 6 2 2.9222 0.4371
8 6 3 6.0181 -0.8290
8 6 4 -7.3034 1.2177
8 6 5 5.5928 -1.9036
8 6 6 -3.6153 1.9872
8 6 7 1.1150 -1.1889
8 6 8 1.4122 0.2664
8 6 9 -1.9321 -0.0921
8 6 10 -1.1193 -0.1134
8 6 11 0.9638 -0.0045
8 6 12 6.3169 0.5583
8 6 13 -0.6439 -1.0865
8 6 14 -5.2359 1.0526
8 6 15 3.9150 -1.1919
8 6 16 -5.0553 1.2887
8 6 17 -6.9399 -0.4087
8 6 18 10.6749 -0.6463
8 6 19 0.4844 -1.4824
8 8 0 -12.3850 0.4200
8 8 1 -2.5184 -0.5458
8 8 2 -6.2971 0.1102
8 8 3 5.4721 0.5413
8 8 4 -7.8417 -1.0660
8 8 5 4.4685 1.3584
8 8 6 10.7726 -1.3152
8 8 7 5.2863 0.8886
8 8 8 -10.4107 -0.0127
8 8 9 -4.4904 -0.5412
8 8 10 3.7301 0.5080
8 8 11 15.0853 -0.1152
8 8 12 10.1136 -0.2111
8 8 13 7.0715 0.4711
8 8 14 0.1835 -0.6742
8 8 15 14.3419 0.8102
8 8 16 -16.5730 -0.9450
8 8 17 -13.0993 0.8928
8 8 18 -1.1354 0.2450
8 10 0 0.0520 -0.9582
8 10 1 6.0582 0.9947
8 10 2 27.7719 -0.4377
8 10 3 -12.1694 -0.1399
8 10 4 3.3735 0.4265
8 10 5 -0.1485 -0.4197
8 10 6 -3.0427 0.3395
8 10 7 -3.2529 -0.1188
8 10 8 -13.6459 -0.3837
8 10 9 -6.7614 0.8087
8 10 10 -2.4835 -0.8887
8 10 11 -0.8224 0.7380
8 10 12 17.3823 -0.4478
8 10 13 -1.0582 0.0552
8 10 14 -4.1000 0.0966
8 10 15 -7.0191 0.0223
8 10 16 0.7700 0.0257
8 10 17 -7.3208 -0.3934
8 12 0 -0.8496 0.6009
8 12 1 4.5797 -0.7182
8 12 2 19.8271 0.5372
8 12 3 0.0992 -0.1506
8 12 4 9.8659 -0.0661
8 12 5 -10.1760 -0.1019
8 12 6 8.5977 0.2690
8 12 7 -4.7550 -0.2994
8 12 8 15.4311 0.4529
8 12 9 0.1832 -0.7230
8 12 10 -11.2560 0.7015
8 12 11 -8.5630 -0.3404
8 12 12 -9.5448 0.3746
8 12 13 -1.8121 -0.6104
8 12 14 -4.3009 0.4680
8 12 15 1.4427 0.0363
8 12 16 -3.2311 0.1560
8 14 0 -2.6539 -0.1229
8 14 1 5.3584 0.0609
8 14 2 1.0445 -0.1109
8 14 3 5.7075 0.0865
8 14 4 -3.4097 -0.0264
8 14 5 0.2014 0.1462
8 14 6 -3.2438 -0.3375
8 14 7 12.7780 0.3282
8 14 8 22.7364 -0.1224
8 14 9 -15.9030 -0.0108
8 14 10 -16.6641 -0.0977
8 14 11 -0.2662 0.0100
8 14 12 -0.5355 -0.0209
8 14 13 14.3455 0.1912
8 14 14 -4.7368 -0.5134
8 14 15 2.8010 0.3851
8 16 0 6.4715 -0.3595
8 16 1 8.9786 0.4343
8 16 2 -11.1641 -0.3030
8 16 3 -18.0058 0.1690
8 16 4 -11.5992 -0.0434
8 16 5 -4.6822 -0.0543
8 16 6 -2.5579 0.0924
8 16 7 -2.0231 -0.0298
8 16 8 30.5701 -0.2709
8 16 9 14.4248 0.7758
8 16 10 24.2357 -0.8247
8 16 11 -11.0848 0.4888
8 16 12 -12.7919 -0.1387
8 16 13 2.3373 0.2228
8 18 0 -11.2125 0.4075
8 18 1 -7.0158 -0.4644
8 18 2 -15.2967 0.3988
8 18 3 5.2013 -0.1464
8 18 4 13.6524 -0.1190
8 18 5 0.9784 0.1969
8 18 6 4.5942 -0.1070
8 18 7 1.2725 -0.0565
8 18 8 -12.8577 0.3649
8 18 9 -3.4340 -0.8229
8 18 10 12.0902 1.0274
8 20 0 20.1030 -0.1956
8 20 1 3.4735 0.2156
8 20 2 -9.0248 -0.1516
8 20 3 -3.0478 -0.0600
8 20 4 -11.3135 0.2883
8 20 5 2.1914 -0.4678
9 1 0 -44.5241 -2.5636
9 1 1 -8.2104 4.2533
9 1 2 -43.1422 -1.7464
9 1 3 31.5188 -1.1930
9 1 4 -11.1250 2.0730
9 1 5 23.6526 -2.0608
9 1 6 -18.5593 1.6919
9 1 7 -14.5491 -0.0347
9 1 8 -11.2562 -2.0615
9 1 9 9.1078 3.2764
9 1 10 14.3574 -3.5474
9 1 11 -7.2779 3.1943
9 1 12 8.1116 -1.6507
9 1 13 -1.6782 -0.1518
9 1 14 1.1646 1.1772
9 1 15 -14.6583 -1.7880
9 1 16 3.6195 1.4662
9 1 17 0.9303 -0.1341
9 1 18 -13.8540 -1.0995
9 1 19 -6.3693 1.4244
9 1 20 -3.2505 -0.6534
9 3 0 54.5479 2.0891
9 3 1 42.0314 -2.2142
9 3 2 -36.4411 1.7123
9 3 3 -20.5287 -0.4032
9 3 4 -16.3641 -0.9977
9 3 5 30.2799 1.2234
9 3 6 24.1029 -0.3108
9 3 7 -19.1360 -0.8437
9 3 8 -5.8367 1.8198
9 3 9 -7.2873 -2.3726
9 3 10 10.6726 2.4729
9 3 11 -9.1465 -2.2591
9 3 12 -2.3338 1.5571
9 3 13 30.1398 -0.4929
9 3 14 -9.9716 -0.4938
9 3 15 10.8091 0.8312
9 3 16 -6.3266 -0.2761
9 3 17 0.0335 -0.3522
9 3 18 0.5422 0.5761
9 3 19 4.7118 -0.9215
9 5 0 0.2361 -0.9064
9 5 1 3.3904 0.9764
9 5 2 -5.9711 -1.1287
9 5 3 -16.9883 0.1158
9 5 4 -2.1589 1.1378
9 5 5 -1.9192 -0.8375
9 5 6 -3.5327 -0.1380
9 5 7 -2.6321 0.4652
9 5 8 -8.0280 -0.7390
9 5 9 4.8083 1.0773
9 5 10 2.0790 -1.0557
9 5 11 -12.4501 0.7994
9 5 12 10.7219 -0.6851
9 5 13 -15.3777 0.3414
9 5 14 -7.5697 0.4996
9 5 15 -12.2836 -0.5613
9 5 16 -4.3876 -0.0284
9 5 17 -8.3323 -0.1187
9 5 18 6.3741 0.6813
9 5 19 2.0900 1.6631
9 7 0 -3.8830 0.3280
9 7 1 -11.4202 -0.2052
9 7 2 0.1366 0.0302
9 7 3 16.5910 0.2572
9 7 4 -7.2078 -0.5864
9 7 5 -4.4860 0.6530
9 7 6 -8.3358 -0.3627
9 7 7 4.6092 -0.0676
9 7 8 2.8430 0.0848
9 7 9 6.7137 0.3195
9 7 10 0.3744 -0.3535
9 7 11 -1.6803 0.1196
9 7 12 0.9354 -0.1810
9 7 13 0.0268 0.2759
9 7 14 -6.4634 -0.3680
9 7 15 4.8492 0.2877
9 7 16 -15.5465 -0.1814
9 7 17 2.2177 -0.3153
9 7 18 7.5682 -0.0364
9 9 0 5.6380 0.1302
9 9 1 10.7732 -0.1655
9 9 2 11.6700 0.2597
9 9 3 1.4672 -0.3463
9 9 4 3.0055 0.3483
9 9 5 -0.8071 -0.2518
9 9 6 -2.4037 0.2042
9 9 7 -6.1393 -0.1746
9 9 8 -13.8813 0.4081
9 9 9 2.6874 -0.7968
9 9 10 -0.3085 1.0673
9 9 11 14.8249 -0.9436
9 9 12 7.0782 0.6014
9 9 13 -7.0205 -0.2335
9 9 14 -8.4926 0.1567
9 9 15 -11.8994 -0.0879
9 9 16 -4.4442 0.1755
9 9 17 6.6077 0.0019
9 9 18 6.2301 0.0006
9 11 0 2.8378 -0.0676
9 11 1 -5.8934 0.0901
9 11 2 9.5728 -0.2072
9 11 3 -12.7546 0.0932
9 11 4 5.9032 0.2025
9 11 5 2.1628 -0.3821
9 11 6 7.4024 0.2415
9 11 7 -2.1091 -0.0793
9 11 8 -2.9610 -0.2548
9 11 9 4.3753 0.6699
9 11 10 14.1890 -0.9404
9 11 11 -4.9396 0.6782
9 11 12 -0.5508 -0.3792
9 11 13 2.6123 0.1770
9 11 14 0.7991 0.1590
9 11 15 -6.7800 -0.5895
9 11 16 2.2909 0.1729
9 11 17 13.0151 0.5171
9 13 0 -12.3789 0.0495
9 13 1 -11.9406 0.0563
9 13 2 -4.9586 -0.0422
9 13 3 7.1581 0.1444
9 13 4 4.3462 -0.5168
9 13 5 8.2817 0.8830
9 13 6 10.2399 -0.7168
9 13 7 10.7318 0.2859
9 13 8 -6.5648 0.0406
9 13 9 10.7538 -0.2247
9 13 10 -15.7056 0.4875
9 13 11 -3.9769 -0.4312
9 13 12 -6.7305 0.0513
9 13 13 0.8683 0.4597
9 13 14 -2.9683 -0.4774
9 13 15 -0.0553 0.3646
9 15 0 15.1343 -0.1334
9 15 1 0.3485 0.0189
9 15 2 -14.4991 0.1511
9 15 3 3.5236 -0.3197
9 15 4 -6.4109 0.5251
9 15 5 9.4743 -0.7835
9 15 6 5.5929 0.7890
9 15 7 -1.2582 -0.4433
9 15 8 -11.6314 0.1137
9 15 9 -7.7875 -0.0223
9 15 10 1.6807 -0.0125
9 15 11 -17.0775 0.0553
9 15 12 -2.9884 -0.0305
9 15 13 4.1035 -0.5333
9 17 0 2.4949 0.3076
9 17 1 -1.6549 -0.1770
9 17 2 -9.3698 -0.0582
9 17 3 12.9226 0.1348
9 17 4 0.4145 -0.1731
9 17 5 -4.5346 0.2970
9 17 6 3.3202 -0.4098
9 17 7 -13.9161 0.2889
9 17 8 -13.9554 -0.0361
9 17 9 1.8917 -0.1440
9 17 10 -6.0430 0.0135
9 17 11 -13.0429 0.2717
9 19 0 5.6884 -0.2822
9 19 1 -2.4308 0.2252
9 19 2 -2.2957 -0.1315
9 19 3 13.9752 0.0624
9 19 4 -12.0161 -0.0717
9 19 5 15.6716 0.1831
9 19 6 10.8067 -0.1864
9 19 7 7.7544 0.0978
9 19 8 2.7476 -0.0796
10 0 0 -7.7019 -10.4555
10 0 1 34.6588 3.1423
10 0 2 -79.0048 1.6654
10 0 3 6.9346 -4.8559
10 0 4 16.1593 8.2081
10 0 5 -24.3731 -8.9892
10 0 6 -8.6629 7.4613
10 0 7 6.8220 -4.1841
10 0 8 36.7885 0.3552
10 0 9 -13.8217 3.3963
10 0 10 -6.9483 -4.6360
10 0 11 -5.3025 3.1795
10 0 12 -9.7234 -0.0367
10 0 13 -21.5220 -2.6902
10 0 14 5.7756 5.4378
10 0 15 1.9328 -6.2281
10 0 16 -13.7010 4.9485
10 0 17 -3.8125 -2.5946
10 0 18 14.0200 0.2688
10 0 19 1.5273 1.7973
10 2 0 20.7304 2.3748
10 2 1 1.9414 -1.5882
10 2 2 9.2998 -0.7167
10 2 3 -12.2435 1.7694
10 2 4 9.4973 -1.0593
10 2 5 -25.0321 0.6455
10 2 6 2.3620 -1.1708
10 2 7 22.7798 0.9654
10 2 8 19.0082 -0.4305
10 2 9 11.8579 0.0253
10 2 10 1.3824 0.2718
10 2 11 -0.5999 -0.2508
10 2 12 -17.3742 -0.1788
10 2 13 -10.7147 0.4007
10 2 14 8.0803 -0.3540
10 2 15 -5.0720 0.7080
10 2 16 2.5285 -1.1257
10 2 17 -11.5014 0.5404
10 2 18 39.6311 0.1243
10 2 19 2.1947 -0.1676
10 4 0 -3.3632 -0.9401
10 4 1 13.5974 0.4020
10 4 2 27.8112 0.3384
10 4 3 16.6311 -0.2536
10 4 4 16.7269 -0.6906
10 4 5 -16.5592 0.9278
10 4 6 -10.0600 -0.5664
10 4 7 -6.8867 0.2954
10 4 8 11.8905 0.0912
10 4 9 -7.1248 -0.5226
10 4 10 2.4801 0.4174
10 4 11 1.4431 -0.1926
10 4 12 -2.4316 -0.1111
10 4 13 -9.8944 0.2431
10 4 14 17.0304 -0.5811
10 4 15 24.8769 0.4426
10 4 16 -13.5971 -0.2373
10 4 17 -5.0973 0.3913
10 4 18 30.9768 -0.1202
10 4 19 7.5056 -0.8081
10 6 0 -11.5211 -0.0942
10 6 1 -21.9557 0.2347
10 6 2 0.4236 0.1901
10 6 3 -8.4847 -0.3450
10 6 4 -9.1028 0.7153
10 6 5 0.7126 -1.3791
10 6 6 -3.0411 1.5034
10 6 7 31.6587 -0.5290
10 6 8 11.4664 -0.3112
10 6 9 13.3298 0.5412
10 6 10 -11.3036 -0.5853
10 6 11 11.4869 0.5220
10 6 12 -11.8450 0.1962
10 6 13 0.6577 -0.5887
10 6 14 24.7324 0.6043
10 6 15 16.1481 -0.6854
10 6 16 -1.9972 0.8556
10 6 17 12.5619 -0.1574
10 6 18 22.3413 -0.5327
10 6 19 -9.0646 -1.2691
10 8 0 10.2807 0.6001
10 8 1 1.7172 -0.5646
10 8 2 -14.3514 0.0326
10 8 3 4.0049 0.5353
10 8 4 3.2063 -0.9208
10 8 5 11.5164 1.1336
10 8 6 7.3123 -1.1039
10 8 7 -7.2643 0.5844
10 8 8 15.6333 0.1393
10 8 9 -5.0291 -0.7184
10 8 10 -15.6525 0.7605
10 8 11 0.8522 -0.3675
10 8 12 -3.1181 -0.0018
10 8 13 -17.0760 0.1875
10 8 14 18.2184 -0.4877
10 8 15 0.7933 0.6601
10 8 16 0.1494 -0.5334
10 8 17 15.2431 0.2311
10 8 18 9.4453 0.1478
10 10 0 -2.5837 -0.7150
10 10 1 6.8743 0.6074
10 10 2 13.6765 -0.1933
10 10 3 2.9751 -0.2533
10 10 4 1.6321 0.4998
10 10 5 9.8586 -0.6430
10 10 6 -4.8516 0.5877
10 10 7 0.3787 -0.2064
10 10 8 10.8214 -0.3352
10 10 9 -5.1031 0.6847
10 10 10 -16.5492 -0.7085
10 10 11 10.3169 0.4254
10 10 12 3.9461 -0.1214
10 10 13 -12.5135 -0.0534
10 10 14 6.0559 0.1835
10 10 15 -9.1115 -0.2048
10 10 16 2.5314 0.2813
10 10 17 -3.2049 -0.3253
10 12 0 -2.6202 0.5311
10 12 1 4.1977 -0.4698
10 12 2 7.7425 0.1596
10 12 3 -13.4869 0.1705
10 12 4 -6.1363 -0.2336
10 12 5 0.3268 0.1067
10 12 6 -9.7521 -0.0128
10 12 7 -11.6990 0.0225
10 12 8 4.8105 0.1444
10 12 9 3.0778 -0.4009
10 12 10 -7.9678 0.4154
10 12 11 -4.6886 -0.1993
10 12 12 -2.6270 0.1585
10 12 13 -0.9973 -0.3525
10 12 14 0.2635 0.0019
10 12 15 15.6622 0.2183
10 12 16 -3.3851 0.2096
10 14 0 1.8492 -0.1060
10 14 1 -0.3660 0.0608
10 14 2 -5.6864 -0.0214
10 14 3 -6.2350 0.0357
10 14 4 -9.2393 -0.0048
10 14 5 10.4842 0.0665
10 14 6 4.1911 -0.2303
10 14 7 10.5833 0.1952
10 14 8 5.3582 0.0406
10 14 9 26.4585 -0.1384
10 14 10 -9.1838 0.0940
10 14 11 -7.5769 -0.0660
10 14 12 9.4970 0.1188
10 14 13 3.4728 0.2002
10 14 14 13.6392 -0.2525
10 16 0 24.0098 -0.2350
10 16 1 9.7871 0.2362
10 16 2 -3.2847 -0.0973
10 16 3 -12.1894 -0.0481
10 16 4 -8.8092 0.1003
10 16 5 -12.1500 -0.1975
10 16 6 0.0146 0.3313
10 16 7 -0.5212 -0.2567
10 16 8 20.6747 -0.2190
10 16 9 4.4841 0.6253
10 16 10 9.5648 -0.5765
10 16 11 -16.5511 0.2031
10 16 12 -0.4597 -0.1365
10 18 0 0.0943 0.2391
10 18 1 11.9183 -0.3572
10 18 2 5.2558 0.2389
10 18 3 13.6741 0.0533
10 18 4 -3.7402 -0.2827
10 18 5 16.6074 0.3106
10 18 6 1.0509 -0.2062
10 18 7 -4.0362 0.0575
10 18 8 0.4475 0.2801
10 18 9 -5.6787 -0.6431
10 20 0 5.5209 -0.2251
10 20 1 10.7054 0.2725
10 20 2 0.9451 -0.1251
10 20 3 -0.3783 -0.0999
10 20 4 -12.3179 0.3787
11 1 0 -33.8506 -0.7173
11 1 1 -15.3414 3.3492
11 1 2 -27.5746 -1.0205
11 1 3 2.7655 -2.0497
11 1 4 9.6204 2.9429
11 1 5 -2.4685 -3.0396
11 1 6 19.9086 2.5524
11 1 7 -0.1647 -0.8365
11 1 8 -1.1807 -1.2263
11 1 9 -1.0162 2.2671
11 1 10 6.5945 -2.5382
11 1 11 10.2704 2.1075
11 1 12 1.3488 -0.7350
11 1 13 -7.0896 -0.9948
11 1 14 -6.9228 1.9201
11 1 15 -11.6547 -2.4711
11 1 16 8.6521 2.2114
11 1 17 -5.6160 -0.4600
11 1 18 9.5844 -0.3570
11 1 19 0.6401 0.4227
11 3 0 20.0533 1.2874
11 3 1 -11.6627 -1.5756
11 3 2 14.1952 0.6416
11 3 3 -15.4834 0.9159
11 3 4 -11.4910 -2.1338
11 3 5 3.0615 2.2978
11 3 6 -5.8049 -1.3500
11 3 7 -1.5661 0.2255
11 3 8 -31.5096 0.6556
11 3 9 8.2639 -1.2664
11 3 10 -6.2923 1.3528
11 3 11 1.2142 -1.0967
11 3 12 3.9322 0.5051
11 3 13 13.6305 0.6299
11 3 14 -1.3466 -1.5639
11 3 15 7.8329 1.6787
11 3 16 3.4040 -0.9729
11 3 17 -12.6164 0.2615
11 3 18 3.8081 -0.3921
11 3 19 -2.5571 -0.3112
11 5 0 -31.8878 -0.8667
11 5 1 -3.1413 0.9267
11 5 2 -3.2711 -0.7224
11 5 3 9.7657 -0.3402
11 5 4 -31.3502 1.4615
11 5 5 17.4434 -1.2960
11 5 6 12.7096 0.3753
11 5 7 4.2390 -0.0322
11 5 8 0.8785 -0.1692
11 5 9 -2.1418 0.6594
11 5 10 9.6158 -0.5835
11 5 11 -12.0780 0.4089
11 5 12 8.1389 -0.3565
11 5 13 17.0488 -0.2524
11 5 14 7.4821 0.9144
11 5 15 -0.3459 -0.8364
11 5 16 -17.6729 0.2770
11 5 17 -15.1250 -0.3405
11 5 18 -15.1003 0.3725
11 5 19 -15.4869 1.2410
11 7 0 10.4816 0.5915
11 7 1 4.3169 -0.5000
11 7 2 -8.0727 0.1997
11 7 3 3.0209 -0.0049
11 7 4 -7.5375 -0.2841
11 7 5 2.8571 0.4929
11 7 6 3.4891 -0.0995
11 7 7 -9.1681 -0.4103
11 7 8 -4.9267 0.3554
11 7 9 17.4091 0.0073
11 7 10 -13.5555 -0.1386
11 7 11 -8.1209 -0.1483
11 7 12 -21.0421 0.1169
11 7 13 7.8147 0.1732
11 7 14 6.6684 -0.0519
11 7 15 -13.7099 0.1331
11 7 16 -6.1185 -0.3672
11 7 17 -1.6835 0.2161
11 7 18 -4.2057 0.2026
11 9 0 -8.2633 -0.3394
11 9 1 -3.9335 0.1513
11 9 2 2.1660 0.0716
11 9 3 6.4639 -0.0404
11 9 4 -7.7958 -0.1189
11 9 5 8.0335 0.2712
11 9 6 0.1979 -0.4161
11 9 7 -11.7882 0.2908
11 9 8 5.3389 0.0300
11 9 9 2.6062 -0.3293
11 9 10 -2.7377 0.4286
11 9 11 -11.4908 -0.2370
11 9 12 15.9857 -0.0162
11 9 13 8.1167 0.2041
11 9 14 18.2587 -0.3423
11 9 15 -3.6037 0.1976
11 9 16 4.3250 -0.1525
11 9 17 -9.2725 0.0745
11 11 0 -9.1129 -0.1139
11 11 1 3.7975 0.2204
11 11 2 -1.2057 -0.1746
11 11 3 15.7090 -0.0943
11 11 4 2.7996 0.4259
11 11 5 1.9498 -0.5631
11 11 6 6.9206 0.5152
11 11 7 -6.0313 -0.2783
11 11 8 -4.5354 -0.0710
11 11 9 -4.5062 0.5368
11 11 10 -9.0427 -0.7431
11 11 11 -9.9981 0.5278
11 11 12 -15.9855 -0.1827
11 11 13 -12.6401 -0.1744
11 11 14 -11.7286 0.5543
11 11 15 8.8209 -0.4355
11 11 16 -1.0629 -0.0638
11 13 0 -1.5589 0.3029
11 13 1 -4.5915 -0.2575
11 13 2 -12.1580 0.2179
11 13 3 -9.1664 -0.0536
11 13 4 -2.3350 -0.4162
11 13 5 9.4878 0.7666
11 13 6 -6.8819 -0.6128
11 13 7 -4.2078 0.1328
11 13 8 0.0193 0.2200
11 13 9 0.6366 -0.4507
11 13 10 -12.2993 0.6586
11 13 11 -17.3837 -0.5786
11 13 12 -1.9923 0.1185
11 13 13 -2.9161 0.2643
11 13 14 8.4519 -0.3926
11 13 15 19.0919 0.2422
11 15 0 7.3095 -0.3703
11 15 1 -14.8354 0.3034
11 15 2 -23.9206 -0.1844
11 15 3 -19.4453 -0.0501
11 15 4 0.4339 0.3854
11 15 5 4.4249 -0.5764
11 15 6 8.4606 0.4449
11 15 7 4.8015 -0.0835
11 15 8 -2.2432 -0.2367
11 15 9 -0.1921 0.3157
11 15 10 2.4477 -0.4676
11 15 11 -6.5763 0.5233
11 15 12 -5.6998 -0.1503
11 15 13 7.2619 -0.2320
11 17 0 -7.8100 0.3463
11 17 1 0.4972 -0.1793
11 17 2 9.0848 -0.0379
11 17 3 -3.7370 0.1410
11 17 4 -0.6537 -0.2055
11 17 5 -9.8077 0.3299
11 17 6 -14.3292 -0.3898
11 17 7 -4.6113 0.2193
11 17 8 11.2341 0.1466
11 17 9 -16.4818 -0.2192
11 17 10 31.4221 0.1179
11 17 11 -3.8036 -0.0423
11 19 0 11.2736 -0.0983
11 19 1 -4.2874 0.0659
11 19 2 16.6999 0.0485
11 19 3 5.7982 -0.1062
11 19 4 4.2431 0.0632
11 19 5 -5.5869 0.0057
11 19 6 9.1639 0.0329
11 19 7 -1.4844 -0.1093
12 0 0 4.5844 -15.6541
12 0 1 -55.4284 6.7658
12 0 2 -8.9588 -2.4794
12 0 3 -64.2166 -0.5253
12 0 4 6.4103 3.2956
12 0 5 -7.2957 -4.1982
12 0 6 -12.6977 1.9719
12 0 7 -16.1891 1.1270
12 0 8 -1.5154 -4.7566
12 0 9 11.4460 7.7718
12 0 10 -16.4852 -8.7151
12 0 11 7.3997 6.8109
12 0 12 6.7628 -4.0351
12 0 13 3.7137 0.6423
12 0 14 27.7308 1.5848
12 0 15 9.4140 -2.4605
12 0 16 -4.8264 1.5567
12 0 17 -10.0034 0.4356
12 0 18 -8.8138 -3.2315
12 0 19 -7.2173 5.4450
12 2 0 -2.1267 2.4047
12 2 1 48.1325 -1.9219
12 2 2 14.6761 0.2206
12 2 3 38.6904 0.6220
12 2 4 6.2278 -0.0723
12 2 5 45.8544 -0.2888
12 2 6 -7.1649 0.1209
12 2 7 6.4249 -0.1811
12 2 8 -3.8924 0.7604
12 2 9 -9.8064 -0.9247
12 2 10 7.9904 1.0619
12 2 11 -4.3922 -1.0215
12 2 12 6.9986 0.6008
12 2 13 3.8683 -0.3594
12 2 14 -6.8431 0.3822
12 2 15 -1.5585 -0.0059
12 2 16 -1.9999 -0.3195
12 2 17 3.3166 -0.5480
12 2 18 -4.3809 1.7591
12 2 19 -13.0439 0.1644
12 4 0 8.2572 -0.3166
12 4 1 -11.2387 0.2232
12 4 2 5.2172 0.5574
12 4 3 -10.1287 -0.5292
12 4 4 22.6146 -0.1474
12 4 5 -11.0982 0.6264
12 4 6 -22.7527 -0.3461
12 4 7 -16.6856 -0.1204
12 4 8 -2.0023 0.4975
12 4 9 1.4124 -0.9219
12 4 10 6.4632 0.9046
12 4 11 1.4419 -0.5403
12 4 12 -5.5815 0.4032
12 4 13 13.4474 0.0158
12 4 14 -8.1657 -0.1923
12 4 15 26.4018 0.1578
12 4 16 24.2843 0.0401
12 4 17 11.0939 0.0968
12 4 18 -2.6798 -0.4777
12 4 19 -9.3271 -0.6524
12 6 0 9.4385 -0.6317
12 6 1 14.4337 0.5306
12 6 2 -25.6329 -0.2728
12 6 3 12.9553 0.1704
12 6 4 0.6615 0.0705
12 6 5 3.7712 -0.8134
12 6 6 1.0087 0.7566
12 6 7 1.5494 0.2851
12 6 8 14.4524 -1.0997
12 6 9 -1.9528 1.2568
12 6 10 26.5081 -1.2726
12 6 11 1.7768 1.0790
12 6 12 -6.4629 -0.5415
12 6 13 -0.1882 0.0354
12 6 14 10.8207 -0.0694
12 6 15 28.0626 -0.2671
12 6 16 30.8434 0.5771
12 6 17 35.6473 -0.0293
12 6 18 -4.3332 -0.2872
12 8 0 18.7471 0.6643
12 8 1 -6.6595 -0.5253
12 8 2 -3.6328 0.0699
12 8 3 -16.2151 0.3216
12 8 4 13.7501 -0.5355
12 8 5 -13.0618 0.6737
12 8 6 -2.5758 -0.6433
12 8 7 1.6418 0.2663
12 8 8 -9.5164 0.4746
12 8 9 -2.4828 -1.1361
12 8 10 -3.7063 1.1516
12 8 11 8.8461 -0.7345
12 8 12 -12.3964 0.3012
12 8 13 5.0166 -0.0522
12 8 14 11.4545 -0.1889
12 8 15 18.3800 0.3497
12 8 16 20.4320 -0.1971
12 8 17 11.3658 -0.0389
12 8 18 11.6665 -0.4402
12 10 0 0.2377 -0.2880
12 10 1 15.6032 0.2169
12 10 2 10.6880 0.1234
12 10 3 15.2501 -0.4474
12 10 4 -0.3949 0.6670
12 10 5 -5.3304 -0.7952
12 10 6 2.8537 0.7883
12 10 7 13.0037 -0.4044
12 10 8 -7.1177 -0.1195
12 10 9 1.3059 0.4210
12 10 10 3.9754 -0.2806
12 10 11 -12.3323 0.1012
12 10 12 -5.0448 0.1121
12 10 13 -1.6826 -0.1901
12 10 14 -0.3684 0.1873
12 10 15 -6.8003 -0.3866
12 10 16 -11.1502 0.6527
12 10 17 -33.4589 0.1495
12 12 0 -11.8478 0.1824
12 12 1 17.1853 -0.1244
12 12 2 -12.4044 -0.1213
12 12 3 10.1590 0.4483
12 12 4 -9.1098 -0.5355
12 12 5 18.4338 0.4333
12 12 6 -0.8410 -0.3825
12 12 7 4.3161 0.3398
12 12 8 -4.4574 -0.2458
12 12 9 4.3689 0.0367
12 12 10 13.0880 -0.0710
12 12 11 4.5863 0.2096
12 12 12 -1.1349 -0.2631
12 12 13 -21.6952 0.2889
12 12 14 -11.3690 -0.1250
12 12 15 0.7997 0.0513
12 14 0 -20.2478 -0.1285
12 14 1 -5.1591 -0.0271
12 14 2 -7.3312 -0.0150
12 14 3 -4.8813 0.0166
12 14 4 0.8076 0.0696
12 14 5 15.2753 -0.1298
12 14 6 -6.2598 0.0118
12 14 7 3.6803 0.0032
12 14 8 -1.9985 0.2056
12 14 9 18.5975 -0.3190
12 14 10 10.1156 0.3276
12 14 11 17.3010 -0.3297
12 14 12 -3.2744 0.2323
12 14 13 6.6263 -0.2116
12 14 14 -1.8472 -0.3223
12 16 0 -9.2078 0.0831
12 16 1 12.8921 -0.0088
12 16 2 10.5086 0.1381
12 16 3 4.7401 -0.2614
12 16 4 -14.2674 0.3127
12 16 5 3.6056 -0.3425
12 16 6 -21.4582 0.4697
12 16 7 2.8512 -0.3349
12 16 8 4.7935 -0.0657
12 16 9 -14.2974 0.3637
12 16 10 -1.2742 -0.3027
12 16 11 1.9787 0.1231
12 16 12 16.2035 -0.0044
12 18 0 -8.5811 0.0443
12 18 1 0.6304 -0.1043
12 18 2 17.7020 0.0498
12 18 3 0.2426 0.2341
12 18 4 -1.8848 -0.4914
12 18 5 -26.2993 0.5190
12 18 6 -2.2629 -0.4998
12 18 7 -11.2045 0.3207
12 18 8 -0.1352 -0.0043
12 18 9 -3.0907 -0.2614
12 20 0 2.6284 -0.3216
12 20 1 -6.4877 0.2166
12 20 2 -4.8433 -0.1448
12 20 3 5.1998 -0.0927
13 1 0 -6.6378 0.9807
13 1 1 -4.5610 2.5375
13 1 2 25.1599 -0.3367
13 1 3 -5.1151 -2.8324
13 1 4 -23.8098 3.8813
13 1 5 -8.0637 -3.8619
13 1 6 -16.9303 3.4109
13 1 7 14.1345 -1.6390
13 1 8 -0.7220 -0.4006
13 1 9 -2.3261 1.4323
13 1 10 -1.1702 -1.6851
13 1 11 -4.3451 1.2336
13 1 12 4.4246 0.1638
13 1 13 -17.5920 -1.6866
13 1 14 -5.0107 2.8432
13 1 15 0.0159 -3.1317
13 1 16 -9.2519 2.5513
13 1 17 15.8994 -0.6318
13 1 18 -6.1490 -1.8058
13 1 19 -8.6877 -1.5741
13 3 0 -22.7444 0.6246
13 3 1 -10.4267 -1.0694
13 3 2 7.0368 -0.1244
13 3 3 -19.1811 1.9839
13 3 4 5.3867 -3.1945
13 3 5 -21.3937 3.2327
13 3 6 7.3497 -2.4499
13 3 7 -0.9541 1.3834
13 3 8 17.3423 -0.5125
13 3 9 -23.6666 -0.0792
13 3 10 9.1913 0.4074
13 3 11 -5.7579 -0.2113
13 3 12 0.4376 -0.4608
13 3 13 3.2184 1.4852
13 3 14 -30.5042 -2.3762
13 3 15 -3.2285 2.2993
13 3 16 -6.0692 -1.7634
13 3 17 7.5471 1.3665
13 3 18 -2.2292 -0.1641
13 3 19 -4.4228 -0.5761
13 5 0 -4.6900 -0.8482
13 5 1 11.4342 0.6040
13 5 2 15.6764 -0.3339
13 5 3 5.0644 -0.7521
13 5 4 -0.2299 1.7738
13 5 5 -9.3002 -1.6606
13 5 6 13.1526 0.9277
13 5 7 10.6969 -0.5166
13 5 8 4.7979 0.2261
13 5 9 -10.5900 0.1512
13 5 10 -0.9528 -0.3533
13 5 11 -4.4099 0.1787
13 5 12 2.6286 0.0514
13 5 13 10.1310 -0.6235
13 5 14 -6.6060 1.2221
13 5 15 -31.2816 -1.1179
13 5 16 -14.5404 0.6244
13 5 17 2.2619 -0.6364
13 5 18 14.6320 0.5649
13 7 0 -1.5459 1.0328
13 7 1 -22.0806 -0.6828
13 7 2 0.8728 0.4294
13 7 3 -2.8783 -0.1601
13 7 4 2.6562 -0.1903
13 7 5 -12.5980 0.4200
13 7 6 -0.4180 0.0034
13 7 7 -3.4027 -0.6100
13 7 8 9.3404 0.5652
13 7 9 1.0452 -0.1082
13 7 10 6.5584 0.1683
13 7 11 10.3280 -0.4133
13 7 12 -1.7429 0.3777
13 7 13 -2.6146 -0.1703
13 7 14 -21.5354 0.1603
13 7 15 -8.1281 0.1138
13 7 16 -11.5616 -0.3629
13 7 17 14.7822 0.0186
13 7 18 11.5674 0.2904
13 9 0 -19.1585 -0.6119
13 9 1 -7.8265 0.3831
13 9 2 8.4470 -0.2679
13 9 3 -5.3812 0.3692
13 9 4 4.4221 -0.5679
13 9 5 -2.3407 0.7486
13 9 6 4.2570 -0.8792
13 9 7 6.6521 0.7453
13 9 8 -9.7682 -0.4491
13 9 9 -0.7301 0.2648
13 9 10 -5.9894 -0.2427
13 9 11 8.5939 0.2376
13 9 12 19.0480 -0.3981
13 9 13 8.2764 0.4821
13 9 14 10.8870 -0.5691
13 9 15 -28.0752 0.5658
13 9 16 -2.8125 -0.5605
13 9 17 -17.6336 -0.0941
13 11 0 3.2294 -0.1277
13 11 1 -1.2770 0.2319
13 11 2 15.5998 -0.2104
13 11 3 3.6319 -0.2156
13 11 4 -11.3882 0.6635
13 11 5 -5.6029 -0.7653
13 11 6 -9.0393 0.6475
13 11 7 -5.6120 -0.4718
13 11 8 -5.3860 0.1980
13 11 9 -5.8548 0.2120
13 11 10 -2.8367 -0.5028
13 11 11 -5.8885 0.4013
13 11 12 15.2623 0.1329
13 11 13 2.8040 -0.4976
13 11 14 -11.1338 0.6205
13 11 15 -15.5525 -0.2262
13 11 16 -5.9459 0.1433
13 13 0 -15.0171 0.5939
13 13 1 11.6110 -0.5784
13 13 2 10.5801 0.5260
13 13 3 5.8821 -0.1636
13 13 4 -6.3869 -0.4184
13 13 5 -9.8985 0.6962
13 13 6 -22.4423 -0.4467
13 13 7 -8.7839 -0.0337
13 13 8 12.2384 0.3813
13 13 9 -4.1335 -0.6370
13 13 10 -14.4449 0.7872
13 13 11 -10.9358 -0.7849
13 13 12 6.8649 0.3469
13 13 13 14.3596 0.1545
13 13 14 4.6067 -0.3711
13 15 0 -5.5637 -0.6411
13 15 1 -2.3975 0.6301
13 15 2 -1.6554 -0.3996
13 15 3 -4.6038 0.0786
13 15 4 0.6574 0.2198
13 15 5 8.7832 -0.3432
13 15 6 -14.9445 0.2130
13 15 7 -17.5416 0.1533
13 15 8 -3.7683 -0.5041
13 15 9 -5.8242 0.7860
13 15 10 -4.7572 -0.7903
13 15 11 -5.0383 0.7245
13 15 12 -2.4768 -0.4714
13 17 0 6.2181 0.2775
13 17 1 -17.4981 -0.2306
13 17 2 -17.6056 -0.0109
13 17 3 -10.2346 0.1550
13 17 4 9.9116 -0.1899
13 17 5 20.4902 0.2381
13 17 6 16.2627 -0.2207
13 17 7 -7.0457 0.0095
13 17 8 -5.8088 0.2151
13 17 9 -5.5034 -0.4611
13 17 10 -11.5273 0.4208
13 19 0 -15.8106 0.0908
13 19 1 -14.3072 -0.0715
13 19 2 -17.0489 0.1870
13 19 3 10.1299 -0.3369
13 19 4 4.6423 0.3005
13 19 5 -0.7029 -0.2459
13 19 6 14.5357 0.2273
14 0 0 39.7128 -18.4639
14 0 1 14.5504 8.5460
14 0 2 -17.3632 -4.3526
14 0 3 -19.3309 2.2266
14 0 4 37.4178 0.6884
14 0 5 17.8219 -0.8753
14 0 6 23.9262 -1.4330
14 0 7 -6.1970 4.3607
14 0 8 23.0419 -7.3400
14 0 9 -1.1870 10.2569
14 0 10 3.5929 -10.9228
14 0 11 -4.9574 8.9677
14 0 12 21.1946 -5.4342
14 0 13 3.3661 2.8253
14 0 14 -10.5559 -0.3499
14 0 15 2.7970 -0.7253
14 0 16 2.9358 -0.1867
14 0 17 13.2504 2.1481
14 0 18 18.2807 -4.0810
14 0 19 8.2843 7.8156
14 2 0 9.8477 2.4661
14 2 1 15.9832 -2.0336
14 2 2 -34.7752 0.6171
14 2 3 0.1562 -0.0164
14 2 4 -13.7736 0.4946
14 2 5 22.3294 -0.9274
14 2 6 -10.7956 0.8607
14 2 7 4.5018 -1.0335
14 2 8 -25.0467 1.3437
14 2 9 -6.2577 -1.5616
14 2 10 3.5611 1.4617
14 2 11 0.6423 -1.3439
14 2 12 0.8265 1.0067
14 2 13 -26.0208 -0.8169
14 2 14 -26.0105 0.6458
14 2 15 -7.9301 -0.1993
14 2 16 -4.6079 0.1003
14 2 17 30.0514 -1.2479
14 2 18 -21.2375 1.7032
14 2 19 7.0607 0.9984
14 4 0 3.8380 -0.0810
14 4 1 6.7919 0.1474
14 4 2 0.8644 0.5817
14 4 3 -20.2421 -0.7927
14 4 4 10.2658 -0.0002
14 4 5 -0.6763 0.4606
14 4 6 6.7623 -0.2468
14 4 7 -8.0596 -0.2653
14 4 8 5.0396 0.8309
14 4 9 -6.3218 -1.1592
14 4 10 0.9829 1.2166
14 4 11 5.9326 -0.8757
14 4 12 -21.8983 0.3748
14 4 13 -26.7447 -0.2373
14 4 14 -18.5082 0.0887
14 4 15 10.2964 0.0125
14 4 16 11.0918 0.0659
14 4 17 -7.4635 0.0659
14 4 18 -13.2482 -0.2857
14 6 0 3.4533 -0.7983
14 6 1 20.1326 0.7767
14 6 2 -13.8596 -0.6228
14 6 3 14.2237 0.5793
14 6 4 -13.7071 -0.1463
14 6 5 16.3581 -0.4402
14 6 6 -3.6367 0.3014
14 6 7 4.2125 0.7123
14 6 8 3.8959 -1.5126
14 6 9 -9.1219 1.6275
14 6 10 7.8740 -1.6620
14 6 11 -4.3365 1.4361
14 6 12 -7.1135 -0.7999
14 6 13 -26.0635 0.4825
14 6 14 -19.4694 -0.4756
14 6 15 -18.8169 0.0554
14 6 16 -3.0187 0.2455
14 6 17 -4.3671 0.2269
14 6 18 -9.4519 -0.6881
14 8 0 4.2490 0.5050
14 8 1 -0.3699 -0.4636
14 8 2 2.7793 0.1882
14 8 3 -2.3268 0.1578
14 8 4 5.6550 -0.3567
14 8 5 6.3858 0.3932
14 8 6 5.5148 -0.3066
14 8 7 11.3040 -0.0065
14 8 8 -7.6746 0.7736
14 8 9 1.1239 -1.4277
14 8 10 -0.1454 1.3761
14 8 11 21.4845 -0.7282
14 8 12 0.8327 0.3320
14 8 13 -3.3644 -0.0013
14 8 14 -6.2525 -0.0912
14 8 15 0.8616 0.0636
14 8 16 19.4914 0.0543
14 8 17 5.0618 0.3994
14 10 0 8.7183 -0.1105
14 10 1 9.1607 -0.0191
14 10 2 -7.6866 0.2974
14 10 3 -1.4858 -0.5573
14 10 4 2.8428 0.7529
14 10 5 -2.6324 -0.9577
14 10 6 -2.9129 0.8946
14 10 7 -3.0532 -0.4677
14 10 8 0.2015 -0.1709
14 10 9 -13.4323 0.3527
14 10 10 3.4013 -0.1172
14 10 11 0.4746 -0.2000
14 10 12 -4.4591 0.1162
14 10 13 -15.6887 -0.1837
14 10 14 2.6478 0.2833
14 10 15 -5.0765 -0.6781
14 10 16 11.0141 0.6119
14 12 0 2.5914 -0.0129
14 12 1 -9.0687 0.1210
14 12 2 -4.2357 -0.3496
14 12 3 -10.1080 0.5746
14 12 4 8.3861 -0.6721
14 12 5 -0.6715 0.6426
14 12 6 -4.3636 -0.6274
14 12 7 3.7859 0.6504
14 12 8 -16.2763 -0.4818
14 12 9 -25.2170 0.3403
14 12 10 -19.7830 -0.3310
14 12 11 11.8071 0.5453
14 12 12 -0.7663 -0.5922
14 12 13 6.4622 0.3963
14 12 14 -22.9602 -0.1551
14 12 15 11.6600 0.4224
14 14 0 -4.5500 -0.0831
14 14 1 2.8602 0.0397
14 14 2 2.7216 -0.0187
14 14 3 -7.3908 -0.0504
14 14 4 19.3580 0.2187
14 14 5 1.4858 -0.1751
14 14 6 16.6360 0.0697
14 14 7 -14.6814 -0.1062
14 14 8 -4.3169 0.3052
14 14 9 -45.1449 -0.5144
14 14 10 10.7157 0.4790
14 14 11 -4.4185 -0.3220
14 14 12 1.0113 0.3168
14 14 13 10.6620 -0.0437
14 16 0 13.3335 0.1909
14 16 1 -3.4405 -0.2088
14 16 2 -5.0677 0.2918
14 16 3 7.1012 -0.3477
14 16 4 11.3680 0.3160
14 16 5 -3.2458 -0.4124
14 16 6 1.1969 0.4336
14 16 7 8.8826 -0.3668
14 16 8 -1.5359 0.0893
14 16 9 -22.7034 0.2544
14 16 10 -12.2453 -0.3486
14 16 11 8.0794 0.0639
14 18 0 -6.2390 -0.0762
14 18 1 -23.1800 0.0237
14 18 2 -2.0023 -0.1601
14 18 3 20.4063 0.4362
14 18 4 18.6036 -0.6109
14 18 5 -1.2459 0.7020
14 18 6 0.6219 -0.6250
14 18 7 -1.0507 0.4868
14 18 8 -4.3671 -0.2610
14 20 0 -6.6632 -0.3185
14 20 1 -8.5175 0.2931
15 1 0 1.8818 1.4004
15 1 1 -13.9112 2.2474
15 1 2 -13.2290 -0.1306
15 1 3 3.0134 -3.0600
15 1 4 12.2802 3.9882
15 1 5 -12.1414 -3.9622
15 1 6 -1.8944 3.4572
15 1 7 -2.7448 -1.7038
15 1 8 4.9370 -0.3533
15 1 9 -1.9883 1.3144
15 1 10 -3.2772 -1.4159
15 1 11 1.6801 0.9990
15 1 12 -0.4328 0.3037
15 1 13 2.3139 -1.9539
15 1 14 -2.9317 2.8175
15 1 15 -1.4867 -3.1409
15 1 16 -11.4429 2.6780
15 1 17 -18.1616 -0.6583
15 1 18 -7.5683 -0.2982
15 1 19 3.0109 -2.1079
15 3 0 -3.2167 0.3886
15 3 1 -24.9697 -0.9499
15 3 2 2.6276 -0.3590
15 3 3 22.7463 2.3063
15 3 4 0.7570 -3.3951
15 3 5 6.6058 3.2858
15 3 6 -4.5358 -2.5674
15 3 7 8.8066 1.5922
15 3 8 4.8525 -0.6900
15 3 9 5.6020 0.0422
15 3 10 -0.7864 0.2313
15 3 11 3.1035 -0.0271
15 3 12 -2.7818 -0.6741
15 3 13 -18.3220 1.6366
15 3 14 9.9853 -2.4398
15 3 15 8.6129 2.2451
15 3 16 3.3555 -1.6825
15 3 17 -4.8346 1.2665
15 3 18 -21.0893 -0.4997
15 5 0 -2.6927 -0.7749
15 5 1 -13.7225 0.5336
15 5 2 1.7705 -0.0935
15 5 3 -4.3564 -0.8435
15 5 4 -17.7479 1.7920
15 5 5 3.5210 -1.7273
15 5 6 -1.5232 1.1674
15 5 7 3.2329 -0.6403
15 5 8 9.1130 0.2733
15 5 9 -4.9971 0.1501
15 5 10 0.4395 -0.3552
15 5 11 8.6101 0.1099
15 5 12 -5.1404 0.3023
15 5 13 8.1337 -0.6412
15 5 14 30.0280 1.2460
15 5 15 18.2529 -1.0560
15 5 16 -5.8238 0.7136
15 5 17 -0.0141 -0.8439
15 5 18 1.7540 0.2184
15 7 0 2.6960 1.0023
15 7 1 -5.8408 -0.7287
15 7 2 0.6276 0.4176
15 7 3 -0.3427 -0.2548
15 7 4 -3.6916 -0.0922
15 7 5 11.6536 0.3420
15 7 6 -6.0336 -0.0388
15 7 7 -12.7227 -0.6730
15 7 8 4.0999 0.5861
15 7 9 -1.0923 -0.1354
15 7 10 -7.6268 0.3101
15 7 11 -23.6850 -0.5962
15 7 12 -7.5242 0.4125
15 7 13 25.8489 -0.4202
15 7 14 0.7276 0.1569
15 7 15 23.8163 0.0425
15 7 16 21.9017 -0.2027
15 7 17 5.4250 -0.1593
15 9 0 -3.5968 -0.5637
15 9 1 0.4683 0.3579
15 9 2 -3.3407 -0.2762
15 9 3 -6.0952 0.4016
15 9 4 -4.9278 -0.6883
15 9 5 0.1125 0.9498
15 9 6 5.8960 -0.9149
15 9 7 -0.6706 0.7506
15 9 8 18.9223 -0.4716
15 9 9 5.6647 0.3420
15 9 10 9.4553 -0.3632
15 9 11 -5.8968 0.3568
15 9 12 -7.7062 -0.3552
15 9 13 -5.1975 0.6436
15 9 14 12.8510 -0.4819
15 9 15 1.3947 0.6634
15 9 16 20.4435 -0.5799
15 11 0 -0.2057 -0.1422
15 11 1 3.6604 0.2961
15 11 2 -4.7149 -0.1568
15 11 3 -7.9037 -0.2737
15 11 4 -3.4323 0.7259
15 11 5 2.1273 -0.8890
15 11 6 -11.2697 0.7187
15 11 7 -6.5675 -0.5407
15 11 8 -6.9740 0.2902
15 11 9 12.4942 0.1106
15 11 10 -12.7455 -0.4484
15 11 11 18.3802 0.2582
15 11 12 -7.5217 0.2273
15 11 13 -4.6634 -0.7143
15 11 14 -14.5185 0.2881
15 11 15 18.5604 -0.1927
15 13 0 -17.0006 0.6529
15 13 1 2.5378 -0.7359
15 13 2 -1.7422 0.5507
15 13 3 -8.0306 -0.0646
15 13 4 3.3385 -0.4098
15 13 5 13.5308 0.5891
15 13 6 9.1773 -0.3287
15 13 7 0.4511 -0.0768
15 13 8 12.3386 0.4096
15 13 9 11.9077 -0.6202
15 13 10 10.6306 0.8819
15 13 11 6.7210 -0.8135
15 13 12 -6.9288 0.4023
15 13 13 13.7950 0.2394
15 13 14 -22.4579 0.2586
15 15 0 -10.0447 -0.6637
15 15 1 8.8619 0.6804
15 15 2 0.1501 -0.4846
15 15 3 1.0823 0.0647
15 15 4 -6.3616 0.2047
15 15 5 4.8362 -0.2964
15 15 6 -1.9113 0.1342
15 15 7 -0.9764 0.2210
15 15 8 9.3876 -0.6232
15 15 9 16.3204 0.7640
15 15 10 63.7454 -0.8581
15 15 11 15.5085 0.7388
15 15 12 1.7338 -0.3824
15 17 0 -9.5073 0.3771
15 17 1 2.9691 -0.2621
15 17 2 -4.9494 0.0478
15 17 3 -4.6052 0.1311
15 17 4 6.0004 -0.1788
15 17 5 1.8899 0.1980
15 17 6 12.8237 -0.1191
15 17 7 3.5121 -0.0535
15 17 8 -1.2276 0.3292
15 17 9 -7.7993 -0.4640
15 19 0 10.6236 0.1019
15 19 1 -3.7156 -0.1226
15 19 2 9.5412 0.2848
15 19 3 15.3304 -0.3747
15 19 4 4.9166 0.3317
15 19 5 0.8687 -0.2326
16 0 0 7.7644 -17.0895
16 0 1 16.5109 7.4030
16 0 2 23.4564 -2.7855
16 0 3 -18.2204 0.5475
16 0 4 4.9578 1.3719
16 0 5 -1.2070 -1.8746
16 0 6 6.0277 -0.2580
16 0 7 13.9061 3.2088
16 0 8 8.7316 -6.3594
16 0 9 8.7160 8.9450
16 0 10 -11.7022 -9.3525
16 0 11 3.0526 7.3309
16 0 12 -2.2054 -4.7840
16 0 13 5.8782 1.3538
16 0 14 -5.2171 0.9873
16 0 15 -1.3944 -1.6281
16 0 16 14.1796 0.5311
16 0 17 -7.3793 1.2424
16 0 18 9.3181 -3.9374
16 2 0 -11.4932 2.4244
16 2 1 -0.3449 -1.8630
16 2 2 -11.4435 0.2244
16 2 3 -6.1793 0.2919
16 2 4 -16.4251 0.3936
16 2 5 -4.8407 -0.6900
16 2 6 -1.3635 0.5747
16 2 7 -5.2383 -0.7102
16 2 8 -5.4319 1.0927
16 2 9 -9.0138 -1.1481
16 2 10 7.5914 1.1410
16 2 11 -6.0536 -1.1030
16 2 12 -0.4246 0.8524
16 2 13 3.2362 -0.4212
16 2 14 -5.6520 0.3324
16 2 15 -17.1435 0.1667
16 2 16 3.7252 -0.0989
16 2 17 21.8178 -0.9001
16 2 18 4.6165 0.5005
16 4 0 11.2853 -0.1483
16 4 1 -16.3872 0.2012
16 4 2 17.3662 0.6480
16 4 3 -0.3183 -0.7378
16 4 4 5.6255 -0.0685
16 4 5 -1.7597 0.6802
16 4 6 -1.3806 -0.4164
16 4 7 4.3190 -0.2238
16 4 8 -0.2667 0.7024
16 4 9 12.1466 -1.0668
16 4 10 4.4332 1.0720
16 4 11 22.8704 -0.6569
16 4 12 6.0491 0.2932
16 4 13 -1.4752 -0.1142
16 4 14 -27.1518 0.0394
16 4 15 -17.6062 -0.1986
16 4 16 -3.2643 -0.0991
16 4 17 4.5644 0.4323
16 4 18 -14.7650 0.5376
16 6 0 1.2450 -0.6431
16 6 1 -2.0489 0.6653
16 6 2 1.7638 -0.5971
16 6 3 0.6854 0.4391
16 6 4 8.6146 0.0056
16 6 5 -6.2754 -0.6383
16 6 6 9.7290 0.4413
16 6 7 -12.8993 0.6505
16 6 8 14.1719 -1.3859
16 6 9 -11.8092 1.4677
16 6 10 6.0679 -1.4392
16 6 11 7.2026 1.3020
16 6 12 28.3697 -0.7624
16 6 13 21.7987 0.3710
16 6 14 -24.1593 -0.1182
16 6 15 -6.1019 -0.0437
16 6 16 8.0204 0.1708
16 6 17 12.9312 0.2499
16 8 0 3.5741 0.5039
16 8 1 -6.9338 -0.4793
16 8 2 4.6307 0.1650
16 8 3 11.3286 0.2713
16 8 4 -7.9455 -0.5135
16 8 5 -4.0254 0.5020
16 8 6 2.9878 -0.5458
16 8 7 13.0417 0.2150
16 8 8 -1.1321 0.6860
16 8 9 -1.7099 -1.3809
16 8 10 -3.2464 1.1125
16 8 11 0.2367 -0.5758
16 8 12 8.8502 0.1877
16 8 13 26.2047 -0.1775
16 8 14 -26.9653 -0.2483
16 8 15 -8.6540 0.3253
16 8 16 28.3186 -0.2123
16 8 17 14.9926 0.1450
16 10 0 3.3259 -0.1724
16 10 1 -7.4242 0.1250
16 10 2 -6.4688 0.1379
16 10 3 13.6029 -0.4778
16 10 4 8.8717 0.7680
16 10 5 -5.2005 -0.8207
16 10 6 14.4987 0.7926
16 10 7 -10.7951 -0.3885
16 10 8 8.3914 -0.2146
16 10 9 0.2844 0.4352
16 10 10 -0.9654 -0.1360
16 10 11 4.6380 -0.0008
16 10 12 4.2454 0.1329
16 10 13 8.4774 -0.0332
16 10 14 10.9959 0.4537
16 10 15 -3.5989 -0.6452
16 10 16 22.7187 0.5454
16 12 0 10.8234 0.0080
16 12 1 2.3133 0.0310
16 12 2 -8.2009 -0.1687
16 12 3 4.2282 0.4641
16 12 4 -8.4946 -0.7259
16 12 5 -7.8903 0.7292
16 12 6 -6.6713 -0.6079
16 12 7 -11.2252 0.4500
16 12 8 -17.4847 -0.3293
16 12 9 -7.1570 0.2489
16 12 10 -26.9766 -0.2828
16 12 11 -8.8473 0.3955
16 12 12 1.8555 -0.5332
16 12 13 0.7672 0.3040
16 12 14 -12.1009 -0.3635
16 14 0 10.7991 -0.0948
16 14 1 10.6891 0.0266
16 14 2 -12.2463 -0.0462
16 14 3 2.4652 -0.0597
16 14 4 -9.6765 0.1791
16 14 5 11.9377 -0.2038
16 14 6 8.8663 0.0909
16 14 7 -7.6468 -0.0877
16 14 8 -12.8464 0.2217
16 14 9 -1.8628 -0.3535
16 14 10 12.1357 0.3289
16 14 11 -8.2642 -0.3542
16 14 12 -5.4021 0.2619
16 14 13 5.7573 0.2924
16 16 0 -7.1014 0.0477
16 16 1 5.9891 -0.0928
16 16 2 9.1675 0.2587
16 16 3 11.5138 -0.2509
16 16 4 -0.6124 0.3010
16 16 5 -12.7773 -0.3706
16 16 6 13.8089 0.4093
16 16 7 9.5599 -0.2348
16 16 8 14.1278 0.0251
16 16 9 13.2851 0.2072
16 16 10 19.0586 -0.1824
16 18 0 -25.1753 -0.0433
16 18 1 -20.2590 0.0138
16 18 2 4.7092 -0.1693
16 18 3 1.5235 0.3587
16 18 4 -0.7711 -0.5340
16 18 5 -13.2984 0.5913
16 18 6 15.7121 -0.5956
16 18 7 -13.9675 0.4209
17 1 0 5.8306 0.4159
17 1 1 7.6971 2.5691
17 1 2 -10.8865 -0.3561
17 1 3 -3.3299 -2.4454
17 1 4 4.0154 3.2282
17 1 5 20.8851 -3.2441
17 1 6 0.1675 2.7143
17 1 7 5.6978 -0.9523
17 1 8 -7.0871 -0.9722
17 1 9 3.3391 1.8448
17 1 10 4.4347 -2.0206
17 1 11 10.4963 1.5649
17 1 12 -3.2656 -0.1737
17 1 13 -3.5636 -1.4603
17 1 14 14.7510 2.4209
17 1 15 -0.4088 -2.8057
17 1 16 1.2031 1.6670
17 1 17 9.8752 0.2334
17 1 18 -6.4428 0.5646
17 3 0 -4.8340 0.6389
17 3 1 13.4427 -1.1787
17 3 2 -23.6670 0.0786
17 3 3 4.6988 1.6156
17 3 4 7.9497 -2.5116
17 3 5 2.1510 2.4285
17 3 6 0.6207 -1.6542
17 3 7 -4.6809 0.7212
17 3 8 8.6457 0.2273
17 3 9 2.8997 -0.8356
17 3 10 1.7871 0.9189
17 3 11 -9.7246 -0.6906
17 3 12 -1.4247 0.1226
17 3 13 17.2481 1.0132
17 3 14 -13.7381 -1.8174
17 3 15 1.5547 1.9713
17 3 16 -4.0178 -1.0202
17 3 17 18.7169 0.1099
17 3 18 -0.9037 -0.2596
17 5 0 4.3190 -0.6770
17 5 1 -3.3843 0.5260
17 5 2 -1.0750 -0.2994
17 5 3 -10.3563 -0.6021
17 5 4 2.0537 1.3904
17 5 5 0.0613 -1.3408
17 5 6 -2.9893 0.6683
17 5 7 11.7209 -0.3365
17 5 8 -4.9603 -0.0509
17 5 9 1.0503 0.5263
17 5 10 -2.6995 -0.5761
17 5 11 8.9349 0.3347
17 5 12 7.2464 -0.0461
17 5 13 7.3986 -0.5306
17 5 14 23.8237 0.6554
17 5 15 23.1150 -0.7861
17 5 16 2.9621 0.7424
17 5 17 0.9033 -0.3524
17 7 0 -0.5886 0.6086
17 7 1 20.1726 -0.4222
17 7 2 4.8969 0.2592
17 7 3 3.4365 -0.1041
17 7 4 -2.9521 -0.1642
17 7 5 6.2248 0.4156
17 7 6 -3.7755 0.0804
17 7 7 -13.7149 -0.6125
17 7 8 0.1124 0.4739
17 7 9 -7.9303 -0.0818
17 7 10 -24.4255 0.2351
17 7 11 1.9571 -0.5661
17 7 12 5.5517 0.3978
17 7 13 9.0534 0.1328
17 7 14 -4.6709 0.0344
17 7 15 11.2881 -0.0008
17 7 16 -4.0534 -0.0269
17 7 17 -19.8091 0.1003
17 9 0 0.3959 -0.2620
17 9 1 0.1733 0.1653
17 9 2 10.0691 -0.0923
17 9 3 -5.6869 0.2014
17 9 4 -2.4244 -0.3719
17 9 5 -3.5560 0.4379
17 9 6 -10.3574 -0.4551
17 9 7 10.6917 0.3466
17 9 8 9.8456 -0.2392
17 9 9 10.5109 0.1171
17 9 10 -5.8330 0.0332
17 9 11 17.3982 -0.0685
17 9 12 -8.1023 -0.2694
17 9 13 -4.8104 0.3745
17 9 14 8.5199 -0.4512
17 9 15 -4.5411 0.1776
17 9 16 -7.7151 -0.3148
17 11 0 -7.4229 -0.1421
17 11 1 1.9126 0.1951
17 11 2 2.7462 -0.1580
17 11 3 20.1051 -0.2049
17 11 4 -1.3914 0.6507
17 11 5 23.6729 -0.7835
17 11 6 -1.2290 0.5168
17 11 7 -26.1662 -0.1990
17 11 8 17.8730 0.0519
17 11 9 9.6821 0.2050
17 11 10 1.4026 -0.4767
17 11 11 5.9557 0.4298
17 11 12 -0.1006 0.1603
17 11 13 -0.6836 -0.3654
17 11 14 10.8188 0.4751
17 11 15 1.4773 0.1038
17 13 0 -14.0281 0.4918
17 13 1 -4.0780 -0.4516
17 13 2 -13.8342 0.2676
17 13 3 -17.6181 0.0497
17 13 4 5.1160 -0.4313
17 13 5 8.2217 0.5775
17 13 6 -0.8218 -0.3983
17 13 7 -4.1295 0.0218
17 13 8 13.9659 0.3280
17 13 9 13.4927 -0.6344
17 13 10 -0.5830 0.6959
17 13 11 -7.2504 -0.5933
17 13 12 6.4060 0.1056
17 13 13 4.2599 -0.1416
17 15 0 8.4536 -0.4466
17 15 1 14.4763 0.4805
17 15 2 9.9350 -0.2420
17 15 3 4.3370 -0.0675
17 15 4 7.6266 0.3251
17 15 5 7.0351 -0.3146
17 15 6 16.9801 0.2194
17 15 7 -12.8347 0.0165
17 15 8 16.1111 -0.3535
17 15 9 10.5160 0.6399
17 15 10 -0.0318 -0.6172
17 15 11 9.3618 0.6018
17 17 0 -14.2929 0.3372
17 17 1 -7.4837 -0.2304
17 17 2 -1.1838 0.0191
17 17 3 -14.7779 0.0743
17 17 4 -8.9199 -0.2199
17 17 5 2.2889 0.2544
17 17 6 23.9938 -0.1871
17 17 7 -1.2943 -0.0017
17 17 8 -0.0909 0.1927
17 19 0 -0.8495 -0.0585
17 19 1 0.6657 -0.0387
17 19 2 0.8347 0.1530
17 19 3 -0.7764 -0.1637
18 0 0 -21.1577 -12.2733
18 0 1 -11.3620 3.7806
18 0 2 11.5859 0.6816
18 0 3 26.4960 -3.4558
18 0 4 -44.1465 6.0716
18 0 5 -16.0734 -6.1046
18 0 6 -6.4588 3.7926
18 0 7 8.9592 -0.7169
18 0 8 8.8550 -2.4064
18 0 9 5.9083 4.9991
18 0 10 6.1719 -5.3482
18 0 11 -5.0728 3.4340
18 0 12 -6.6890 -0.6925
18 0 13 -6.6354 -1.4482
18 0 14 -4.6013 3.9049
18 0 15 6.3077 -4.6523
18 0 16 -4.4337 3.7796
18 0 17 20.2717 -1.6532
18 0 18 -14.5683 -1.7778
18 2 0 9.9570 2.3370
18 2 1 -22.1424 -1.4001
18 2 2 20.4956 -0.5898
18 2 3 0.4549 1.2382
18 2 4 14.1743 -0.5531
18 2 5 -20.7554 0.2614
18 2 6 22.0229 -0.4715
18 2 7 -3.7155 0.1719
18 2 8 -2.1639 0.1564
18 2 9 12.1882 -0.2112
18 2 10 -13.6487 0.2991
18 2 11 -4.8658 -0.2334
18 2 12 -5.5373 -0.0277
18 2 13 19.3001 0.1137
18 2 14 20.9944 -0.4407
18 2 15 -9.0745 0.4841
18 2 16 22.7617 -0.4859
18 2 17 -1.1165 0.3135
18 2 18 12.0934 -0.4151
18 4 0 -19.0006 -0.5841
18 4 1 -1.4338 0.4164
18 4 2 2.8261 0.4314
18 4 3 20.7119 -0.4435
18 4 4 -6.7589 -0.4558
18 4 5 -5.0840 0.8223
18 4 6 -7.1884 -0.5090
18 4 7 2.6467 0.1384
18 4 8 0.9383 0.3289
18 4 9 -2.2589 -0.7864
18 4 10 4.8254 0.7754
18 4 11 -40.4356 -0.3904
18 4 12 12.2581 -0.0572
18 4 13 0.9932 0.1306
18 4 14 -28.1251 0.1085
18 4 15 -2.3587 0.1340
18 4 16 2.1321 -0.4870
18 4 17 6.9171 0.0425
18 6 0 7.6960 -0.3402
18 6 1 -27.0099 0.3244
18 6 2 11.6820 -0.0949
18 6 3 -1.2802 -0.1368
18 6 4 -2.4010 0.6184
18 6 5 -7.8369 -1.1829
18 6 6 2.0891 0.9834
18 6 7 8.3855 0.0081
18 6 8 17.0311 -0.6935
18 6 9 16.1014 0.8174
18 6 10 -9.5548 -0.8958
18 6 11 -1.1060 0.7394
18 6 12 6.0427 -0.2319
18 6 13 17.2617 -0.3588
18 6 14 21.1723 0.5353
18 6 15 -12.4328 -0.3521
18 6 16 14.9684 -0.0235
18 6 17 -10.4539 -0.5056
18 8 0 4.7583 0.6105
18 8 1 5.7500 -0.5637
18 8 2 14.6572 0.1566
18 8 3 -6.8175 0.4641
18 8 4 -7.9574 -0.8428
18 8 5 -14.8419 1.0273
18 8 6 -7.4986 -0.9582
18 8 7 21.5658 0.4216
18 8 8 -4.0758 0.4477
18 8 9 -5.5480 -0.9677
18 8 10 -23.7385 0.7042
18 8 11 -15.5904 -0.1151
18 8 12 -14.3258 0.2372
18 8 13 -19.1140 -0.0484
18 8 14 -10.6177 -0.4888
18 8 15 -12.5786 0.6716
18 8 16 -17.0665 -0.0274
18 10 0 -1.7132 -0.6218
18 10 1 -5.9964 0.4749
18 10 2 12.6586 -0.0963
18 10 3 2.5416 -0.4217
18 10 4 -6.7808 0.6357
18 10 5 -4.5532 -0.7230
18 10 6 -3.6191 0.6423
18 10 7 -13.0474 -0.2860
18 10 8 -1.3212 -0.2717
18 10 9 -5.5210 0.5749
18 10 10 4.8246 -0.3926
18 10 11 11.8704 0.0310
18 10 12 -0.1134 -0.0837
18 10 13 -9.2213 -0.1850
18 10 14 12.1338 0.2490
18 10 15 -10.8434 -0.4725
18 12 0 -11.3034 0.3329
18 12 1 -16.4099 -0.2674
18 12 2 -15.9924 0.1026
18 12 3 2.1082 0.2662
18 12 4 -9.2131 -0.4925
18 12 5 -8.5410 0.4693
18 12 6 5.4171 -0.2079
18 12 7 6.3824 0.0344
18 12 8 2.5501 -0.0053
18 12 9 -6.7321 -0.0639
18 12 10 9.2289 0.0428
18 12 11 2.9934 -0.0005
18 12 12 -7.7585 0.0365
18 12 13 12.2193 0.2095
18 12 14 -12.6794 0.0550
18 14 0 -11.2358 -0.1123
18 14 1 -2.4923 0.0462
18 14 2 -8.3336 -0.0105
18 14 3 -1.6457 -0.0571
18 14 4 -2.2063 0.1370
18 14 5 -3.5409 -0.1031
18 14 6 -9.6517 -0.0736
18 14 7 -9.9689 0.1459
18 14 8 -13.8790 0.0571
18 14 9 -5.2718 -0.1491
18 14 10 -0.7334 0.2610
18 14 11 0.7766 -0.2400
18 14 12 3.4131 0.0418
18 16 0 -6.1676 -0.1479
18 16 1 -14.1802 0.0123
18 16 2 0.9226 0.0221
18 16 3 16.0324 -0.0013
18 16 4 2.7573 0.1042
18 16 5 -12.1112 -0.3132
18 16 6 -8.3063 0.3480
18 16 7 -18.7831 -0.2276
18 16 8 6.1060 -0.1067
18 16 9 7.8099 0.1815
18 18 0 -0.6022 0.2898
18 18 1 -5.4915 -0.1571
18 18 2 -0.1336 0.0039
18 18 3 0.9096 0.1466
18 18 4 -0.8290 -0.2524
18 18 5 6.6337 0.3335
19 1 0 21.8053 -1.3272
19 1 1 7.4761 3.1577
19 1 2 -13.2819 -0.8029
19 1 3 -5.1945 -1.6339
19 1 4 14.7066 2.1420
19 1 5 10.4445 -2.1044
19 1 6 3.0212 1.6164
19 1 7 -3.8832 0.0931
19 1 8 4.1863 -1.9455
19 1 9 0.2637 2.7438
19 1 10 0.3528 -2.8321
19 1 11 10.5011 2.3836
19 1 12 -5.7368 -0.9381
19 1 13 3.9485 -0.6356
19 1 14 -16.1787 1.6883
19 1 15 -5.4620 -1.6490
19 1 16 1.8572 0.7492
19 1 17 4.2245 -0.1341
19 3 0 16.1157 1.2615
19 3 1 11.2309 -1.5704
19 3 2 -2.0650 0.9504
19 3 3 -8.6284 0.3588
19 3 4 5.1095 -1.4045
19 3 5 10.6315 1.2822
19 3 6 -14.8279 -0.4067
19 3 7 3.1801 -0.5607
19 3 8 -12.2922 1.3672
19 3 9 12.6065 -1.9375
19 3 10 -5.2825 2.0688
19 3 11 -13.6963 -1.7543
19 3 12 21.7471 0.8807
19 3 13 1.5853 0.1628
19 3 14 -31.0590 -1.0539
19 3 15 -21.8670 0.8734
19 3 16 -15.2632 -0.0484
19 3 17 -38.9976 -0.0486
19 5 0 2.8672 -0.5400
19 5 1 18.4113 0.5107
19 5 2 6.4746 -0.6295
19 5 3 -6.4557 -0.0828
19 5 4 2.8852 1.0508
19 5 5 -0.2216 -0.7743
19 5 6 7.2532 0.0183
19 5 7 6.5494 0.3125
19 5 8 6.3879 -0.6253
19 5 9 -14.9828 1.1392
19 5 10 4.7313 -1.1766
19 5 11 -1.5376 0.7703
19 5 12 -24.5799 -0.3071
19 5 13 -5.0036 0.1708
19 5 14 -11.8807 0.0772
19 5 15 9.2084 -0.6380
19 5 16 -15.2329 0.8620
19 5 17 -4.6420 0.8021
19 7 0 18.9154 0.1744
19 7 1 8.3623 0.0231
19 7 2 1.7709 -0.0970
19 7 3 -13.2017 0.1183
19 7 4 -1.8177 -0.3560
19 7 5 7.3285 0.4724
19 7 6 -7.9654 -0.1735
19 7 7 4.0112 -0.1912
19 7 8 -5.0291 0.1276
19 7 9 1.5883 0.0416
19 7 10 8.0215 0.1503
19 7 11 2.2883 -0.3774
19 7 12 8.3055 -0.0383
19 7 13 3.8959 0.3678
19 7 14 11.1512 -0.0877
19 7 15 -0.0164 -0.0956
19 7 16 14.8366 -0.3808
19 9 0 -1.8569 0.1217
19 9 1 22.9901 -0.1919
19 9 2 -4.4789 0.1652
19 9 3 -6.2217 -0.0966
19 9 4 7.7375 -0.0053
19 9 5 -8.3696 0.0034
19 9 6 -1.6528 -0.0145
19 9 7 -0.2674 -0.0374
19 9 8 5.7199 0.1804
19 9 9 -23.7587 -0.4372
19 9 10 0.7307 0.6018
19 9 11 -4.1213 -0.2949
19 9 12 7.9300 -0.0569
19 9 13 -23.0126 0.0392
19 9 14 9.7729 0.1936
19 9 15 11.0704 0.0726
19 11 0 3.8664 -0.1165
19 11 1 -3.9399 0.1650
19 11 2 3.3481 -0.1298
19 11 3 -3.2544 -0.0330
19 11 4 7.4740 0.3921
19 11 5 2.2380 -0.4436
19 11 6 20.5196 0.1878
19 11 7 4.3871 0.0980
19 11 8 -4.3438 -0.2280
19 11 9 16.2267 0.4632
19 11 10 1.6213 -0.7691
19 11 11 10.5437 0.5488
19 11 12 5.9292 -0.1710
19 11 13 -0.8189 -0.1191
19 11 14 -4.6497 -0.0561
19 13 0 -1.4318 0.1814
19 13 1 12.0089 -0.0718
19 13 2 3.2554 -0.0746
19 13 3 7.9383 0.2449
19 13 4 -13.5283 -0.5071
19 13 5 2.7903 0.6540
19 13 6 7.8671 -0.5047
19 13 7 9.7605 0.1324
19 13 8 2.4121 0.2116
19 13 9 -0.0446 -0.4309
19 13 10 9.7634 0.5773
19 13 11 -8.6691 -0.2258
19 13 12 -6.9918 0.0672
19 15 0 0.5762 -0.2127
19 15 1 19.8641 0.1498
19 15 2 24.1626 0.0444
19 15 3 10.7084 -0.3505
19 15 4 -8.4663 0.4534
19 15 5 -10.9225 -0.4975
19 15 6 -12.8332 0.4497
19 15 7 2.7273 -0.2429
19 15 8 -9.7418 -0.0543
19 15 9 15.5839 0.2925
19 15 10 5.2500 -0.6367
19 17 0 17.3332 0.2158
19 17 1 -1.6453 -0.1135
19 17 2 -0.9286 0.0168
19 17 3 -4.7402 0.1290
19 17 4 0.7761 -0.2118
19 17 5 4.8563 0.3551
19 17 6 4.7292 -0.3433
19 17 7 -6.2394 0.1457
20 0 0 -9.3776 -7.0778
20 0 1 8.2462 0.1331
20 0 2 5.3323 4.2431
20 0 3 12.4690 -7.3696
20 0 4 -22.7074 9.8752
20 0 5 5.0912 -10.1450
20 0 6 -1.6733 7.7564
20 0 7 1.6190 -4.5633
20 0 8 -0.1907 1.3441
20 0 9 2.1024 1.1757
20 0 10 -0.8203 -1.6407
20 0 11 -2.8359 -0.1595
20 0 12 10.2357 2.6700
20 0 13 5.2635 -5.3409
20 0 14 13.3040 6.8200
20 0 15 -12.7996 -7.4562
20 0 16 -8.7020 6.3215
20 0 17 -10.0540 -3.8350
20 2 0 0.2471 2.1274
20 2 1 -5.5236 -0.8904
20 2 2 4.0548 -1.4114
20 2 3 -5.3715 2.1312
20 2 4 -10.6440 -1.3186
20 2 5 -2.4545 1.0640
20 2 6 -2.5772 -1.3034
20 2 7 0.5064 1.0574
20 2 8 -0.9526 -0.5933
20 2 9 4.4499 0.5086
20 2 10 5.1881 -0.5191
20 2 11 -27.4027 0.3883
20 2 12 -4.0278 -0.6014
20 2 13 18.7179 0.9449
20 2 14 -9.3683 -1.0725
20 2 15 12.8006 1.4783
20 2 16 -27.1861 -1.4343
20 2 17 -17.9000 0.6274
20 4 0 -16.5900 -1.0367
20 4 1 2.0583 0.5263
20 4 2 9.3757 0.1749
20 4 3 19.6102 -0.0249
20 4 4 -12.2612 -0.7714
20 4 5 5.4556 1.0553
20 4 6 2.0102 -0.7137
20 4 7 16.6109 0.3308
20 4 8 -6.0884 0.1345
20 4 9 0.8737 -0.4884
20 4 10 -13.0275 0.3974
20 4 11 -14.2930 0.0654
20 4 12 -8.5944 -0.2024
20 4 13 -9.1280 0.0789
20 4 14 -25.4032 0.1016
20 4 15 -9.8795 0.4677
20 4 16 -27.0374 -0.8820
20 4 17 23.2191 -0.8407
20 6 0 -17.8204 -0.0316
20 6 1 -2.5236 0.0871
20 6 2 -1.8299 0.4124
20 6 3 11.5687 -0.6964
20 6 4 -8.4896 1.0776
20 6 5 3.7497 -1.7014
20 6 6 2.5416 1.6325
20 6 7 25.6236 -0.7888
20 6 8 -0.0409 -0.0104
20 6 9 9.3113 0.1566
20 6 10 2.1156 -0.1338
20 6 11 23.9305 0.1253
20 6 12 3.8642 0.4184
20 6 13 34.0550 -1.0561
20 6 14 0.5983 0.6429
20 6 15 -1.8321 -0.2548
20 6 16 -26.3587 0.5960
20 8 0 0.7257 0.5979
20 8 1 4.2165 -0.6068
20 8 2 -4.4572 0.0137
20 8 3 -0.9852 0.5790
20 8 4 1.0114 -1.0381
20 8 5 2.8704 1.2545
20 8 6 24.3153 -1.0827
20 8 7 -6.3494 0.5225
20 8 8 11.7862 0.2782
20 8 9 -33.3018 -0.5791
20 8 10 3.0133 0.2284
20 8 11 -14.1173 -0.0869
20 8 12 21.1692 0.0132
20 8 13 15.2134 0.3428
20 8 14 23.3522 -0.6969
20 8 15 0.3555 0.6233
20 10 0 -6.4595 -0.8996
20 10 1 22.8459 0.8394
20 10 2 -4.6619 -0.2235
20 10 3 -4.1332 -0.3043
20 10 4 -6.3328 0.6092
20 10 5 7.6333 -0.6265
20 10 6 -8.6416 0.5044
20 10 7 -16.0126 -0.1376
20 10 8 -16.5271 -0.3912
20 10 9 0.9647 0.6872
20 10 10 0.2697 -0.5243
20 10 11 3.7754 0.1404
20 10 12 29.9064 0.1175
20 10 13 -15.8584 0.1023
20 10 14 4.6401 -0.0304
20 12 0 -2.9463 0.6122
20 12 1 4.5545 -0.6746
20 12 2 -5.1180 0.3528
20 12 3 0.3790 -0.0012
20 12 4 -17.3246 -0.2855
20 12 5 -1.7701 0.1596
20 12 6 -7.6923 0.1470
20 12 7 -18.8304 -0.3718
20 12 8 -12.1470 0.3753
20 12 9 8.7282 -0.4059
20 12 10 -12.7976 0.5724
20 12 11 -3.6341 -0.3184
20 12 12 17.8939 -0.0240
20 12 13 0.8241 -0.3121
20 14 0 -1.3319 -0.1449
20 14 1 9.5360 0.1150
20 14 2 26.5365 -0.0345
20 14 3 -3.9516 0.0280
20 14 4 -5.0706 0.1015
20 14 5 1.1297 -0.0505
20 14 6 -11.0007 -0.1746
20 14 7 -9.7135 0.3231
20 14 8 -1.9928 -0.2503
20 14 9 -3.7779 -0.0126
20 14 10 -10.3498 0.0859
20 14 11 -10.8371 -0.2316
20 16 0 -3.7716 -0.2375
20 16 1 7.4451 0.2657
20 16 2 6.5586 -0.2427
20 16 3 2.1358 0.1306
20 16 4 8.1652 0.0145
20 16 5 -23.0073 -0.1511
20 16 6 -8.5027 0.1440
20 16 7 -2.6766 0.0596
20 16 8 4.4391 -0.0731
20 18 0 1.9571 0.4206
20 18 1 2.9552 -0.3136
20 18 2 -2.5806 0.2213
20 18 3 3.7994 -0.1341
20 18 4 -1.4124 0.0666
21 1 0 5.4753 -2.5344
21 1 1 -23.3066 3.3514
21 1 2 -4.0034 -1.0800
21 1 3 -2.8211 -1.1188
21 1 4 11.6443 1.4849
21 1 5 -11.5267 -1.3855
21 1 6 4.3296 0.8560
21 1 7 -8.4158 0.8469
21 1 8 5.4720 -2.5996
21 1 9 -4.6645 3.3848
21 1 10 13.3900 -3.5123
21 1 11 3.9773 2.9154
21 1 12 9.0436 -1.4445
21 1 13 -11.4106 -0.3304
21 1 14 8.6563 1.2546
21 1 15 -2.5328 -1.2269
21 1 16 12.5963 0.7255
21 1 17 0.4135 0.3753
21 3 0 11.5747 1.7156
21 3 1 -1.8615 -1.6898
21 3 2 0.2407 1.4089
21 3 3 7.8637 -0.3237
21 3 4 6.5256 -0.6259
21 3 5 -0.8659 0.5839
21 3 6 -2.1626 0.2703
21 3 7 -3.4942 -1.2721
21 3 8 -2.6117 2.0327
21 3 9 -1.0151 -2.6035
21 3 10 4.4437 2.8667
21 3 11 -19.5016 -2.3788
21 3 12 13.4429 1.4097
21 3 13 7.3947 -0.2406
21 3 14 -16.3438 -0.4236
21 3 15 -24.9124 -0.2402
21 3 16 -20.3349 0.6563
21 3 17 0.1057 0.7822
21 5 0 14.4365 -0.5551
21 5 1 0.3668 0.5178
21 5 2 -3.2872 -0.7605
21 5 3 -9.7781 0.0181
21 5 4 9.1084 0.7896
21 5 5 -10.1777 -0.4411
21 5 6 0.4883 -0.3168
21 5 7 21.0756 0.6826
21 5 8 9.4391 -0.9690
21 5 9 -2.2822 1.3867
21 5 10 3.2825 -1.4889
21 5 11 12.0178 0.9943
21 5 12 -15.7320 -0.7006
21 5 13 -16.3470 0.6848
21 5 14 -13.0240 0.0379
21 5 15 -18.9873 -0.5672
21 5 16 -23.0813 0.1368
21 7 0 -4.1803 0.0068
21 7 1 -4.2248 0.1720
21 7 2 -1.0721 -0.2593
21 7 3 12.0617 0.3782
21 7 4 8.5197 -0.5682
21 7 5 -12.6490 0.5910
21 7 6 -1.0526 -0.4273
21 7 7 -4.8284 0.1246
21 7 8 1.2792 -0.1447
21 7 9 -4.1752 0.2363
21 7 10 -1.0444 0.0668
21 7 11 -16.4468 -0.1334
21 7 12 13.4677 -0.3333
21 7 13 5.8577 0.2433
21 7 14 -1.9041 0.0224
21 7 15 -12.6798 -0.1252
21 7 16 -3.7766 -0.5029
21 9 0 3.7950 0.2868
21 9 1 -3.0082 -0.3978
21 9 2 -4.3470 0.3457
21 9 3 1.6862 -0.2222
21 9 4 6.3807 0.3109
21 9 5 -0.3572 -0.3282
21 9 6 -2.7585 0.3685
21 9 7 17.6369 -0.2866
21 9 8 13.7875 0.4080
21 9 9 -18.1528 -0.7442
21 9 10 -8.6981 0.8476
21 9 11 -13.4815 -0.5090
21 9 12 -8.3774 0.3312
21 9 13 20.2791 -0.2195
21 9 14 14.9748 0.2691
21 9 15 -15.2812 0.6881
21 11 0 6.0678 -0.0575
21 11 1 7.7747 0.1977
21 11 2 -4.2986 -0.2464
21 11 3 -2.2114 -0.0028
21 11 4 -5.8962 0.2345
21 11 5 -4.3337 -0.3123
21 11 6 7.8446 -0.0357
21 11 7 3.8684 0.2926
21 11 8 -0.4647 -0.4107
21 11 9 4.3957 0.6819
21 11 10 24.7760 -0.9529
21 11 11 -6.3570 0.7496
21 11 12 58.2389 -0.0932
21 11 13 -9.7690 -0.3890
21 13 0 1.1299 -0.0427
21 13 1 -17.7856 0.1466
21 13 2 -6.0562 -0.2009
21 13 3 0.8827 0.3508
21 13 4 -4.3085 -0.6004
21 13 5 17.9130 0.7936
21 13 6 -3.6692 -0.6136
21 13 7 2.1297 0.2289
21 13 8 -19.1916 0.1465
21 13 9 -15.0101 -0.3411
21 13 10 -0.3642 0.2314
21 13 11 13.4860 -0.3763
21 13 12 6.7648 0.0415
21 15 0 5.2995 0.0064
21 15 1 -12.6068 -0.1618
21 15 2 -12.1212 0.2910
21 15 3 -3.4935 -0.3962
21 15 4 7.7745 0.5363
21 15 5 -12.8295 -0.6542
21 15 6 9.5749 0.7389
21 15 7 4.8905 -0.6378
21 15 8 -6.1875 0.1678
21 15 9 -10.2360 0.4696
21 17 0 12.7989 0.1984
21 17 1 8.7428 -0.1197
21 17 2 -3.9428 -0.0071
21 17 3 7.7136 0.1022
21 17 4 2.7899 -0.3244
21 17 5 0.4222 0.4281
21 17 6 1.7407 -0.2940
22 0 0 -7.8348 -4.7380
22 0 1 1.2417 -1.3028
22 0 2 4.0880 5.2395
22 0 3 9.6570 -8.2650
22 0 4 -2.1248 10.7372
22 0 5 2.4200 -10.7308
22 0 6 2.0520 8.4726
22 0 7 5.3041 -5.3869
22 0 8 -3.1276 2.1838
22 0 9 0.9732 0.2257
22 0 10 -10.9817 -0.4994
22 0 11 45.3819 -1.3164
22 0 12 20.6362 4.0578
22 0 13 -4.8940 -6.2200
22 0 14 0.4851 8.0291
22 0 15 -0.8670 -8.1995
22 0 16 2.5983 6.7689
22 0 17 -27.7339 -3.7800
22 2 0 3.0675 1.9549
22 2 1 -1.6214 -0.6175
22 2 2 -4.3179 -1.6012
22 2 3 -0.4493 2.2995
22 2 4 -4.9023 -1.5340
22 2 5 2.2506 1.1875
22 2 6 2.1816 -1.4232
22 2 7 1.2620 1.1600
22 2 8 6.9836 -0.7196
22 2 9 8.7936 0.6968
22 2 10 -0.9572 -0.5887
22 2 11 18.3106 0.5691
22 2 12 9.6920 -0.8694
22 2 13 2.3630 1.3788
22 2 14 -10.3039 -1.6279
22 2 15 5.5536 1.9360
22 2 16 -8.9704 -1.5245
22 4 0 3.1490 -1.1320
22 4 1 -4.6469 0.4282
22 4 2 6.8261 0.1253
22 4 3 -8.9007 0.1615
22 4 4 -0.7524 -0.8853
22 4 5 10.1344 1.0716
22 4 6 0.8424 -0.8051
22 4 7 -2.7261 0.4325
22 4 8 -0.5298 -0.0919
22 4 9 0.7605 -0.2320
22 4 10 -1.2980 0.0711
22 4 11 4.1733 0.2326
22 4 12 0.4071 -0.3098
22 4 13 1.0385 -0.2350
22 4 14 16.6772 -0.1963
22 4 15 -6.3419 0.7000
22 4 16 4.0398 -0.3684
22 6 0 3.4122 0.0945
22 6 1 3.0858 0.0478
22 6 2 7.9914 0.5417
22 6 3 7.4266 -0.9294
22 6 4 -4.0304 1.2361
22 6 5 7.3414 -1.7212
22 6 6 -12.0470 1.7585
22 6 7 -6.9754 -0.8713
22 6 8 -5.7443 0.3005
22 6 9 12.0658 -0.1732
22 6 10 -2.2181 -0.0148
22 6 11 7.6124 -0.0736
22 6 12 -23.4677 0.8079
22 6 13 -22.2869 -0.8307
22 6 14 -6.6805 0.6525
22 6 15 27.5556 -0.1964
22 6 16 11.0388 0.8676
22 8 0 -5.0007 0.5205
22 8 1 -18.3382 -0.5541
22 8 2 -0.5963 0.0583
22 8 3 -8.2377 0.5758
22 8 4 0.9933 -1.1124
22 8 5 2.0307 1.3750
22 8 6 -0.5128 -1.1849
22 8 7 -10.7014 0.3981
22 8 8 1.5939 0.2708
22 8 9 -2.5094 -0.3431
22 8 10 2.9249 0.0904
22 8 11 -7.7182 0.0350
22 8 12 -4.0631 -0.1848
22 8 13 -8.4859 0.2883
22 8 14 -8.2106 -0.6944
22 8 15 22.7974 0.0050
22 10 0 -5.2145 -0.9873
22 10 1 -4.2956 0.8663
22 10 2 15.2887 -0.2907
22 10 3 3.9231 -0.2766
22 10 4 0.7986 0.4495
22 10 5 12.7389 -0.4062
22 10 6 -1.5451 0.2748
22 10 7 5.1791 -0.0030
22 10 8 0.4432 -0.5028
22 10 9 6.2613 0.6560
22 10 10 -6.3785 -0.3708
22 10 11 1.9516 0.3424
22 10 12 14.2662 -0.4631
22 10 13 0.6038 0.4296
22 10 14 -6.3574 1.1705
22 12 0 -10.3310 0.6425
22 12 1 -7.9509 -0.6888
22 12 2 20.7254 0.4309
22 12 3 0.6533 -0.0354
22 12 4 -3.3271 -0.0972
22 12 5 -8.2090 0.0010
22 12 6 -7.4791 0.3240
22 12 7 11.2777 -0.4186
22 12 8 11.3829 0.5612
22 12 9 14.1489 -0.6842
22 12 10 0.9414 0.5222
22 12 11 -13.5399 -0.2140
22 12 12 25.2863 -0.1207
22 14 0 -10.5903 -0.1854
22 14 1 -2.9830 0.1559
22 14 2 2.0070 -0.0286
22 14 3 -0.7585 -0.1001
22 14 4 -1.9967 0.0813
22 14 5 14.5293 0.0215
22 14 6 2.9145 -0.3737
22 14 7 7.9402 0.4659
22 14 8 0.4120 -0.2223
22 14 9 7.9023 -0.0634
22 14 10 -9.9799 0.1673
22 16 0 -0.8526 -0.3351
22 16 1 -7.5481 0.3722
22 16 2 0.5038 -0.3555
22 16 3 1.3119 0.2640
22 16 4 -0.4873 -0.0700
22 16 5 12.3429 0.0043
22 16 6 -0.7809 -0.0522
22 16 7 -4.1239 0.0578
23 1 0 1.5588 -2.4102
23 1 1 8.8113 3.0529
23 1 2 -2.0922 -0.7609
23 1 3 3.6742 -1.3011
23 1 4 -14.6833 1.7236
23 1 5 1.4132 -1.5377
23 1 6 1.0101 0.9134
23 1 7 -0.2627 0.7782
23 1 8 -11.2382 -2.4504
23 1 9 6.2043 3.1456
23 1 10 17.8513 -3.2904
23 1 11 14.1700 2.7452
23 1 12 -18.5011 -1.2207
23 1 13 8.5421 -0.5291
23 1 14 15.1422 1.1870
23 1 15 0.7365 -1.0336
23 1 16 -10.3117 0.1255
23 3 0 -2.7573 1.6879
23 3 1 -4.3418 -1.5462
23 3 2 1.9579 1.1266
23 3 3 7.7209 -0.0983
23 3 4 -20.5995 -0.8945
23 3 5 4.2068 0.8074
23 3 6 -7.5296 0.1629
23 3 7 0.3222 -1.1112
23 3 8 -9.7080 1.9118
23 3 9 13.2261 -2.5992
23 3 10 9.3981 2.7128
23 3 11 -8.9828 -2.1752
23 3 12 -7.5853 1.2623
23 3 13 13.8175 -0.1434
23 3 14 7.4998 -0.0387
23 3 15 -33.4271 -0.1695
23 3 16 -20.1245 -0.0126
23 5 0 -5.3491 -0.5796
23 5 1 -1.5772 0.6028
23 5 2 -6.8674 -0.7410
23 5 3 -0.1979 -0.0340
23 5 4 -10.2688 0.9442
23 5 5 -6.6197 -0.7468
23 5 6 -0.9147 -0.0954
23 5 7 7.3847 0.4850
23 5 8 4.6261 -0.8808
23 5 9 7.4287 1.3877
23 5 10 3.3275 -1.1691
23 5 11 28.6942 0.6804
23 5 12 -13.6510 -0.7791
23 5 13 31.9716 0.4066
23 5 14 27.1469 0.0999
23 5 15 -25.6326 -0.7118
23 7 0 6.2862 0.0941
23 7 1 -5.7129 0.0822
23 7 2 -5.2789 -0.3848
23 7 3 6.7478 0.5094
23 7 4 -16.1934 -0.4658
23 7 5 -2.4534 0.5737
23 7 6 -5.1979 -0.4173
23 7 7 6.1698 0.2059
23 7 8 -1.0502 -0.1734
23 7 9 -8.7700 0.0681
23 7 10 3.7293 0.1916
23 7 11 7.7939 -0.0315
23 7 12 9.9712 -0.0371
23 7 13 16.5066 0.3604
23 7 14 -9.7528 0.0038
23 7 15 4.3489 0.0568
23 9 0 7.1991 0.2923
23 9 1 10.8327 -0.3227
23 9 2 -8.4145 0.3295
23 9 3 -3.7853 -0.2948
23 9 4 2.3826 0.2861
23 9 5 -1.5570 -0.5414
23 9 6 10.6524 0.5038
23 9 7 4.3084 -0.3247
23 9 8 -1.3661 0.4572
23 9 9 -9.1064 -0.7572
23 9 10 -12.6731 0.6921
23 9 11 -5.0733 -0.7802
23 9 12 -8.7860 0.3868
23 9 13 6.0289 -0.3095
23 9 14 9.0992 -0.8757
23 11 0 3.4581 0.0076
23 11 1 -8.1970 0.0787
23 11 2 15.7004 -0.1289
23 11 3 -2.6223 0.0426
23 11 4 4.7307 0.2635
23 11 5 -2.7097 -0.3038
23 11 6 2.8267 0.1194
23 11 7 0.9078 0.1180
23 11 8 0.8891 -0.4000
23 11 9 3.6610 0.7707
23 11 10 -1.5618 -0.7062
23 11 11 -26.5591 0.1549
23 11 12 -11.6155 0.6251
23 13 0 -11.4520 0.0261
23 13 1 1.2718 0.1097
23 13 2 2.2243 -0.2950
23 13 3 -0.1600 0.4156
23 13 4 23.5014 -0.6148
23 13 5 1.5131 0.6875
23 13 6 10.5910 -0.4841
23 13 7 9.8413 0.1508
23 13 8 -6.8442 0.0008
23 13 9 14.2098 -0.1434
23 13 10 -6.3418 0.5561
23 13 11 5.4326 -0.2763
23 15 0 3.5546 0.0333
23 15 1 5.0260 -0.1147
23 15 2 10.1403 0.2705
23 15 3 -3.3070 -0.4201
23 15 4 1.2082 0.5908
23 15 5 8.5191 -0.7830
23 15 6 5.6283 0.7889
23 15 7 4.8442 -0.3778
23 15 8 1.2990 -0.1530
23 17 0 -10.5114 0.2179
23 17 1 6.0764 -0.0945
23 17 2 16.7126 -0.0462
23 17 3 -12.8410 0.1430
23 17 4 0.1755 -0.1941
24 0 2 4.9542 3.2604
24 0 3 -7.8817 -5.9745
24 0 4 13.5053 7.9674
24 0 5 -6.0362 -7.7351
24 0 6 3.7205 5.5377
24 0 7 -10.2487 -2.6738
24 0 8 12.0196 -0.2887
24 0 9 -18.6504 2.4322
24 0 10 -5.6798 -2.4125
24 0 11 -6.0967 0.4828
24 0 12 -4.8452 1.8859
24 0 13 -11.0946 -4.4692
24 0 14 -9.2839 6.2798
24 0 15 5.6140 -6.6721
24 0 16 16.7419 4.8608
24 2 0 4.3562 1.7547
24 2 1 -7.9289 -0.7683
24 2 2 -1.6699 -1.1056
24 2 3 -3.8141 1.6821
24 2 4 11.4385 -1.0254
24 2 5 3.5753 0.6647
24 2 6 -7.7948 -0.8202
24 2 7 -8.0391 0.6141
24 2 8 6.4613 -0.2579
24 2 9 -13.9172 0.2176
24 2 10 2.1221 -0.2230
24 2 11 -8.4897 -0.0018
24 2 12 22.0867 -0.4395
24 2 13 -19.8954 0.9812
24 2 14 5.8514 -1.4333
24 2 15 7.0579 1.0340
24 2 16 36.8507 -0.2013
24 4 0 -4.1115 -0.8817
24 4 1 -1.1743 0.2674
24 4 2 14.4117 0.3474
24 4 3 3.1325 -0.0199
24 4 4 7.5064 -0.6942
24 4 5 -11.6834 1.0544
24 4 6 -4.6623 -0.7582
24 4 7 -21.8122 0.3273
24 4 8 1.9560 0.1324
24 4 9 -7.5969 -0.2430
24 4 10 1.5964 0.0033
24 4 11 -17.3076 0.4096
24 4 12 -4.6754 0.0148
24 4 13 -5.6221 -0.0101
24 4 14 12.6915 -0.0497
24 4 15 -13.2330 0.7950
24 6 0 -4.8766 -0.0889
24 6 1 -6.5328 0.0819
24 6 2 -6.9147 0.4368
24 6 3 3.7077 -0.7120
24 6 4 -2.1842 0.7521
24 6 5 -0.0154 -1.2529
24 6 6 -9.7965 1.2524
24 6 7 -3.9682 -0.5830
24 6 8 -0.3731 -0.1072
24 6 9 5.4453 0.2519
24 6 10 0.8251 -0.3671
24 6 11 2.8107 0.0775
24 6 12 -14.4075 0.2243
24 6 13 -4.9211 -0.7842
24 6 14 0.4029 0.2168
24 6 15 -21.9892 0.0950
24 8 0 6.4422 0.4152
24 8 1 3.7514 -0.4345
24 8 2 4.9157 0.1311
24 8 3 -0.3294 0.4441
24 8 4 7.8146 -0.8846
24 8 5 -2.8005 1.2069
24 8 6 3.3984 -0.9522
24 8 7 -11.8595 0.2689
24 8 8 16.3930 0.3161
24 8 9 -0.2021 -0.3905
24 8 10 12.7574 0.2038
24 8 11 4.3372 0.1599
24 8 12 8.2512 0.0329
24 8 13 -20.8726 0.1122
24 8 14 -23.0550 0.1234
24 10 0 -6.9346 -0.7782
24 10 1 -8.4258 0.6980
24 10 2 17.0685 -0.3115
24 10 3 3.3583 -0.2948
24 10 4 2.6522 0.4249
24 10 5 3.2176 -0.2663
24 10 6 -2.2616 0.1385
24 10 7 -15.5950 0.1684
24 10 8 -6.2139 -0.3912
24 10 9 -13.1521 0.5868
24 10 10 2.3926 -0.7413
24 10 11 -6.7303 0.6603
24 10 12 10.0203 -0.6707
24 10 13 -12.4442 -0.8871
24 12 0 -5.9407 0.3764
24 12 1 -25.9874 -0.4731
24 12 2 7.0989 0.3891
24 12 3 -6.5159 0.0462
24 12 4 18.8414 -0.2494
24 12 5 2.8793 0.0975
24 12 6 16.3533 -0.0122
24 12 7 -3.2718 -0.2700
24 12 8 9.9141 0.3718
24 12 9 -2.8467 -0.4344
24 12 10 2.6625 0.1228
24 12 11 -15.2298 0.2325
24 14 0 2.0876 -0.0850
24 14 1 14.0121 0.0699
24 14 2 2.6403 -0.0682
24 14 3 -3.3728 -0.0825
24 14 4 6.2993 0.1091
24 14 5 -12.2884 0.1462
24 14 6 -3.9818 -0.1825
24 14 7 -4.3108 0.1074
24 14 8 4.3653 0.1064
24 14 9 -1.8240 -0.0797
24 16 0 -3.4782 -0.3063
24 16 1 -11.3733 0.2390
24 16 2 5.3083 -0.1083
24 16 3 -8.6879 0.1275
24 16 4 3.4704 -0.2015
24 16 5 -8.0073 0.1327
25 1 0 -2.2145 -0.9396
25 1 1 -8.7635 2.3911
25 1 2 -1.5884 -0.1346
25 1 3 6.3327 -1.9042
25 1 4 1.5861 2.4855
25 1 5 -0.0150 -2.4205
25 1 6 0.4150 1.5919
25 1 7 0.6164 0.0117
25 1 8 -7.7450 -1.6850
25 1 9 6.9259 2.4605
25 1 10 7.1207 -2.4085
25 1 11 8.2023 2.0088
25 1 12 0.8352 -0.5475
25 1 13 13.8068 -0.8680
25 1 14 3.4826 1.3565
25 1 15 6.6207 -0.5508
25 3 0 -8.6336 1.2264
25 3 1 0.9650 -1.0897
25 3 2 -3.7715 0.1161
25 3 3 -11.0719 0.9049
25 3 4 -0.4006 -1.6528
25 3 5 -10.3857 1.5741
25 3 6 12.5032 -0.7833
25 3 7 9.0948 -0.1586
25 3 8 0.5521 1.0360
25 3 9 9.7070 -1.7070
25 3 10 15.4246 1.7964
25 3 11 12.5050 -1.3098
25 3 12 5.6400 0.3214
25 3 13 2.5799 0.2589
25 3 14 2.0967 -0.6809
25 3 15 -1.8705 0.3204
25 5 0 -0.5272 -0.5582
25 5 1 9.5066 0.5631
25 5 2 -7.8367 -0.3527
25 5 3 5.0232 -0.4824
25 5 4 -3.3619 1.3717
25 5 5 10.0549 -1.1689
25 5 6 0.8406 0.4354
25 5 7 22.4369 0.0979
25 5 8 -16.3370 -0.4987
25 5 9 -3.6995 0.7812
25 5 10 18.5813 -0.5864
25 5 11 -5.0912 0.3936
25 5 12 33.6661 -0.2511
25 5 13 18.7809 0.3333
25 5 14 10.6595 0.6187
25 5 15 -11.4800 -1.4444
25 7 0 0.7018 0.4301
25 7 1 -5.0694 -0.2319
25 7 2 -16.2371 -0.2361
25 7 3 1.9974 0.4247
25 7 4 2.8306 -0.5017
25 7 5 -6.0271 0.4641
25 7 6 9.0826 -0.2735
25 7 7 5.3118 0.0518
25 7 8 0.4802 0.0875
25 7 9 2.0091 -0.2195
25 7 10 -10.5436 0.1753
25 7 11 -4.0137 -0.3304
25 7 12 10.5803 -0.3123
25 7 13 16.9402 0.3220
25 7 14 -7.6575 0.3695
25 9 0 20.2863 -0.0338
25 9 1 9.8388 -0.0566
25 9 2 8.6410 0.1389
25 9 3 2.2368 -0.0433
25 9 4 6.9378 0.1660
25 9 5 10.3899 -0.3104
25 9 6 -4.6209 0.1318
25 9 7 22.2451 -0.0282
25 9 8 4.3004 0.1049
25 9 9 4.6570 -0.3040
25 9 10 -2.8526 0.8239
25 9 11 -5.4123 -0.3782
25 9 12 5.7836 0.1251
25 9 13 4.5764 0.8512
25 11 0 9.8827 0.0469
25 11 1 2.1674 0.0566
25 11 2 -2.1366 -0.1022
25 11 3 -5.9184 -0.1093
25 11 4 1.5644 0.3669
25 11 5 5.9997 -0.4392
25 11 6 5.9369 0.3988
25 11 7 -0.8469 -0.0913
25 11 8 9.3862 -0.2077
25 11 9 6.1405 0.2022
25 11 10 14.7801 -0.1837
25 11 11 0.6029 -0.1370
25 13 0 3.6868 0.0904
25 13 1 -2.2843 -0.0162
25 13 2 0.3048 -0.0500
25 13 3 9.7593 0.1843
25 13 4 16.0085 -0.4237
25 13 5 22.6917 0.5452
25 13 6 2.7016 -0.5469
25 13 7 0.1094 0.3111
25 13 8 -12.1976 0.1684
25 13 9 -6.2251 -0.4564
25 15 0 -3.4275 -0.1313
25 15 1 8.8380 0.0546
25 15 2 -0.9627 0.0414
25 15 3 29.6034 -0.1734
25 15 4 13.9191 0.4146
25 15 5 1.1721 -0.6249
25 15 6 -16.2999 0.5425
26 0 0 7.1856 -10.7863
26 0 1 8.9141 3.4249
26 0 2 14.6369 0.0271
26 0 3 20.4552 -1.8596
26 0 4 -3.6249 3.5874
26 0 5 -4.9732 -3.5665
26 0 6 5.2665 1.4324
26 0 7 11.5251 1.2375
26 0 8 5.7177 -3.9510
26 0 9 -1.8775 5.9981
26 0 10 6.7153 -6.0265
26 0 11 -9.9550 4.1167
26 0 12 -14.9307 -1.4007
26 0 13 -14.0240 -1.1874
26 0 14 -20.9275 3.2908
26 0 15 -5.8056 -3.7760
26 2 0 -11.5467 1.8048
26 2 1 13.1625 -1.2463
26 2 2 -2.7546 -0.1325
26 2 3 -4.5082 0.6630
26 2 4 -0.6914 -0.2113
26 2 5 -2.7884 -0.0852
26 2 6 -4.5060 0.1810
26 2 7 20.4815 -0.3207
26 2 8 -11.4457 0.5429
26 2 9 -4.5223 -0.6791
26 2 10 -34.1696 0.9314
26 2 11 5.3325 -0.8774
26 2 12 -18.8583 0.4776
26 2 13 -1.1889 0.3451
26 2 14 0.1512 -0.2507
26 2 15 14.5988 0.1960
26 4 0 5.0928 -0.4948
26 4 1 19.8939 0.1646
26 4 2 19.4517 0.4643
26 4 3 -4.4923 -0.2686
26 4 4 -0.3429 -0.4651
26 4 5 -1.9369 0.6354
26 4 6 7.9193 -0.3885
26 4 7 32.9031 -0.0668
26 4 8 11.0991 0.3321
26 4 9 -5.1911 -0.4438
26 4 10 -2.3816 0.0863
26 4 11 -10.4012 -0.0697
26 4 12 -14.1417 0.0868
26 4 13 -16.3148 -0.4084
26 4 14 8.7543 -0.5174
26 6 0 -4.3376 -0.4318
26 6 1 6.9431 0.4036
26 6 2 -15.7022 -0.1318
26 6 3 -5.9101 -0.0548
26 6 4 0.1976 0.3202
26 6 5 1.3841 -0.5879
26 6 6 -2.9632 0.5653
26 6 7 10.8509 0.1261
26 6 8 -12.2649 -0.6276
26 6 9 -2.2410 0.9357
26 6 10 17.5434 -0.7781
26 6 11 -5.2927 0.5611
26 6 12 33.0518 0.3735
26 6 13 21.2625 -0.3799
26 6 14 17.9654 -1.1162
26 8 0 1.3387 0.4360
26 8 1 -7.2748 -0.3604
26 8 2 -4.6595 0.1625
26 8 3 6.0169 0.1476
26 8 4 14.2265 -0.6345
26 8 5 12.5897 0.7219
26 8 6 -15.6685 -0.4221
26 8 7 -8.3996 -0.1532
26 8 8 -6.9829 0.5832
26 8 9 -3.0388 -0.7000
26 8 10 -13.8612 0.3372
26 8 11 4.4780 -0.5427
26 8 12 5.9510 0.5736
26 8 13 13.8574 -0.1254
26 10 0 4.4304 -0.3675
26 10 1 19.6958 0.2781
26 10 2 1.5109 -0.0060
26 10 3 -2.0019 -0.2635
26 10 4 17.8905 0.5012
26 10 5 8.7202 -0.3874
26 10 6 -6.5432 0.2397
26 10 7 10.1925 -0.1527
26 10 8 3.2645 -0.2860
26 10 9 -5.7235 0.6240
26 10 10 -6.1751 -0.5176
26 10 11 14.0586 0.2350
26 10 12 -2.1704 0.5110
26 12 0 25.3403 0.2109
26 12 1 15.0528 -0.1442
26 12 2 -2.2332 -0.0381
26 12 3 -15.2653 0.2116
26 12 4 7.8309 -0.4320
26 12 5 16.9933 0.3280
26 12 6 3.5606 -0.0190
26 12 7 -2.9813 0.0207
26 12 8 -2.6220 0.0057
26 12 9 3.8943 0.0950
26 12 10 -2.2531 0.1893
26 14 0 7.8648 -0.0157
26 14 1 21.9500 0.0011
26 14 2 -5.5664 0.0303
26 14 3 -9.6058 -0.0431
26 14 4 -10.1404 0.1674
26 14 5 8.1685 -0.1786
26 14 6 -15.5875 -0.0044
26 14 7 -2.7885 -0.0325
26 16 0 5.6924 -0.0119
26 16 1 -2.1080 0.0597
26 16 2 -3.0733 -0.0398
26 16 3 10.3134 0.0150
27 1 0 -3.1807 0.5843
27 1 1 2.7387 1.7764
27 1 2 3.0479 0.2075
27 1 3 -13.7980 -2.7345
27 1 4 4.8578 3.2391
27 1 5 0.4143 -3.0045
27 1 6 -3.0367 2.2339
27 1 7 -9.9391 -0.5238
27 1 8 -1.4911 -0.9624
27 1 9 -0.4341 1.5734
27 1 10 4.2933 -1.7820
27 1 11 1.0078 1.1016
27 1 12 34.0525 0.1284
27 1 13 -7.6766 -1.2280
27 1 14 -10.2974 1.0161
27 3 0 -1.9808 0.5042
27 3 1 -17.2413 -0.5448
27 3 2 20.6932 -0.5865
27 3 3 2.9594 1.9173
27 3 4 22.7080 -2.5754
27 3 5 1.9839 2.6135
27 3 6 -1.7968 -1.8665
27 3 7 -7.8901 0.7948
27 3 8 10.6127 0.1768
27 3 9 -2.4338 -0.6307
27 3 10 -0.5780 0.5880
27 3 11 3.9662 -0.0185
27 3 12 22.5947 -0.6005
27 3 13 -15.9888 1.0143
27 3 14 21.3693 -0.5243
27 5 0 1.2795 -0.4853
27 5 1 3.5703 0.2122
27 5 2 16.0649 0.1197
27 5 3 4.1428 -0.9622
27 5 4 14.0869 1.6927
27 5 5 -6.6699 -1.6389
27 5 6 -2.4350 0.9049
27 5 7 -8.4670 -0.2988
27 5 8 2.2974 -0.1937
27 5 9 3.8746 0.3076
27 5 10 1.9869 -0.1596
27 5 11 -5.0147 0.0235
27 5 12 14.1912 -0.2925
27 5 13 -3.3590 -0.1570
27 5 14 3.2078 2.3108
27 7 0 -2.9644 0.7180
27 7 1 -10.4710 -0.4076
27 7 2 3.9474 0.0861
27 7 3 4.2582 0.1701
27 7 4 -2.1346 -0.3223
27 7 5 1.3941 0.4951
27 7 6 3.7197 -0.4038
27 7 7 -1.3625 -0.0853
27 7 8 6.1394 0.3917
27 7 9 8.3201 -0.2826
27 7 10 16.4805 0.2998
27 7 11 -30.7214 0.4258
27 7 12 -6.2820 -0.7094
27 7 13 -4.3182 -0.7773
27 9 0 -2.6468 -0.5012
27 9 1 -13.3568 0.2113
27 9 2 4.2421 -0.1235
27 9 3 -10.5649 0.1938
27 9 4 -9.4132 -0.2432
27 9 5 0.0136 0.2889
27 9 6 8.3152 -0.2919
27 9 7 -8.1598 0.5517
27 9 8 8.8008 -0.3994
27 9 9 1.8838 -0.0378
27 9 10 7.1818 -0.3645
27 9 11 -6.1003 0.4180
27 9 12 -0.1410 -0.3185
27 11 0 -2.2180 -0.0434
27 11 1 1.0391 0.0622
27 11 2 2.9645 -0.0011
27 11 3 -11.8724 -0.1835
27 11 4 4.5066 0.3234
27 11 5 -4.6958 -0.5139
27 11 6 -7.5833 0.2626
27 11 7 -4.0039 -0.1322
27 11 8 0.9317 0.0869
27 11 9 6.0956 0.2416
27 11 10 16.0697 -0.3567
27 13 0 -7.6357 0.2922
27 13 1 -4.5344 -0.3117
27 13 2 6.5830 0.1739
27 13 3 -5.5337 0.1892
27 13 4 17.2746 -0.3474
27 13 5 2.5536 0.5671
27 13 6 4.4047 -0.3779
27 13 7 -14.3954 -0.0402
27 13 8 5.9859 0.1191
27 15 0 -4.5552 -0.4149
27 15 1 0.9156 0.3227
27 15 2 10.3193 -0.1233
27 15 3 -3.6222 -0.2243
27 15 4 16.2075 0.3339
28 0 0 3.0516 -13.7648
28 0 1 5.3169 5.5906
28 0 2 7.0240 -2.5395
28 0 3 -8.6393 0.9975
28 0 4 17.8686 0.8457
28 0 5 -3.2823 -0.9306
28 0 6 3.3647 -1.1294
28 0 7 4.8020 3.8994
28 0 8 -2.8426 -6.3887
28 0 9 5.3112 8.3352
28 0 10 1.9390 -8.5460
28 0 11 7.4236 6.5252
28 0 12 -4.6130 -3.7459
28 0 13 2.7228 1.0481
28 0 14 27.2390 1.3404
28 2 0 -1.7986 1.9243
28 2 1 0.1373 -1.5540
28 2 2 -9.1889 0.5104
28 2 3 -4.8372 -0.0410
28 2 4 2.7096 0.4673
28 2 5 3.1728 -0.7183
28 2 6 -22.1375 0.6740
28 2 7 -2.0198 -0.9680
28 2 8 -0.5998 1.1943
28 2 9 -10.5177 -1.4199
28 2 10 5.0899 1.6729
28 2 11 -13.4462 -1.6155
28 2 12 8.1219 0.9498
28 2 13 7.2501 -0.3961
28 2 14 27.0634 -0.2803
28 4 0 -1.4260 -0.1201
28 4 1 -18.0474 0.1502
28 4 2 -10.7542 0.4525
28 4 3 -5.9837 -0.4652
28 4 4 -1.7163 -0.2359
28 4 5 -1.7476 0.3591
28 4 6 -5.0725 0.0358
28 4 7 -3.5742 -0.2712
28 4 8 1.1001 0.5870
28 4 9 1.2925 -0.4957
28 4 10 2.2011 0.3612
28 4 11 20.2987 -0.2698
28 4 12 8.4451 0.5177
28 4 13 -16.6146 0.0628
28 6 0 4.6326 -0.6514
28 6 1 20.0601 0.5961
28 6 2 -8.7816 -0.4890
28 6 3 -8.1986 0.4240
28 6 4 -3.8947 -0.0797
28 6 5 -2.4842 -0.1944
28 6 6 15.5075 0.0466
28 6 7 10.1242 0.4907
28 6 8 1.6075 -1.1568
28 6 9 -17.6673 1.0923
28 6 10 7.5963 -0.9603
28 6 11 0.3364 0.1382
28 6 12 1.0545 0.2657
28 6 13 1.1483 1.7585
28 8 0 7.3606 0.4746
28 8 1 12.9272 -0.3085
28 8 2 4.0482 0.0939
28 8 3 -4.1757 0.0509
28 8 4 -14.8561 -0.2410
28 8 5 -1.9463 0.1644
28 8 6 -1.5024 0.1417
28 8 7 -1.3634 -0.4010
28 8 8 -15.3853 0.7206
28 8 9 -10.3531 -0.8684
28 8 10 -0.4226 1.3468
28 8 11 -0.0496 -1.3033
28 8 12 9.5729 -0.1130
28 10 0 3.4334 0.0728
28 10 1 -1.9127 0.0136
28 10 2 5.0747 0.1791
28 10 3 -6.9350 -0.4568
28 10 4 0.7047 0.6625
28 10 5 2.1757 -0.6540
28 10 6 9.3040 0.4326
28 10 7 5.4499 -0.2137
28 10 8 -7.2671 -0.0032
28 10 9 -13.2505 -0.0041
28 10 10 8.2870 0.2299
28 12 0 4.1580 -0.0895
28 12 1 8.2263 0.1706
28 12 2 -8.2754 -0.2734
28 12 3 14.9765 0.2694
28 12 4 2.1092 -0.2798
28 12 5 -10.4511 0.3570
28 12 6 -5.1619 -0.2738
28 12 7 8.2302 0.2240
28 12 8 -12.3425 -0.1385
28 14 0 -5.7754 -0.0027
28 14 1 -8.7808 0.0098
28 14 2 8.1669 0.0110
28 14 3 -12.2955 -0.0323
28 14 4 8.3565 -0.0056
28 14 5 -9.1561 0.0779
29 1 0 -7.1275 1.3427
29 1 1 13.4432 1.3277
29 1 2 -5.1538 0.4142
29 1 3 -13.5746 -2.8927
29 1 4 -9.7278 3.4241
29 1 5 11.9238 -3.0962
29 1 6 0.3556 2.4789
29 1 7 -17.0774 -0.8030
29 1 8 -1.5993 -0.7306
29 1 9 1.8884 1.2951
29 1 10 -4.1255 -1.1327
29 1 11 5.7968 0.5419
29 1 12 -1.8152 0.4742
29 1 13 6.1443 -1.1733
29 3 0 2.7314 0.1100
29 3 1 -6.8406 -0.3113
29 3 2 -1.7528 -0.8281
29 3 3 7.6855 2.3367
29 3 4 0.5870 -2.8965
29 3 5 12.9800 2.7260
29 3 6 -7.2967 -2.2236
29 3 7 -10.5705 1.0324
29 3 8 1.6823 -0.2638
29 3 9 0.3726 -0.0920
29 3 10 9.9350 0.0699
29 3 11 14.1272 0.4407
29 3 12 15.4968 -0.7381
29 3 13 13.8795 0.5627
29 5 0 -6.7019 -0.4668
29 5 1 -22.3044 0.1860
29 5 2 -12.6270 0.1861
29 5 3 -0.7288 -1.1327
29 5 4 -6.9625 1.7472
29 5 5 6.9238 -1.5736
29 5 6 2.5845 1.1054
29 5 7 -19.0733 -0.3770
29 5 8 5.6600 0.1136
29 5 9 -5.7057 0.0082
29 5 10 -6.9308 -0.0963
29 5 11 8.4764 0.1579
29 5 12 19.9918 -0.0648
29 5 13 8.9972 -2.3428
29 7 0 -21.2404 0.7715
29 7 1 0.7055 -0.6257
29 7 2 -5.0913 0.3275
29 7 3 16.6043 0.1756
29 7 4 0.7116 -0.5300
29 7 5 2.0681 0.6236
29 7 6 7.3167 -0.3317
29 7 7 2.2062 -0.2651
29 7 8 5.0559 0.5002
29 7 9 -5.4720 -0.2004
29 7 10 3.5309 -0.4490
29 7 11 9.5491 0.6025
29 7 12 9.9632 1.1258
29 9 0 -2.5384 -0.7162
29 9 1 -13.9715 0.4334
29 9 2 18.7370 -0.3245
29 9 3 1.4989 0.3273
29 9 4 -1.4115 -0.4110
29 9 5 0.5900 0.4090
29 9 6 -5.8593 -0.5721
29 9 7 -16.1896 0.5493
29 9 8 2.0122 -0.5685
29 9 9 10.1646 0.6490
29 9 10 5.7158 -0.4819
29 9 11 3.6609 -0.5820
29 11 0 -8.0189 0.0075
29 11 1 8.6901 -0.0372
29 11 2 -9.7219 0.0726
29 11 3 5.6858 -0.0554
29 11 4 -3.3703 0.2665
29 11 5 3.4644 -0.2184
29 11 6 -7.2114 0.3709
29 11 7 -11.9537 -0.3457
29 11 8 -7.6625 0.0870
29 11 9 16.0046 0.0045
29 13 0 11.3352 0.4272
29 13 1 -6.2176 -0.4447
29 13 2 -4.1294 0.3461
29 13 3 5.4165 -0.1429
29 13 4 -0.7959 -0.3149
29 13 5 -9.4852 0.0969
29 13 6 -13.9408 0.0986
29 15 0 -0.0037 -0.4215
30 0 0 7.0141 -13.3583
30 0 1 -22.2653 5.5597
30 0 2 -24.4270 -1.9903
30 0 3 -4.4474 0.3548
30 0 4 0.1213 0.9895
30 0 5 3.0521 -0.7995
30 0 6 23.4563 -1.2222
30 0 7 -6.0885 3.6306
30 0 8 3.0430 -6.2148
30 0 9 -5.5262 8.0785
30 0 10 1.5514 -7.9020
30 0 11 -12.9756 6.0776
30 0 12 -9.1385 -3.4237
30 0 13 5.5571 0.3975
30 2 0 8.7654 1.7777
30 2 1 15.0445 -1.4348
30 2 2 -17.2579 0.3495
30 2 3 4.6533 0.1351
30 2 4 -13.3390 0.1736
30 2 5 -10.5357 -0.6079
30 2 6 -4.8268 0.6709
30 2 7 -4.8149 -0.6828
30 2 8 5.1099 1.0782
30 2 9 5.6436 -1.5207
30 2 10 7.1846 1.5651
30 2 11 -5.1051 -1.2476
30 2 12 -4.8192 0.4523
30 2 13 17.3934 0.2136
30 4 0 14.7193 -0.1408
30 4 1 7.3301 0.0822
30 4 2 3.2666 0.5256
30 4 3 9.1561 -0.5992
30 4 4 2.8570 0.1019
30 4 5 -3.6255 0.3369
30 4 6 0.0325 -0.0735
30 4 7 -17.5304 -0.2404
30 4 8 -12.0714 0.3378
30 4 9 -9.1600 -0.4295
30 4 10 8.8580 0.3484
30 4 11 20.5975 -0.2684
30 4 12 3.5881 0.0099
30 6 0 16.3386 -0.4485
30 6 1 -8.8406 0.6303
30 6 2 -0.5928 -0.4899
30 6 3 -8.7871 0.2476
30 6 4 0.9678 0.0215
30 6 5 -10.7166 -0.3624
30 6 6 11.5860 -0.0763
30 6 7 -9.6860 0.6686
30 6 8 -7.8155 -0.9822
30 6 9 -14.3686 1.1061
30 6 10 18.6294 -0.6551
30 6 11 -6.6887 0.3697
30 6 12 -3.4510 -1.7081
30 8 0 -4.5160 0.3962
30 8 1 7.8898 -0.3316
30 8 2 -22.0535 0.1046
30 8 3 9.3610 0.0886
30 8 4 -11.0425 -0.0922
30 8 5 3.0603 0.1900
30 8 6 -16.6422 -0.0095
30 8 7 -6.8028 -0.2191
30 8 8 -16.8645 0.5456
30 8 9 -12.5351 -0.9712
30 8 10 14.4479 0.9718
30 8 11 22.6239 0.3255
30 10 0 4.9271 0.0999
30 10 1 -10.7141 0.0150
30 10 2 -6.8815 0.1633
30 10 3 -11.1433 -0.5417
30 10 4 9.6727 0.5454
30 10 5 4.7165 -0.4858
30 10 6 9.3326 0.3674
30 10 7 -16.4323 0.0376
30 10 8 -5.9631 -0.3236
30 10 9 -6.2599 0.4155
30 12 0 -5.2918 -0.1650
30 12 1 11.2371 0.2048
30 12 2 -9.1041 -0.3385
30 12 3 9.9636 0.5522
30 12 4 -7.4653 -0.4589
30 12 5 1.3827 0.2993
30 12 6 -3.6942 -0.3832
30 12 7 4.3319 0.3789
30 14 0 -5.1918 0.0021
30 14 1 3.2561 0.0054
30 14 2 -2.1385 -0.0498
31 1 0 4.3486 0.8243
31 1 1 -5.6370 1.3943
31 1 2 1.7224 0.4175
31 1 3 5.2990 -2.6252
31 1 4 -10.6207 3.1480
31 1 5 7.0138 -2.5642
31 1 6 -11.1149 1.8487
31 1 7 -12.1665 -0.7099
31 1 8 -4.5440 -0.6715
31 1 9 11.6628 1.1354
31 1 10 -7.7112 -1.0324
31 1 11 5.3159 0.6214
31 1 12 24.5376 0.5129
31 3 0 -13.5553 0.3981
31 3 1 -1.4725 -0.5797
31 3 2 8.1545 -0.5355
31 3 3 0.7513 1.8020
31 3 4 -4.4811 -2.5248
31 3 5 -17.2678 2.1952
31 3 6 10.3236 -1.3768
31 3 7 -15.9429 0.5520
31 3 8 14.9157 0.3880
31 3 9 -11.2649 -0.3508
31 3 10 -26.9966 -0.0475
31 3 11 -1.2173 -0.2941
31 3 12 -14.1049 0.1926
31 5 0 -3.7862 -0.5914
31 5 1 6.9508 0.2837
31 5 2 13.9440 0.0399
31 5 3 7.4569 -0.6101
31 5 4 -12.7120 1.3418
31 5 5 6.0981 -1.2627
31 5 6 -16.5595 0.7474
31 5 7 -5.6133 -0.4936
31 5 8 -1.1528 -0.0610
31 5 9 17.7909 0.1693
31 5 10 -4.6036 0.2167
31 5 11 -30.2282 -0.0432
31 7 0 -0.6803 0.5125
31 7 1 -7.2681 -0.4528
31 7 2 11.6140 0.2174
31 7 3 -7.8751 0.0471
31 7 4 1.0759 -0.5171
31 7 5 -0.3746 0.5816
31 7 6 0.6713 -0.0583
31 7 7 -9.6614 -0.3331
31 7 8 -5.8352 0.4060
31 7 9 4.2056 -0.4462
31 7 10 16.5704 0.0594
31 9 0 -9.9500 -0.4097
31 9 1 -12.2512 0.2302
31 9 2 -11.3341 -0.0194
31 9 3 6.2599 0.1557
31 9 4 0.0484 -0.1371
31 9 5 13.2591 0.1015
31 9 6 -8.1911 -0.1043
31 9 7 0.8394 -0.0370
31 9 8 4.9468 0.4834
31 9 9 6.0299 -0.2846
31 11 0 -5.7515 -0.0819
31 11 1 -7.8916 -0.0659
31 11 2 -3.8658 0.0456
31 11 3 2.9358 -0.2511
31 11 4 -11.6146 0.3830
31 11 5 12.9725 -0.4570
31 11 6 -6.0706 0.1607
31 11 7 2.4874 -0.2517
31 13 0 -8.4314 0.3393
31 13 1 6.3223 -0.2178
31 13 2 3.1037 0.2026
31 13 3 15.3418 -0.1399
31 13 4 10.1090 0.2478
32 0 0 14.7361 -9.7366
32 0 1 23.7656 2.4402
32 0 2 14.7358 0.8247
32 0 3 -2.2014 -2.3394
32 0 4 -6.0910 3.5363
32 0 5 -2.2292 -3.1620
32 0 6 -1.3737 1.1834
32 0 7 -4.9829 1.4898
32 0 8 12.3530 -3.7821
32 0 9 -6.8261 5.1715
32 0 10 10.4325 -5.1509
32 0 11 -18.6537 3.3750
32 0 12 4.0668 -0.4842
32 2 0 0.8451 1.5892
32 2 1 0.4905 -0.8136
32 2 2 -7.5343 -0.5201
32 2 3 -13.2979 0.9366
32 2 4 -10.2982 -0.3790
32 2 5 -7.4258 0.0602
32 2 6 -7.7131 -0.1957
32 2 7 -5.3147 0.0611
32 2 8 1.4350 0.4910
32 2 9 17.1705 -0.6587
32 2 10 -2.4668 0.8928
32 2 11 10.5286 -0.3590
32 4 0 4.6451 -0.2713
32 4 1 -0.8734 0.2346
32 4 2 -21.6745 0.3747
32 4 3 2.9755 -0.4726
32 4 4 7.0889 0.0153
32 4 5 13.3573 0.2287
32 4 6 -1.4272 -0.1718
32 4 7 -19.0759 -0.0945
32 4 8 11.7850 -0.0703
32 4 9 -2.7168 -0.3091
32 4 10 21.6024 0.1833
32 4 11 -4.7190 0.0113
32 6 0 9.5807 -0.0358
32 6 1 -9.7520 0.2446
32 6 2 -8.5662 -0.1804
32 6 3 -8.9398 -0.0016
32 6 4 17.4105 0.2277
32 6 5 0.4983 -0.4721
32 6 6 -2.5960 0.3001
32 6 7 -10.3100 0.6232
32 6 8 5.4894 -0.5787
32 6 9 29.3342 0.9015
32 6 10 23.7493 -0.6714
32 8 0 -0.1110 0.2509
32 8 1 2.4945 -0.1114
32 8 2 -0.1730 -0.3484
32 8 3 -7.9231 0.5397
32 8 4 1.2600 -0.4046
32 8 5 7.9979 0.3966
32 8 6 -3.6460 -0.6115
32 8 7 5.2089 0.4293
32 8 8 1.9713 -0.6790
32 8 9 10.2620 -0.2810
32 10 0 9.1660 -0.0621
32 10 1 6.1114 0.2573
32 10 2 9.6659 -0.0181
32 10 3 -6.3060 -0.2003
32 10 4 -4.0903 0.1817
32 10 5 11.8266 -0.1505
32 10 6 -1.1029 0.2625
32 10 7 1.7568 0.1269
32 12 0 5.0983 0.0781
32 12 1 7.2953 -0.0938
32 12 2 18.3026 0.0008
32 12 3 -1.4409 0.1286
32 12 4 -0.0272 -0.2622
33 1 0 -0.1282 -0.3851
33 1 1 -10.3776 1.6600
33 1 2 -16.9698 0.0307
33 1 3 4.2691 -1.7303
33 1 4 -0.9085 2.1449
33 1 5 -13.6088 -1.9377
33 1 6 -18.7382 1.2186
33 1 7 -18.2631 -0.4248
33 1 8 0.0256 -0.9349
33 1 9 -6.8275 1.7252
33 1 10 5.2078 -1.2294
33 1 11 -9.0170 0.1240
33 3 0 -6.4951 0.6323
33 3 1 -9.9269 -0.8363
33 3 2 -7.2560 0.3667
33 3 3 12.2180 0.5910
33 3 4 -9.8259 -1.4200
33 3 5 1.4709 1.3954
33 3 6 0.8812 -0.4070
33 3 7 23.3853 -0.1341
33 3 8 -4.2711 0.5338
33 3 9 -5.0300 -1.0338
33 3 10 7.6318 1.0531
33 3 11 4.2123 -0.0709
33 5 0 -4.7022 -0.6358
33 5 1 1.6880 0.2090
33 5 2 5.0521 -0.1168
33 5 3 15.3132 -0.3238
33 5 4 -9.7459 0.8324
33 5 5 -24.0683 -0.7245
33 5 6 -7.7970 0.1483
33 5 7 -8.6605 -0.0564
33 5 8 -3.6557 -0.0557
33 5 9 -9.3988 0.4107
33 5 10 5.6463 -1.3197
33 7 0 -22.9267 0.2131
33 7 1 -2.3851 -0.2480
33 7 2 -1.1849 0.4061
33 7 3 2.2579 -0.1054
33 7 4 -11.3496 -0.3730
33 7 5 -17.7007 0.4730
33 7 6 2.9652 0.0907
33 7 7 6.7631 -0.7971
33 7 8 -17.6302 1.0334
33 7 9 -7.9952 0.6720
33 9 0 11.2509 -0.1044
33 9 1 -5.3379 -0.1863
33 9 2 1.5105 0.2540
33 9 3 -1.3630 -0.4382
33 9 4 2.1751 0.3962
33 9 5 8.3748 -0.2121
33 9 6 -15.5054 0.1437
33 9 7 5.9805 -0.3557
33 11 0 -0.6679 -0.1095
33 11 1 -1.7349 0.0312
33 11 2 -9.3937 -0.0567
33 11 3 -15.2794 0.3465
33 11 4 -3.8169 -0.2748
33 11 5 -10.6028 0.2830
34 0 0 11.7972 -5.2554
34 0 1 -7.8232 -0.2431
34 0 2 14.5081 3.6381
34 0 3 4.1388 -5.3805
34 0 4 -13.6629 6.4236
34 0 5 4.5269 -6.0505
34 0 6 -14.8730 3.9503
34 0 7 -0.6300 -1.2651
34 0 8 11.8236 -1.1500
34 0 9 12.4122 2.4425
34 0 10 -15.5062 -2.1173
34 2 0 -2.7477 1.5590
34 2 1 -22.0801 -0.5179
34 2 2 2.0274 -1.1853
34 2 3 -3.8087 1.7771
34 2 4 10.0049 -1.1883
34 2 5 -1.4492 0.7923
34 2 6 8.0426 -0.9105
34 2 7 -8.6474 0.6890
34 2 8 7.8928 -0.1505
34 2 9 2.9975 -0.5814
34 2 10 -0.7796 -0.2188
34 4 0 3.7794 -0.7325
34 4 1 -4.0345 0.5889
34 4 2 7.9077 -0.0936
34 4 3 -2.4359 -0.1965
34 4 4 -3.2616 -0.0288
34 4 5 5.2532 0.2225
34 4 6 -10.8050 -0.2010
34 4 7 6.3745 0.0154
34 4 8 -4.7355 0.8597
34 4 9 10.0552 -0.2607
34 4 10 -8.2998 1.5873
34 6 0 -2.9832 0.2752
34 6 1 -0.1863 0.0456
34 6 2 -18.9135 -0.0133
34 6 3 12.0547 -0.2408
34 6 4 -3.3656 0.6647
34 6 5 4.1757 -0.7719
34 6 6 7.8417 0.5308
34 6 7 8.8453 -0.0283
34 6 8 -8.5828 -1.0413
34 6 9 1.2787 -2.1225
34 8 0 -5.6137 0.2295
34 8 1 -5.2641 -0.0021
34 8 2 11.3524 -0.3275
34 8 3 -1.8942 0.7088
34 8 4 -6.4084 -0.8662
34 8 5 -6.2204 0.5972
34 8 6 7.2519 -0.6320
34 8 7 -2.8441 0.7687
34 10 0 5.6436 -0.4016
34 10 1 3.9331 0.3799
34 10 2 -0.8049 -0.0039
34 10 3 -3.1649 -0.5687
34 10 4 -22.1258 0.9240
34 10 5 13.8928 -1.0622
35 1 0 0.7123 -1.4424
35 1 1 -20.2833 1.8992
35 1 2 -5.1136 -0.4335
35 1 3 -2.7248 -1.2988
35 1 4 13.1723 1.3952
35 1 5 -11.0006 -0.9851
35 1 6 -0.7788 0.5609
35 1 7 0.6384 0.5278
35 1 8 10.8547 -0.6044
35 1 9 -12.8645 1.1456
35 3 0 -2.8334 1.1260
35 3 1 2.9113 -1.1839
35 3 2 -15.2012 0.9681
35 3 3 -8.8299 0.0665
35 3 4 -4.7529 -0.8382
35 3 5 -9.3538 0.6067
35 3 6 -11.4669 0.2664
35 3 7 -1.0737 -0.9926
35 3 8 1.1913 0.0823
35 3 9 -17.8427 -0.0615
35 5 0 10.0503 -0.2221
35 5 1 12.8922 0.1549
35 5 2 -9.7012 -0.3100
35 5 3 -13.3049 0.0848
35 5 4 15.0162 0.3487
35 5 5 -5.3842 -0.3432
35 5 6 -19.1040 -0.1681
35 5 7 -10.8032 0.9288
35 5 8 7.8032 -1.2487
35 7 0 -2.2045 -0.1620
35 7 1 31.3397 0.0825
35 7 2 -24.1357 -0.1484
35 7 3 1.9467 0.1318
35 7 4 -17.2452 -0.3277
35 7 5 9.5764 0.4023
35 7 6 -11.9528 -0.0279
35 7 7 11.8707 -0.0223
35 9 0 4.7498 0.3076
35 9 1 -14.6238 -0.3273
35 9 2 3.5955 0.0451
35 9 3 2.6582 0.4394
35 9 4 14.8322 -0.4105
35 9 5 -4.0240 0.5810
36 0 0 -1.2251 -2.7841
36 0 1 28.8913 -1.5334
36 0 2 -6.8158 4.7417
36 0 3 -2.1908 -6.7411
36 0 4 5.6799 7.5499
36 0 5 6.8925 -7.1531
36 0 6 9.0630 5.0580
36 0 7 -3.4018 -2.4110
36 0 8 -6.7474 0.2924
36 2 0 -7.6366 1.2750
36 2 1 9.0302 -0.4138
36 2 2 -12.4300 -1.2341
36 2 3 14.9624 1.6920
36 2 4 -3.2985 -1.1314
36 2 5 12.1814 1.2531
36 2 6 11.9521 -1.2398
36 2 7 -8.7401 0.6521
36 2 8 -12.7035 -0.0693
36 4 0 -14.7526 -1.2121
36 4 1 16.1360 0.5910
36 4 2 15.8208 0.1497
36 4 3 12.1758 -0.1893
36 4 4 -13.9897 -0.0923
36 4 5 -1.7730 0.1181
36 4 6 7.1071 -0.0966
36 4 7 1.3388 -0.4723
36 4 8 2.0075 1.6328
36 6 0 -6.3986 0.2163
36 6 1 18.1847 -0.3176
36 6 2 -8.9265 0.6868
36 6 3 -7.8872 -0.8188
36 6 4 -6.8602 0.6520
36 6 5 16.2898 -0.5970
36 6 6 10.0721 0.6028
36 8 0 5.4098 0.1375
36 8 1 -3.8542 -0.1530
36 8 2 4.8352 0.3478
36 8 3 -0.7072 -0.4326
36 8 4 -14.0292 0.0279
36 8 5 2.9776 0.1885
36 10 0 -2.2503 -0.5871
37 1 0 21.1968 -1.3625
37 1 1 19.3702 1.9528
37 1 2 7.9099 -0.7488
37 1 3 -8.2779 -0.2772
37 1 4 0.9873 0.9270
37 1 5 -8.4754 -0.8319
37 1 6 11.0171 0.2763
37 1 7 26.3873 0.5365
37 3 0 -4.3104 0.8634
37 3 1 -3.3686 -0.6642
37 3 2 -11.6149 0.3654
37 3 3 8.1819 -0.0132
37 3 4 -11.2270 -0.3172
37 3 5 5.3782 0.1005
37 3 6 -14.0645 0.0216
37 3 7 1.5153 0.2187
37 5 0 -3.6246 0.1626
37 5 1 -11.9882 0.3846
37 5 2 34.5435 -0.7418
37 5 3 1.9601 0.1339
37 5 4 47.3401 0.3484
37 5 5 -13.6718 -0.3096
37 5 6 6.2686 0.1248
37 7 0 26.7072 -0.1556
37 7 1 13.3049 0.2818
37 7 2 36.7747 -0.8277
37 7 3 -18.9190 1.1962
37 7 4 16.1689 -0.1758
38 0 0 19.3148 -3.7814
38 0 1 -4.8604 -0.9591
38 0 2 18.7537 3.6419
38 0 3 24.2322 -5.6193
38 0 4 -10.6186 7.0343
38 0 5 8.7179 -6.0995
38 0 6 -0.7919 4.5078
38 2 0 21.5140 1.5381
38 2 1 -9.3154 -0.9280
38 2 2 -3.0938 -0.1319
38 2 3 -13.7580 1.2524
38 2 4 -3.1307 -1.8138
38 2 5 -4.9640 0.7165
38 2 6 -4.3933 -0.0341
38 4 0 12.0826 -0.8140
38 4 1 -9.8708 0.2435
38 4 2 -25.9238 0.1625
38 4 3 -26.1724 -0.1175
38 4 4 -15.1700 -0.2446
38 4 5 -2.7083 1.1379
38 6 0 4.1956 0.2875
38 6 1 -11.4504 -0.4846
38 6 2 -4.1270 0.8995
38 6 3 -22.9354 -0.4362
39 1 0 -13.4421 -0.6892
39 1 1 -7.4623 1.5298
39 1 2 5.4032 -0.0961
39 1 3 15.0016 -1.2802
39 1 4 -12.7928 0.5099
39 1 5 17.0293 0.8252
39 3 0 -18.6028 0.7335
39 3 1 2.5425 -0.5890
39 3 2 -14.7602 -0.1249
39 3 3 -0.4449 0.2486
39 3 4 3.4504 0.2842
39 5 0 -11.7056 -1.0157
39 5 1 19.3885 0.5536
39 5 2 -36.4332 0.0289
40 0 0 3.0309 -5.5305
40 0 1 6.3715 1.2361
40 0 2 12.7276 0.7133
40 0 3 -10.2978 -2.3907
40 2 0 -2.6474 -0.3019
40 2 1 -4.3318 0.6487
40 2 2 7.1780 -1.0262
40 4 0 -13.7257 0.5660
0 0 0 0.0 0.0
;
_shelx_fab_checksum              32660
_olex2_submission_special_instructions 'No special instructions were received'
loop_
_space_group_symop_operation_xyz
'x, y, z'
'-x, y, -z'
'x+1/2, y+1/2, z'
'-x+1/2, y+1/2, -z'
'-x, -y, -z'
'x, -y, z'
'-x+1/2, -y+1/2, -z'
'x+1/2, -y+1/2, z'
loop_
_atom_site_label
_atom_site_type_symbol
_atom_site_fract_x
_atom_site_fract_y
_atom_site_fract_z
_atom_site_U_iso_or_equiv
_atom_site_adp_type
_atom_site_occupancy
_atom_site_site_symmetry_order
_atom_site_calc_flag
_atom_site_refinement_flags_posn
_atom_site_refinement_flags_adp
_atom_site_refinement_flags_occupancy
Zr1 Zr 0.56897(3) 1.000000 0.50067(6) 0.0742(6) Uani 1 2 d DS TU P
Zr2 Zr 1.00232(2) 0.59591(7) 0.59822(4) 0.0783(5) Uani 1 1 d D U .
O4 O 0.90064(16) 0.5737(5) 0.5735(4) 0.070(2) Uani 1 1 d . U .
O6 O 0.60270(18) 0.9285(5) 0.5750(4) 0.0863(17) Uani 1 1 d . U .
O2 O 0.96712(19) 0.5855(3) 0.5065(3) 0.124(3) Uani 1 1 d D U .
O7 O 0.56071(19) 0.8708(5) 0.6357(5) 0.103(3) Uani 1 1 d . U .
O8 O 1.0043(2) 0.5913(5) 0.7197(4) 0.091(3) Uani 1 1 d . U .
O9 O 1.0026(2) 0.7154(5) 0.5981(4) 0.096(2) Uani 1 1 d . U .
O3 O 0.9714(3) 0.500000 0.5983(7) 0.106(3) Uani 1 2 d S TU P
C20 C 0.5940(3) 0.8840(8) 0.6222(6) 0.081(3) Uani 1 1 d . U .
C3 C 0.8876(3) 0.6831(8) 0.7328(6) 0.104(4) Uani 1 1 d . U .
H3 H 0.912350 0.692021 0.750644 0.124 Uiso 1 1 calc R . .
C2 C 0.8809(3) 0.6433(9) 0.6650(6) 0.100(4) Uani 1 1 d . U .
C1 C 0.9105(3) 0.6144(8) 0.6213(6) 0.084(4) Uani 1 1 d . U .
C5 C 0.8215(3) 0.6996(10) 0.7483(6) 0.110(5) Uani 1 1 d . U .
C17 C 0.6268(3) 0.8561(9) 0.6673(6) 0.103(4) Uani 1 1 d . U .
C19 C 0.6542(3) 0.7839(9) 0.7703(6) 0.106(5) Uani 1 1 d . U .
H19 H 0.650628 0.754536 0.811111 0.127 Uiso 1 1 calc R . .
N1 N 0.7642(3) 0.7388(10) 0.9835(5) 0.153(6) Uani 1 1 d . U .
C18 C 0.6232(3) 0.8118(9) 0.7325(6) 0.108(5) Uani 1 1 d . U .
H18 H 0.599201 0.802253 0.748959 0.130 Uiso 1 1 calc R . .
C4 C 0.8592(3) 0.7067(9) 0.7694(6) 0.112(5) Uani 1 1 d . U .
H4 H 0.865074 0.730420 0.813850 0.135 Uiso 1 1 calc R . .
C13 C 0.7561(3) 0.7506(10) 0.7537(6) 0.131(6) Uani 1 1 d . U .
H13 H 0.755497 0.755077 0.702519 0.157 Uiso 1 1 calc R . .
C11 C 0.7259(3) 0.7678(10) 0.8672(6) 0.132(6) Uani 1 1 d . U .
H11 H 0.704642 0.779203 0.893190 0.158 Uiso 1 1 calc R . .
C7 C 0.8435(3) 0.6327(9) 0.6414(7) 0.115(5) Uani 1 1 d . U .
H7 H 0.837657 0.606940 0.598184 0.138 Uiso 1 1 calc R . .
C8 C 0.7881(3) 0.7215(11) 0.7883(6) 0.131(5) Uani 1 1 d . U .
C16 C 0.6634(3) 0.8668(10) 0.6450(7) 0.125(5) Uani 1 1 d . U .
H16 H 0.666782 0.892330 0.601530 0.150 Uiso 1 1 calc R . .
C12 C 0.7257(3) 0.7732(10) 0.7889(6) 0.126(5) Uani 1 1 d . U .
C9 C 0.7906(3) 0.7224(10) 0.8661(6) 0.138(6) Uani 1 1 d . U .
H9 H 0.812728 0.708189 0.892031 0.166 Uiso 1 1 calc R . .
C10 C 0.7595(3) 0.7447(10) 0.9031(5) 0.134(6) Uani 1 1 d . U .
C6 C 0.8142(3) 0.6608(10) 0.6828(7) 0.132(6) Uani 1 1 d . U .
H6 H 0.789245 0.653363 0.666001 0.158 Uiso 1 1 calc R . .
C14 C 0.6907(3) 0.7978(10) 0.7502(6) 0.115(5) Uani 1 1 d . U .
C15 C 0.6956(3) 0.8404(10) 0.6858(7) 0.139(6) Uani 1 1 d . U .
H15 H 0.719766 0.850778 0.670802 0.167 Uiso 1 1 calc R . .
O5 O 0.94622(18) 0.6308(5) 0.6369(4) 0.0863(17) Uani 1 1 d . U .
O1 O 1.0348(3) 0.500000 0.6004(7) 0.105(3) Uani 1 2 d S TU P
loop_
_atom_site_aniso_label
_atom_site_aniso_U_11
_atom_site_aniso_U_22
_atom_site_aniso_U_33
_atom_site_aniso_U_23
_atom_site_aniso_U_13
_atom_site_aniso_U_12
Zr1 0.0279(6) 0.1701(17) 0.0242(6) 0.000 -0.0034(4) 0.000
Zr2 0.0298(5) 0.1748(13) 0.0298(5) -0.0045(6) -0.0029(3) -0.0009(6)
O4 0.025(3) 0.141(7) 0.044(4) 0.010(4) -0.009(3) 0.004(4)
O6 0.028(2) 0.174(5) 0.056(3) -0.001(3) -0.006(2) 0.000(3)
O2 0.088(6) 0.262(10) 0.020(3) -0.004(4) -0.012(3) -0.048(6)
O7 0.026(4) 0.178(9) 0.105(7) -0.043(6) 0.014(4) -0.024(5)
O8 0.048(4) 0.189(8) 0.034(3) -0.005(4) -0.015(3) 0.003(5)
O9 0.060(5) 0.165(5) 0.066(5) 0.001(5) 0.004(4) 0.012(5)
O3 0.075(7) 0.143(7) 0.095(9) 0.000 -0.047(7) 0.000
C20 0.046(5) 0.166(10) 0.029(5) -0.010(5) -0.026(4) -0.001(6)
C3 0.047(5) 0.224(14) 0.039(6) -0.021(7) -0.001(4) -0.003(8)
C2 0.039(4) 0.214(13) 0.047(6) -0.009(6) -0.005(4) 0.015(7)
C1 0.047(5) 0.169(12) 0.035(5) 0.015(6) 0.012(4) 0.014(6)
C5 0.058(5) 0.239(14) 0.033(5) -0.006(7) -0.002(4) 0.036(8)
C17 0.050(5) 0.218(13) 0.041(6) 0.007(6) 0.003(4) 0.031(8)
C19 0.053(5) 0.223(14) 0.041(6) 0.015(7) 0.001(5) 0.003(8)
N1 0.095(9) 0.342(17) 0.022(4) 0.016(8) -0.003(4) 0.040(11)
C18 0.050(6) 0.216(14) 0.057(7) 0.026(7) -0.002(5) 0.004(8)
C4 0.048(5) 0.249(15) 0.040(6) -0.018(7) -0.010(4) 0.029(8)
C13 0.043(6) 0.317(18) 0.031(5) 0.005(8) -0.005(4) 0.034(8)
C11 0.062(7) 0.298(17) 0.035(5) 0.014(9) 0.000(5) 0.064(9)
C7 0.043(5) 0.250(15) 0.054(7) -0.035(8) 0.006(5) -0.005(8)
C8 0.059(6) 0.309(16) 0.026(5) 0.006(8) 0.002(5) 0.058(9)
C16 0.049(5) 0.270(16) 0.055(7) 0.045(8) -0.012(5) 0.008(9)
C12 0.053(5) 0.297(15) 0.028(5) -0.005(8) -0.009(4) 0.045(8)
C9 0.036(6) 0.336(18) 0.041(5) -0.007(9) -0.003(4) 0.050(9)
C10 0.068(7) 0.315(16) 0.019(4) -0.008(8) -0.001(4) 0.065(10)
C6 0.050(6) 0.295(18) 0.050(7) -0.024(8) 0.005(5) 0.023(9)
C14 0.051(5) 0.262(14) 0.031(5) 0.015(7) 0.002(4) 0.031(8)
C15 0.044(6) 0.320(18) 0.054(7) 0.043(8) 0.003(5) 0.020(9)
O5 0.028(2) 0.174(5) 0.056(3) -0.001(3) -0.006(2) 0.000(3)
O1 0.080(7) 0.139(7) 0.102(9) 0.000 0.055(6) 0.000
loop_
_atom_type_symbol
_atom_type_description
_atom_type_scat_dispersion_real
_atom_type_scat_dispersion_imag
_atom_type_scat_source
C C 0.0181 0.0091 'International Tables Vol C Tables 4.2.6.8 and 6.1.1.4'
H H 0.0000 0.0000 'International Tables Vol C Tables 4.2.6.8 and 6.1.1.4'
N N 0.0311 0.0180 'International Tables Vol C Tables 4.2.6.8 and 6.1.1.4'
O O 0.0492 0.0322 'International Tables Vol C Tables 4.2.6.8 and 6.1.1.4'
Zr Zr -0.1862 2.2449 'International Tables Vol C Tables 4.2.6.8 and 6.1.1.4'
loop_
_geom_angle_atom_site_label_1
_geom_angle_atom_site_label_2
_geom_angle_atom_site_label_3
_geom_angle
_geom_angle_site_symmetry_1
_geom_angle_site_symmetry_3
Zr2 Zr1 Zr2 60.88(5) 8_465 3_455
Zr2 Zr1 Zr2 91.65(4) 4_656 8_465
Zr2 Zr1 Zr2 91.65(4) 7_666 3_455
Zr2 Zr1 Zr2 61.01(3) 7_666 8_465
Zr2 Zr1 Zr2 61.01(3) 4_656 3_455
Zr2 Zr1 Zr2 60.90(5) 7_666 4_656
O4 Zr1 Zr2 74.85(17) 4_656 4_656
O4 Zr1 Zr2 74.85(17) 7_666 7_666
O4 Zr1 Zr2 166.50(18) 4_656 8_465
O4 Zr1 Zr2 166.50(18) 7_666 3_455
O4 Zr1 Zr2 111.00(17) 4_656 7_666
O4 Zr1 Zr2 111.00(17) 7_666 4_656
O4 Zr1 Zr2 110.7(2) 7_666 8_465
O4 Zr1 Zr2 110.7(2) 4_656 3_455
O4 Zr1 O4 75.4(4) 7_666 4_656
O4 Zr1 O3 79.9(3) 4_656 7_666
O4 Zr1 O3 79.9(3) 7_666 7_666
O6 Zr1 Zr2 166.8(2) . 4_656
O6 Zr1 Zr2 110.8(2) . 3_455
O6 Zr1 Zr2 75.18(19) . 8_465
O6 Zr1 Zr2 111.3(2) . 7_666
O6 Zr1 Zr2 110.8(2) 6_575 8_465
O6 Zr1 Zr2 75.18(19) 6_575 3_455
O6 Zr1 Zr2 111.3(2) 6_575 4_656
O6 Zr1 Zr2 166.8(2) 6_575 7_666
O6 Zr1 O4 74.8(3) 6_575 4_656
O6 Zr1 O4 118.3(3) . 4_656
O6 Zr1 O4 118.3(3) 6_575 7_666
O6 Zr1 O4 74.8(3) . 7_666
O6 Zr1 O6 74.1(5) . 6_575
O6 Zr1 O3 142.9(2) . 7_666
O6 Zr1 O3 142.9(2) 6_575 7_666
O6 Zr1 O1 78.6(3) . 3_455
O6 Zr1 O1 78.6(3) 6_575 3_455
O2 Zr1 Zr2 30.60(8) 4_656 4_656
O2 Zr1 Zr2 37.0(2) 4_656 3_455
O2 Zr1 Zr2 85.86(18) 7_666 4_656
O2 Zr1 Zr2 89.4(3) 4_656 8_465
O2 Zr1 Zr2 85.86(18) 4_656 7_666
O2 Zr1 Zr2 89.4(3) 7_666 3_455
O2 Zr1 Zr2 37.0(2) 7_666 8_465
O2 Zr1 Zr2 30.60(8) 7_666 7_666
O2 Zr1 O4 139.3(2) 7_666 4_656
O2 Zr1 O4 139.3(2) 4_656 7_666
O2 Zr1 O4 78.9(3) 4_656 4_656
O2 Zr1 O4 78.9(3) 7_666 7_666
O2 Zr1 O6 83.7(3) 7_666 .
O2 Zr1 O6 145.9(2) 7_666 6_575
O2 Zr1 O6 83.7(3) 4_656 6_575
O2 Zr1 O6 145.9(2) 4_656 .
O2 Zr1 O2 102.2(5) 7_666 4_656
O2 Zr1 O3 64.9(2) 4_656 7_666
O2 Zr1 O3 64.9(2) 7_666 7_666
O2 Zr1 O1 71.7(3) 4_656 3_455
O2 Zr1 O1 71.7(3) 7_666 3_455
O3 Zr1 Zr2 34.43(16) 7_666 4_656
O3 Zr1 Zr2 89.2(3) 7_666 3_455
O3 Zr1 Zr2 89.2(3) 7_666 8_465
O3 Zr1 Zr2 34.43(17) 7_666 7_666
O1 Zr1 Zr2 35.12(17) 3_455 3_455
O1 Zr1 Zr2 90.5(3) 3_455 7_666
O1 Zr1 Zr2 90.5(3) 3_455 4_656
O1 Zr1 Zr2 35.12(17) 3_455 8_465
O1 Zr1 O4 142.1(2) 3_455 7_666
O1 Zr1 O4 142.1(2) 3_455 4_656
O1 Zr1 O3 107.5(5) 3_455 7_666
Zr1 Zr2 Zr1 88.35(4) 7_666 3_545
Zr1 Zr2 Zr2 59.56(2) 3_545 6_565
Zr1 Zr2 Zr2 59.51(3) 7_666 2_756
Zr1 Zr2 Zr2 59.48(3) 3_545 2_756
Zr1 Zr2 Zr2 59.55(2) 7_666 6_565
Zr2 Zr2 Zr2 90.0 6_565 2_756
O2 Zr2 Zr1 83.65(18) 2_756 7_666
O2 Zr2 Zr1 33.05(8) 2_756 3_545
O2 Zr2 Zr1 30.57(8) . 7_666
O2 Zr2 Zr1 86.5(3) . 3_545
O2 Zr2 Zr2 31.92(9) 2_756 2_756
O2 Zr2 Zr2 84.56(17) . 6_565
O2 Zr2 Zr2 85.06(17) 2_756 6_565
O2 Zr2 Zr2 35.6(2) . 2_756
O2 Zr2 O2 66.5(3) . 2_756
O2 Zr2 O7 142.6(3) . 8_565
O2 Zr2 O8 143.1(3) . .
O2 Zr2 O9 95.6(3) . .
O2 Zr2 O3 67.7(3) . .
O2 Zr2 O5 76.5(3) . .
O2 Zr2 O1 104.2(4) . .
O7 Zr2 Zr1 158.2(3) 8_565 7_666
O7 Zr2 Zr1 69.9(2) 8_565 3_545
O7 Zr2 Zr2 106.0(2) 8_565 6_565
O7 Zr2 Zr2 107.4(2) 8_565 2_756
O7 Zr2 O2 78.6(3) 8_565 2_756
O7 Zr2 O5 130.5(3) 8_565 .
O8 Zr2 Zr1 119.9(2) . 3_545
O8 Zr2 Zr1 118.5(2) . 7_666
O8 Zr2 Zr2 177.6(2) . 2_756
O8 Zr2 Zr2 87.8(2) . 6_565
O8 Zr2 O2 148.5(2) . 2_756
O8 Zr2 O7 74.0(3) . 8_565
O8 Zr2 O9 92.3(3) . .
O8 Zr2 O5 71.3(3) . .
O9 Zr2 Zr1 120.2(2) . 3_545
O9 Zr2 Zr1 120.6(2) . 7_666
O9 Zr2 Zr2 89.95(19) . 2_756
O9 Zr2 Zr2 179.7(2) . 6_565
O9 Zr2 O2 94.7(3) . 2_756
O9 Zr2 O7 73.7(3) . 8_565
O9 Zr2 O5 73.5(3) . .
O3 Zr2 Zr1 86.3(4) . 3_545
O3 Zr2 Zr1 37.3(3) . 7_666
O3 Zr2 Zr2 31.7(3) . 6_565
O3 Zr2 Zr2 90.2(4) . 2_756
O3 Zr2 O2 101.7(4) . 2_756
O3 Zr2 O7 135.5(4) . 8_565
O3 Zr2 O8 87.5(4) . .
O3 Zr2 O9 148.6(3) . .
O3 Zr2 O5 76.7(4) . .
O3 Zr2 O1 64.6(4) . .
O5 Zr2 Zr1 159.6(2) . 3_545
O5 Zr2 Zr1 71.2(2) . 7_666
O5 Zr2 Zr2 106.8(2) . 6_565
O5 Zr2 Zr2 108.56(18) . 2_756
O5 Zr2 O2 140.0(2) . 2_756
O1 Zr2 Zr1 87.8(3) . 7_666
O1 Zr2 Zr1 37.3(3) . 3_545
O1 Zr2 Zr2 32.9(3) . 6_565
O1 Zr2 Zr2 90.9(3) . 2_756
O1 Zr2 O2 70.0(3) . 2_756
O1 Zr2 O7 74.4(4) . 8_565
O1 Zr2 O8 87.7(4) . .
O1 Zr2 O9 146.8(3) . .
O1 Zr2 O5 136.7(4) . .
C1 O4 Zr1 134.0(7) . 7_666
C20 O6 Zr1 132.7(7) . .
Zr1 O2 Zr2 118.83(15) 7_666 .
Zr1 O2 Zr2 110.0(3) 7_666 2_756
Zr2 O2 Zr2 112.5(3) . 2_756
C20 O7 Zr2 139.5(10) . 8_465
Zr2 O3 Zr1 108.3(4) 6_565 7_666
Zr2 O3 Zr1 108.3(4) . 7_666
Zr2 O3 Zr2 116.7(6) 6_565 .
O6 C20 O7 122.7(11) . .
O6 C20 C17 113.6(11) . .
O7 C20 C17 123.2(12) . .
C4 C3 C2 120.4(11) . .
C3 C2 C1 124.2(11) . .
C7 C2 C3 116.7(11) . .
C7 C2 C1 119.1(12) . .
O4 C1 C2 116.0(11) . .
O4 C1 O5 123.2(10) . .
O5 C1 C2 120.7(12) . .
C4 C5 C8 129.0(12) . .
C4 C5 C6 114.7(11) . .
C6 C5 C8 116.1(12) . .
C18 C17 C20 123.3(11) . .
C16 C17 C20 120.3(12) . .
C16 C17 C18 116.1(11) . .
C18 C19 C14 122.3(13) . .
N1 N1 C10 113.1(13) 7_667 .
C19 C18 C17 121.4(11) . .
C3 C4 C5 126.0(12) . .
C12 C13 C8 124.5(11) . .
C10 C11 C12 116.6(10) . .
C2 C7 C6 120.0(12) . .
C13 C8 C5 123.1(10) . .
C13 C8 C9 117.3(11) . .
C9 C8 C5 119.0(10) . .
C17 C16 C15 122.4(13) . .
C13 C12 C11 119.1(11) . .
C13 C12 C14 123.2(10) . .
C11 C12 C14 117.5(10) . .
C10 C9 C8 118.7(10) . .
C11 C10 N1 122.7(10) . .
C9 C10 N1 114.1(11) . .
C9 C10 C11 123.2(10) . .
C5 C6 C7 122.2(12) . .
C19 C14 C12 126.4(13) . .
C19 C14 C15 118.3(11) . .
C15 C14 C12 115.3(11) . .
C16 C15 C14 119.3(12) . .
C1 O5 Zr2 136.4(8) . .
Zr2 O1 Zr1 107.6(4) . 3_545
Zr2 O1 Zr1 107.6(4) 6_565 3_545
Zr2 O1 Zr2 114.1(5) 6_565 .
loop_
_geom_bond_atom_site_label_1
_geom_bond_atom_site_label_2
_geom_bond_distance
_geom_bond_site_symmetry_2
Zr1 Zr2 3.4968(14) 7_666
Zr1 Zr2 3.4968(14) 4_656
Zr1 Zr2 3.4982(14) 3_455
Zr1 Zr2 3.4982(14) 8_465
Zr1 O4 2.228(8) 7_666
Zr1 O4 2.228(8) 4_656
Zr1 O6 2.194(8) 6_575
Zr1 O6 2.194(8) .
Zr1 O2 2.030(2) 7_666
Zr1 O2 2.030(2) 4_656
Zr1 O3 2.231(11) 7_666
Zr1 O1 2.222(10) 3_455
Zr2 Zr2 3.544(3) 6_565
Zr2 Zr2 3.5508(16) 2_756
Zr2 O2 2.238(7) 2_756
Zr2 O2 2.032(2) .
Zr2 O7 2.226(8) 8_565
Zr2 O8 2.198(7) .
Zr2 O9 2.208(10) .
Zr2 O3 2.082(6) .
Zr2 O5 2.232(7) .
Zr2 O1 2.112(7) .
O4 C1 1.184(14) .
O6 C20 1.235(14) .
O7 C20 1.240(13) .
C20 C17 1.475(15) .
C3 C2 1.440(16) .
C3 C4 1.306(15) .
C2 C1 1.447(15) .
C2 C7 1.383(15) .
C1 O5 1.314(13) .
C5 C4 1.374(15) .
C5 C8 1.473(15) .
C5 C6 1.398(18) .
C17 C18 1.447(17) .
C17 C16 1.388(16) .
C19 C18 1.362(15) .
C19 C14 1.383(15) .
N1 N1 1.27(2) 7_667
N1 C10 1.459(12) .
C13 C8 1.372(15) .
C13 C12 1.346(15) .
C11 C12 1.420(14) .
C11 C10 1.391(15) .
C7 C6 1.407(16) .
C8 C9 1.407(14) .
C16 C15 1.411(16) .
C12 C14 1.462(15) .
C9 C10 1.380(14) .
C14 C15 1.425(18) .
loop_
_smtbx_masks_void_nr
_smtbx_masks_void_average_x
_smtbx_masks_void_average_y
_smtbx_masks_void_average_z
_smtbx_masks_void_volume
_smtbx_masks_void_count_electrons
1 -0.980 -0.991 -0.753 8903.2 1858.8
