#------------------------------------------------------------------------------
#$Date: 2019-05-08 01:32:12 +0300 (Wed, 08 May 2019) $
#$Revision: 214980 $
#$URL: file:///home/coder/svn-repositories/cod/cif/1/55/09/1550990.cif $
#------------------------------------------------------------------------------
#
# This file is available in the Crystallography Open Database (COD),
# http://www.crystallography.net/
#
# All data on this site have been placed in the public domain by the
# contributors.
#
data_1550990
loop_
_publ_author_name
'Kim, Hyehyun'
'Kim, Dongwook'
'Moon, Dohyun'
'Choi, Yong Nam'
'Baek, Seung Bin'
'Lah, Myoung Soo'
_publ_section_title
;
 Symmetry-guided syntheses of mixed-linker Zr metal-organic frameworks
 with precise linker locations
;
_journal_name_full               'Chemical Science'
_journal_paper_doi               10.1039/C9SC01301F
_journal_year                    2019
_chemical_formula_sum            'C64 H38 N2 O32 Zr6'
_chemical_formula_weight         1894.28
_space_group_crystal_system      tetragonal
_space_group_IT_number           139
_space_group_name_Hall           '-I 4 2'
_space_group_name_H-M_alt        'I 4/m m m'
_symmetry_space_group_name_Hall  '-I 4 2'
_symmetry_space_group_name_H-M   'I 4/m m m'
_atom_sites_solution_hydrogens   geom
_audit_creation_method           SHELXL-2014/7
_audit_update_record
;
2019-02-08 deposited with the CCDC.    2019-05-07 downloaded from the CCDC.
;
_cell_angle_alpha                90
_cell_angle_beta                 90
_cell_angle_gamma                90
_cell_formula_units_Z            2
_cell_length_a                   14.872(2)
_cell_length_b                   14.872(2)
_cell_length_c                   26.123(5)
_cell_measurement_reflns_used    65222
_cell_measurement_temperature    250(2)
_cell_measurement_theta_max      33.459
_cell_measurement_theta_min      1.907
_cell_volume                     5777.8(16)
_computing_cell_refinement       HKL3000
_computing_data_collection       'PAL BL2D-SMDC Program'
_computing_data_reduction        HKL3000
_computing_molecular_graphics    ORTEP
_computing_publication_material  CIFTAB
_computing_structure_refinement  SHELXL
_computing_structure_solution    SHELXS
_diffrn_ambient_temperature      250(2)
_diffrn_measured_fraction_theta_full 0.999
_diffrn_measured_fraction_theta_max 0.868
_diffrn_measurement_device_type  'ADSC Q210 CCD area detector'
_diffrn_measurement_method       'omega scan'
_diffrn_radiation_type           synchrotron
_diffrn_radiation_wavelength     0.700
_diffrn_reflns_av_R_equivalents  0.0447
_diffrn_reflns_av_unetI/netI     0.0234
_diffrn_reflns_Laue_measured_fraction_full 0.999
_diffrn_reflns_Laue_measured_fraction_max 0.868
_diffrn_reflns_limit_h_max       20
_diffrn_reflns_limit_h_min       -20
_diffrn_reflns_limit_k_max       18
_diffrn_reflns_limit_k_min       -18
_diffrn_reflns_limit_l_max       36
_diffrn_reflns_limit_l_min       -36
_diffrn_reflns_number            34633
_diffrn_reflns_point_group_measured_fraction_full 0.999
_diffrn_reflns_point_group_measured_fraction_max 0.868
_diffrn_reflns_theta_full        24.835
_diffrn_reflns_theta_max         33.459
_diffrn_reflns_theta_min         1.907
_diffrn_source                   'PLSII 2D bending magnet'
_exptl_absorpt_coefficient_mu    0.547
_exptl_absorpt_correction_T_max  0.980
_exptl_absorpt_correction_T_min  0.976
_exptl_absorpt_correction_type   multi-scan
_exptl_absorpt_process_details   HKL3000
_exptl_crystal_colour            colorless
_exptl_crystal_density_diffrn    1.089
_exptl_crystal_description       block
_exptl_crystal_F_000             1864
_exptl_crystal_size_max          0.044
_exptl_crystal_size_mid          0.040
_exptl_crystal_size_min          0.038
_refine_diff_density_max         2.066
_refine_diff_density_min         -2.100
_refine_diff_density_rms         0.158
_refine_ls_extinction_coef       0.0082(9)
_refine_ls_extinction_expression Fc^*^=kFc[1+0.001xFc^2^\l^3^/sin(2\q)]^-1/4^
_refine_ls_extinction_method     'SHELXL-2014/7 (Sheldrick 2014'
_refine_ls_goodness_of_fit_ref   1.110
_refine_ls_hydrogen_treatment    constr
_refine_ls_matrix_type           full
_refine_ls_number_parameters     89
_refine_ls_number_reflns         2908
_refine_ls_number_restraints     97
_refine_ls_restrained_S_all      1.170
_refine_ls_R_factor_all          0.0758
_refine_ls_R_factor_gt           0.0644
_refine_ls_shift/su_max          0.001
_refine_ls_shift/su_mean         0.000
_refine_ls_structure_factor_coef Fsqd
_refine_ls_weighting_details
'w=1/[\s^2^(Fo^2^)+(0.1347P)^2^+10.0057P] where P=(Fo^2^+2Fc^2^)/3'
_refine_ls_weighting_scheme      calc
_refine_ls_wR_factor_gt          0.1924
_refine_ls_wR_factor_ref         0.2032
_reflns_Friedel_coverage         0.000
_reflns_number_gt                2344
_reflns_number_total             2908
_reflns_threshold_expression     'I > 2\s(I)'
_cod_data_source_file            c9sc01301f2.cif
_cod_data_source_block           P17_025ttg_sq
_cod_depositor_comments
;
The following automatic conversions were performed:

'_exptl_absorpt_correction_type' value 'Multi-scan' changed to
'multi-scan' according to
/home/data/users/saulius/crontab/automatic-downloads/rss-feeds/RSC/lib/dictionaries/cif_core.dic
dictionary named 'cif_core.dic' version 2.4.2 from 2011-04-26.

Automatic conversion script
Id: cif_fix_values 4973 2017-02-22 13:04:09Z antanas 
;
_cod_original_cell_volume        5778(2)
_cod_database_code               1550990
_shelx_shelxl_version_number     2014/7
_shelx_space_group_comment
;
The symmetry employed for this shelxl refinement is uniquely defined
by the following loop, which should always be used as a source of
symmetry information in preference to the above space-group names.
They are only intended as comments.
;
_shelx_res_file
;

    P17_025ttg_sq.res created by SHELXL-2014/7


TITL P17_025ttg in I4/mmm
CELL 0.70000  14.8725  14.8725  26.1231  90.000  90.000  90.000
ZERR    2.00   0.0021   0.0021   0.0052   0.000   0.000   0.000
LATT 2
SYMM -X, -Y, Z
SYMM -Y, X, Z
SYMM Y, -X, Z
SYMM -X, Y, -Z
SYMM X, -Y, -Z
SYMM Y, X, -Z
SYMM -Y, -X, -Z
SFAC C  H  N  O  Zr
DISP C          0.0030         0.0016          10.98
DISP N          0.0059         0.0032          18.71
DISP O          0.0105         0.0059          30.82
DISP Zr        -3.5084         0.5477        2341.16
UNIT 128 76 4 64 12
L.S. 12 0   23
ACTA
BOND
FMAP 2
PLAN 20
CONF
SIZE 0.044 0.040 0.038
EADP C9A  C9B
EXYZ C9A  C9B
DFIX 1.35 0.01 O3  C7
DFIX 1.50 0.01 C7   C8
DFIX 1.39 0.01 C8   C9A
DFIX 1.39 0.01 C8   C9B
DANG 2.45 0.01 O3  C8
DANG 2.45 0.01 C7   C9A
DANG 2.45 0.01 C7   C9B
DFIX 1.37 0.01 C9A  N1A
DANG 2.45 0.01 C8   N1A
DFIX 1.39 0.01 C9B  C9B_$10
EQIV  $9   -x+1, y, -z
EQIV  $10  x, -y, z
DELU 0.1  O3  C7   C8   C9A  C9B  N1A
SIMU 0.1  O3  C7   C8   C9A  C9B  N1A
ISOR 0.02 N1A
ISOR 0.1  O3  C9A  C9B
ISOR 0.05 O1M C7
TEMP -23
ABIN
WGHT    0.134700   10.005700
EXTI    0.008188
FVAR       0.10408
ZR1   5    0.381372    0.381372    0.000000    10.25000    0.03519    0.03519 =
         0.00817    0.00000    0.00000   -0.01065
ZR2   5    0.500000    0.500000    0.094016    10.12500    0.02676    0.02676 =
         0.00399    0.00000    0.00000    0.00000
O1M   4    0.500000    0.382755    0.045283    10.50000    0.03319    0.14736 =
         0.04890   -0.07217    0.00000    0.00000
O1    4    0.332917    0.332917    0.077218    10.50000    0.08106    0.08106 =
         0.01613    0.00572    0.00572   -0.04555
O2    4    0.410671    0.410671    0.136366    10.50000    0.04473    0.04473 =
         0.01854    0.00511    0.00511   -0.00975
C1    1    0.353657    0.353657    0.122903    10.50000    0.06261    0.06261 =
         0.01395    0.00721    0.00721   -0.02735
C2    1    0.241246    0.241246    0.153923    10.50000    0.16837    0.16837 =
         0.01528    0.00630    0.00630   -0.12601
AFIX  43
H2    2    0.227464    0.227464    0.119694    10.50000   -1.20000
AFIX   0
C3    1    0.305690    0.305690    0.164802    10.50000    0.08742    0.08742 =
         0.01841    0.00854    0.00854   -0.05232
C4    1    0.326695    0.326695    0.214337    10.50000    0.10949    0.10949 =
         0.02112    0.00556    0.00556   -0.07800
AFIX  43
H4    2    0.370553    0.370553    0.221254    10.50000   -1.20000
AFIX   0
C5    1    0.282568    0.282568    0.255183    10.50000    0.11271    0.11271 =
         0.01698    0.00654    0.00654   -0.07374
C6    1    0.303018    0.303018    0.306821    10.50000    0.18894    0.18894 =
         0.01836    0.00433    0.00433   -0.15617
AFIX  43
H6    2    0.346688    0.346688    0.314472    10.50000   -1.20000
AFIX   0
O3    4    0.405828    0.233505    0.000000    10.50000    0.21336    0.03256 =
         0.03748    0.00000    0.00000   -0.02670
C7    1    0.500000    0.195650    0.000000    10.25000    0.41559    0.08827 =
         0.43199    0.00000    0.00000    0.00000
C8    1    0.500000    0.096131    0.000000    10.25000    0.18799    0.06739 =
         0.48838    0.00000    0.00000    0.00000
PART 3
C9A   1    0.421480    0.047898    0.000000    10.12500    0.26535    0.17241 =
         0.60265    0.00000    0.00000   -0.14880
N1A   3    0.336243    0.085594    0.000000    10.12500    0.28148    0.24210 =
         0.36669    0.00000    0.00000   -0.00717
AFIX  93
H1A1  2    0.329983    0.143755    0.000000    10.12500   -1.20000
H1A2  2    0.289003    0.051092    0.000000    10.12500   -1.20000
PART 4
AFIX   0
C9B   1    0.421480    0.047898    0.000000    10.37500    0.26535    0.17241 =
         0.60265    0.00000    0.00000   -0.14880
AFIX  43
H9B   2    0.366318    0.078752    0.000000    10.37500   -1.20000
PART 0
AFIX   0
HKLF 4

REM  P17_025ttg in I4/mmm
REM R1 =  0.0644 for    2344 Fo > 4sig(Fo)  and  0.0758 for all    2908 data
REM     89 parameters refined using     97 restraints

END

WGHT      0.1347     10.0204

REM Highest difference peak  2.066,  deepest hole -2.100,  1-sigma level  0.158
Q1    1   0.5000  0.3686  0.0619  10.50000  0.05    1.55
Q2    1   0.3630  0.2475  0.0000  10.50000  0.05    1.42
Q3    1   0.5000  0.3916  0.0303  10.50000  0.05    1.30
Q4    1   0.5000  0.4070  0.0387  10.50000  0.05    1.22
Q5    1   0.2991  0.2991  0.0595  10.50000  0.05    0.89
Q6    1   0.2374  0.2190  0.0000  10.50000  0.05    0.81
Q7    1   0.4675  0.4675  0.0000  10.25000  0.05    0.78
Q8    1   0.5000  0.4841  0.0444  10.50000  0.05    0.76
Q9    1   0.5000  0.5000  0.1729  10.12500  0.05    0.74
Q10   1   0.5000  0.2625  0.0954  10.50000  0.05    0.69
Q11   1   0.4074  0.1834 -0.0369  11.00000  0.05    0.62
Q12   1   0.5000  0.4278  0.0741  10.50000  0.05    0.62
Q13   1   0.5000  0.5000  0.0155  10.12500  0.05    0.60
Q14   1   0.3124  0.1903  0.0000  10.50000  0.05    0.60
Q15   1   0.5000  0.3193  0.0838  10.50000  0.05    0.58
Q16   1   0.5000  0.5000  0.2360  10.12500  0.05    0.55
Q17   1   0.5283  0.3916  0.0000  10.50000  0.05    0.54
Q18   1   0.5000  0.4268  0.1154  10.50000  0.05    0.54
Q19   1   0.5000  0.1587  0.0595  10.50000  0.05    0.52
Q20   1   0.3775  0.2877  0.0000  10.50000  0.05    0.51
;
_shelx_res_checksum              87076
_shelx_fab_file
;
    0    0    4   -135.61      0.00
    0    0    6    -61.93      0.00
    0    0    8      3.12      0.00
    0    0   10     41.71      0.00
    0    0   12     44.59      0.00
    0    0   14     16.79      0.00
    0    0   16     -3.16      0.00
    0    0   18    -17.65      0.00
    0    0   20    -20.06      0.00
    0    0   22    -14.47      0.00
    0    0   24      7.97      0.00
    0    0   26     13.83      0.00
    0    0   28      9.06      0.00
    0    0   30      3.31      0.00
    0    0   32     -6.54      0.00
    0    0   34     -9.19      0.00
    0    0   36     -0.32      0.00
    0    1   35     -1.29      0.00
    0    1   33      0.71      0.00
    0    1   31      1.76      0.00
    0    1   29      0.45      0.00
    0    1   27     -0.71      0.00
    0    1   25     -2.68      0.00
    0    1   23     -0.67      0.00
    0    1   21      0.46      0.00
    0    1   19      2.51      0.00
    0    1   17      5.18      0.00
    0    1   15     -0.37      0.00
    0    1   13     -0.38      0.00
    0    1   11     -2.37      0.00
    0    1    9     -1.03      0.00
    0    1    7    -11.00      0.00
    0    1    5      9.05      0.00
    0    1    3     19.34      0.00
    0    2   36      0.82      0.00
    0    2   34     -2.10      0.00
    0    2   32     -0.08      0.00
    0    2   30      2.97      0.00
    0    2   28      1.82      0.00
    0    2   26      2.02      0.00
    0    2   24      0.29      0.00
    0    2   22     -2.51      0.00
    0    2   20      0.39      0.00
    0    2   18      0.32      0.00
    0    2   16     -2.31      0.00
    0    2   14      3.73      0.00
    0    2   12      9.69      0.00
    0    2   10     -4.55      0.00
    0    2    8     -3.35      0.00
    0    2    6     -2.78      0.00
    0    2    4    -31.14      0.00
    0    2    2    -77.68      0.00
    0    3   35      0.98      0.00
    0    3   33      3.84      0.00
    0    3   31      3.06      0.00
    0    3   29     -0.31      0.00
    0    3   27     -2.90      0.00
    0    3   25     -7.82      0.00
    0    3   23     -0.50      0.00
    0    3   21      6.51      0.00
    0    3   19      2.68      0.00
    0    3   17     10.00      0.00
    0    3   15      1.80      0.00
    0    3   13     -4.04      0.00
    0    3   11    -16.65      0.00
    0    3    9     -7.74      0.00
    0    3    7     -2.99      0.00
    0    3    5     16.47      0.00
    0    3    3     12.29      0.00
    0    3    1    -76.03      0.00
    0    4   36      6.20      0.00
    0    4   34     -0.09      0.00
    0    4   32     -2.35      0.00
    0    4   30     -4.81      0.00
    0    4   28     -4.74      0.00
    0    4   26     -1.96      0.00
    0    4   24      2.15      0.00
    0    4   22      5.24      0.00
    0    4   20      6.88      0.00
    0    4   18      3.87      0.00
    0    4   16     -2.70      0.00
    0    4   14     -9.61      0.00
    0    4   12    -13.65      0.00
    0    4   10      3.27      0.00
    0    4    8     20.97      0.00
    0    4    6     15.17      0.00
    0    4    4     -7.85      0.00
    0    4    2    -34.48      0.00
    0    5   35     -0.03      0.00
    0    5   33      1.53      0.00
    0    5   31     -2.12      0.00
    0    5   29     -1.42      0.00
    0    5   27      1.25      0.00
    0    5   25     -0.61      0.00
    0    5   23      2.23      0.00
    0    5   21     -0.29      0.00
    0    5   19     -3.87      0.00
    0    5   17      0.43      0.00
    0    5   15      1.24      0.00
    0    5   13      0.09      0.00
    0    5   11      4.18      0.00
    0    5    9     12.81      0.00
    0    5    7     -2.73      0.00
    0    5    5     -1.45      0.00
    0    5    3     11.28      0.00
    0    5    1     13.35      0.00
    0    6   36      1.04      0.00
    0    6   34     -3.01      0.00
    0    6   32     -0.08      0.00
    0    6   30      1.16      0.00
    0    6   28      1.62      0.00
    0    6   26      2.77      0.00
    0    6   24      0.80      0.00
    0    6   22     -4.13      0.00
    0    6   20      1.19      0.00
    0    6   18      1.07      0.00
    0    6   16     -0.14      0.00
    0    6   14     -5.27      0.00
    0    6   12     -3.92      0.00
    0    6   10     14.72      0.00
    0    6    8     10.82      0.00
    0    6    6     -6.02      0.00
    0    6    4     -6.76      0.00
    0    6    2     -5.96      0.00
    0    7   35     -3.32      0.00
    0    7   33      2.10      0.00
    0    7   31     -0.34      0.00
    0    7   29     -0.09      0.00
    0    7   27      6.20      0.00
    0    7   25     -3.46      0.00
    0    7   23     -2.00      0.00
    0    7   21     -0.42      0.00
    0    7   19      0.45      0.00
    0    7   17     -0.43      0.00
    0    7   15      1.67      0.00
    0    7   13     -0.18      0.00
    0    7   11     -1.21      0.00
    0    7    9     -1.81      0.00
    0    7    7     -5.10      0.00
    0    7    5     -3.69      0.00
    0    7    3     -2.94      0.00
    0    8   34     -1.47      0.00
    0    8   32      1.80      0.00
    0    8   30      1.94      0.00
    0    8   28     -0.03      0.00
    0    8   26     -1.60      0.00
    0    8   24      0.10      0.00
    0    8   22     -1.93      0.00
    0    8   20      0.41      0.00
    0    8   18      1.10      0.00
    0    8   16      1.49      0.00
    0    8   14     -1.08      0.00
    0    8   12     -4.48      0.00
    0    8   10     -2.18      0.00
    0    8    8      0.73      0.00
    0    8    6     -1.95      0.00
    0    8    4     -5.52      0.00
    0    9   35     -2.24      0.00
    0    9   33      1.37      0.00
    0    9   31     -2.23      0.00
    0    9   29     -0.35      0.00
    0    9   27      2.74      0.00
    0    9   25      2.06      0.00
    0    9   23      0.94      0.00
    0    9   21     -2.51      0.00
    0    9   19     -3.30      0.00
    0    9   17     -1.04      0.00
    0    9   15      1.79      0.00
    0    9   13      4.66      0.00
    0    9   11      0.49      0.00
    0    9    9      1.78      0.00
    0    9    7     -0.07      0.00
    0    9    5     -5.25      0.00
    0    9    3      0.86      0.00
    0   10   34     -5.09      0.00
    0   10   32     -1.07      0.00
    0   10   30      2.34      0.00
    0   10   28      1.54      0.00
    0   10   26      2.80      0.00
    0   10   24     -0.10      0.00
    0   10   22      0.08      0.00
    0   10   20     -1.33      0.00
    0   10   18     -0.67      0.00
    0   10   16     -0.02      0.00
    0   10   14      1.99      0.00
    0   10   12      4.02      0.00
    0   10   10      1.17      0.00
    0   10    8      1.21      0.00
    0   10    6     -0.59      0.00
    0   11   35     -7.22      0.00
    0   11   33      2.60      0.00
    0   11   31      2.24      0.00
    0   11   29      2.78      0.00
    0   11   27     -0.15      0.00
    0   11   25     -0.68      0.00
    0   11   23      0.05      0.00
    0   11   21     -1.26      0.00
    0   11   19      0.35      0.00
    0   11   17     -0.50      0.00
    0   11   15      2.92      0.00
    0   11   13      2.04      0.00
    0   11   11     -3.18      0.00
    0   11    9     -2.26      0.00
    0   11    7     -3.44      0.00
    0   12   34      1.68      0.00
    0   12   32     -2.59      0.00
    0   12   30      2.39      0.00
    0   12   28      0.20      0.00
    0   12   26     -1.81      0.00
    0   12   24     -1.18      0.00
    0   12   22      0.28      0.00
    0   12   20      0.99      0.00
    0   12   18      0.89      0.00
    0   12   16      0.71      0.00
    0   12   14     -1.00      0.00
    0   12   12     -4.68      0.00
    0   12   10     -3.79      0.00
    0   12    8     -1.49      0.00
    0   12    6      2.23      0.00
    0   13   33      4.82      0.00
    0   13   31      0.21      0.00
    0   13   29     -2.88      0.00
    0   13   27     -2.64      0.00
    0   13   25      0.81      0.00
    0   13   23     -0.69      0.00
    0   13   21      2.16      0.00
    0   13   19      2.29      0.00
    0   13   17      0.22      0.00
    0   13   15     -0.45      0.00
    0   13   13     -3.67      0.00
    0   13   11     -3.87      0.00
    0   13    7      5.72      0.00
    0   13    9      1.73      0.00
    0   14   32      0.17      0.00
    0   14   30      5.87      0.00
    0   14   28     -4.52      0.00
    0   14   26      2.03      0.00
    0   14   24     -0.16      0.00
    0   14   22      1.31      0.00
    0   14   20     -3.15      0.00
    0   14   18      3.21      0.00
    0   14   16      2.24      0.00
    0   14   14      0.67      0.00
    0   14   12      0.56      0.00
    0   14   10      4.23      0.00
    0   15   29     -5.18      0.00
    0   15   27     -2.63      0.00
    0   15   25      6.90      0.00
    0   15   23     -0.26      0.00
    0   15   21     -0.35      0.00
    0   15   19      0.49      0.00
    0   15   17      1.87      0.00
    0   15   15     -2.61      0.00
    0   15   13      2.39      0.00
    0   15   11      1.71      0.00
    0   15   31     14.97      0.00
    0   16   26      5.28      0.00
    0   16   24      0.39      0.00
    0   16   22     -0.67      0.00
    0   16   20     -0.33      0.00
    0   16   18      0.25      0.00
    0   16   16     -5.33      0.00
    0   16   12     -1.62      0.00
    0   16   14      3.18      0.00
    0   16   28      1.39      0.00
    0   17   21      2.57      0.00
    0   17   19     -1.71      0.00
    0   17   15     -3.53      0.00
    0   17   17     -1.64      0.00
    0   17   23      1.64      0.00
    0   18   16      0.64      0.00
    0   18   18      1.88      0.00
    0   18   20    -16.10      0.00
    1   18   19     -0.65      0.00
    1   18   17      0.58      0.00
    1   17   24     -0.24      0.00
    1   17   22     -2.03      0.00
    1   17   20      0.41      0.00
    1   17   18      0.75      0.00
    1   17   16     -0.42      0.00
    1   17   14     -3.17      0.00
    1   16   27     12.30      0.00
    1   16   25     -3.36      0.00
    1   16   23      0.65      0.00
    1   16   21     -2.25      0.00
    1   16   19      0.79      0.00
    1   16   17      0.63      0.00
    1   16   15      0.42      0.00
    1   16   13     -1.93      0.00
    1   15   30      4.55      0.00
    1   15   28      1.10      0.00
    1   15   26      0.64      0.00
    1   15   24     -0.85      0.00
    1   15   22      0.63      0.00
    1   15   20     -0.34      0.00
    1   15   18      1.70      0.00
    1   15   16      0.83      0.00
    1   15   14      0.50      0.00
    1   15   12     -1.03      0.00
    1   15   10     -1.89      0.00
    1   14   31     -1.94      0.00
    1   14   29      6.59      0.00
    1   14   27     -0.53      0.00
    1   14   25     -1.63      0.00
    1   14   23     -1.15      0.00
    1   14   21     -0.02      0.00
    1   14   19     -0.18      0.00
    1   14   17     -0.98      0.00
    1   14   15      2.43      0.00
    1   14   13      3.59      0.00
    1   14   11     -0.71      0.00
    1   14    9     -1.02      0.00
    1   13   32     -1.39      0.00
    1   13   30     -2.28      0.00
    1   13   28      0.81      0.00
    1   13   26      0.86      0.00
    1   13   24      0.69      0.00
    1   13   22     -0.96      0.00
    1   13   20      0.47      0.00
    1   13   18     -1.63      0.00
    1   13   16     -2.85      0.00
    1   13   14      1.69      0.00
    1   13   12      2.36      0.00
    1   13   10      2.13      0.00
    1   13    8     -2.08      0.00
    1   13   34      3.53      0.00
    1   12   33     -0.85      0.00
    1   12   31     -2.20      0.00
    1   12   29     -1.54      0.00
    1   12   27      1.33      0.00
    1   12   25      1.77      0.00
    1   12   23     -0.90      0.00
    1   12   21      2.46      0.00
    1   12   19     -3.14      0.00
    1   12   17     -1.14      0.00
    1   12   15     -1.21      0.00
    1   12   13      1.24      0.00
    1   12   11      2.93      0.00
    1   12    9      0.74      0.00
    1   12    7     -4.32      0.00
    1   11   34     -1.52      0.00
    1   11   32      2.83      0.00
    1   11   30      0.07      0.00
    1   11   28     -1.39      0.00
    1   11   26     -0.39      0.00
    1   11   24      0.22      0.00
    1   11   22      1.33      0.00
    1   11   20     -0.11      0.00
    1   11   18      0.90      0.00
    1   11   16     -0.26      0.00
    1   11   14      0.48      0.00
    1   11   12     -1.04      0.00
    1   11   10     -0.40      0.00
    1   11    8      0.94      0.00
    1   11    6     -0.55      0.00
    1   10   33     -0.82      0.00
    1   10   31      2.13      0.00
    1   10   29      0.05      0.00
    1   10   27     -1.38      0.00
    1   10   25     -1.44      0.00
    1   10   23      0.10      0.00
    1   10   21      2.94      0.00
    1   10   19      2.13      0.00
    1   10   17      0.98      0.00
    1   10   15     -1.61      0.00
    1   10   13     -3.27      0.00
    1   10   11     -2.41      0.00
    1   10    9      2.84      0.00
    1   10    7      3.91      0.00
    1   10    5      5.81      0.00
    1   10   35     -0.84      0.00
    1    9   34      0.49      0.00
    1    9   32     -1.08      0.00
    1    9   30      0.71      0.00
    1    9   28      0.21      0.00
    1    9   26      0.56      0.00
    1    9   24     -1.35      0.00
    1    9   22      0.02      0.00
    1    9   20      0.93      0.00
    1    9   18      0.30      0.00
    1    9   16      0.59      0.00
    1    9   14     -1.28      0.00
    1    9   12     -2.73      0.00
    1    9   10      0.51      0.00
    1    9    8      0.95      0.00
    1    9    6      1.69      0.00
    1    9    4      4.14      0.00
    1    8   35     -1.37      0.00
    1    8   33     -1.21      0.00
    1    8   31     -0.88      0.00
    1    8   29      0.28      0.00
    1    8   27      0.37      0.00
    1    8   25      1.20      0.00
    1    8   23     -0.49      0.00
    1    8   21     -0.08      0.00
    1    8   19      0.04      0.00
    1    8   17      0.37      0.00
    1    8   15     -1.51      0.00
    1    8   13     -0.99      0.00
    1    8   11     -0.93      0.00
    1    8    9      2.12      0.00
    1    8    7     -3.74      0.00
    1    8    5     -0.27      0.00
    1    8    3     -2.20      0.00
    1    7   34     -1.40      0.00
    1    7   32     -1.17      0.00
    1    7   30     -2.95      0.00
    1    7   28     -1.43      0.00
    1    7   26      4.23      0.00
    1    7   24      0.93      0.00
    1    7   22      2.32      0.00
    1    7   20     -2.22      0.00
    1    7   18     -0.94      0.00
    1    7   16     -0.11      0.00
    1    7   14     -0.53      0.00
    1    7   12     -0.06      0.00
    1    7   10     -0.93      0.00
    1    7    8      4.29      0.00
    1    7    6     -2.36      0.00
    1    7    4     -2.09      0.00
    1    7    2     -4.09      0.00
    1    7   36      3.48      0.00
    1    6   35     -0.52      0.00
    1    6   33      1.54      0.00
    1    6   31      1.63      0.00
    1    6   29     -1.29      0.00
    1    6   27     -0.87      0.00
    1    6   25      0.54      0.00
    1    6   23      2.52      0.00
    1    6   21     -1.27      0.00
    1    6   19      1.02      0.00
    1    6   17      1.47      0.00
    1    6   15     -2.20      0.00
    1    6   13     -0.74      0.00
    1    6   11     -2.05      0.00
    1    6    9      1.09      0.00
    1    6    7      9.67      0.00
    1    6    5      7.29      0.00
    1    6    3     -8.08      0.00
    1    6    1     -0.08      0.00
    1    5   36     -0.93      0.00
    1    5   34     -0.40      0.00
    1    5   32      4.02      0.00
    1    5   30      2.45      0.00
    1    5   28     -0.09      0.00
    1    5   26     -0.23      0.00
    1    5   24     -3.29      0.00
    1    5   22     -0.09      0.00
    1    5   20     -1.15      0.00
    1    5   18      0.50      0.00
    1    5   16     -0.31      0.00
    1    5   14      5.90      0.00
    1    5   12      5.25      0.00
    1    5   10     -6.48      0.00
    1    5    8     -8.61      0.00
    1    5    6      8.11      0.00
    1    5    4     15.10      0.00
    1    5    2     -4.42      0.00
    1    5    0      3.45      0.00
    1    4   35     -1.59      0.00
    1    4   33     -0.82      0.00
    1    4   31     -0.37      0.00
    1    4   29      1.48      0.00
    1    4   27      0.99      0.00
    1    4   25      1.38      0.00
    1    4   23     -1.97      0.00
    1    4   21     -2.56      0.00
    1    4   19      2.38      0.00
    1    4   17     -2.01      0.00
    1    4   15     -3.08      0.00
    1    4   13      5.79      0.00
    1    4   11      6.68      0.00
    1    4    9     -4.10      0.00
    1    4    7     -2.10      0.00
    1    4    5     -1.01      0.00
    1    4    3    -21.66      0.00
    1    4    1     15.94      0.00
    1    3   36      1.11      0.00
    1    3   34     -1.99      0.00
    1    3   32     -1.67      0.00
    1    3   30      1.88      0.00
    1    3   28      2.26      0.00
    1    3   26      3.39      0.00
    1    3   24      1.19      0.00
    1    3   22     -4.19      0.00
    1    3   20     -4.46      0.00
    1    3   18     -5.24      0.00
    1    3   16      1.14      0.00
    1    3   14      6.38      0.00
    1    3   12      5.55      0.00
    1    3   10     16.37      0.00
    1    3    8     -3.89      0.00
    1    3    6    -28.33      0.00
    1    3    4    -21.76      0.00
    1    3    2    -21.56      0.00
    1    3    0     52.08      0.00
    1    2   35     -0.06      0.00
    1    2   33     -1.76      0.00
    1    2   31     -2.76      0.00
    1    2   29      0.14      0.00
    1    2   27      2.19      0.00
    1    2   25      4.56      0.00
    1    2   23      0.80      0.00
    1    2   21     -1.56      0.00
    1    2   19     -2.04      0.00
    1    2   17     -3.59      0.00
    1    2   15     -2.72      0.00
    1    2   13      1.43      0.00
    1    2   11     11.01      0.00
    1    2    9      8.08      0.00
    1    2    7     -2.03      0.00
    1    2    5    -13.94      0.00
    1    2    3    -45.84      0.00
    1    2    1     31.80      0.00
    1    1   36      2.19      0.00
    1    1   34      2.79      0.00
    1    1   32      1.99      0.00
    1    1   30     -2.05      0.00
    1    1   28     -6.37      0.00
    1    1   26     -5.15      0.00
    1    1   24     -2.45      0.00
    1    1   22      6.51      0.00
    1    1   20     11.25      0.00
    1    1   18      8.17      0.00
    1    1   16      3.29      0.00
    1    1   14    -10.69      0.00
    1    1   12    -24.96      0.00
    1    1   10     -5.24      0.00
    1    1    8      5.13      0.00
    1    1    6      1.56      0.00
    1    1    4     78.27      0.00
    1    1    2     56.97      0.00
    1    1    0   -178.28      0.00
    2   18   20     -7.94      0.00
    2   18   18      2.09      0.00
    2   18   16      2.50      0.00
    2   17   23      1.22      0.00
    2   17   21      3.03      0.00
    2   17   19     -2.35      0.00
    2   17   17      1.72      0.00
    2   17   15      0.85      0.00
    2   17   13     -0.44      0.00
    2   16   28      6.43      0.00
    2   16   26      0.61      0.00
    2   16   24     -3.06      0.00
    2   16   22      0.50      0.00
    2   16   20      2.17      0.00
    2   16   18      0.47      0.00
    2   16   16     -1.13      0.00
    2   16   14      2.73      0.00
    2   16   12     -0.09      0.00
    2   15   31      8.92      0.00
    2   15   29     -2.65      0.00
    2   15   27      0.02      0.00
    2   15   25      0.79      0.00
    2   15   23     -0.98      0.00
    2   15   21     -0.52      0.00
    2   15   19     -1.86      0.00
    2   15   17      1.80      0.00
    2   15   15     -0.49      0.00
    2   15   13     -0.63      0.00
    2   15   11      0.92      0.00
    2   15    9      0.50      0.00
    2   14   32     -0.28      0.00
    2   14   30      0.41      0.00
    2   14   28     -0.37      0.00
    2   14   26     -0.12      0.00
    2   14   24     -1.76      0.00
    2   14   22      1.32      0.00
    2   14   20     -2.93      0.00
    2   14   18     -0.35      0.00
    2   14   16      0.61      0.00
    2   14   14     -0.75      0.00
    2   14   12     -2.69      0.00
    2   14   10     -0.91      0.00
    2   13   31     -3.13      0.00
    2   13   29     -1.08      0.00
    2   13   27     -0.82      0.00
    2   13   25     -1.27      0.00
    2   13   23     -0.07      0.00
    2   13   21      0.66      0.00
    2   13   19     -0.61      0.00
    2   13   17      1.30      0.00
    2   13   15      0.31      0.00
    2   13   13     -2.27      0.00
    2   13   11     -1.98      0.00
    2   13    9      0.08      0.00
    2   13    7      0.88      0.00
    2   13   33      6.69      0.00
    2   12   32      1.24      0.00
    2   12   30     -1.58      0.00
    2   12   28     -1.71      0.00
    2   12   26     -0.82      0.00
    2   12   24     -1.19      0.00
    2   12   22      1.82      0.00
    2   12   20      2.09      0.00
    2   12   18     -1.02      0.00
    2   12   16      0.59      0.00
    2   12   14      1.70      0.00
    2   12   12     -0.80      0.00
    2   12   10     -0.78      0.00
    2   12    8      2.50      0.00
    2   12    6      2.73      0.00
    2   12   34      5.65      0.00
    2   11   33      2.57      0.00
    2   11   31     -0.03      0.00
    2   11   29      0.28      0.00
    2   11   27     -0.24      0.00
    2   11   25     -0.55      0.00
    2   11   23     -0.70      0.00
    2   11   21     -0.56      0.00
    2   11   19      0.37      0.00
    2   11   17      0.31      0.00
    2   11   15      0.86      0.00
    2   11   13      1.62      0.00
    2   11   11      1.20      0.00
    2   11    9      0.48      0.00
    2   11    7     -1.00      0.00
    2   11    5      1.40      0.00
    2   11    3      3.21      0.00
    2   10   34     -1.30      0.00
    2   10   32      0.73      0.00
    2   10   30     -1.07      0.00
    2   10   28     -0.27      0.00
    2   10   26      3.20      0.00
    2   10   24     -1.93      0.00
    2   10   22      0.82      0.00
    2   10   20     -1.00      0.00
    2   10   18     -1.18      0.00
    2   10   16     -2.73      0.00
    2   10   14     -0.28      0.00
    2   10   12      2.86      0.00
    2   10   10      0.47      0.00
    2   10    8     -1.94      0.00
    2   10    6     -3.01      0.00
    2   10    4     -0.16      0.00
    2   10    2     -1.60      0.00
    2    9   33      0.92      0.00
    2    9   31     -0.05      0.00
    2    9   29     -0.60      0.00
    2    9   27     -1.31      0.00
    2    9   25      1.50      0.00
    2    9   23      0.03      0.00
    2    9   21     -1.02      0.00
    2    9   19      0.50      0.00
    2    9   17      0.09      0.00
    2    9   15     -1.27      0.00
    2    9   13     -0.35      0.00
    2    9   11     -2.85      0.00
    2    9    9     -0.73      0.00
    2    9    7      0.14      0.00
    2    9    5     -0.31      0.00
    2    9    3     -2.90      0.00
    2    9    1     -1.99      0.00
    2    9   35      0.26      0.00
    2    8   34      1.31      0.00
    2    8   32      1.17      0.00
    2    8   30     -0.80      0.00
    2    8   28     -0.50      0.00
    2    8   26     -0.87      0.00
    2    8   24     -1.54      0.00
    2    8   22      0.89      0.00
    2    8   20      0.46      0.00
    2    8   18      1.36      0.00
    2    8   16      0.54      0.00
    2    8   14      1.98      0.00
    2    8   12      0.88      0.00
    2    8   10     -3.20      0.00
    2    8    8     -1.79      0.00
    2    8    6      2.53      0.00
    2    8    4      5.51      0.00
    2    8    2     -1.58      0.00
    2    8    0     -2.26      0.00
    2    7   35     -0.53      0.00
    2    7   33     -1.09      0.00
    2    7   31      1.22      0.00
    2    7   29     -0.90      0.00
    2    7   27      0.63      0.00
    2    7   25     -1.66      0.00
    2    7   23     -1.70      0.00
    2    7   21      0.13      0.00
    2    7   19      2.95      0.00
    2    7   17      2.20      0.00
    2    7   15      1.52      0.00
    2    7   13      0.37      0.00
    2    7   11     -1.55      0.00
    2    7    9      2.07      0.00
    2    7    7     -0.16      0.00
    2    7    5      7.66      0.00
    2    7    3     -0.46      0.00
    2    7    1     -0.13      0.00
    2    6   34     -1.08      0.00
    2    6   32      1.03      0.00
    2    6   30      1.26      0.00
    2    6   28      1.46      0.00
    2    6   26      1.42      0.00
    2    6   24     -1.75      0.00
    2    6   22     -1.28      0.00
    2    6   20     -1.43      0.00
    2    6   18     -1.82      0.00
    2    6   16      1.32      0.00
    2    6   14      5.09      0.00
    2    6   12      6.18      0.00
    2    6   10      0.94      0.00
    2    6    8     -8.06      0.00
    2    6    6    -12.56      0.00
    2    6    4      3.85      0.00
    2    6    2      1.28      0.00
    2    6    0     -0.52      0.00
    2    6   36      0.08      0.00
    2    5   35      1.09      0.00
    2    5   33     -0.88      0.00
    2    5   31     -1.13      0.00
    2    5   29      0.92      0.00
    2    5   27      1.35      0.00
    2    5   25      3.06      0.00
    2    5   23      1.64      0.00
    2    5   21     -0.73      0.00
    2    5   19     -3.87      0.00
    2    5   17     -0.51      0.00
    2    5   15     -1.10      0.00
    2    5   13      1.92      0.00
    2    5   11      0.25      0.00
    2    5    9      5.21      0.00
    2    5    7    -11.05      0.00
    2    5    5    -14.40      0.00
    2    5    3     -6.17      0.00
    2    5    1      5.18      0.00
    2    4   36      2.99      0.00
    2    4   34      1.43      0.00
    2    4   32      0.71      0.00
    2    4   30     -0.97      0.00
    2    4   28     -1.09      0.00
    2    4   26     -0.48      0.00
    2    4   24      0.71      0.00
    2    4   22      3.01      0.00
    2    4   20     -1.19      0.00
    2    4   18     -0.05      0.00
    2    4   16     -1.13      0.00
    2    4   14      0.71      0.00
    2    4   12     -3.91      0.00
    2    4   10     -2.86      0.00
    2    4    8     -2.54      0.00
    2    4    6      1.06      0.00
    2    4    4     14.77      0.00
    2    4    2     -0.25      0.00
    2    4    0    -16.94      0.00
    2    3   35      0.35      0.00
    2    3   33      0.03      0.00
    2    3   31     -0.29      0.00
    2    3   29      0.21      0.00
    2    3   27     -1.00      0.00
    2    3   25     -1.60      0.00
    2    3   23     -0.76      0.00
    2    3   21      2.44      0.00
    2    3   19     -2.92      0.00
    2    3   17      1.59      0.00
    2    3   15     -1.70      0.00
    2    3   13     -0.89      0.00
    2    3   11     -6.10      0.00
    2    3    9      1.93      0.00
    2    3    7     12.37      0.00
    2    3    5     23.45      0.00
    2    3    3     12.47      0.00
    2    3    1     -8.15      0.00
    2    2   36     -0.83      0.00
    2    2   34      0.42      0.00
    2    2   32      1.38      0.00
    2    2   30      1.41      0.00
    2    2   28     -1.12      0.00
    2    2   26     -2.57      0.00
    2    2   24     -3.76      0.00
    2    2   22     -0.63      0.00
    2    2   20      2.72      0.00
    2    2   18      5.21      0.00
    2    2   16     -3.53      0.00
    2    2   14     -0.11      0.00
    2    2   12     -0.87      0.00
    2    2   10    -15.26      0.00
    2    2    8     -1.87      0.00
    2    2    6     33.93      0.00
    2    2    4     56.10      0.00
    2    2    2     -3.82      0.00
    2    2    0    -77.23      0.00
    0    2    0    129.76      0.00
    2   14    8      0.92      0.00
    3   18   19      1.05      0.00
    3   18   17     -0.59      0.00
    3   18   15     -0.74      0.00
    3   17   24      4.99      0.00
    3   17   22     -1.03      0.00
    3   17   20     -0.48      0.00
    3   17   18      0.70      0.00
    3   17   16      0.06      0.00
    3   17   14      0.62      0.00
    3   16   27      0.65      0.00
    3   16   25     -1.50      0.00
    3   16   23      2.60      0.00
    3   16   21     -0.77      0.00
    3   16   19      0.84      0.00
    3   16   17      0.64      0.00
    3   16   15     -0.46      0.00
    3   16   13      2.14      0.00
    3   15   30      4.79      0.00
    3   15   28     -3.74      0.00
    3   15   26     -2.12      0.00
    3   15   24      0.47      0.00
    3   15   22     -0.71      0.00
    3   15   20      1.37      0.00
    3   15   18     -1.78      0.00
    3   15   16      0.66      0.00
    3   15   14     -1.09      0.00
    3   15   12     -1.51      0.00
    3   15   10     -0.74      0.00
    3   15    8      0.10      0.00
    3   14   31      0.45      0.00
    3   14   29      2.80      0.00
    3   14   27     -3.44      0.00
    3   14   25      1.73      0.00
    3   14   23     -0.43      0.00
    3   14   21     -0.34      0.00
    3   14   19     -0.28      0.00
    3   14   17     -3.36      0.00
    3   14   15     -0.55      0.00
    3   14   13     -0.42      0.00
    3   14   11     -1.81      0.00
    3   14    9     -1.63      0.00
    3   14    7     -1.03      0.00
    3   13   32      1.55      0.00
    3   13   30     -0.44      0.00
    3   13   28      0.18      0.00
    3   13   26     -1.79      0.00
    3   13   24      0.96      0.00
    3   13   22     -0.38      0.00
    3   13   20      0.15      0.00
    3   13   18     -0.64      0.00
    3   13   16      0.24      0.00
    3   13   14     -0.75      0.00
    3   13   12      0.36      0.00
    3   13   10      1.45      0.00
    3   13    8     -1.22      0.00
    3   13    6     -3.76      0.00
    3   13    4     -1.26      0.00
    3   12   33      0.59      0.00
    3   12   31     -0.18      0.00
    3   12   29      0.96      0.00
    3   12   27     -0.61      0.00
    3   12   25      0.52      0.00
    3   12   23     -1.09      0.00
    3   12   21      0.53      0.00
    3   12   19      0.78      0.00
    3   12   17     -0.18      0.00
    3   12   15      1.80      0.00
    3   12   13     -0.10      0.00
    3   12   11      1.08      0.00
    3   12    9      1.54      0.00
    3   12    7      1.25      0.00
    3   12    5      2.28      0.00
    3   12    3      0.02      0.00
    3   11   32      0.50      0.00
    3   11   30     -0.13      0.00
    3   11   28      0.99      0.00
    3   11   26     -1.49      0.00
    3   11   24     -0.66      0.00
    3   11   22     -0.29      0.00
    3   11   20     -0.65      0.00
    3   11   18      1.28      0.00
    3   11   16      1.73      0.00
    3   11   14     -0.04      0.00
    3   11   12     -1.58      0.00
    3   11   10     -0.60      0.00
    3   11    8      2.74      0.00
    3   11    6      2.56      0.00
    3   11    4      2.69      0.00
    3   11    2     -0.53      0.00
    3   11    0      4.35      0.00
    3   11   34      0.16      0.00
    3   10   33     -2.45      0.00
    3   10   31     -0.51      0.00
    3   10   29      1.83      0.00
    3   10   27      0.69      0.00
    3   10   25     -0.78      0.00
    3   10   23     -0.32      0.00
    3   10   21     -1.07      0.00
    3   10   19     -1.38      0.00
    3   10   17     -1.12      0.00
    3   10   15      1.04      0.00
    3   10   13      1.16      0.00
    3   10   11     -2.10      0.00
    3   10    9     -0.30      0.00
    3   10    7     -3.84      0.00
    3   10    5      1.25      0.00
    3   10    3      0.46      0.00
    3   10    1     -1.28      0.00
    3    9   34      1.03      0.00
    3    9   32     -1.39      0.00
    3    9   30      0.83      0.00
    3    9   28      0.72      0.00
    3    9   26      0.01      0.00
    3    9   24     -0.59      0.00
    3    9   22     -0.32      0.00
    3    9   20      1.00      0.00
    3    9   18     -1.70      0.00
    3    9   16      0.52      0.00
    3    9   14     -0.21      0.00
    3    9   12      0.23      0.00
    3    9   10     -0.59      0.00
    3    9    8     -1.92      0.00
    3    9    6     -2.09      0.00
    3    9    4     -0.62      0.00
    3    9    2     -4.68      0.00
    3    9    0      0.69      0.00
    3    8   33     -1.02      0.00
    3    8   31     -2.65      0.00
    3    8   29      0.50      0.00
    3    8   27      3.01      0.00
    3    8   25      0.51      0.00
    3    8   23      0.16      0.00
    3    8   21     -0.15      0.00
    3    8   19     -2.37      0.00
    3    8   17     -1.66      0.00
    3    8   15      0.72      0.00
    3    8   13      6.33      0.00
    3    8   11      3.35      0.00
    3    8    9      0.98      0.00
    3    8    7     -6.05      0.00
    3    8    5     -3.22      0.00
    3    8    3      4.12      0.00
    3    8    1      4.10      0.00
    3    8   35      0.22      0.00
    3    7   34     -1.11      0.00
    3    7   32      0.21      0.00
    3    7   30     -0.94      0.00
    3    7   28     -2.41      0.00
    3    7   26      0.91      0.00
    3    7   24      1.37      0.00
    3    7   22      0.68      0.00
    3    7   20     -0.31      0.00
    3    7   18      0.74      0.00
    3    7   16      0.30      0.00
    3    7   14     -1.48      0.00
    3    7   12     -0.79      0.00
    3    7   10      2.43      0.00
    3    7    8      5.45      0.00
    3    7    6      2.58      0.00
    3    7    4     -0.65      0.00
    3    7    2     -0.26      0.00
    3    7    0     13.46      0.00
    3    6   35     -1.82      0.00
    3    6   33      3.18      0.00
    3    6   31      1.12      0.00
    3    6   29     -1.01      0.00
    3    6   27     -2.56      0.00
    3    6   25     -2.08      0.00
    3    6   23      1.92      0.00
    3    6   21      0.67      0.00
    3    6   19     -0.77      0.00
    3    6   17      1.19      0.00
    3    6   15      0.95      0.00
    3    6   13      3.18      0.00
    3    6   11     -4.91      0.00
    3    6    9     -5.97      0.00
    3    6    7      0.66      0.00
    3    6    5      3.65      0.00
    3    6    3     -3.44      0.00
    3    6    1     -0.89      0.00
    3    5   34     -1.11      0.00
    3    5   32      0.83      0.00
    3    5   30     -0.11      0.00
    3    5   28     -1.67      0.00
    3    5   26     -0.49      0.00
    3    5   24      0.27      0.00
    3    5   22      1.04      0.00
    3    5   20      4.63      0.00
    3    5   18      4.19      0.00
    3    5   16     -3.43      0.00
    3    5   14     -2.88      0.00
    3    5   12     -5.74      0.00
    3    5   10     -7.51      0.00
    3    5    8     -2.59      0.00
    3    5    6     12.74      0.00
    3    5    4     -0.97      0.00
    3    5    2    -18.80      0.00
    3    5    0     -5.30      0.00
    3    5   36      0.85      0.00
    3    4   35     -0.88      0.00
    3    4   33      1.10      0.00
    3    4   31      1.09      0.00
    3    4   29      1.07      0.00
    3    4   27     -0.39      0.00
    3    4   25     -1.31      0.00
    3    4   23     -0.62      0.00
    3    4   21      1.15      0.00
    3    4   19      0.62      0.00
    3    4   17      1.48      0.00
    3    4   15      0.24      0.00
    3    4   13      3.94      0.00
    3    4   11     -3.92      0.00
    3    4    9    -10.92      0.00
    3    4    7     -1.60      0.00
    3    4    5     12.37      0.00
    3    4    3      2.01      0.00
    3    4    1     -2.48      0.00
    3    3   36      1.80      0.00
    3    3   34     -3.28      0.00
    3    3   32     -3.30      0.00
    3    3   30      1.31      0.00
    3    3   28      0.98      0.00
    3    3   26      2.19      0.00
    3    3   24      1.62      0.00
    3    3   22     -2.98      0.00
    3    3   20      0.68      0.00
    3    3   18     -3.61      0.00
    3    3   16     -2.57      0.00
    3    3   14      1.47      0.00
    3    3   12     -0.85      0.00
    3    3   10      4.68      0.00
    3    3    8      6.80      0.00
    3    3    6     12.38      0.00
    3    3    4     -3.39      0.00
    3    3    2     -5.34      0.00
    3    3    0     63.56      0.00
    3   10   35      1.28      0.00
    3   16   11     -0.69      0.00
    4   18   18      2.23      0.00
    4   18   16      0.52      0.00
    4   18   14     -0.57      0.00
    4   17   23     -4.49      0.00
    4   17   21      0.33      0.00
    4   17   19      1.37      0.00
    4   17   17      1.27      0.00
    4   17   15      0.72      0.00
    4   17   13      0.49      0.00
    4   17   11      0.58      0.00
    4   16   26      2.87      0.00
    4   16   24     -3.61      0.00
    4   16   22     -1.04      0.00
    4   16   20     -0.37      0.00
    4   16   18      0.85      0.00
    4   16   16     -1.27      0.00
    4   16   14      2.34      0.00
    4   16   12      2.19      0.00
    4   16   10     -1.14      0.00
    4   15   29     -1.17      0.00
    4   15   27      1.58      0.00
    4   15   25      0.45      0.00
    4   15   23     -3.23      0.00
    4   15   21      0.17      0.00
    4   15   19      0.95      0.00
    4   15   17      0.16      0.00
    4   15   15     -1.10      0.00
    4   15   13     -0.55      0.00
    4   15   11      0.50      0.00
    4   15    9      1.17      0.00
    4   15    7     -1.09      0.00
    4   14   30      1.92      0.00
    4   14   28      0.54      0.00
    4   14   26      3.53      0.00
    4   14   24      0.68      0.00
    4   14   22     -0.78      0.00
    4   14   20     -1.55      0.00
    4   14   18      1.33      0.00
    4   14   16     -1.36      0.00
    4   14   14     -0.05      0.00
    4   14   12     -0.57      0.00
    4   14   10      0.40      0.00
    4   14    8     -0.03      0.00
    4   14    6      0.06      0.00
    4   14    4      0.42      0.00
    4   13   31     -3.46      0.00
    4   13   29      2.52      0.00
    4   13   27     -1.09      0.00
    4   13   25      0.20      0.00
    4   13   23      0.23      0.00
    4   13   21      1.13      0.00
    4   13   19     -0.04      0.00
    4   13   17      0.72      0.00
    4   13   15      0.01      0.00
    4   13   13      0.32      0.00
    4   13   11     -0.96      0.00
    4   13    9     -0.60      0.00
    4   13    7     -0.06      0.00
    4   13    5      0.97      0.00
    4   13    3     -1.14      0.00
    4   13    1     -0.89      0.00
    4   13   33      2.94      0.00
    4   12   32     -1.43      0.00
    4   12   30      0.92      0.00
    4   12   28      0.45      0.00
    4   12   26      0.78      0.00
    4   12   24      0.29      0.00
    4   12   22     -0.84      0.00
    4   12   20      0.63      0.00
    4   12   18     -1.06      0.00
    4   12   16     -0.32      0.00
    4   12   14      1.28      0.00
    4   12   12      0.88      0.00
    4   12   10     -0.88      0.00
    4   12    8     -0.80      0.00
    4   12    6     -0.34      0.00
    4   12    4      1.58      0.00
    4   12    2     -2.45      0.00
    4   12    0     -2.18      0.00
    4   11   33     -0.67      0.00
    4   11   31      0.41      0.00
    4   11   29      0.14      0.00
    4   11   27     -0.19      0.00
    4   11   25     -0.22      0.00
    4   11   23      0.48      0.00
    4   11   21      1.66      0.00
    4   11   19     -0.48      0.00
    4   11   17     -1.35      0.00
    4   11   15     -2.36      0.00
    4   11   13     -0.03      0.00
    4   11   11      0.98      0.00
    4   11    9      2.11      0.00
    4   11    7     -0.88      0.00
    4   11    5     -0.56      0.00
    4   11    3     -0.91      0.00
    4   11    1      0.81      0.00
    4   10   32      0.63      0.00
    4   10   30      1.23      0.00
    4   10   28      1.07      0.00
    4   10   26      0.31      0.00
    4   10   24     -1.29      0.00
    4   10   22     -0.41      0.00
    4   10   20      0.04      0.00
    4   10   18      0.29      0.00
    4   10   16     -0.34      0.00
    4   10   14     -0.50      0.00
    4   10   12      1.90      0.00
    4   10   10     -0.86      0.00
    4   10    8      0.44      0.00
    4   10    6     -0.10      0.00
    4   10    4      0.28      0.00
    4   10    2     -0.04      0.00
    4   10    0      1.39      0.00
    4   10   34     -6.33      0.00
    4    9   33      1.75      0.00
    4    9   31      0.48      0.00
    4    9   29      0.44      0.00
    4    9   27     -1.35      0.00
    4    9   25     -1.05      0.00
    4    9   23      0.08      0.00
    4    9   21      1.02      0.00
    4    9   19      2.25      0.00
    4    9   17      1.12      0.00
    4    9   15     -2.29      0.00
    4    9   13     -0.05      0.00
    4    9   11     -1.21      0.00
    4    9    9      1.69      0.00
    4    9    7      3.04      0.00
    4    9    5      2.86      0.00
    4    9    3     -2.21      0.00
    4    9    1     -2.64      0.00
    4    8   34     -1.20      0.00
    4    8   32      1.37      0.00
    4    8   30      0.08      0.00
    4    8   28     -0.18      0.00
    4    8   26     -0.13      0.00
    4    8   24     -0.06      0.00
    4    8   22      0.58      0.00
    4    8   20     -0.42      0.00
    4    8   18      0.45      0.00
    4    8   16      0.56      0.00
    4    8   14     -0.90      0.00
    4    8   12     -0.79      0.00
    4    8   10     -0.88      0.00
    4    8    8      4.04      0.00
    4    8    6      0.64      0.00
    4    8    4      0.95      0.00
    4    8    2     -1.13      0.00
    4    8    0     -1.54      0.00
    4    7   33      0.17      0.00
    4    7   31      1.17      0.00
    4    7   29     -0.02      0.00
    4    7   27      0.82      0.00
    4    7   25     -1.21      0.00
    4    7   23     -0.63      0.00
    4    7   21      0.63      0.00
    4    7   19      0.43      0.00
    4    7   17     -1.08      0.00
    4    7   15     -2.89      0.00
    4    7   13     -0.15      0.00
    4    7   11     -0.08      0.00
    4    7    9      0.26      0.00
    4    7    7     -0.48      0.00
    4    7    5      5.21      0.00
    4    7    3     -2.94      0.00
    4    7    1      4.08      0.00
    4    7   35      1.24      0.00
    4    6   34     -0.64      0.00
    4    6   32      0.72      0.00
    4    6   30      0.94      0.00
    4    6   28      1.01      0.00
    4    6   26      1.23      0.00
    4    6   24     -2.78      0.00
    4    6   22     -0.89      0.00
    4    6   20     -1.27      0.00
    4    6   18     -1.86      0.00
    4    6   16      1.70      0.00
    4    6   14      0.71      0.00
    4    6   12      1.36      0.00
    4    6   10      2.03      0.00
    4    6    8     -3.52      0.00
    4    6    6     -8.53      0.00
    4    6    4      3.49      0.00
    4    6    2      9.97      0.00
    4    6    0     -0.23      0.00
    4    5   35     -1.85      0.00
    4    5   33     -1.20      0.00
    4    5   31     -1.84      0.00
    4    5   29      0.41      0.00
    4    5   27      1.58      0.00
    4    5   25      0.53      0.00
    4    5   23      0.24      0.00
    4    5   21      0.01      0.00
    4    5   19     -0.67      0.00
    4    5   17     -0.22      0.00
    4    5   15     -1.80      0.00
    4    5   13      3.71      0.00
    4    5   11      2.69      0.00
    4    5    9      1.57      0.00
    4    5    7     -5.88      0.00
    4    5    5     -3.47      0.00
    4    5    3      2.74      0.00
    4    5    1      4.21      0.00
    4    4   34     -0.78      0.00
    4    4   32      0.76      0.00
    4    4   30      0.94      0.00
    4    4   28      0.66      0.00
    4    4   26      0.43      0.00
    4    4   24     -0.55      0.00
    4    4   22      1.78      0.00
    4    4   20     -5.36      0.00
    4    4   18     -2.84      0.00
    4    4   16      4.93      0.00
    4    4   14      8.58      0.00
    4    4   12      2.97      0.00
    4    4   10      5.17      0.00
    4    4    8     -9.55      0.00
    4    4    6    -16.87      0.00
    4    4    4     -3.52      0.00
    4    4    2      5.70      0.00
    4    4    0     23.57      0.00
    0    4    0     22.09      0.00
    4    4   36     -1.93      0.00
    4    9   35     -5.91      0.00
    4   12   34      2.58      0.00
    4   14   32    -10.49      0.00
    5   18   17     -0.21      0.00
    5   18   15     -0.28      0.00
    5   18   13     -1.51      0.00
    5   17   22     -1.89      0.00
    5   17   20     -0.25      0.00
    5   17   18      1.32      0.00
    5   17   16     -0.10      0.00
    5   17   14     -0.13      0.00
    5   17   12     -1.42      0.00
    5   17   10     -0.88      0.00
    5   16   25     -1.14      0.00
    5   16   23     -0.92      0.00
    5   16   21     -0.83      0.00
    5   16   19     -0.97      0.00
    5   16   17      0.68      0.00
    5   16   15      0.96      0.00
    5   16   13      0.10      0.00
    5   16   11     -0.98      0.00
    5   16    9     -0.87      0.00
    5   16    7     -0.04      0.00
    5   15   30     -0.64      0.00
    5   15   28     -0.67      0.00
    5   15   26     -1.77      0.00
    5   15   24     -0.75      0.00
    5   15   22     -0.83      0.00
    5   15   20      2.39      0.00
    5   15   18     -0.84      0.00
    5   15   16      1.28      0.00
    5   15   14      0.26      0.00
    5   15   12      0.21      0.00
    5   15   10     -0.73      0.00
    5   15    8     -0.67      0.00
    5   15    6      0.53      0.00
    5   15    4      1.59      0.00
    5   14   31      1.01      0.00
    5   14   29     -3.59      0.00
    5   14   27      1.07      0.00
    5   14   25      3.17      0.00
    5   14   23      1.57      0.00
    5   14   21      0.49      0.00
    5   14   19     -0.86      0.00
    5   14   17     -1.09      0.00
    5   14   15      1.50      0.00
    5   14   13      1.87      0.00
    5   14   11      0.89      0.00
    5   14    9      0.39      0.00
    5   14    7     -1.70      0.00
    5   14    5      1.62      0.00
    5   14    3      0.46      0.00
    5   14    1      2.47      0.00
    5   13   30     -0.57      0.00
    5   13   28     -0.69      0.00
    5   13   26     -0.20      0.00
    5   13   24      2.62      0.00
    5   13   22      0.09      0.00
    5   13   20      0.42      0.00
    5   13   18      0.94      0.00
    5   13   16      0.15      0.00
    5   13   14     -1.01      0.00
    5   13   12      1.20      0.00
    5   13   10     -0.38      0.00
    5   13    8      0.74      0.00
    5   13    6      0.17      0.00
    5   13    4     -1.07      0.00
    5   13    2      1.43      0.00
    5   13    0      1.19      0.00
    5   13   32      0.37      0.00
    5   12   31     -0.39      0.00
    5   12   29     -0.42      0.00
    5   12   27      0.15      0.00
    5   12   25      0.98      0.00
    5   12   23     -1.14      0.00
    5   12   21     -0.69      0.00
    5   12   19      1.23      0.00
    5   12   17      1.05      0.00
    5   12   15     -0.62      0.00
    5   12   13     -2.26      0.00
    5   12   11     -1.63      0.00
    5   12    9      0.30      0.00
    5   12    7      1.63      0.00
    5   12    5     -0.36      0.00
    5   12    3     -3.37      0.00
    5   12    1     -0.47      0.00
    5   12   33      2.21      0.00
    5   11   32     -1.01      0.00
    5   11   30      1.35      0.00
    5   11   28     -0.07      0.00
    5   11   26     -0.34      0.00
    5   11   24      0.00      0.00
    5   11   22      0.32      0.00
    5   11   20      0.39      0.00
    5   11   18      0.49      0.00
    5   11   16     -1.08      0.00
    5   11   14     -0.95      0.00
    5   11   12     -1.37      0.00
    5   11   10     -1.32      0.00
    5   11    8      2.76      0.00
    5   11    6     -1.00      0.00
    5   11    4      0.59      0.00
    5   11    2     -0.83      0.00
    5   11    0     -6.08      0.00
    5   10   33     -1.11      0.00
    5   10   31      0.72      0.00
    5   10   29      0.60      0.00
    5   10   27     -0.65      0.00
    5   10   25      0.48      0.00
    5   10   23     -0.64      0.00
    5   10   21     -0.56      0.00
    5   10   19     -0.53      0.00
    5   10   17      0.66      0.00
    5   10   15      2.40      0.00
    5   10   13      1.52      0.00
    5   10   11     -1.19      0.00
    5   10    9      0.81      0.00
    5   10    7      0.34      0.00
    5   10    5     -0.16      0.00
    5   10    3      1.06      0.00
    5   10    1      0.75      0.00
    5    9   32     -1.77      0.00
    5    9   30      0.04      0.00
    5    9   28      0.56      0.00
    5    9   26      0.39      0.00
    5    9   24     -0.52      0.00
    5    9   22     -0.98      0.00
    5    9   20      0.04      0.00
    5    9   18     -0.89      0.00
    5    9   16      0.20      0.00
    5    9   14      1.89      0.00
    5    9   12      2.49      0.00
    5    9   10      3.81      0.00
    5    9    8     -0.29      0.00
    5    9    6     -3.89      0.00
    5    9    4      0.58      0.00
    5    9    2      4.07      0.00
    5    9    0      0.94      0.00
    5    9   34      1.60      0.00
    5    8   33      1.47      0.00
    5    8   31      0.37      0.00
    5    8   29     -0.43      0.00
    5    8   27      0.73      0.00
    5    8   25     -0.07      0.00
    5    8   23     -0.54      0.00
    5    8   21     -2.33      0.00
    5    8   19      0.36      0.00
    5    8   17      0.40      0.00
    5    8   15      0.75      0.00
    5    8   13     -1.68      0.00
    5    8   11     -0.09      0.00
    5    8    9      3.14      0.00
    5    8    7     -1.77      0.00
    5    8    5     -1.39      0.00
    5    8    3      0.33      0.00
    5    8    1     -0.63      0.00
    5    7   34      0.12      0.00
    5    7   32      2.92      0.00
    5    7   30      0.88      0.00
    5    7   28     -0.62      0.00
    5    7   26     -0.45      0.00
    5    7   24     -0.27      0.00
    5    7   22     -0.45      0.00
    5    7   20     -1.25      0.00
    5    7   18     -0.13      0.00
    5    7   16     -1.70      0.00
    5    7   14      1.12      0.00
    5    7   12      1.07      0.00
    5    7   10     -1.38      0.00
    5    7    8     -2.11      0.00
    5    7    6     -3.94      0.00
    5    7    4      0.30      0.00
    5    7    2      3.71      0.00
    5    7    0     -4.56      0.00
    5    6   33      3.01      0.00
    5    6   31      0.78      0.00
    5    6   29      0.84      0.00
    5    6   27     -1.01      0.00
    5    6   25     -0.46      0.00
    5    6   23      0.21      0.00
    5    6   21     -0.78      0.00
    5    6   19      0.04      0.00
    5    6   17      0.99      0.00
    5    6   15     -0.89      0.00
    5    6   13     -0.19      0.00
    5    6   11     -2.47      0.00
    5    6    9      3.95      0.00
    5    6    7      0.07      0.00
    5    6    5      0.74      0.00
    5    6    3      3.55      0.00
    5    6    1      3.01      0.00
    5    6   35     -3.99      0.00
    5    5   34     -3.27      0.00
    5    5   32      1.33      0.00
    5    5   30     -0.65      0.00
    5    5   28     -0.70      0.00
    5    5   26     -1.34      0.00
    5    5   24      0.42      0.00
    5    5   22      1.94      0.00
    5    5   20      1.96      0.00
    5    5   18      0.63      0.00
    5    5   16     -5.79      0.00
    5    5   14      2.50      0.00
    5    5   12      3.28      0.00
    5    5   10     -2.15      0.00
    5    5    8      0.59      0.00
    5    5    6     10.65      0.00
    5    5    4      6.09      0.00
    5    5    2     -5.20      0.00
    5    5    0     14.21      0.00
    5   11   34     -2.78      0.00
    6   18   16     -2.68      0.00
    6   18   14     -1.72      0.00
    6   18   12      1.48      0.00
    6   17   21     -0.63      0.00
    6   17   19      1.18      0.00
    6   17   17     -0.42      0.00
    6   17   15     -1.53      0.00
    6   17   13      0.75      0.00
    6   17   11      0.11      0.00
    6   17    9      1.46      0.00
    6   16   26      1.65      0.00
    6   16   24     -2.06      0.00
    6   16   22     -2.19      0.00
    6   16   20     -0.01      0.00
    6   16   18      0.53      0.00
    6   16   16      0.35      0.00
    6   16   14     -0.96      0.00
    6   16   12      2.09      0.00
    6   16   10      0.18      0.00
    6   16    8     -0.80      0.00
    6   16    6      0.53      0.00
    6   16    4      0.98      0.00
    6   15   29      0.48      0.00
    6   15   27     -1.97      0.00
    6   15   25     -0.24      0.00
    6   15   23     -0.95      0.00
    6   15   21      0.18      0.00
    6   15   19      1.56      0.00
    6   15   17      1.73      0.00
    6   15   15     -1.84      0.00
    6   15   13      0.73      0.00
    6   15   11     -0.03      0.00
    6   15    9      0.19      0.00
    6   15    7     -0.07      0.00
    6   15    5     -0.01      0.00
    6   15    3     -0.07      0.00
    6   15    1     -1.65      0.00
    6   14   30      0.25      0.00
    6   14   28     -0.39      0.00
    6   14   26     -0.79      0.00
    6   14   24      0.34      0.00
    6   14   22      1.31      0.00
    6   14   20      0.48      0.00
    6   14   18      1.33      0.00
    6   14   16      0.26      0.00
    6   14   14      0.11      0.00
    6   14   12     -1.52      0.00
    6   14   10     -0.78      0.00
    6   14    8      2.42      0.00
    6   14    6     -0.74      0.00
    6   14    4      0.72      0.00
    6   14    2      0.07      0.00
    6   14    0     -3.67      0.00
    6   13   31     -2.54      0.00
    6   13   29      2.80      0.00
    6   13   27      0.65      0.00
    6   13   25      1.28      0.00
    6   13   23     -1.60      0.00
    6   13   21     -1.76      0.00
    6   13   19      0.59      0.00
    6   13   17      1.08      0.00
    6   13   15      1.64      0.00
    6   13   13      0.59      0.00
    6   13   11     -0.56      0.00
    6   13    9     -2.86      0.00
    6   13    7      1.67      0.00
    6   13    5      0.06      0.00
    6   13    3      2.13      0.00
    6   13    1      0.51      0.00
    6   12   30     -2.50      0.00
    6   12   28      1.26      0.00
    6   12   26      0.35      0.00
    6   12   24      1.06      0.00
    6   12   22     -0.07      0.00
    6   12   20     -2.23      0.00
    6   12   18     -0.51      0.00
    6   12   16     -0.30      0.00
    6   12   14      2.28      0.00
    6   12   12      0.53      0.00
    6   12   10      0.19      0.00
    6   12    8     -0.62      0.00
    6   12    6     -1.73      0.00
    6   12    4      0.54      0.00
    6   12    2      1.65      0.00
    6   12    0      3.03      0.00
    6   12   32      0.26      0.00
    6   11   31     -1.72      0.00
    6   11   29      0.83      0.00
    6   11   27      1.72      0.00
    6   11   25      0.10      0.00
    6   11   23     -0.69      0.00
    6   11   21      0.19      0.00
    6   11   19     -0.46      0.00
    6   11   17     -0.59      0.00
    6   11   15      0.23      0.00
    6   11   13      1.26      0.00
    6   11   11      0.62      0.00
    6   11    9      0.63      0.00
    6   11    7     -1.54      0.00
    6   11    5     -1.09      0.00
    6   11    3     -0.24      0.00
    6   11    1      0.92      0.00
    6   11   33     -1.93      0.00
    6   10   32      0.50      0.00
    6   10   30     -1.17      0.00
    6   10   28      0.21      0.00
    6   10   26     -0.70      0.00
    6   10   24     -0.19      0.00
    6   10   22     -0.54      0.00
    6   10   20      1.33      0.00
    6   10   18      2.68      0.00
    6   10   16     -0.51      0.00
    6   10   14     -0.86      0.00
    6   10   12     -1.38      0.00
    6   10   10      0.22      0.00
    6   10    8      0.92      0.00
    6   10    6      1.16      0.00
    6   10    4     -1.50      0.00
    6   10    2     -1.33      0.00
    6   10    0      1.51      0.00
    6    9   33      2.96      0.00
    6    9   31     -1.28      0.00
    6    9   29     -0.10      0.00
    6    9   27      0.73      0.00
    6    9   25     -0.72      0.00
    6    9   23     -2.00      0.00
    6    9   21      0.19      0.00
    6    9   19      0.50      0.00
    6    9   17      1.51      0.00
    6    9   15     -0.43      0.00
    6    9   13      0.34      0.00
    6    9   11     -2.07      0.00
    6    9    9      1.15      0.00
    6    9    7     -0.36      0.00
    6    9    5     -0.22      0.00
    6    9    3      3.56      0.00
    6    9    1     -2.03      0.00
    6    8   32      0.13      0.00
    6    8   30     -1.64      0.00
    6    8   28     -0.09      0.00
    6    8   26     -0.18      0.00
    6    8   24      0.46      0.00
    6    8   22      1.09      0.00
    6    8   20     -0.51      0.00
    6    8   18     -0.79      0.00
    6    8   16     -0.47      0.00
    6    8   14     -0.93      0.00
    6    8   12      0.08      0.00
    6    8   10     -1.96      0.00
    6    8    8      2.62      0.00
    6    8    6      2.41      0.00
    6    8    4      1.53      0.00
    6    8    2     -5.60      0.00
    6    8    0      2.38      0.00
    6    8   34      0.53      0.00
    6    7   33     -0.06      0.00
    6    7   31     -1.13      0.00
    6    7   29      0.32      0.00
    6    7   27     -0.61      0.00
    6    7   25      0.77      0.00
    6    7   23     -0.06      0.00
    6    7   21      1.40      0.00
    6    7   19     -0.66      0.00
    6    7   17     -0.77      0.00
    6    7   15     -1.35      0.00
    6    7   13      2.58      0.00
    6    7   11     -0.50      0.00
    6    7    9      1.69      0.00
    6    7    7     -0.93      0.00
    6    7    5     -0.77      0.00
    6    7    3     -2.01      0.00
    6    7    1     -0.71      0.00
    6    6   34      0.01      0.00
    6    6   32     -1.84      0.00
    6    6   30     -0.61      0.00
    6    6   28      1.81      0.00
    6    6   26      1.85      0.00
    6    6   24     -1.18      0.00
    6    6   22      0.40      0.00
    6    6   20      1.85      0.00
    6    6   18     -0.20      0.00
    6    6   16      0.22      0.00
    6    6   14     -4.35      0.00
    6    6   12     -0.93      0.00
    6    6   10      4.33      0.00
    6    6    8      4.24      0.00
    6    6    6      0.54      0.00
    6    6    4     -0.25      0.00
    6    6    2     -7.52      0.00
    6    6    0      9.93      0.00
    0    6    0     35.04      0.00
    7   18   15      0.55      0.00
    7   18   13      1.14      0.00
    7   18   11      0.31      0.00
    7   17   20     -2.54      0.00
    7   17   18      0.15      0.00
    7   17   16     -0.55      0.00
    7   17   14      1.90      0.00
    7   17   12     -0.81      0.00
    7   17   10     -0.65      0.00
    7   17    8      1.14      0.00
    7   17    6      1.96      0.00
    7   16   25      1.98      0.00
    7   16   23     -2.38      0.00
    7   16   21      0.63      0.00
    7   16   19     -1.68      0.00
    7   16   17     -0.38      0.00
    7   16   15      4.14      0.00
    7   16   13     -1.59      0.00
    7   16   11      0.97      0.00
    7   16    9     -0.03      0.00
    7   16    7      1.04      0.00
    7   16    5      1.44      0.00
    7   16    3     -1.92      0.00
    7   16    1      2.27      0.00
    7   15   28     -2.77      0.00
    7   15   26      1.00      0.00
    7   15   24      0.90      0.00
    7   15   22      0.55      0.00
    7   15   20     -0.35      0.00
    7   15   18     -1.17      0.00
    7   15   16     -0.73      0.00
    7   15   14      2.68      0.00
    7   15   12      0.19      0.00
    7   15   10      1.41      0.00
    7   15    8     -2.36      0.00
    7   15    6     -1.00      0.00
    7   15    4      0.54      0.00
    7   15    2     -1.14      0.00
    7   15    0     -0.53      0.00
    7   14   29     -2.78      0.00
    7   14   27     -0.38      0.00
    7   14   25     -0.49      0.00
    7   14   23      3.72      0.00
    7   14   21      0.36      0.00
    7   14   19     -1.47      0.00
    7   14   17     -2.10      0.00
    7   14   15      1.13      0.00
    7   14   13     -0.64      0.00
    7   14   11     -0.24      0.00
    7   14    9     -0.08      0.00
    7   14    7     -0.73      0.00
    7   14    5      0.32      0.00
    7   14    3     -1.28      0.00
    7   14    1     -2.04      0.00
    7   13   30     -0.18      0.00
    7   13   28      0.00      0.00
    7   13   26      2.63      0.00
    7   13   24      1.06      0.00
    7   13   22     -2.97      0.00
    7   13   20     -1.51      0.00
    7   13   18      1.44      0.00
    7   13   16      0.39      0.00
    7   13   14     -0.22      0.00
    7   13   12     -2.44      0.00
    7   13   10      0.98      0.00
    7   13    8     -0.36      0.00
    7   13    6      1.84      0.00
    7   13    4     -0.05      0.00
    7   13    2     -1.25      0.00
    7   13    0      2.26      0.00
    7   12   31      0.34      0.00
    7   12   29      1.35      0.00
    7   12   27     -1.83      0.00
    7   12   25      0.71      0.00
    7   12   23      0.51      0.00
    7   12   21     -0.84      0.00
    7   12   19      0.80      0.00
    7   12   17      0.68      0.00
    7   12   15     -0.30      0.00
    7   12   13     -2.62      0.00
    7   12   11      0.50      0.00
    7   12    9      1.80      0.00
    7   12    7      2.99      0.00
    7   12    5      0.93      0.00
    7   12    3      0.66      0.00
    7   12    1      0.84      0.00
    7   11   30     -1.65      0.00
    7   11   28      1.98      0.00
    7   11   26      1.45      0.00
    7   11   24     -2.87      0.00
    7   11   22     -0.40      0.00
    7   11   20     -0.23      0.00
    7   11   18      1.35      0.00
    7   11   16      1.55      0.00
    7   11   14      1.11      0.00
    7   11   12     -1.10      0.00
    7   11   10     -1.34      0.00
    7   11    8      0.94      0.00
    7   11    6      0.98      0.00
    7   11    4      2.70      0.00
    7   11    2     -0.66      0.00
    7   11    0     -0.98      0.00
    7   11   32      1.86      0.00
    7   10   31     -1.29      0.00
    7   10   29     -0.56      0.00
    7   10   27     -0.78      0.00
    7   10   25      2.28      0.00
    7   10   23      1.19      0.00
    7   10   21     -0.26      0.00
    7   10   19     -0.91      0.00
    7   10   17     -1.22      0.00
    7   10   15      0.00      0.00
    7   10   13      2.05      0.00
    7   10   11     -0.23      0.00
    7   10    9     -1.41      0.00
    7   10    7     -2.10      0.00
    7   10    5     -2.37      0.00
    7   10    3      2.60      0.00
    7   10    1     -1.65      0.00
    7    9   32      0.58      0.00
    7    9   30      0.03      0.00
    7    9   28      0.25      0.00
    7    9   26      1.82      0.00
    7    9   24     -0.87      0.00
    7    9   22     -0.28      0.00
    7    9   20     -0.84      0.00
    7    9   18     -1.09      0.00
    7    9   16      0.48      0.00
    7    9   14      0.32      0.00
    7    9   12     -0.24      0.00
    7    9   10     -1.45      0.00
    7    9    8     -0.78      0.00
    7    9    6     -2.86      0.00
    7    9    4     -0.30      0.00
    7    9    2     -2.90      0.00
    7    9    0      6.54      0.00
    7    8   31     -0.63      0.00
    7    8   29      0.67      0.00
    7    8   27     -0.15      0.00
    7    8   25      1.55      0.00
    7    8   23      1.08      0.00
    7    8   21     -1.43      0.00
    7    8   19      0.53      0.00
    7    8   17     -1.09      0.00
    7    8   15     -0.69      0.00
    7    8   13      0.08      0.00
    7    8   11      0.51      0.00
    7    8    9      0.49      0.00
    7    8    7     -0.37      0.00
    7    8    5      0.92      0.00
    7    8    3     -1.69      0.00
    7    8    1      1.65      0.00
    7    8   33     -0.98      0.00
    7    7   32      2.61      0.00
    7    7   30      0.45      0.00
    7    7   28     -2.14      0.00
    7    7   26      0.90      0.00
    7    7   24     -0.57      0.00
    7    7   22     -1.10      0.00
    7    7   20      0.44      0.00
    7    7   18      3.40      0.00
    7    7   16      1.20      0.00
    7    7   14     -1.09      0.00
    7    7   12     -1.30      0.00
    7    7   10      0.71      0.00
    7    7    8      3.86      0.00
    7    7    6     -2.54      0.00
    7    7    4      0.74      0.00
    7    7    2      3.72      0.00
    7    7    0     -6.72      0.00
    1    7    0     -2.84      0.00
    0    7    1     -3.92      0.00
    7    7   34     -1.58      0.00
    7   10   33     -1.51      0.00
    8   18   14      5.04      0.00
    8   18   12     -2.18      0.00
    8   18   10      0.42      0.00
    8   18    8      1.14      0.00
    8   18    6     -0.74      0.00
    8   17   19      3.91      0.00
    8   17   17     -0.62      0.00
    8   17   15     -1.57      0.00
    8   17   13      0.90      0.00
    8   17   11     -1.27      0.00
    8   17    9      1.20      0.00
    8   17    7      0.70      0.00
    8   17    5     -1.79      0.00
    8   17    3      2.09      0.00
    8   17    1      1.49      0.00
    8   16   24     -2.27      0.00
    8   16   22     -0.79      0.00
    8   16   20      0.35      0.00
    8   16   18      0.98      0.00
    8   16   16      1.45      0.00
    8   16   14      1.26      0.00
    8   16   12     -2.31      0.00
    8   16   10     -0.41      0.00
    8   16    8     -1.25      0.00
    8   16    6      1.20      0.00
    8   16    4      1.11      0.00
    8   16    2     -1.59      0.00
    8   16    0      2.04      0.00
    8   15   27     -3.28      0.00
    8   15   25      1.96      0.00
    8   15   23     -1.14      0.00
    8   15   21      0.83      0.00
    8   15   19      1.34      0.00
    8   15   17      1.40      0.00
    8   15   15     -1.99      0.00
    8   15   13      0.58      0.00
    8   15   11     -0.64      0.00
    8   15    9      0.75      0.00
    8   15    7     -0.56      0.00
    8   15    5      0.71      0.00
    8   15    3      0.22      0.00
    8   15    1     -1.18      0.00
    8   14   28     -1.28      0.00
    8   14   26     -0.94      0.00
    8   14   24      0.18      0.00
    8   14   22      2.50      0.00
    8   14   20     -0.42      0.00
    8   14   18     -0.61      0.00
    8   14   16     -0.38      0.00
    8   14   14     -0.51      0.00
    8   14   12     -1.75      0.00
    8   14   10      1.46      0.00
    8   14    8      1.41      0.00
    8   14    6      0.14      0.00
    8   14    4     -0.99      0.00
    8   14    2     -1.12      0.00
    8   14    0      1.52      0.00
    8   13   29      0.38      0.00
    8   13   27      1.72      0.00
    8   13   25      3.18      0.00
    8   13   23     -2.09      0.00
    8   13   21     -1.62      0.00
    8   13   19     -0.83      0.00
    8   13   17     -0.81      0.00
    8   13   15      0.80      0.00
    8   13   13     -0.37      0.00
    8   13   11      0.11      0.00
    8   13    9     -0.42      0.00
    8   13    7     -0.39      0.00
    8   13    5     -0.18      0.00
    8   13    3      0.37      0.00
    8   13    1     -0.32      0.00
    8   12   30      3.27      0.00
    8   12   28     -0.57      0.00
    8   12   26      0.59      0.00
    8   12   24      0.89      0.00
    8   12   22      1.11      0.00
    8   12   20     -2.54      0.00
    8   12   18     -1.57      0.00
    8   12   16     -1.08      0.00
    8   12   14      1.61      0.00
    8   12   12      1.85      0.00
    8   12   10     -0.86      0.00
    8   12    8     -1.49      0.00
    8   12    6     -1.26      0.00
    8   12    4      1.05      0.00
    8   12    2     -0.11      0.00
    8   12    0     -0.98      0.00
    8   11   29      4.22      0.00
    8   11   27     -1.64      0.00
    8   11   25     -0.45      0.00
    8   11   23     -2.39      0.00
    8   11   21      0.07      0.00
    8   11   19      1.04      0.00
    8   11   17      1.57      0.00
    8   11   15      0.15      0.00
    8   11   13      0.45      0.00
    8   11   11     -1.19      0.00
    8   11    9     -0.47      0.00
    8   11    7     -0.69      0.00
    8   11    5      0.09      0.00
    8   11    3     -0.34      0.00
    8   11    1     -0.02      0.00
    8   11   31     -1.04      0.00
    8   10   30      1.78      0.00
    8   10   28     -0.77      0.00
    8   10   26     -1.44      0.00
    8   10   24     -0.18      0.00
    8   10   22     -0.59      0.00
    8   10   20      0.46      0.00
    8   10   18      2.27      0.00
    8   10   16     -0.21      0.00
    8   10   14     -0.27      0.00
    8   10   12     -0.98      0.00
    8   10   10     -0.09      0.00
    8   10    8      0.72      0.00
    8   10    6     -0.65      0.00
    8   10    4     -1.12      0.00
    8   10    2      0.01      0.00
    8   10    0      1.88      0.00
    8   10   32     -0.33      0.00
    8    9   31      0.83      0.00
    8    9   29      0.27      0.00
    8    9   27      0.15      0.00
    8    9   25     -0.61      0.00
    8    9   23     -0.95      0.00
    8    9   21     -0.38      0.00
    8    9   19      1.26      0.00
    8    9   17      1.38      0.00
    8    9   15      0.10      0.00
    8    9   13     -1.94      0.00
    8    9   11     -1.47      0.00
    8    9    9      0.28      0.00
    8    9    7      0.62      0.00
    8    9    5      0.42      0.00
    8    9    3     -0.32      0.00
    8    9    1      0.47      0.00
    8    8   32      0.55      0.00
    8    8   30     -1.76      0.00
    8    8   28      1.27      0.00
    8    8   26      1.10      0.00
    8    8   24      1.94      0.00
    8    8   22      0.59      0.00
    8    8   20     -2.63      0.00
    8    8   18     -0.63      0.00
    8    8   16     -0.27      0.00
    8    8   14      0.62      0.00
    8    8   12      2.01      0.00
    8    8   10     -1.59      0.00
    8    8    8     -0.92      0.00
    8    8    6     -2.72      0.00
    8    8    4      2.00      0.00
    8    8    2      6.38      0.00
    8    8    0     -8.69      0.00
    1    8    1     -0.02      0.00
    0    8    2     -2.37      0.00
    0    8    0      4.26      0.00
    8   13   31     -3.10      0.00
    9   18   13      1.67      0.00
    9   18   11     -0.68      0.00
    9   18    9      0.94      0.00
    9   18    7      1.94      0.00
    9   18    5      2.23      0.00
    9   18    3      5.02      0.00
    9   18    1     -0.71      0.00
    9   17   18      1.27      0.00
    9   17   16     -0.87      0.00
    9   17   14     -2.23      0.00
    9   17   12     -0.47      0.00
    9   17   10      0.10      0.00
    9   17    8     -0.23      0.00
    9   17    6      1.94      0.00
    9   17    4     -1.24      0.00
    9   17    2      0.94      0.00
    9   17    0      2.58      0.00
    9   16   23     -1.64      0.00
    9   16   21      4.31      0.00
    9   16   19     -1.25      0.00
    9   16   17     -1.11      0.00
    9   16   15      1.02      0.00
    9   16   13     -1.49      0.00
    9   16   11     -0.89      0.00
    9   16    9     -0.55      0.00
    9   16    7     -2.01      0.00
    9   16    5     -0.97      0.00
    9   16    3      0.03      0.00
    9   16    1      0.51      0.00
    9   15   26      1.31      0.00
    9   15   24     -1.64      0.00
    9   15   22      0.01      0.00
    9   15   20      2.10      0.00
    9   15   18      1.70      0.00
    9   15   16     -1.07      0.00
    9   15   14     -0.49      0.00
    9   15   12      0.15      0.00
    9   15   10     -0.25      0.00
    9   15    8     -0.12      0.00
    9   15    6     -0.10      0.00
    9   15    4     -1.34      0.00
    9   15    2      0.17      0.00
    9   15    0      2.12      0.00
    9   14   27      0.49      0.00
    9   14   25     -2.16      0.00
    9   14   23      2.51      0.00
    9   14   21     -1.77      0.00
    9   14   19      0.43      0.00
    9   14   17      1.16      0.00
    9   14   15      0.18      0.00
    9   14   13      1.99      0.00
    9   14   11     -1.18      0.00
    9   14    9      1.10      0.00
    9   14    7     -1.27      0.00
    9   14    5      0.40      0.00
    9   14    3      1.45      0.00
    9   14    1      1.23      0.00
    9   13   28     -0.04      0.00
    9   13   26     -0.57      0.00
    9   13   24     -0.02      0.00
    9   13   22     -1.28      0.00
    9   13   20      0.04      0.00
    9   13   18      0.61      0.00
    9   13   16      0.53      0.00
    9   13   14      0.31      0.00
    9   13   12     -0.76      0.00
    9   13   10     -2.19      0.00
    9   13    8      0.93      0.00
    9   13    6      0.57      0.00
    9   13    4     -0.32      0.00
    9   13    2     -0.61      0.00
    9   13    0      0.49      0.00
    9   13   30      2.92      0.00
    9   12   29      1.13      0.00
    9   12   27      0.96      0.00
    9   12   25     -1.36      0.00
    9   12   23     -0.58      0.00
    9   12   21     -0.90      0.00
    9   12   19     -0.20      0.00
    9   12   17      0.61      0.00
    9   12   15      0.02      0.00
    9   12   13     -0.91      0.00
    9   12   11     -2.33      0.00
    9   12    9     -0.49      0.00
    9   12    7     -0.30      0.00
    9   12    5     -1.77      0.00
    9   12    3     -2.91      0.00
    9   12    1     -0.46      0.00
    9   11   30     -0.49      0.00
    9   11   28      1.27      0.00
    9   11   26      0.76      0.00
    9   11   24     -0.91      0.00
    9   11   22     -0.39      0.00
    9   11   20      0.10      0.00
    9   11   18      0.25      0.00
    9   11   16      0.13      0.00
    9   11   14     -0.62      0.00
    9   11   12     -1.04      0.00
    9   11   10      0.11      0.00
    9   11    8     -0.26      0.00
    9   11    6     -1.42      0.00
    9   11    4     -1.39      0.00
    9   11    2     -0.55      0.00
    9   11    0     -1.71      0.00
    9   10   29     -2.91      0.00
    9   10   27      2.13      0.00
    9   10   25     -0.34      0.00
    9   10   23      0.71      0.00
    9   10   21     -0.33      0.00
    9   10   19     -0.94      0.00
    9   10   17      0.00      0.00
    9   10   15      0.55      0.00
    9   10   13      1.48      0.00
    9   10   11      0.59      0.00
    9   10    9      0.98      0.00
    9   10    7      0.69      0.00
    9   10    5      0.09      0.00
    9   10    3      1.51      0.00
    9   10    1     -0.04      0.00
    9   10   31      1.24      0.00
    9    9   30     -0.14      0.00
    9    9   28     -1.81      0.00
    9    9   26      1.76      0.00
    9    9   24      0.93      0.00
    9    9   22      0.93      0.00
    9    9   20      0.31      0.00
    9    9   18     -1.38      0.00
    9    9   16     -0.58      0.00
    9    9   14      0.08      0.00
    9    9   12      1.82      0.00
    9    9   10      1.26      0.00
    9    9    8      1.32      0.00
    9    9    6      0.70      0.00
    9    9    4      2.89      0.00
    9    9    2      1.59      0.00
    9    9    0     -2.11      0.00
    1    9    2     -1.58      0.00
    1    9    0      1.06      0.00
    0    9    1     11.32      0.00
    9    9   32     -2.55      0.00
    9   12   31      6.01      0.00
   10   18   10      3.27      0.00
   10   18    8      0.60      0.00
   10   18    6     -2.07      0.00
   10   18    4      0.44      0.00
   10   18    2      1.84      0.00
   10   18    0      1.89      0.00
   10   17   17     -1.15      0.00
   10   17   15     -1.18      0.00
   10   17   13     -3.05      0.00
   10   17   11      0.34      0.00
   10   17    9      1.44      0.00
   10   17    7     -1.02      0.00
   10   17    5      1.06      0.00
   10   17    3     -1.55      0.00
   10   17    1      2.53      0.00
   10   16   22      2.71      0.00
   10   16   20      1.95      0.00
   10   16   18      0.05      0.00
   10   16   16     -1.50      0.00
   10   16   14     -3.13      0.00
   10   16   12     -0.19      0.00
   10   16   10     -0.56      0.00
   10   16    8     -2.00      0.00
   10   16    6      0.53      0.00
   10   16    4      3.57      0.00
   10   16    2     -1.19      0.00
   10   16    0     -2.07      0.00
   10   15   25     -0.75      0.00
   10   15   23      1.66      0.00
   10   15   21     -0.05      0.00
   10   15   19      2.02      0.00
   10   15   17      0.95      0.00
   10   15   15     -1.92      0.00
   10   15   13     -1.81      0.00
   10   15   11      0.09      0.00
   10   15    9     -1.24      0.00
   10   15    7      1.14      0.00
   10   15    5      1.91      0.00
   10   15    3     -0.28      0.00
   10   15    1     -1.54      0.00
   10   14   26      0.27      0.00
   10   14   24      0.31      0.00
   10   14   22      0.65      0.00
   10   14   20     -0.48      0.00
   10   14   18     -0.10      0.00
   10   14   16      1.18      0.00
   10   14   14     -1.02      0.00
   10   14   12      1.51      0.00
   10   14   10      1.29      0.00
   10   14    8     -1.90      0.00
   10   14    6     -0.23      0.00
   10   14    4      1.16      0.00
   10   14    2     -1.21      0.00
   10   14    0      1.55      0.00
   10   13   27      0.67      0.00
   10   13   25     -0.65      0.00
   10   13   23      3.89      0.00
   10   13   21     -0.92      0.00
   10   13   19     -0.07      0.00
   10   13   17     -2.22      0.00
   10   13   15      0.50      0.00
   10   13   13     -0.82      0.00
   10   13   11      3.69      0.00
   10   13    9     -1.89      0.00
   10   13    7     -0.15      0.00
   10   13    5     -0.09      0.00
   10   13    3     -2.44      0.00
   10   13    1      1.59      0.00
   10   13   29     -2.21      0.00
   10   12   28      0.89      0.00
   10   12   26      1.87      0.00
   10   12   24      0.10      0.00
   10   12   22      0.30      0.00
   10   12   20     -2.15      0.00
   10   12   18      0.62      0.00
   10   12   16      0.14      0.00
   10   12   14     -0.95      0.00
   10   12   12     -0.59      0.00
   10   12   10      1.17      0.00
   10   12    8     -2.15      0.00
   10   12    6     -0.92      0.00
   10   12    4      0.10      0.00
   10   12    2      0.86      0.00
   10   12    0     -2.79      0.00
   10   11   29      3.37      0.00
   10   11   27     -0.24      0.00
   10   11   25      0.36      0.00
   10   11   23      0.67      0.00
   10   11   21     -0.26      0.00
   10   11   19     -0.35      0.00
   10   11   17      0.19      0.00
   10   11   15     -1.03      0.00
   10   11   13     -0.16      0.00
   10   11   11      0.78      0.00
   10   11    9     -0.99      0.00
   10   11    7     -0.33      0.00
   10   11    5     -0.43      0.00
   10   11    3      0.62      0.00
   10   11    1     -0.49      0.00
   10   10   28      1.51      0.00
   10   10   26     -1.06      0.00
   10   10   24     -2.22      0.00
   10   10   22     -0.44      0.00
   10   10   20     -0.84      0.00
   10   10   18      2.71      0.00
   10   10   16      0.47      0.00
   10   10   14      0.52      0.00
   10   10   12     -0.70      0.00
   10   10   10     -0.20      0.00
   10   10    8      1.34      0.00
   10   10    6      1.78      0.00
   10   10    4      0.22      0.00
   10   10    2     -1.20      0.00
   10   10    0      2.49      0.00
   10   10   30      3.23      0.00
    2   10    0      4.04      0.00
    1   10    3      1.58      0.00
    1   10    1     -4.51      0.00
    0   10    4     -0.88      0.00
    0   10    2      3.09      0.00
    0   10    0      7.44      0.00
   10   12   30      1.49      0.00
   11   18    5      0.41      0.00
   11   18    3      1.21      0.00
   11   18    1     -5.84      0.00
   11   17   14      0.80      0.00
   11   17   12     -1.86      0.00
   11   17   10     -3.23      0.00
   11   17    8      1.93      0.00
   11   17    6     -0.38      0.00
   11   17    4      0.43      0.00
   11   17    2      0.90      0.00
   11   17    0     -2.27      0.00
   11   16   19     -2.01      0.00
   11   16   17     -3.06      0.00
   11   16   15     -1.30      0.00
   11   16   13     -0.85      0.00
   11   16   11      0.61      0.00
   11   16    9      0.47      0.00
   11   16    7      1.40      0.00
   11   16    5      0.08      0.00
   11   16    3     -0.97      0.00
   11   16    1      2.74      0.00
   11   15   24      0.26      0.00
   11   15   22      0.03      0.00
   11   15   20      0.49      0.00
   11   15   18      0.22      0.00
   11   15   16     -2.21      0.00
   11   15   14      0.09      0.00
   11   15   12     -0.99      0.00
   11   15   10      2.27      0.00
   11   15    8      0.01      0.00
   11   15    6     -0.73      0.00
   11   15    4     -1.59      0.00
   11   15    2      1.31      0.00
   11   15    0      1.69      0.00
   11   14   25     -1.43      0.00
   11   14   23     -1.84      0.00
   11   14   21      0.43      0.00
   11   14   19     -0.54      0.00
   11   14   17      0.90      0.00
   11   14   15      0.38      0.00
   11   14   13     -0.06      0.00
   11   14   11     -0.16      0.00
   11   14    9      0.11      0.00
   11   14    7     -2.02      0.00
   11   14    5      0.51      0.00
   11   14    3     -1.92      0.00
   11   14    1     -0.33      0.00
   11   13   26     -2.73      0.00
   11   13   24      0.13      0.00
   11   13   22      0.58      0.00
   11   13   20      0.89      0.00
   11   13   18     -1.64      0.00
   11   13   16     -0.31      0.00
   11   13   14      1.97      0.00
   11   13   12      0.71      0.00
   11   13   10      0.04      0.00
   11   13    8     -0.24      0.00
   11   13    6     -1.91      0.00
   11   13    4     -0.84      0.00
   11   13    2      1.15      0.00
   11   13    0     -1.29      0.00
   11   12   27     -0.56      0.00
   11   12   25      0.00      0.00
   11   12   23     -1.98      0.00
   11   12   21      1.51      0.00
   11   12   19     -0.79      0.00
   11   12   17      0.78      0.00
   11   12   15      1.68      0.00
   11   12   13     -0.03      0.00
   11   12   11     -1.02      0.00
   11   12    9      0.76      0.00
   11   12    7      0.95      0.00
   11   12    5      0.79      0.00
   11   12    3      2.04      0.00
   11   12    1      0.43      0.00
   11   11   26     -0.25      0.00
   11   11   24      0.35      0.00
   11   11   22      0.92      0.00
   11   11   20      1.42      0.00
   11   11   18     -2.50      0.00
   11   11   16     -0.32      0.00
   11   11   14      1.14      0.00
   11   11   12      1.29      0.00
   11   11   10     -0.25      0.00
   11   11    8     -0.02      0.00
   11   11    6      0.86      0.00
   11   11    4      1.12      0.00
   11   11    2     -1.32      0.00
   11   11    0      7.39      0.00
   11   11   28      1.37      0.00
    2   11    1      2.79      0.00
    1   11    4     -0.89      0.00
    1   11    2      1.35      0.00
    1   11    0     -0.69      0.00
    0   11    5      1.33      0.00
    0   11    3     -1.43      0.00
    0   11    1     -0.81      0.00
   11   12   29      3.50      0.00
   11   13   28     -1.43      0.00
   12   17   13     -0.36      0.00
   12   17   11      2.24      0.00
   12   17    9     -0.89      0.00
   12   17    7     -3.87      0.00
   12   17    5     -2.62      0.00
   12   17    3     -0.76      0.00
   12   17    1      2.06      0.00
   12   16   18     -3.75      0.00
   12   16   16     -1.04      0.00
   12   16   14     -0.51      0.00
   12   16   12     -0.70      0.00
   12   16   10      1.78      0.00
   12   16    8      0.86      0.00
   12   16    6      1.44      0.00
   12   16    4      0.44      0.00
   12   16    2      0.32      0.00
   12   16    0      0.21      0.00
   12   15   23      1.09      0.00
   12   15   21     -2.37      0.00
   12   15   19     -0.82      0.00
   12   15   17     -1.94      0.00
   12   15   15      1.41      0.00
   12   15   13      1.84      0.00
   12   15   11     -1.82      0.00
   12   15    9      0.25      0.00
   12   15    7      1.01      0.00
   12   15    5      1.50      0.00
   12   15    3      3.04      0.00
   12   15    1     -1.87      0.00
   12   14   24     -0.25      0.00
   12   14   22     -1.03      0.00
   12   14   20     -0.12      0.00
   12   14   18     -4.20      0.00
   12   14   16      4.26      0.00
   12   14   14     -0.77      0.00
   12   14   12      0.76      0.00
   12   14   10     -2.05      0.00
   12   14    8     -0.32      0.00
   12   14    6      0.96      0.00
   12   14    4      1.35      0.00
   12   14    2     -1.68      0.00
   12   14    0     -1.38      0.00
   12   13   25     -1.47      0.00
   12   13   23      2.18      0.00
   12   13   21     -0.87      0.00
   12   13   19     -0.84      0.00
   12   13   17     -2.31      0.00
   12   13   15      2.51      0.00
   12   13   13      0.70      0.00
   12   13   11      0.29      0.00
   12   13    9     -0.08      0.00
   12   13    7     -0.53      0.00
   12   13    5     -0.75      0.00
   12   13    3     -0.27      0.00
   12   13    1     -0.06      0.00
   12   12   26     -0.47      0.00
   12   12   24     -0.05      0.00
   12   12   22      0.26      0.00
   12   12   20     -0.49      0.00
   12   12   18     -2.06      0.00
   12   12   16      4.72      0.00
   12   12   14     -0.24      0.00
   12   12   12     -1.64      0.00
   12   12   10      0.77      0.00
   12   12    8      0.53      0.00
   12   12    6      3.29      0.00
   12   12    4      1.57      0.00
   12   12    2     -2.08      0.00
   12   12    0      2.45      0.00
    3   12    1      0.59      0.00
    2   12    4      4.28      0.00
    2   12    2     -0.04      0.00
    2   12    0     -0.52      0.00
    1   12    5     -4.47      0.00
    1   12    3     -2.53      0.00
    1   12    1      7.37      0.00
    0   12    4      0.90      0.00
    0   12    2     -3.15      0.00
    0   12    0     -1.18      0.00
   13   17    8     -4.32      0.00
   13   17    6     -1.00      0.00
   13   17    4      0.73      0.00
   13   17    2      0.44      0.00
   13   17    0      1.02      0.00
   13   16   15      2.80      0.00
   13   16   13      3.22      0.00
   13   16   11     -1.90      0.00
   13   16    9     -0.72      0.00
   13   16    7     -0.07      0.00
   13   16    5     -2.55      0.00
   13   16    3      1.69      0.00
   13   16    1      0.16      0.00
   13   15   20     -0.78      0.00
   13   15   18     -3.64      0.00
   13   15   16     -1.15      0.00
   13   15   14      2.73      0.00
   13   15   12      2.46      0.00
   13   15   10     -2.02      0.00
   13   15    8     -0.73      0.00
   13   15    6      3.18      0.00
   13   15    4      0.66      0.00
   13   15    2     -1.23      0.00
   13   15    0      1.04      0.00
   13   14   23      1.60      0.00
   13   14   21     -0.14      0.00
   13   14   19     -2.22      0.00
   13   14   17     -1.24      0.00
   13   14   15     -0.31      0.00
   13   14   13      0.75      0.00
   13   14   11      0.79      0.00
   13   14    9      0.85      0.00
   13   14    7     -0.63      0.00
   13   14    5      2.15      0.00
   13   14    3      0.36      0.00
   13   14    1      0.27      0.00
   13   13   22      1.29      0.00
   13   13   20      1.41      0.00
   13   13   18     -2.96      0.00
   13   13   16     -2.14      0.00
   13   13   14      2.33      0.00
   13   13   12     -0.53      0.00
   13   13   10      1.33      0.00
   13   13    8     -0.11      0.00
   13   13    6      0.62      0.00
   13   13    4     -1.15      0.00
   13   13    2      1.10      0.00
   13   13    0      0.27      0.00
   13   13   24     -0.49      0.00
    3   13    2     -0.51      0.00
    3   13    0      0.69      0.00
    2   13    5      1.82      0.00
    2   13    3     -1.91      0.00
    2   13    1     -1.75      0.00
    1   13    6     -2.65      0.00
    1   13    4      1.03      0.00
    1   13    2      3.24      0.00
    1   13    0     -0.99      0.00
    0   13    5      6.62      0.00
    0   13    3     -0.28      0.00
    0   13    1     -3.39      0.00
   14   16   14      2.17      0.00
   14   16   12     -3.05      0.00
   14   16   10      1.17      0.00
   14   16    8      0.03      0.00
   14   16    6     -0.12      0.00
   14   16    4     -3.74      0.00
   14   16    2      1.16      0.00
   14   16    0      0.53      0.00
   14   15   19     -0.73      0.00
   14   15   17     -0.60      0.00
   14   15   15     -0.10      0.00
   14   15   13      1.69      0.00
   14   15   11     -3.01      0.00
   14   15    9      1.08      0.00
   14   15    7     -0.62      0.00
   14   15    5      2.04      0.00
   14   15    3     -1.12      0.00
   14   15    1     -1.67      0.00
   14   14   20     -2.18      0.00
   14   14   18     -2.12      0.00
   14   14   16      2.45      0.00
   14   14   14     -1.68      0.00
   14   14   12      0.41      0.00
   14   14   10      2.61      0.00
   14   14    8     -0.43      0.00
   14   14    6     -1.99      0.00
   14   14    4      0.49      0.00
   14   14    2      5.45      0.00
   14   14    0     -5.27      0.00
    4   14    2      1.09      0.00
    4   14    0      1.67      0.00
    3   14    5     -1.35      0.00
    3   14    3      1.12      0.00
    3   14    1     -2.48      0.00
    2   14    6     -1.99      0.00
    2   14    4     -3.78      0.00
    2   14    2     -0.99      0.00
    2   14    0      0.12      0.00
    1   14    7     -0.43      0.00
    1   14    5      1.52      0.00
    1   14    3      0.83      0.00
    1   14    1     -1.24      0.00
    0   14    8      1.85      0.00
    0   14    6      0.20      0.00
    0   14    4     -1.66      0.00
    0   14    2      0.62      0.00
    0   14    0      5.90      0.00
   14   14   22     -2.95      0.00
   15   16    9     -1.93      0.00
   15   16    7     -0.25      0.00
   15   16    5     -3.41      0.00
   15   16    3      0.15      0.00
   15   16    1      2.66      0.00
   15   15   16     -0.56      0.00
   15   15   14      0.75      0.00
   15   15   12      3.96      0.00
   15   15   10     -6.63      0.00
   15   15    8      1.29      0.00
   15   15    6     -1.71      0.00
   15   15    4     -0.92      0.00
   15   15    2      2.68      0.00
   15   15    0     -7.53      0.00
    5   15    2     -1.90      0.00
    5   15    0      3.35      0.00
    4   15    5     -0.71      0.00
    4   15    3      1.45      0.00
    4   15    1      1.94      0.00
    3   15    6      1.51      0.00
    3   15    4      2.22      0.00
    3   15    2     -2.33      0.00
    3   15    0      1.39      0.00
    2   15    7     -1.82      0.00
    2   15    5     -1.56      0.00
    2   15    3     -0.86      0.00
    2   15    1      1.31      0.00
    1   15    8     -0.38      0.00
    1   15    6      5.09      0.00
    1   15    4     -0.84      0.00
    1   15    2     -2.65      0.00
    1   15    0     -1.87      0.00
    0   15    9      1.51      0.00
    0   15    7     -1.60      0.00
    0   15    5     -2.39      0.00
    0   15    3     -1.89      0.00
    0   15    1      2.15      0.00
   15   16   13      3.17      0.00
   15   16   11     -2.22      0.00
   14   16   16      0.10      0.00
   13   16   17     -0.49      0.00
    6   16    2     -1.05      0.00
    6   16    0      1.36      0.00
    5   16    5      0.48      0.00
    5   16    3     -1.46      0.00
    5   16    1     -0.60      0.00
    4   16    8     -1.06      0.00
    4   16    6     -0.58      0.00
    4   16    4     -1.56      0.00
    4   16    2      0.81      0.00
    4   16    0     -0.34      0.00
    3   16    9      3.40      0.00
    3   16    7      0.51      0.00
    3   16    5      0.49      0.00
    3   16    3     -0.59      0.00
    3   16    1      0.39      0.00
    2   16   10     -0.11      0.00
    2   16    8      2.78      0.00
    2   16    6     -0.74      0.00
    2   16    4      0.32      0.00
    2   16    2      1.86      0.00
    2   16    0     -0.49      0.00
    1   16   11     -2.03      0.00
    1   16    9      1.58      0.00
    1   16    7     -1.57      0.00
    1   16    5      0.85      0.00
    1   16    3     -0.99      0.00
    1   16    1      0.92      0.00
    0   16   10     -2.38      0.00
    0   16    8     -1.97      0.00
    0   16    6     -1.08      0.00
    0   16    4      0.53      0.00
    0   16    2     -0.85      0.00
    0   16    0      1.00      0.00
   11   16   21      7.57      0.00
   12   16   20      2.08      0.00
   13   16   19     -6.48      0.00
   15   17    8     -1.11      0.00
   15   17    6     -4.29      0.00
   15   17    4      3.18      0.00
   15   17    2      3.46      0.00
   15   17    0     -2.20      0.00
   14   17   13      1.45      0.00
   14   17   11     -0.72      0.00
   14   17    9      2.39      0.00
   14   17    7     -4.56      0.00
   14   17    5      0.92      0.00
   14   17    3      0.70      0.00
   14   17    1      0.81      0.00
   13   17   14      3.40      0.00
   13   17   12      0.03      0.00
   13   17   10     -4.58      0.00
   12   17   15      0.01      0.00
   11   17   16      0.20      0.00
    7   17    4      0.55      0.00
    7   17    2      1.23      0.00
    7   17    0     -0.99      0.00
    6   17    7     -1.06      0.00
    6   17    5      0.75      0.00
    6   17    3      0.25      0.00
    6   17    1      0.02      0.00
    5   17    8      1.73      0.00
    5   17    6     -0.43      0.00
    5   17    4     -0.08      0.00
    5   17    2     -1.96      0.00
    5   17    0     -0.99      0.00
    4   17    9     -0.94      0.00
    4   17    7     -1.36      0.00
    4   17    5      0.06      0.00
    4   17    3     -1.31      0.00
    4   17    1     -0.84      0.00
    3   17   12      2.03      0.00
    3   17   10      2.25      0.00
    3   17    8      0.69      0.00
    3   17    6     -1.06      0.00
    3   17    4     -1.14      0.00
    3   17    2     -0.07      0.00
    3   17    0      0.25      0.00
    2   17   11     -0.44      0.00
    2   17    9      0.74      0.00
    2   17    7      2.72      0.00
    2   17    5      1.92      0.00
    2   17    3     -0.08      0.00
    2   17    1     -1.15      0.00
    1   17   12     -0.41      0.00
    1   17   10      0.83      0.00
    1   17    8      0.84      0.00
    1   17    6     -0.80      0.00
    1   17    4      0.17      0.00
    1   17    2      0.94      0.00
    1   17    0      1.16      0.00
    0   17   13     -1.90      0.00
    0   17   11     -4.51      0.00
    0   17    9      1.92      0.00
    0   17    7      3.18      0.00
    0   17    5      2.45      0.00
    0   17    3     -1.34      0.00
    0   17    1     -1.26      0.00
   10   17   19      6.18      0.00
   11   17   18     -1.15      0.00
   12   17   17     -4.94      0.00
   13   17   16      4.46      0.00
   14   18    8      5.94      0.00
   14   18    6     -2.86      0.00
   14   18    4     -3.31      0.00
   14   18    2      7.21      0.00
   14   18    0     -5.31      0.00
   13   18    9     -1.29      0.00
   13   18    7     -0.60      0.00
   13   18    5      2.05      0.00
   13   18    3      3.31      0.00
   13   18    1     -5.07      0.00
   12   18   10      1.95      0.00
   12   18    8     -3.71      0.00
   12   18    6     -6.45      0.00
   12   18    4     -0.55      0.00
   12   18    2      0.38      0.00
   12   18    0     -3.60      0.00
   12   18   12     -0.95      0.00
   11   18   11     -3.48      0.00
   11   18    9     -1.21      0.00
   11   18    7      1.49      0.00
   11   18   13      1.23      0.00
   10   18   12      0.13      0.00
   10   18   14      1.83      0.00
    9   18   15      0.99      0.00
    8   18    4      2.30      0.00
    8   18    2      2.06      0.00
    8   18    0     -0.16      0.00
    8   18   16     -2.23      0.00
    7   18    9     -1.12      0.00
    7   18    7     -2.61      0.00
    7   18    5      3.33      0.00
    7   18    3     -2.44      0.00
    7   18    1     -0.07      0.00
    6   18   10      3.83      0.00
    6   18    8     -2.67      0.00
    6   18    6     -3.02      0.00
    6   18    4     -0.14      0.00
    6   18    2     -0.32      0.00
    6   18    0     -1.31      0.00
    5   18   11     -1.44      0.00
    5   18    9      2.09      0.00
    5   18    7      0.28      0.00
    5   18    5     -0.20      0.00
    5   18    3      0.71      0.00
    5   18    1     -2.09      0.00
    4   18   12     -0.84      0.00
    4   18   10     -2.06      0.00
    4   18    8      0.28      0.00
    4   18    6      0.98      0.00
    4   18    4      2.14      0.00
    4   18    2      0.06      0.00
    4   18    0     -2.13      0.00
    3   18   13     -0.06      0.00
    3   18   11     -1.94      0.00
    3   18    9      3.96      0.00
    3   18    7     -0.67      0.00
    3   18    5     -1.60      0.00
    3   18    3     -0.44      0.00
    3   18    1      1.35      0.00
    2   18   14     -1.67      0.00
    2   18   12     -0.08      0.00
    2   18   10      1.03      0.00
    2   18    8      1.14      0.00
    2   18    6     -2.81      0.00
    2   18    4      0.67      0.00
    2   18    2      0.44      0.00
    2   18    0     -0.78      0.00
    1   18   15      0.36      0.00
    1   18   13      3.40      0.00
    1   18   11      1.10      0.00
    1   18    9     -1.87      0.00
    1   18    7     -1.30      0.00
    1   18    5     -0.41      0.00
    1   18    3     -0.87      0.00
    1   18    1      1.54      0.00
    0   18   14      1.93      0.00
    0   18   12      0.67      0.00
    0   18   10      0.06      0.00
    0   18    8      0.07      0.00
    0   18    6      2.10      0.00
    0   18    4     -0.62      0.00
    0   18    2      0.30      0.00
    0   18    0     -3.40      0.00
    6   18   18      1.00      0.00
    7   18   17     -0.21      0.00
   12   18   14     -0.10      0.00
   13   18   11    -10.13      0.00
   12   19    3     -2.13      0.00
   12   19    1      1.30      0.00
   12   19    5     -6.99      0.00
   11   19    6      1.32      0.00
   11   19    4     -1.06      0.00
   11   19    2     -2.74      0.00
   11   19    0     -4.86      0.00
   10   19    7     -2.75      0.00
   10   19    5      2.03      0.00
   10   19    3     -1.33      0.00
   10   19    1      2.05      0.00
   10   19    9      1.59      0.00
    9   19   10      3.90      0.00
    9   19    8      0.48      0.00
    9   19    6      0.45      0.00
    9   19    4      0.28      0.00
    9   19    2      2.67      0.00
    9   19    0      2.77      0.00
    8   19   11      1.18      0.00
    8   19    9      0.93      0.00
    8   19    7      1.46      0.00
    8   19    5      0.19      0.00
    8   19    3      1.03      0.00
    8   19    1      0.11      0.00
    7   19   12     -0.17      0.00
    7   19   10     -0.71      0.00
    7   19    8      2.41      0.00
    7   19    6     -1.53      0.00
    7   19    4     -2.58      0.00
    7   19    2     -1.84      0.00
    7   19    0      0.49      0.00
    6   19   13     -0.38      0.00
    6   19   11     -0.29      0.00
    6   19    9     -0.17      0.00
    6   19    7      1.24      0.00
    6   19    5     -0.08      0.00
    6   19    3     -3.28      0.00
    6   19    1     -2.60      0.00
    5   19   12     -2.86      0.00
    5   19   10      0.37      0.00
    5   19    8      4.89      0.00
    5   19    6     -1.39      0.00
    5   19    4      0.72      0.00
    5   19    2     -1.25      0.00
    5   19    0     -0.80      0.00
    4   19   13      2.15      0.00
    4   19   11     -0.38      0.00
    4   19    9     -3.49      0.00
    4   19    7      1.12      0.00
    4   19    5      3.56      0.00
    4   19    3      0.57      0.00
    4   19    1      1.44      0.00
    3   19   14     -0.50      0.00
    3   19   12     -1.45      0.00
    3   19   10      1.37      0.00
    3   19    8      0.02      0.00
    3   19    6     -0.43      0.00
    3   19    4     -1.34      0.00
    3   19    2      3.95      0.00
    3   19    0      0.03      0.00
    2   19   15     -0.84      0.00
    2   19   13      2.98      0.00
    2   19   11      0.48      0.00
    2   19    9     -1.74      0.00
    2   19    7     -3.52      0.00
    2   19    5      0.37      0.00
    2   19    3     -0.04      0.00
    2   19    1      0.77      0.00
    1   19   14      1.91      0.00
    1   19   12     -0.07      0.00
    1   19   10      0.44      0.00
    1   19    8     -0.72      0.00
    1   19    6      0.17      0.00
    1   19    4     -1.76      0.00
    1   19    2     -2.15      0.00
    1   19    0      0.65      0.00
    0   19   15     -0.69      0.00
    0   19   13     -1.07      0.00
    0   19   11     -0.08      0.00
    0   19    9      4.59      0.00
    0   19    7     -1.50      0.00
    0   19    5      0.71      0.00
    0   19    3     -2.59      0.00
    0   19    1     -2.53      0.00
    4   19   15     -4.96      0.00
    5   19   14     -4.16      0.00
    8   19   13      0.65      0.00
    9   19   12      3.12      0.00
   10   19   11      3.44      0.00
   11   19   10     -3.81      0.00
   11   19    8      3.57      0.00
   12   19    9     -0.97      0.00
   12   19    7     -0.75      0.00
   13   19    6      6.52      0.00
   13   19    4     -6.25      0.00
   13   19    2     -0.84      0.00
   13   19    0      0.15      0.00
    8   20    2     -0.84      0.00
    8   20    0     -2.46      0.00
    8   20    4      2.57      0.00
    7   20    5     -2.01      0.00
    7   20    3     -0.13      0.00
    7   20    1      2.04      0.00
    6   20    6      0.83      0.00
    6   20    4      0.92      0.00
    6   20    2     -0.46      0.00
    6   20    0     -1.82      0.00
    5   20    7     -3.06      0.00
    5   20    5     -1.39      0.00
    5   20    3      3.46      0.00
    5   20    1     -1.08      0.00
    4   20    8     -0.68      0.00
    4   20    6      3.73      0.00
    4   20    4      1.36      0.00
    4   20    2      0.63      0.00
    4   20    0     -0.60      0.00
    3   20    9      3.96      0.00
    3   20    7     -0.59      0.00
    3   20    5     -0.63      0.00
    3   20    3      2.71      0.00
    3   20    1     -0.87      0.00
    2   20   10     -3.74      0.00
    2   20    8      0.40      0.00
    2   20    6     -1.12      0.00
    2   20    4      0.33      0.00
    2   20    2      0.98      0.00
    2   20    0     -1.52      0.00
    1   20    9     -1.59      0.00
    1   20    7      0.50      0.00
    1   20    5     -0.74      0.00
    1   20    3      2.07      0.00
    1   20    1     -3.50      0.00
    0   20   10     -6.80      0.00
    0   20    8      1.19      0.00
    0   20    6      2.40      0.00
    0   20    4      0.32      0.00
    0   20    2      1.73      0.00
    0   20    0    -11.00      0.00
    1   20   11     -2.12      0.00
    4   20   10     -6.92      0.00
    5   20    9      2.97      0.00
    6   20    8     -5.41      0.00
    7   20    7     -4.22      0.00
    8   20    6      2.34      0.00
    9   20    5     -5.95      0.00
    9   20    3      1.50      0.00
    9   20    1      2.55      0.00
   10   20    2      1.57      0.00
    0    1    1     37.83      0.00
    0    0    2    -98.66      0.00
    0    0    0      0.00      0.00
# SQUEEZE RESULTS (Version = 280417)
# Note: Data are Listed for all Voids in the P1 Unit Cell
# i.e. Centre of Gravity, Solvent Accessible Volume,
# Recovered number of Electrons in the Void and
# Details about the Squeezed Material
loop_
  _platon_squeeze_void_nr
  _platon_squeeze_void_average_x
  _platon_squeeze_void_average_y
  _platon_squeeze_void_average_z
  _platon_squeeze_void_volume
  _platon_squeeze_void_count_electrons
  _platon_squeeze_void_content
   1 -0.060 -0.028 -0.002      3055       657 ' '
# Missing Reflections Below sin(th)/lambda = 0.25
loop_
  _platon_missing_refln_index_h
  _platon_missing_refln_index_k
  _platon_missing_refln_index_l
  _platon_missing_refln_theta
    0    1    1     1.552
    0    0    2     1.535
_platon_squeeze_void_probe_radius                  1.20
_platon_squeeze_details
)
TITL P17_025ttg in I4/mmm
CELL   14.8730   14.8730   26.1230     90.00     90.00     90.00
SPGR I4/mmm
# Solvent Accessible Volume =      3093
# Electrons Found in S.A.V. =       652
# Note: Atoms in Void are Labelled as Cxxx and Qxxx for all Others
Q101 0.362 0.250-0.001 !       1.58 eA-3
Q102 0.783 0.219-0.001 !       1.43 eA-3
C103 1.000 1.000 0.227 !       1.40 eA-3
Q104 0.500 0.590 0.037 !       1.39 eA-3
Q105 0.500 0.188 0.001 !       1.36 eA-3
Q106 0.556 0.801 0.079 !       1.26 eA-3
C107 0.500 0.784 0.124 !       1.25 eA-3
Q108 0.500 0.498 0.172 !       1.13 eA-3
C109 0.389 1.008 0.336 !       1.06 eA-3
Q110 0.133 0.993 0.437 !       0.96 eA-3
Q111 0.532 0.469 0.000 !       0.93 eA-3
Q112 0.500 0.800 0.081 !       0.93 eA-3
Q113 1.000 0.372 0.397 !       0.90 eA-3
Q114 0.500 0.128 0.103 !       0.90 eA-3
Q115 0.310 0.812-0.001 !       0.86 eA-3
Q116 0.561 0.866 0.071 !       0.84 eA-3
C117 0.171 0.496 0.203 !       0.83 eA-3
C118 0.973 0.639 0.612 !       0.83 eA-3
Q119 0.893 0.630 0.420 !       0.83 eA-3
Q120 0.594 0.812 0.041 !       0.82 eA-3
C121 0.024 1.002 0.187 !       0.77 eA-3
Q122 0.704 0.705 0.055 !       0.76 eA-3
Q123 0.500 0.504 0.016 !       0.75 eA-3
Q124 0.334 0.890 0.077 !       0.70 eA-3
Q125 0.324 0.498 0.086 !       0.70 eA-3
C126 0.190 0.498 0.164 !       0.68 eA-3
Q127 0.361 0.924 0.056 !       0.64 eA-3
Q128 0.064 0.998 0.430 !       0.64 eA-3
C129 0.063 0.500 0.172 !       0.63 eA-3
C130 1.000 0.814 0.099 !       0.63 eA-3
C131 0.468 1.002 0.156 !       0.62 eA-3
Q132 0.327 0.504 0.117 !       0.62 eA-3
Q133 0.469 0.463 0.196 !       0.61 eA-3
Q134 0.195 0.844-0.002 !       0.58 eA-3
C135 1.000 0.531 0.361 !       0.58 eA-3
C136 1.000 1.001 0.070 !       0.58 eA-3
Q137 0.500 0.851 0.056 !       0.57 eA-3
C138 0.578 0.965 0.148 !       0.57 eA-3
C139 0.078 0.465 0.648 !       0.57 eA-3
Q140 0.293 0.531 0.064 !       0.57 eA-3
Q141 1.000 0.919 0.391 !       0.56 eA-3
C142 0.091 0.465 0.213 !       0.55 eA-3
C143 0.952 0.562 0.369 !       0.55 eA-3
C144 1.000 0.688 0.185 !       0.55 eA-3
C145 0.920 0.579 0.311 !       0.54 eA-3
C146 0.117 0.493 0.219 !       0.53 eA-3
C147 0.500 0.067 0.112 !       0.53 eA-3
C148 0.500 0.529 0.222 !       0.53 eA-3
Q149 0.528 0.406-0.002 !       0.52 eA-3
C150 0.356 1.005 0.242 !       0.52 eA-3
C151 0.909 0.513 0.664 !       0.52 eA-3
Q152 0.627 0.918 0.092 !       0.51 eA-3
Q153 0.060 0.062 0.405 !       0.51 eA-3
C154 1.000 0.627 0.135 !       0.50 eA-3
Q155 0.251 0.424 0.102 !       0.50 eA-3
Q156 0.096 0.500 0.445 !       0.50 eA-3
C157 0.061 0.028 0.197 !       0.50 eA-3
)
;
_shelx_fab_checksum              66369
loop_
_space_group_symop_operation_xyz
'x, y, z'
'-x, -y, z'
'-y, x, z'
'y, -x, z'
'-x, y, -z'
'x, -y, -z'
'y, x, -z'
'-y, -x, -z'
'x+1/2, y+1/2, z+1/2'
'-x+1/2, -y+1/2, z+1/2'
'-y+1/2, x+1/2, z+1/2'
'y+1/2, -x+1/2, z+1/2'
'-x+1/2, y+1/2, -z+1/2'
'x+1/2, -y+1/2, -z+1/2'
'y+1/2, x+1/2, -z+1/2'
'-y+1/2, -x+1/2, -z+1/2'
'-x, -y, -z'
'x, y, -z'
'y, -x, -z'
'-y, x, -z'
'x, -y, z'
'-x, y, z'
'-y, -x, z'
'y, x, z'
'-x+1/2, -y+1/2, -z+1/2'
'x+1/2, y+1/2, -z+1/2'
'y+1/2, -x+1/2, -z+1/2'
'-y+1/2, x+1/2, -z+1/2'
'x+1/2, -y+1/2, z+1/2'
'-x+1/2, y+1/2, z+1/2'
'-y+1/2, -x+1/2, z+1/2'
'y+1/2, x+1/2, z+1/2'
loop_
_atom_site_label
_atom_site_type_symbol
_atom_site_fract_x
_atom_site_fract_y
_atom_site_fract_z
_atom_site_U_iso_or_equiv
_atom_site_adp_type
_atom_site_occupancy
_atom_site_site_symmetry_order
_atom_site_calc_flag
_atom_site_refinement_flags_posn
_atom_site_refinement_flags_adp
_atom_site_refinement_flags_occupancy
_atom_site_disorder_assembly
_atom_site_disorder_group
Zr1 Zr 0.38137(2) 0.38137(2) 0.0000 0.0262(2) Uani 1 4 d S T P . .
Zr2 Zr 0.5000 0.5000 0.09402(2) 0.0192(2) Uani 1 8 d S T P . .
O1M O 0.5000 0.3828(4) 0.04528(14) 0.0765(19) Uani 1 2 d S TU P . .
O1 O 0.33292(17) 0.33292(17) 0.07722(11) 0.0594(12) Uani 1 2 d S T P . .
O2 O 0.41067(14) 0.41067(14) 0.13637(10) 0.0360(6) Uani 1 2 d S T P . .
C1 C 0.3537(2) 0.3537(2) 0.12290(14) 0.0464(12) Uani 1 2 d S T P . .
C2 C 0.2412(3) 0.2412(3) 0.15392(17) 0.117(4) Uani 1 2 d S T P . .
H2 H 0.2275 0.2275 0.1197 0.141 Uiso 1 2 calc R U P . .
C3 C 0.3057(2) 0.3057(2) 0.16480(17) 0.0644(19) Uani 1 2 d S T P . .
C4 C 0.3267(3) 0.3267(3) 0.21434(18) 0.080(3) Uani 1 2 d S T P . .
H4 H 0.3706 0.3706 0.2213 0.096 Uiso 1 2 calc R U P . .
C5 C 0.2826(3) 0.2826(3) 0.25518(18) 0.081(2) Uani 1 2 d S T P . .
C6 C 0.3030(3) 0.3030(3) 0.3068(2) 0.132(5) Uani 1 2 d S T P . .
H6 H 0.3467 0.3467 0.3145 0.158 Uiso 1 2 calc R U P . .
O3 O 0.4058(4) 0.2335(3) 0.0000 0.094(2) Uani 1 2 d DS TU P . .
C7 C 0.5000 0.1956(6) 0.0000 0.312(17) Uani 1 4 d DS TU P A .
C8 C 0.5000 0.0961(7) 0.0000 0.248(14) Uani 1 4 d DS TU P . .
C9A C 0.4215(7) 0.0479(3) 0.0000 0.347(14) Uani 0.25 2 d DS TU P A 3
N1A N 0.3362(6) 0.086(2) 0.0000 0.30(4) Uani 0.25 2 d DS TU P A 3
H1A1 H 0.3300 0.1438 0.0000 0.356 Uiso 0.25 2 calc R U P A 3
H1A2 H 0.2890 0.0511 0.0000 0.356 Uiso 0.25 2 calc R U P A 3
C9B C 0.4215(7) 0.0479(3) 0.0000 0.347(14) Uani 0.75 2 d DS TU P A 4
H9B H 0.3663 0.0788 0.0000 0.416 Uiso 0.75 2 calc R U P A 4
loop_
_atom_site_aniso_label
_atom_site_aniso_U_11
_atom_site_aniso_U_22
_atom_site_aniso_U_33
_atom_site_aniso_U_23
_atom_site_aniso_U_13
_atom_site_aniso_U_12
Zr1 0.0352(3) 0.0352(3) 0.0082(2) 0.000 0.000 -0.01065(18)
Zr2 0.0268(3) 0.0268(3) 0.0040(3) 0.000 0.000 0.000
O1M 0.0332(17) 0.147(5) 0.049(2) -0.072(3) 0.000 0.000
O1 0.0811(19) 0.0811(19) 0.0161(13) 0.0057(8) 0.0057(8) -0.046(2)
O2 0.0447(10) 0.0447(10) 0.0185(11) 0.0051(7) 0.0051(7) -0.0098(13)
C1 0.0626(19) 0.0626(19) 0.0139(15) 0.0072(10) 0.0072(10) -0.027(2)
C2 0.168(7) 0.168(7) 0.0153(18) 0.0063(14) 0.0063(14) -0.126(7)
C3 0.087(3) 0.087(3) 0.0184(18) 0.0085(11) 0.0085(11) -0.052(3)
C4 0.109(4) 0.109(4) 0.0211(19) 0.0056(12) 0.0056(12) -0.078(5)
C5 0.113(4) 0.113(4) 0.0170(18) 0.0065(12) 0.0065(12) -0.074(4)
C6 0.189(8) 0.189(8) 0.018(2) 0.0043(13) 0.0043(13) -0.156(8)
O3 0.213(7) 0.033(2) 0.037(2) 0.000 0.000 -0.027(3)
C7 0.42(4) 0.088(16) 0.43(4) 0.000 0.000 0.000
C8 0.19(2) 0.067(10) 0.49(4) 0.000 0.000 0.000
C9A 0.27(2) 0.172(17) 0.60(3) 0.000 0.000 -0.149(15)
N1A 0.28(4) 0.24(5) 0.37(5) 0.000 0.000 -0.01(3)
C9B 0.27(2) 0.172(17) 0.60(3) 0.000 0.000 -0.149(15)
loop_
_atom_type_symbol
_atom_type_description
_atom_type_scat_dispersion_real
_atom_type_scat_dispersion_imag
_atom_type_scat_source
C C 0.0030 0.0016 'International Tables Vol C Tables 4.2.6.8 and 6.1.1.4'
H H 0.0000 0.0000 'International Tables Vol C Tables 4.2.6.8 and 6.1.1.4'
N N 0.0059 0.0032 'International Tables Vol C Tables 4.2.6.8 and 6.1.1.4'
O O 0.0105 0.0059 'International Tables Vol C Tables 4.2.6.8 and 6.1.1.4'
Zr Zr -3.5084 0.5477 'International Tables Vol C Tables 4.2.6.8 and 6.1.1.4'
loop_
_geom_angle_atom_site_label_1
_geom_angle_atom_site_label_2
_geom_angle_atom_site_label_3
_geom_angle
_geom_angle_site_symmetry_1
_geom_angle_site_symmetry_3
O1M Zr1 O1M 67.68(17) 4_565 19_565
O1M Zr1 O1M 107.1(3) 4_565 18
O1M Zr1 O1M 71.0(2) 19_565 18
O1M Zr1 O1M 71.0(2) 4_565 .
O1M Zr1 O1M 107.1(3) 19_565 .
O1M Zr1 O1M 67.68(17) 18 .
O1M Zr1 O3 144.87(8) 4_565 .
O1M Zr1 O3 144.87(8) 19_565 .
O1M Zr1 O3 82.8(2) 18 .
O1M Zr1 O3 82.8(2) . .
O1M Zr1 O3 82.8(2) 4_565 7
O1M Zr1 O3 82.8(2) 19_565 7
O1M Zr1 O3 144.87(8) 18 7
O1M Zr1 O3 144.87(8) . 7
O3 Zr1 O3 108.8(3) . 7
O1M Zr1 O1 139.90(8) 4_565 18
O1M Zr1 O1 76.76(13) 19_565 18
O1M Zr1 O1 76.76(13) 18 18
O1M Zr1 O1 139.90(8) . 18
O3 Zr1 O1 74.78(8) . 18
O3 Zr1 O1 74.78(8) 7 18
O1M Zr1 O1 76.76(13) 4_565 .
O1M Zr1 O1 139.90(8) 19_565 .
O1M Zr1 O1 139.90(8) 18 .
O1M Zr1 O1 76.76(13) . .
O3 Zr1 O1 74.78(8) . .
O3 Zr1 O1 74.78(8) 7 .
O1 Zr1 O1 126.39(18) 18 .
O1M Zr1 Zr2 35.51(11) 4_565 .
O1M Zr1 Zr2 88.12(13) 19_565 .
O1M Zr1 Zr2 88.12(13) 18 .
O1M Zr1 Zr2 35.51(11) . .
O3 Zr1 Zr2 114.52(10) . .
O3 Zr1 Zr2 114.52(10) 7 .
O1 Zr1 Zr2 161.35(9) 18 .
O1 Zr1 Zr2 72.26(9) . .
O1M Zr1 Zr2 88.12(13) 4_565 17_665
O1M Zr1 Zr2 35.51(11) 19_565 17_665
O1M Zr1 Zr2 35.51(11) 18 17_665
O1M Zr1 Zr2 88.12(13) . 17_665
O3 Zr1 Zr2 114.52(10) . 17_665
O3 Zr1 Zr2 114.52(10) 7 17_665
O1 Zr1 Zr2 72.26(9) 18 17_665
O1 Zr1 Zr2 161.35(9) . 17_665
Zr2 Zr1 Zr2 89.10(2) . 17_665
O1M Zr1 Zr1 33.84(8) 4_565 19_565
O1M Zr1 Zr1 33.84(8) 19_565 19_565
O1M Zr1 Zr1 89.45(15) 18 19_565
O1M Zr1 Zr1 89.45(15) . 19_565
O3 Zr1 Zr1 170.61(16) . 19_565
O3 Zr1 Zr1 80.61(16) 7 19_565
O1 Zr1 Zr1 108.60(6) 18 19_565
O1 Zr1 Zr1 108.59(6) . 19_565
Zr2 Zr1 Zr1 59.740(6) . 19_565
Zr2 Zr1 Zr1 59.740(6) 17_665 19_565
O1M Zr1 Zr1 89.45(15) 4_565 3_655
O1M Zr1 Zr1 89.45(15) 19_565 3_655
O1M Zr1 Zr1 33.84(8) 18 3_655
O1M Zr1 Zr1 33.85(8) . 3_655
O3 Zr1 Zr1 80.61(16) . 3_655
O3 Zr1 Zr1 170.61(16) 7 3_655
O1 Zr1 Zr1 108.60(6) 18 3_655
O1 Zr1 Zr1 108.59(6) . 3_655
Zr2 Zr1 Zr1 59.740(6) . 3_655
Zr2 Zr1 Zr1 59.740(6) 17_665 3_655
Zr1 Zr1 Zr1 90.0 19_565 3_655
O1M Zr2 O1M 69.65(15) . 4_565
O1M Zr2 O1M 69.65(15) . 3_655
O1M Zr2 O1M 107.7(3) 4_565 3_655
O1M Zr2 O1M 107.7(3) . 2_665
O1M Zr2 O1M 69.65(15) 4_565 2_665
O1M Zr2 O1M 69.65(15) 3_655 2_665
O1M Zr2 O2 142.31(3) . 2_665
O1M Zr2 O2 142.31(3) 4_565 2_665
O1M Zr2 O2 78.88(13) 3_655 2_665
O1M Zr2 O2 78.88(13) 2_665 2_665
O1M Zr2 O2 142.31(3) . 4_565
O1M Zr2 O2 78.88(13) 4_565 4_565
O1M Zr2 O2 142.31(3) 3_655 4_565
O1M Zr2 O2 78.88(13) 2_665 4_565
O2 Zr2 O2 75.08(7) 2_665 4_565
O1M Zr2 O2 78.88(13) . 3_655
O1M Zr2 O2 142.31(3) 4_565 3_655
O1M Zr2 O2 78.88(13) 3_655 3_655
O1M Zr2 O2 142.31(3) 2_665 3_655
O2 Zr2 O2 75.08(7) 2_665 3_655
O2 Zr2 O2 119.02(15) 4_565 3_655
O1M Zr2 O2 78.88(13) . .
O1M Zr2 O2 78.88(13) 4_565 .
O1M Zr2 O2 142.31(3) 3_655 .
O1M Zr2 O2 142.31(3) 2_665 .
O2 Zr2 O2 119.02(15) 2_665 .
O2 Zr2 O2 75.08(7) 4_565 .
O2 Zr2 O2 75.08(7) 3_655 .
O1M Zr2 Zr1 34.85(7) . .
O1M Zr2 Zr1 34.85(7) 4_565 .
O1M Zr2 Zr1 89.62(13) 3_655 .
O1M Zr2 Zr1 89.62(13) 2_665 .
O2 Zr2 Zr1 165.94(8) 2_665 .
O2 Zr2 Zr1 110.85(5) 4_565 .
O2 Zr2 Zr1 110.85(5) 3_655 .
O2 Zr2 Zr1 75.04(8) . .
O1M Zr2 Zr1 89.62(13) . 19_565
O1M Zr2 Zr1 34.85(7) 4_565 19_565
O1M Zr2 Zr1 89.62(13) 3_655 19_565
O1M Zr2 Zr1 34.85(7) 2_665 19_565
O2 Zr2 Zr1 110.85(5) 2_665 19_565
O2 Zr2 Zr1 75.04(8) 4_565 19_565
O2 Zr2 Zr1 165.94(8) 3_655 19_565
O2 Zr2 Zr1 110.85(5) . 19_565
Zr1 Zr2 Zr1 60.521(12) . 19_565
O1M Zr2 Zr1 34.85(7) . 3_655
O1M Zr2 Zr1 89.62(13) 4_565 3_655
O1M Zr2 Zr1 34.85(7) 3_655 3_655
O1M Zr2 Zr1 89.62(13) 2_665 3_655
O2 Zr2 Zr1 110.85(5) 2_665 3_655
O2 Zr2 Zr1 165.94(8) 4_565 3_655
O2 Zr2 Zr1 75.04(8) 3_655 3_655
O2 Zr2 Zr1 110.85(5) . 3_655
Zr1 Zr2 Zr1 60.521(12) . 3_655
Zr1 Zr2 Zr1 90.91(2) 19_565 3_655
O1M Zr2 Zr1 89.62(13) . 17_665
O1M Zr2 Zr1 89.62(13) 4_565 17_665
O1M Zr2 Zr1 34.85(7) 3_655 17_665
O1M Zr2 Zr1 34.85(7) 2_665 17_665
O2 Zr2 Zr1 75.04(8) 2_665 17_665
O2 Zr2 Zr1 110.85(5) 4_565 17_665
O2 Zr2 Zr1 110.85(5) 3_655 17_665
O2 Zr2 Zr1 165.94(8) . 17_665
Zr1 Zr2 Zr1 90.90(2) . 17_665
Zr1 Zr2 Zr1 60.521(12) 19_565 17_665
Zr1 Zr2 Zr1 60.521(12) 3_655 17_665
Zr1 O1M Zr1 112.31(16) . 3_655
Zr1 O1M Zr2 109.64(16) . .
Zr1 O1M Zr2 109.64(16) 3_655 .
C1 O1 Zr1 133.1(3) . .
C1 O2 Zr2 133.2(2) . .
O2 C1 O1 126.4(4) . .
O2 C1 C3 116.3(4) . .
O1 C1 C3 117.3(4) . .
C3 C2 C6 120.4(5) . 25
C4 C3 C2 120.7(4) . .
C4 C3 C1 118.5(5) . .
C2 C3 C1 120.8(4) . .
C3 C4 C5 120.1(5) . .
C5 C5 C4 119.8(6) 25 .
C5 C5 C6 118.9(5) 25 .
C4 C5 C6 121.3(5) . .
C2 C6 C5 120.1(5) 25 .
C7 O3 Zr1 121.3(5) . .
C8 C7 O3 111.9(4) . 5_655
C8 C7 O3 111.9(4) . .
O3 C7 O3 136.2(7) 5_655 .
C9B C8 C9B 116.9(11) . 5_655
C9A C8 C9A 116.9(11) . 5_655
C9B C8 C7 121.6(6) . .
C9A C8 C7 121.6(6) . .
C9B C8 C7 121.6(6) 5_655 .
C9A C8 C7 121.6(6) 5_655 .
C8 C9A N1A 124.6(12) . .
C8 C9A C9A 121.6(6) . 21
N1A C9A C9A 113.9(14) . 21
C8 C9B C9B 121.6(6) . 21
loop_
_geom_bond_atom_site_label_1
_geom_bond_atom_site_label_2
_geom_bond_distance
_geom_bond_site_symmetry_2
Zr1 O1M 2.124(2) 4_565
Zr1 O1M 2.124(2) 19_565
Zr1 O1M 2.124(2) 18
Zr1 O1M 2.124(2) .
Zr1 O3 2.229(4) .
Zr1 O3 2.229(4) 7
Zr1 O1 2.260(3) 18
Zr1 O1 2.260(3) .
Zr1 Zr2 3.5011(7) .
Zr1 Zr2 3.5011(7) 17_665
Zr1 Zr1 3.5286(8) 19_565
Zr1 Zr1 3.5286(8) 3_655
Zr2 O1M 2.159(4) .
Zr2 O1M 2.159(4) 4_565
Zr2 O1M 2.159(4) 3_655
Zr2 O1M 2.159(4) 2_665
Zr2 O2 2.180(3) 2_665
Zr2 O2 2.180(3) 4_565
Zr2 O2 2.180(3) 3_655
Zr2 O2 2.180(3) .
Zr2 Zr1 3.5011(7) 19_565
Zr2 Zr1 3.5011(7) 3_655
Zr2 Zr1 3.5011(7) 17_665
O1M Zr1 2.124(2) 3_655
O1 C1 1.271(5) .
O2 C1 1.250(6) .
C1 C3 1.489(6) .
C2 C3 1.385(8) .
C2 C6 1.385(7) 25
C3 C4 1.367(7) .
C4 C5 1.414(6) .
C5 C5 1.397(11) 25
C5 C6 1.416(7) .
C6 C2 1.385(7) 25
O3 C7 1.509(6) .
C7 C8 1.480(8) .
C7 O3 1.509(6) 5_655
C8 C9B 1.371(6) .
C8 C9A 1.371(6) .
C8 C9B 1.371(6) 5_655
C8 C9A 1.371(6) 5_655
C9A N1A 1.386(10) .
C9A C9A 1.425(10) 21
C9B C9B 1.425(10) 21
loop_
_geom_torsion_atom_site_label_1
_geom_torsion_atom_site_label_2
_geom_torsion_atom_site_label_3
_geom_torsion_atom_site_label_4
_geom_torsion
_geom_torsion_site_symmetry_1
_geom_torsion_site_symmetry_4
Zr2 O2 C1 O1 0.000(1) . .
Zr2 O2 C1 C3 180.000(0) . .
Zr1 O1 C1 O2 0.000(0) . .
Zr1 O1 C1 C3 180.000(0) . .
C6 C2 C3 C4 0.000(0) 25 .
C6 C2 C3 C1 180.000(0) 25 .
O2 C1 C3 C4 0.000(0) . .
O1 C1 C3 C4 180.000(0) . .
O2 C1 C3 C2 180.000(0) . .
O1 C1 C3 C2 0.000(1) . .
C2 C3 C4 C5 0.000(1) . .
C1 C3 C4 C5 180.000(0) . .
C3 C4 C5 C5 0.000(0) . 25
C3 C4 C5 C6 180.000(0) . .
C5 C5 C6 C2 0.000(1) 25 25
C4 C5 C6 C2 180.000(0) . 25
Zr1 O3 C7 C8 180.0 . .
Zr1 O3 C7 O3 0.0 . 5_655
O3 C7 C8 C9B 180.0 5_655 .
O3 C7 C8 C9B 0.0 . .
O3 C7 C8 C9A 180.0 5_655 .
O3 C7 C8 C9A 0.0 . .
O3 C7 C8 C9B 0.0 5_655 5_655
O3 C7 C8 C9B 180.0 . 5_655
O3 C7 C8 C9A 0.0 5_655 5_655
O3 C7 C8 C9A 180.0 . 5_655
C9A C8 C9A N1A 180.0 5_655 .
C7 C8 C9A N1A 0.0 . .
C9A C8 C9A C9A 0.0 5_655 21
C7 C8 C9A C9A 180.0 . 21
C9B C8 C9B C9B 0.0 5_655 21
C7 C8 C9B C9B 180.0 . 21
