#------------------------------------------------------------------------------
#$Date: 2019-03-01 01:27:00 +0200 (Fri, 01 Mar 2019) $
#$Revision: 213903 $
#$URL: file:///home/coder/svn-repositories/cod/cif/1/55/06/1550668.cif $
#------------------------------------------------------------------------------
#
# This file is available in the Crystallography Open Database (COD),
# http://www.crystallography.net/
#
# All data on this site have been placed in the public domain by the
# contributors.
#
data_1550668
loop_
_publ_author_name
'Kong, Xiang-Jing'
'He, Tao'
'Zhang, Yongzheng'
'Wu, Xue-Qian'
'Wang, Si-Nan'
'Xu, Ming-Ming'
'Si, Guang-Rui'
'Li, Jian-Rong Jeff'
_publ_section_title
;
 Constructing New Metal-Organic Frameworks with Complicated Ligands
 Generated from &#x201C;One-Pot&#x201D; In Situ Reactions
;
_journal_name_full               'Chemical Science'
_journal_paper_doi               10.1039/C9SC00178F
_journal_year                    2019
_chemical_formula_moiety         '0.06(C384 H208 B48 Hf48 O320)'
_chemical_formula_sum            'C24 H13 B3 Hf3 O20'
_chemical_formula_weight         1189.24
_space_group_crystal_system      tetragonal
_space_group_IT_number           141
_space_group_name_Hall           '-I 4bd 2'
_space_group_name_H-M_alt        'I 41/a m d'
_symmetry_space_group_name_Hall  '-I 4bd 2'
_symmetry_space_group_name_H-M   'I 41/a m d :2'
_atom_sites_solution_hydrogens   geom
_atom_sites_solution_primary     dual
_audit_creation_date             2018-07-23
_audit_creation_method
;
Olex2 1.2
(compiled 2018.04.26 svn.r3504 for OlexSys, GUI svn.r5492)
;
_audit_update_record
;
2019-01-04 deposited with the CCDC.    2019-02-28 downloaded from the CCDC.
;
_cell_angle_alpha                90
_cell_angle_beta                 90
_cell_angle_gamma                90
_cell_formula_units_Z            16
_cell_length_a                   40.4997(4)
_cell_length_b                   40.4997(4)
_cell_length_c                   16.9534(4)
_cell_measurement_reflns_used    15582
_cell_measurement_temperature    173(2)
_cell_measurement_theta_max      70.6800
_cell_measurement_theta_min      4.1700
_cell_volume                     27807.4(8)
_computing_cell_refinement       'CrysAlisPro 1.171.39.35c (Rigaku OD, 2017)'
_computing_data_collection       'CrysAlisPro 1.171.39.35c (Rigaku OD, 2017)'
_computing_data_reduction        'CrysAlisPro 1.171.39.35c (Rigaku OD, 2017)'
_computing_molecular_graphics    'Olex2 (Dolomanov et al., 2009)'
_computing_publication_material  'Olex2 (Dolomanov et al., 2009)'
_computing_structure_refinement  'ShelXL (Sheldrick, 2015)'
_computing_structure_solution    'ShelXT (Sheldrick, 2015)'
_diffrn_ambient_temperature      173(2)
_diffrn_detector                 'CCD plate'
_diffrn_measured_fraction_theta_full 0.981
_diffrn_measured_fraction_theta_max 0.981
_diffrn_measurement_details
;
List of Runs (angles in degrees, time in seconds):

  # Type    Start    End  Width  t~exp~   \w     \q     \k     \f   Frames
#--------------------------------------------------------------------------
  1  \w    -16.00  49.00   0.50    2.00    --  -38.80  68.00 -86.00  130
  2  \w    -62.00 -25.00   0.50    2.00    --  -38.80  68.00 -86.00   74
  3  \w   -102.00 -70.00   0.50    2.00    --  -38.80 -52.00 -49.00   64
  4  \w   -161.00-136.00   0.50   12.00    -- -104.00 -52.00 -49.00   50
  5  \w    -75.00 -15.00   0.50   12.00    -- -104.00  68.00 -86.00  120
  6  \w   -160.00-135.00   0.50   12.00    -- -104.00 -68.00 140.00   50
  7  \w     13.00  38.00   0.50    2.00    --    5.00  68.00 -86.00   50
  8  \w      2.00  51.00   0.50    2.00    --    5.00  38.00-180.00   98
  9  \w   -125.00 -15.00   0.50   12.00    -- -104.00  72.00  30.00  220
 10  \w   -109.00 -84.00   0.50   12.00    -- -104.00 -38.00-180.00   50
 11  \w   -119.00 -86.00   0.50   12.00    -- -104.00  19.00  60.00   66
 12  \w    -79.00 -34.00   0.50   12.00    -- -104.00  19.00  60.00   90
 13  \w   -142.00-116.00   0.50   12.00    -- -104.00 -38.00-180.00   52
 14  \w   -180.00-154.00   0.50   12.00    -- -104.00 -38.00-180.00   52
 15  \w   -125.00 -28.00   0.50   12.00    -- -104.00  72.00 -30.00  194
 16  \w    -76.00 -51.00   0.50   12.00    -- -104.00  57.00-180.00   50
;
_diffrn_measurement_device       'four-circle diffractometer'
_diffrn_measurement_device_type  'XtaLAB AFC12 (RCD3): Kappa single'
_diffrn_measurement_method       '\w scans'
_diffrn_orient_matrix_type
'CrysAlisPro convention (1999,Acta A55,543-557)'
_diffrn_orient_matrix_UB_11      -0.0263720000
_diffrn_orient_matrix_UB_12      -0.0163452000
_diffrn_orient_matrix_UB_13      0.0524548000
_diffrn_orient_matrix_UB_21      -0.0133771000
_diffrn_orient_matrix_UB_22      0.0343323000
_diffrn_orient_matrix_UB_23      0.0225405000
_diffrn_orient_matrix_UB_31      -0.0239121000
_diffrn_orient_matrix_UB_32      -0.0011437000
_diffrn_orient_matrix_UB_33      -0.0707023000
_diffrn_radiation_monochromator  mirror
_diffrn_radiation_probe          x-ray
_diffrn_radiation_type           CuK\a
_diffrn_radiation_wavelength     1.54178
_diffrn_reflns_av_R_equivalents  0.0542
_diffrn_reflns_av_unetI/netI     0.0344
_diffrn_reflns_Laue_measured_fraction_full 0.981
_diffrn_reflns_Laue_measured_fraction_max 0.981
_diffrn_reflns_limit_h_max       21
_diffrn_reflns_limit_h_min       -48
_diffrn_reflns_limit_k_max       48
_diffrn_reflns_limit_k_min       -48
_diffrn_reflns_limit_l_max       19
_diffrn_reflns_limit_l_min       -20
_diffrn_reflns_number            42600
_diffrn_reflns_point_group_measured_fraction_full 0.981
_diffrn_reflns_point_group_measured_fraction_max 0.981
_diffrn_reflns_theta_full        67.071
_diffrn_reflns_theta_max         67.071
_diffrn_reflns_theta_min         3.571
_diffrn_source                   'Rotating-anode X-ray tube (dual wavelength)'
_diffrn_source_type              'Rigaku (Cu) X-ray DW Source'
_exptl_absorpt_coefficient_mu    8.422
_exptl_absorpt_correction_T_max  1.00000
_exptl_absorpt_correction_T_min  0.58782
_exptl_absorpt_correction_type   multi-scan
_exptl_absorpt_process_details
;
CrysAlisPro 1.171.39.35c (Rigaku Oxford Diffraction, 2017)
Empirical absorption correction using spherical harmonics,
 implemented in SCALE3 ABSPACK scaling algorithm.
;
_exptl_crystal_colour            colourless
_exptl_crystal_colour_primary    colourless
_exptl_crystal_density_diffrn    1.136
_exptl_crystal_description       block
_exptl_crystal_F_000             8768
_exptl_crystal_size_max          0.1
_exptl_crystal_size_mid          0.06
_exptl_crystal_size_min          0.04
_refine_diff_density_max         0.832
_refine_diff_density_min         -1.555
_refine_diff_density_rms         0.122
_refine_ls_extinction_method     none
_refine_ls_goodness_of_fit_ref   1.074
_refine_ls_hydrogen_treatment    constr
_refine_ls_matrix_type           full
_refine_ls_number_parameters     252
_refine_ls_number_reflns         6304
_refine_ls_number_restraints     241
_refine_ls_restrained_S_all      1.088
_refine_ls_R_factor_all          0.0673
_refine_ls_R_factor_gt           0.0593
_refine_ls_shift/su_max          0.001
_refine_ls_shift/su_mean         0.000
_refine_ls_structure_factor_coef Fsqd
_refine_ls_weighting_details
'w=1/[\s^2^(Fo^2^)+(0.1071P)^2^+124.6450P] where P=(Fo^2^+2Fc^2^)/3'
_refine_ls_weighting_scheme      calc
_refine_ls_wR_factor_gt          0.1742
_refine_ls_wR_factor_ref         0.1842
_reflns_Friedel_coverage         0.000
_reflns_number_gt                5212
_reflns_number_total             6304
_reflns_threshold_expression     'I > 2\s(I)'
_cod_data_source_file            c9sc00178f2.cif
_cod_data_source_block           BUT-108(Hf)
_cod_original_cell_volume        27807.4(9)
_cod_database_code               1550668
_shelx_shelxl_version_number     2018/3
_chemical_oxdiff_formula         'C H O B Hf'
_shelx_space_group_comment
;
The symmetry employed for this shelxl refinement is uniquely defined
by the following loop, which should always be used as a source of
symmetry information in preference to the above space-group names.
They are only intended as comments.
;
_shelx_estimated_absorpt_t_max   0.729
_shelx_estimated_absorpt_t_min   0.486
_reflns_odcompleteness_completeness 97.95
_reflns_odcompleteness_iscentric 1
_reflns_odcompleteness_theta     66.97
_olex2_refinement_description
;
1. Fixed Uiso
 At 1.2 times of:
  All C(H) groups
2. Restrained distances
 C13-O4 = C13-O5
 1.4 with sigma of 0.02
3. Rigid bond restraints
 All non-hydrogen atoms
 with sigma for 1-2 distances of 0.01 and sigma for 1-3 distances of 0.01
4. Uiso/Uaniso restraints and constraints
All non-hydrogen atoms have similar U: within 2A with sigma of 0.04 and sigma
for terminal atoms of 0.08
Uanis(C15) \\sim Ueq, Uanis(C15) \\sim Ueq, Uanis(C15) \\sim Ueq, Uanis(C15)
\\sim Ueq, Uanis(C15) \\sim Ueq, Uanis(C15) \\sim Ueq, Uanis(C15) \\sim Ueq,
Uanis(C15) \\sim Ueq, Uanis(C15) \\sim Ueq: with sigma of 0.02 and sigma for
terminal atoms of 0.04
5. Others
 Fixed Sof: C13(0.5) O11(0.5) C14(0.5)
6.a Aromatic/amide H refined with riding coordinates:
 C12(H12), C11(H11), C8(H8), C3(H3), C7(H7), C4(H4), C15(H15)
;
_shelx_res_file
;
TITL hf141_a.res in I4(1)/amd
    hf141.res
    created by SHELXL-2018/3 at 10:38:23 on 23-Jul-2018
REM Old TITL hf141 in I4(1)/amd
REM SHELXT solution in I4(1)/amd: R1 0.410, Rweak 0.045, Alpha 0.046
REM <I/s> 0.575 for 350 systematic absences, Orientation as input
REM Formula found by SHELXT: C27 O25 Hf3
CELL 1.54178 40.4997 40.4997 16.9534 90 90 90
ZERR 16 0.0004 0.0004 0.0004 0 0 0
LATT 2
SYMM 0.5-X,-Y,0.5+Z
SYMM 0.25-Y,0.75+X,0.25+Z
SYMM 0.25+Y,0.25-X,0.75+Z
SYMM 0.5-X,+Y,0.5-Z
SYMM +X,-Y,-Z
SYMM 0.25+Y,0.75+X,0.25-Z
SYMM 0.25-Y,0.25-X,0.75-Z
SFAC C H B Hf O
UNIT 384 208 48 48 320
DFIX 1.4 C13 O4 C13 O5
DELU
SIMU
ISOR 0.02 0.04 C15 C15 C15 C15 C15 C15 C15 C15 C15

L.S. 10
PLAN  1
SIZE 0.04 0.06 0.1
list 4
ABIN
fmap 2
acta
REM <olex2.extras>
REM <HklSrc "%.\\hf141.hkl">
REM </olex2.extras>

WGHT    0.107100  124.644997
FVAR       0.04711
HF2   4    0.542954    0.520745    0.090646    11.00000    0.14246    0.04245 =
         0.04895   -0.00192    0.00227   -0.00336
HF1   4    0.500000    0.446315    0.067681    10.50000    0.16838    0.03876 =
         0.04774    0.00040    0.00000    0.00000
O10   5    0.500000    0.643443    0.685783    10.50000    0.05517    0.07895 =
         0.04772   -0.00229    0.00000    0.00000
O9    5    0.656975    0.717321    0.776502    11.00000    0.04035    0.16496 =
         0.06142   -0.01004   -0.00063   -0.00626
O8    5    0.678639    0.689445    0.673372    11.00000    0.04725    0.13513 =
         0.06253   -0.00275    0.00019    0.00338
O1    5    0.528197    0.545573    0.199501    11.00000    0.19624    0.05496 =
         0.05659   -0.01612    0.01332   -0.02441
O5    5    0.565635    0.492238    0.188939    11.00000    0.10983    0.13971 =
         0.06304    0.01314   -0.00648   -0.00883
O2    5    0.500000    0.493345    0.124639    10.50000    0.12438    0.05382 =
         0.12947   -0.03626    0.00000    0.00000
O3    5    0.542559    0.473535    0.036645    11.00000    0.23431    0.05865 =
         0.05931   -0.01822    0.02415   -0.02128
O4    5    0.531281    0.433456    0.168155    11.00000    0.24888    0.07413 =
         0.05940    0.00300   -0.01475    0.04641
O6    5    0.595885    0.517700    0.068764    11.00000    0.15904    0.07729 =
         0.16282    0.02703    0.06579    0.02137
O12   5    0.528690    0.615330    0.582649    11.00000    0.09430    0.21035 =
         0.09306   -0.07929    0.02912   -0.05134
O7    5    0.500000    0.544641    0.053748    10.50000    0.15277    0.13054 =
         0.09247    0.05762    0.00000    0.00000
C12   1    0.565769    0.672979    0.736170    11.00000    0.05475    0.10774 =
         0.07121   -0.02030    0.01305   -0.00818
AFIX  43
H12   2    0.547669    0.678300    0.767444    11.00000   -1.20000
AFIX   0
C11   1    0.595897    0.686917    0.751447    11.00000    0.06253    0.11483 =
         0.06168   -0.01755    0.00205   -0.00896
AFIX  43
H11   2    0.598190    0.700655    0.795062    11.00000   -1.20000
AFIX   0
C9    1    0.622727    0.681200    0.704340    11.00000    0.05074    0.12059 =
         0.06249   -0.00718    0.00070   -0.00720
C10   1    0.655367    0.697309    0.719828    11.00000    0.04682    0.14057 =
         0.05291    0.00036   -0.00677    0.00098
C1    1    0.500000    0.551768    0.230122    10.50000    0.19521    0.04412 =
         0.04042   -0.00116    0.00000    0.00000
C2    1    0.500000    0.566746    0.310915    10.50000    0.18597    0.05948 =
         0.06010   -0.01867    0.00000    0.00000
C6    1    0.562205    0.651009    0.674340    11.00000    0.06425    0.15554 =
         0.07678   -0.04088    0.01967   -0.02806
C8    1    0.619454    0.660077    0.640985    11.00000    0.06673    0.22269 =
         0.09774   -0.06949    0.03012   -0.04043
AFIX  43
H8    2    0.637464    0.655770    0.608547    11.00000   -1.20000
AFIX   0
C5    1    0.500000    0.594542    0.458662    10.50000    0.14918    0.12620 =
         0.07385   -0.04089    0.00000    0.00000
C3    1    0.529930    0.572661    0.349010    11.00000    0.16946    0.17032 =
         0.07294   -0.06166    0.03344   -0.05196
AFIX  43
H3    2    0.549867    0.567610    0.324613    11.00000   -1.20000
AFIX   0
C7    1    0.589659    0.645492    0.626011    11.00000    0.07215    0.23980 =
         0.11183   -0.09801    0.03211   -0.04334
AFIX  43
H7    2    0.587593    0.631571    0.582665    11.00000   -1.20000
AFIX   0
C4    1    0.529308    0.586342    0.424644    11.00000    0.16225    0.15967 =
         0.08061   -0.06002    0.03084   -0.03354
AFIX  43
H4    2    0.548953    0.589851    0.451784    11.00000   -1.20000
AFIX   0
B1    3    0.500000    0.611130    0.542086    10.50000    0.12379    0.15805 =
         0.05621   -0.03264    0.00000    0.00000
B2    3    0.529015    0.631937    0.655050    11.00000    0.07366    0.14587 =
         0.09376   -0.05025    0.02778   -0.03098
C15   1    0.606741    0.500000    0.000000    10.50000    0.13180    0.15781 =
         0.15436   -0.01920    0.00000    0.00000
AFIX  43
H15   2    0.629704    0.500003   -0.000001    10.50000   -1.20000
AFIX   0
C13   1    0.558166    0.456166    0.198661    10.50000    0.13252    0.11795 =
         0.09124    0.05976    0.00534    0.03412
O11   5    0.534163    0.595585    0.723451    10.50000    0.07017    0.09350 =
         0.10969   -0.03229    0.00725    0.01505
C14   1    0.518292    0.406191    0.212493    10.50000    0.10232    0.08723 =
         0.03303   -0.01247   -0.00353    0.03586
HKLF 4




REM  hf141_a.res in I4(1)/amd
REM wR2 = 0.1842, GooF = S = 1.074, Restrained GooF = 1.088 for all data
REM R1 = 0.0593 for 5212 Fo > 4sig(Fo) and 0.0673 for all 6304 data
REM 252 parameters refined using 241 restraints

END

WGHT      0.1071    124.4828

REM Highest difference peak  0.832,  deepest hole -1.555,  1-sigma level  0.122
Q1    1   0.5000  0.5291  0.0568  10.50000  0.05    0.83
;
_shelx_res_checksum              74199
_shelx_fab_file
;
0 0 4 -253.6427 30.6379
0 0 12 25.4452 -32.2946
0 0 16 -1.7867 3.3186
1 0 3 57.9664 11.6217
1 0 5 40.7942 -20.6506
1 0 7 -65.7536 -35.1116
1 0 9 14.2409 8.8913
1 0 11 27.2829 18.6335
1 0 13 -6.3656 1.3325
1 0 15 -3.5288 4.5760
1 0 17 19.9300 0.5455
1 0 19 -2.7716 -9.1031
1 1 2 39.5985 10.9719
1 1 6 -12.5628 6.4247
1 1 10 8.4921 -6.9249
1 1 14 12.0073 -3.4115
1 1 18 7.5696 5.7660
2 0 2 -46.1191 -23.4197
2 0 4 -57.4715 -11.4510
2 0 6 34.7734 50.3312
2 0 8 6.0515 0.6853
2 0 10 28.3699 -21.0164
2 0 12 5.6845 8.7499
2 0 14 -6.7490 -4.6290
2 0 16 -2.9164 -8.7219
2 0 18 -7.1117 9.8663
2 1 1 -3.7708 -52.3334
2 1 3 -116.1476 11.3959
2 1 5 -81.4452 55.3792
2 1 7 -9.4852 -40.9478
2 1 9 0.0466 -12.8825
2 1 11 3.6237 11.5059
2 1 13 2.7976 -19.9316
2 1 15 2.7844 1.9894
2 1 17 8.7429 13.2311
2 1 19 7.2046 -3.1289
2 2 4 -40.4990 33.1931
2 2 8 -35.1134 14.0044
2 2 12 -3.9453 -26.8388
2 2 16 -1.1070 14.3174
3 0 1 191.5616 6.7346
3 0 3 -137.0277 1.0924
3 0 5 -76.8805 -10.2449
3 0 7 3.6311 15.0714
3 0 9 -29.1747 -4.4954
3 0 11 16.6400 -23.2498
3 0 13 -4.4292 17.3721
3 0 15 -2.0301 -1.5988
3 0 17 -9.3229 -5.5295
3 0 19 6.3146 13.2181
3 1 2 -52.0468 -14.5199
3 1 4 53.4788 -16.9366
3 1 6 -13.0873 -2.8208
3 1 8 -11.1145 -8.5172
3 1 10 0.2437 14.9961
3 1 12 -2.2586 28.6284
3 1 14 -6.7701 -8.3394
3 1 16 -14.0176 -7.9261
3 1 18 -8.4894 0.7871
3 2 1 -14.7716 1.0837
3 2 3 0.8969 -4.9571
3 2 5 -24.2104 -4.1067
3 2 7 -1.5248 -17.1539
3 2 9 3.9212 18.7718
3 2 11 14.0181 28.4080
3 2 13 -6.8573 -17.2760
3 2 15 -1.9534 -11.5143
3 2 17 -13.8796 -2.2591
3 2 19 -8.2894 -9.0556
3 3 2 -178.9983 -2.3188
3 3 6 19.5803 -14.8497
3 3 10 1.1169 7.0121
3 3 14 3.3850 12.1770
3 3 18 -0.7629 -10.7379
4 0 0 -48.0657 6.3319
4 0 2 -65.6551 18.9269
4 0 4 22.5534 23.0277
4 0 6 45.9239 -58.8864
4 0 8 -49.2187 0.7384
4 0 10 -16.4849 37.7202
4 0 12 7.5937 -15.1969
4 0 14 6.2117 -2.7359
4 0 16 2.9631 16.4666
4 0 18 -4.2068 -15.2779
4 0 20 10.6424 -6.5749
4 1 1 272.5952 81.7021
4 1 3 137.8741 9.7357
4 1 5 -11.1588 -45.1699
4 1 7 -16.2696 55.6272
4 1 9 -2.1035 8.0486
4 1 11 -13.9985 -44.6612
4 1 13 -3.3487 15.5355
4 1 15 -11.8037 7.2336
4 1 17 -2.6398 -11.9881
4 1 19 -1.8481 6.8758
4 2 0 -371.2348 -26.1709
4 2 2 110.2213 -19.4847
4 2 4 28.9049 -1.8289
4 2 6 23.8538 33.3939
4 2 8 1.9486 -15.1489
4 2 10 18.7321 -28.2485
4 2 12 -4.0389 4.8305
4 2 14 5.2535 5.3596
4 2 16 -1.7600 10.5220
4 2 18 -2.0888 8.8060
4 2 20 3.4229 -4.9158
4 3 1 -26.9300 -24.4899
4 3 3 77.1258 7.7023
4 3 5 -44.9006 11.5113
4 3 7 -1.3336 -5.9194
4 3 9 20.3176 -3.3508
4 3 11 9.5561 -5.2664
4 3 13 -1.8395 -6.4955
4 3 15 3.5692 -1.1271
4 3 17 3.3308 2.0085
4 3 19 -7.7011 4.6013
4 4 0 211.4981 -8.2269
4 4 4 -78.3744 27.2218
4 4 8 -38.8705 14.0004
4 4 12 10.2198 -25.8026
4 4 16 3.4488 13.2052
4 4 20 -16.9930 0.2778
5 0 1 16.2195 -10.9660
5 0 3 156.4023 11.4520
5 0 5 -0.9081 19.0093
5 0 7 12.3150 -31.1622
5 0 9 15.7115 6.1466
5 0 11 26.3993 16.5950
5 0 13 2.4158 -29.8836
5 0 15 2.8976 18.6768
5 0 17 7.7419 18.0106
5 0 19 -8.0512 -20.5746
5 1 2 -167.9987 3.5121
5 1 4 52.5083 14.1635
5 1 6 11.8229 -12.3979
5 1 8 -38.4109 10.3794
5 1 10 0.1363 0.8091
5 1 12 9.4128 -24.4910
5 1 14 -1.1991 12.2428
5 1 16 -17.7197 3.6912
5 1 18 0.9502 -9.1934
5 1 20 -5.7484 15.8450
5 2 1 217.2007 8.0649
5 2 3 15.0988 5.5902
5 2 5 -20.1159 -13.0742
5 2 7 11.0338 9.1580
5 2 9 -21.0126 5.6414
5 2 11 6.0693 -8.2628
5 2 13 1.3100 11.7709
5 2 15 -1.4097 -8.2322
5 2 17 4.8306 -9.9950
5 2 19 7.4686 8.8521
5 3 2 -161.6716 -3.5420
5 3 4 -43.7666 -18.4092
5 3 6 17.5653 1.3629
5 3 8 -2.7336 -0.9526
5 3 10 -8.5032 4.9729
5 3 12 2.0328 19.6024
5 3 14 1.0491 -4.8402
5 3 16 -5.7990 -5.5180
5 3 18 -5.3271 0.6564
5 3 20 -23.4642 -10.5072
5 4 1 -93.5874 23.5526
5 4 3 -102.2321 -13.8223
5 4 5 33.9792 -36.0839
5 4 7 16.9703 -22.3846
5 4 9 -8.7456 4.3102
5 4 11 -6.0155 35.5907
5 4 13 -2.6089 12.6029
5 4 15 15.1450 -20.1267
5 4 17 -5.9822 -12.7345
5 4 19 -3.0738 0.0771
5 5 2 63.4476 -21.5469
5 5 6 -30.8084 -22.4044
5 5 10 10.0218 20.7454
5 5 14 -11.5352 12.8512
5 5 18 1.0028 -17.2730
6 0 0 150.3274 22.0812
6 0 2 -91.3450 -28.7564
6 0 4 54.6622 -31.0205
6 0 6 59.6479 39.8096
6 0 8 34.2546 2.3684
6 0 10 3.8669 -24.2468
6 0 12 1.5654 25.2207
6 0 14 14.3370 -0.5912
6 0 16 1.0965 -23.5695
6 0 18 -16.3166 8.5751
6 0 20 13.0314 8.0586
6 1 1 -91.7672 -10.6942
6 1 3 -78.5444 -6.6336
6 1 5 11.0176 -3.4733
6 1 7 2.4993 -3.5208
6 1 9 1.9338 -18.9355
6 1 11 10.7219 13.3443
6 1 13 1.3901 13.4348
6 1 15 5.8447 -10.0532
6 1 17 12.7426 6.1767
6 1 19 -11.7500 0.2062
6 2 0 163.7821 -6.2650
6 2 2 106.6464 11.0686
6 2 4 56.9119 9.9736
6 2 6 -9.0003 -9.8921
6 2 8 -6.0013 -0.5203
6 2 10 -22.0906 7.5497
6 2 12 1.4634 0.1967
6 2 14 4.8919 -4.8794
6 2 16 5.2931 2.2035
6 2 18 8.3079 -0.8630
6 2 20 12.5422 -3.5482
6 3 1 140.5800 35.9185
6 3 3 -24.2002 7.0683
6 3 5 8.5573 5.8325
6 3 7 -8.5428 7.8064
6 3 9 -2.1489 0.5838
6 3 11 0.4831 -4.5857
6 3 13 -2.8861 -7.3887
6 3 15 -2.7527 -1.4918
6 3 17 9.7846 3.5720
6 3 19 -16.1196 -0.8176
6 4 0 -247.5921 3.4861
6 4 2 12.3123 -20.7441
6 4 4 -79.7759 9.3075
6 4 6 1.1467 8.5184
6 4 8 -17.2428 -6.1117
6 4 10 7.5899 -9.5071
6 4 12 -0.9435 -9.8994
6 4 14 0.0007 4.0954
6 4 16 -2.1742 14.7517
6 4 18 0.8853 -0.8401
6 4 20 14.9767 0.1040
6 5 1 78.4042 7.5026
6 5 3 107.6233 0.4987
6 5 5 -9.1096 -9.6431
6 5 7 -20.2652 19.4086
6 5 9 -8.1779 6.3627
6 5 11 6.4428 -18.7723
6 5 13 -3.0979 -8.2157
6 5 15 6.0635 -0.9533
6 5 17 -0.4663 0.4554
6 5 19 0.8702 11.6642
6 6 0 -64.3614 23.5286
6 6 4 -16.5089 -0.3142
6 6 8 -13.2133 -11.9776
6 6 12 13.8380 5.4392
6 6 16 -1.2176 5.3312
7 0 1 -71.5255 14.5379
7 0 3 100.9462 -3.4077
7 0 5 -0.5511 -1.2907
7 0 7 -25.2635 22.8763
7 0 9 -29.4861 -30.6042
7 0 11 -18.4034 -30.9039
7 0 13 0.6629 32.5049
7 0 15 12.8198 -0.2950
7 0 17 19.5418 -1.4725
7 0 19 13.1091 19.5725
7 1 2 106.0997 -23.4627
7 1 4 104.6518 15.7076
7 1 6 21.1531 26.4059
7 1 8 15.3631 -13.7606
7 1 10 -5.3502 -2.1985
7 1 12 -4.6701 10.7467
7 1 14 -1.2307 -25.7702
7 1 16 -14.2450 0.4404
7 1 18 -0.0173 19.5600
7 1 20 -0.6880 -7.4200
7 2 1 6.2503 14.5422
7 2 3 59.3165 2.8037
7 2 5 52.8181 -7.9357
7 2 7 0.4171 -3.0598
7 2 9 6.0778 -2.9074
7 2 11 0.2127 -2.3600
7 2 13 11.7161 5.6131
7 2 15 4.6437 0.8812
7 2 17 -10.2086 -0.0470
7 2 19 -4.4315 -0.4912
7 3 2 105.4051 17.0863
7 3 4 -12.5477 0.5592
7 3 6 0.9439 3.9532
7 3 8 -9.9851 -3.7897
7 3 10 14.3326 -12.4013
7 3 12 12.9609 4.2704
7 3 14 -3.0428 -0.0428
7 3 16 2.0627 0.2183
7 3 18 15.2293 3.7249
7 3 20 -6.0259 -0.4745
7 4 1 89.2450 8.2678
7 4 3 -85.0272 10.1574
7 4 5 8.7970 0.8365
7 4 7 23.8078 -1.3736
7 4 9 10.1983 6.2022
7 4 11 3.0441 0.0518
7 4 13 4.3262 -5.1158
7 4 15 3.1818 0.2323
7 4 17 -0.7185 4.3208
7 4 19 3.4254 1.6477
7 5 2 17.4944 -3.7741
7 5 4 -39.9831 -22.2216
7 5 6 16.2568 2.5688
7 5 8 -1.4234 14.3084
7 5 10 -6.7443 4.5286
7 5 12 0.3104 6.1972
7 5 14 -1.4062 -5.5734
7 5 16 -2.8407 -4.5104
7 5 18 5.6463 0.1509
7 6 1 51.7316 20.9755
7 6 3 59.4926 -17.9307
7 6 5 8.3077 0.3126
7 6 7 5.6537 13.2951
7 6 9 -14.7805 -8.3022
7 6 11 -11.0555 0.6027
7 6 13 6.6498 5.1193
7 6 15 6.1282 -10.3566
7 6 17 -4.7108 -3.1914
7 6 19 -2.6268 6.8995
7 7 2 -146.5078 -30.9364
7 7 6 -42.7873 -10.0732
7 7 10 21.9960 24.1541
7 7 14 -3.5865 -5.9501
7 7 18 -21.9827 -6.2349
8 0 0 78.2118 -1.5960
8 0 2 -36.1363 -9.9189
8 0 4 -72.5011 18.8254
8 0 6 -29.6059 -0.2863
8 0 8 -24.3886 -3.8627
8 0 10 -4.3452 43.2040
8 0 12 1.0785 -10.6258
8 0 14 9.1874 -28.8864
8 0 16 20.4341 12.7253
8 0 18 -21.3999 -14.6849
8 1 1 -15.4225 -2.0200
8 1 3 13.6779 1.7847
8 1 5 -5.4476 -8.8014
8 1 7 30.2091 -15.2736
8 1 9 -10.3491 20.6928
8 1 11 -8.7890 6.4892
8 1 13 -0.0430 -1.5152
8 1 15 -5.1872 11.6613
8 1 17 8.1429 -11.5545
8 1 19 5.6739 -8.2387
8 2 0 -21.6869 20.8153
8 2 2 -26.8786 -16.9439
8 2 4 72.7143 -3.6666
8 2 6 20.7681 -4.3109
8 2 8 14.7086 -2.3274
8 2 10 0.2051 2.1767
8 2 12 -1.2843 -0.1751
8 2 14 2.2118 0.4450
8 2 16 5.3371 1.2968
8 2 18 0.4311 1.4642
8 3 1 9.7886 -3.4264
8 3 3 -27.5512 -9.7011
8 3 5 -24.2558 -21.0933
8 3 7 -18.4584 9.1336
8 3 9 16.5975 2.0934
8 3 11 8.3013 -7.5962
8 3 13 -5.1421 6.0844
8 3 15 0.2249 1.9176
8 3 17 0.6221 -4.6247
8 3 19 2.6284 4.2061
8 4 0 96.6226 15.3090
8 4 2 -20.2479 9.6504
8 4 4 118.2374 -5.5012
8 4 6 -11.2314 -11.3980
8 4 8 -2.2584 8.6528
8 4 10 3.3087 3.7695
8 4 12 5.1764 9.1962
8 4 14 -9.3499 0.0657
8 4 16 -8.0914 -14.2161
8 4 18 6.1252 -3.6354
8 5 1 6.6133 10.5512
8 5 3 -18.8303 15.9812
8 5 5 49.7544 9.5612
8 5 7 -17.8176 -0.7621
8 5 9 6.4234 -8.0347
8 5 11 -3.8288 -2.2779
8 5 13 4.7539 2.6584
8 5 15 1.4602 4.2204
8 5 17 3.3458 0.7921
8 5 19 11.3024 -3.0930
8 6 0 -210.1349 7.1948
8 6 2 23.9716 1.8201
8 6 4 18.7274 -12.9280
8 6 6 16.2219 -8.8966
8 6 8 -10.7444 -14.3429
8 6 10 10.3341 1.6225
8 6 12 3.7435 18.0107
8 6 14 8.6657 2.5738
8 6 16 -4.5956 -5.2645
8 6 18 -9.0670 -4.4176
8 7 1 8.7272 18.0873
8 7 3 2.0210 10.9310
8 7 5 -13.3127 13.1582
8 7 7 -22.9497 -4.7584
8 7 9 -12.1905 -14.4544
8 7 11 15.4587 -1.7449
8 7 13 1.4841 -4.4396
8 7 15 -5.6440 -1.4430
8 7 17 4.1371 5.3005
8 7 19 -2.3533 2.4944
8 8 0 -24.1692 33.9248
8 8 4 -98.2753 -17.0551
8 8 8 -0.2341 -29.6773
8 8 12 -1.4920 18.6230
8 8 16 12.7208 6.2721
9 0 1 -160.4430 -12.5273
9 0 3 0.1324 51.0148
9 0 5 45.6960 -4.3035
9 0 7 -42.9126 -44.9426
9 0 9 -3.2363 17.8299
9 0 11 17.6788 -10.8551
9 0 13 11.1366 -23.2935
9 0 15 14.9318 35.6705
9 0 17 5.7787 17.9899
9 0 19 -0.6126 -20.9237
9 1 2 -111.2608 28.1804
9 1 4 55.7549 -20.1550
9 1 6 -21.8567 -6.2769
9 1 8 -17.8662 18.0498
9 1 10 6.7022 -19.5877
9 1 12 8.5268 -8.6642
9 1 14 11.5739 12.1404
9 1 16 16.9745 -1.0647
9 1 18 -1.4670 -3.2510
9 2 1 -81.7070 11.8488
9 2 3 -118.2717 -2.7916
9 2 5 40.8545 7.6864
9 2 7 -24.8062 1.1157
9 2 9 -14.8742 0.1991
9 2 11 3.6240 1.4454
9 2 13 -1.4590 -5.6953
9 2 15 -7.0815 4.2828
9 2 17 -3.2299 4.2056
9 2 19 1.2464 -1.6262
9 3 2 108.0762 2.4650
9 3 4 53.6793 0.4977
9 3 6 -7.8053 4.1517
9 3 8 6.6727 15.9204
9 3 10 -4.4367 -4.7509
9 3 12 1.1242 -7.4674
9 3 14 -0.1853 1.5533
9 3 16 13.1146 -0.8437
9 3 18 -0.2829 -1.6335
9 4 1 -37.9585 14.5989
9 4 3 -5.6070 -12.2522
9 4 5 19.1151 -0.4364
9 4 7 -5.5094 6.8086
9 4 9 12.0544 -12.5491
9 4 11 -3.1227 -13.2633
9 4 13 -2.1151 11.4919
9 4 15 8.3902 1.1793
9 4 17 -4.7248 -2.0352
9 4 19 -5.4310 6.4924
9 5 2 109.5425 21.7602
9 5 4 11.4844 -5.2060
9 5 6 10.9518 2.4874
9 5 8 10.0206 7.6061
9 5 10 12.0784 -11.7311
9 5 12 5.5065 1.8742
9 5 14 -8.8544 1.0098
9 5 16 10.2284 -3.2477
9 5 18 5.4507 2.4932
9 6 1 16.7400 3.2546
9 6 3 31.2041 -1.2647
9 6 5 -45.9533 15.4735
9 6 7 -5.5831 13.8190
9 6 9 -9.1067 -5.5513
9 6 11 7.9211 -7.0956
9 6 13 5.0043 -0.9608
9 6 15 3.2074 -1.0841
9 6 17 -5.0452 3.5098
9 6 19 -3.1764 3.8639
9 7 2 -26.8331 -8.2141
9 7 4 48.4489 -30.2020
9 7 6 -16.9583 9.0240
9 7 8 3.5163 25.8154
9 7 10 6.5356 5.2684
9 7 12 0.7895 0.3637
9 7 14 -0.1586 -16.4031
9 7 16 -2.0817 -4.2133
9 7 18 5.9615 11.4345
9 8 1 38.6739 -2.3263
9 8 3 -45.9529 -22.5686
9 8 5 -24.1843 20.2248
9 8 7 4.8770 27.9929
9 8 9 14.5738 -11.2241
9 8 11 4.9320 -10.3385
9 8 13 -11.6931 -0.1847
9 8 15 3.6735 -7.3079
9 8 17 3.8888 0.9382
9 8 19 -0.7043 5.5754
9 9 2 -17.6817 -51.9370
9 9 6 -21.3718 12.2205
9 9 10 -1.7234 21.0579
9 9 14 -4.1873 -28.9491
9 9 18 18.2436 12.2258
10 0 0 4.5151 10.3114
10 0 2 41.4207 12.6171
10 0 4 -35.4468 -19.9700
10 0 6 56.7915 -12.1143
10 0 8 -0.7478 35.6228
10 0 10 5.4697 -0.3116
10 0 12 -2.5671 8.3891
10 0 14 -4.5754 4.4483
10 0 16 -12.6273 -35.4298
10 0 18 -7.4896 1.4226
10 1 1 -23.4143 8.6528
10 1 3 33.1279 -9.0076
10 1 5 -64.0632 -4.4342
10 1 7 3.2066 13.3575
10 1 9 -6.0907 -13.8714
10 1 11 14.8012 7.4935
10 1 13 -0.5060 3.9311
10 1 15 2.0950 -15.9567
10 1 17 2.5739 7.3003
10 1 19 -7.0304 2.5939
10 2 0 -60.1219 20.9320
10 2 2 -55.0010 4.1447
10 2 4 -22.3719 2.2461
10 2 6 -22.6542 9.2509
10 2 8 -13.7171 -7.5889
10 2 10 12.8263 2.0360
10 2 12 0.9193 -4.1523
10 2 14 -0.9391 -6.5981
10 2 16 11.2712 8.0320
10 2 18 7.5373 3.6655
10 3 1 58.6607 9.7855
10 3 3 7.2311 -2.7715
10 3 5 4.3298 6.0104
10 3 7 20.6322 0.1909
10 3 9 14.5542 -0.2699
10 3 11 -12.7180 7.1029
10 3 13 -7.4281 -1.0051
10 3 15 3.4209 0.1074
10 3 17 -0.1335 1.7689
10 3 19 4.8693 -2.3094
10 4 0 -69.3370 23.1758
10 4 2 45.0167 -3.0912
10 4 4 40.8952 -3.7169
10 4 6 -25.9897 -7.2408
10 4 8 -13.4442 -10.7253
10 4 10 9.9290 8.3498
10 4 12 4.7451 6.7909
10 4 14 8.0932 -2.9254
10 4 16 -7.6158 2.4647
10 4 18 2.5972 -2.1086
10 5 1 -143.3733 -6.5965
10 5 3 -30.0570 -10.6272
10 5 5 -5.1062 -3.7457
10 5 7 -21.5504 -2.3717
10 5 9 12.0646 8.2911
10 5 11 6.5437 -3.5726
10 5 13 6.1216 -5.5480
10 5 15 -5.3718 3.0551
10 5 17 -0.8429 -1.4558
10 5 19 10.9061 -0.4459
10 6 0 85.1802 27.0153
10 6 2 -36.1269 4.1973
10 6 4 1.5418 -5.6026
10 6 6 27.8307 -3.2158
10 6 8 1.9765 16.0986
10 6 10 7.0706 -0.7464
10 6 12 -3.8923 0.5238
10 6 14 -4.7814 1.9446
10 6 16 5.0976 -14.2804
10 6 18 9.3862 -3.0846
10 7 1 -45.2501 6.3048
10 7 3 -22.0316 26.8289
10 7 5 5.5745 14.4170
10 7 7 5.3401 -11.9998
10 7 9 6.6640 -12.3839
10 7 11 -10.7079 1.5053
10 7 13 0.4024 5.1630
10 7 15 -6.4392 4.6374
10 7 17 1.8520 -0.5793
10 7 19 2.5429 -3.8822
10 8 0 25.8076 10.3225
10 8 2 -1.9755 25.3892
10 8 4 35.0437 -5.0442
10 8 6 30.0087 -15.3834
10 8 8 -11.1734 -1.9862
10 8 10 -3.2563 2.8001
10 8 12 -2.3801 6.2765
10 8 14 1.9000 4.6952
10 8 16 -0.1709 -3.3493
10 8 18 -5.7115 -2.1726
10 9 1 -0.4850 7.8948
10 9 3 35.3556 11.3255
10 9 5 -16.8589 9.9856
10 9 7 21.6037 -7.8869
10 9 9 -2.6894 -19.4485
10 9 11 -0.8527 7.2041
10 9 13 7.5318 9.8798
10 9 15 0.0773 -3.3849
10 9 17 4.2754 0.9697
10 9 19 -1.3549 -3.0521
10 10 0 -66.5769 29.8844
10 10 4 -29.3475 -16.4010
10 10 8 -0.3580 -29.0075
10 10 12 1.7170 17.4036
10 10 16 7.8987 6.0178
11 0 1 114.6557 46.2994
11 0 3 138.1942 -71.2957
11 0 5 -5.3746 46.1427
11 0 7 -37.1324 29.1673
11 0 9 -26.4181 -66.5408
11 0 11 -2.8559 1.3582
11 0 13 -4.2850 23.1606
11 0 15 -17.6662 -4.8601
11 0 17 10.3874 11.9770
11 0 19 7.8905 6.8325
11 1 2 4.0346 -29.0321
11 1 4 29.9757 24.0711
11 1 6 -10.1588 1.0705
11 1 8 1.2365 -16.8010
11 1 10 -10.5397 10.5191
11 1 12 0.2749 3.3558
11 1 14 -1.4695 -4.8037
11 1 16 -38.4359 7.4459
11 1 18 -0.5747 1.8771
11 2 1 -66.3056 13.4172
11 2 3 -31.7076 -6.5596
11 2 5 8.8943 -1.3473
11 2 7 12.0230 1.6497
11 2 9 38.7410 0.0747
11 2 11 5.8636 1.1544
11 2 13 -2.5919 8.7520
11 2 15 1.6990 -5.3349
11 2 17 -17.7138 -9.0925
11 2 19 -4.4616 -3.4907
11 3 2 -120.2941 -10.1931
11 3 4 -48.9954 6.5142
11 3 6 1.2770 -0.2620
11 3 8 4.9404 -12.5673
11 3 10 -2.5851 7.1189
11 3 12 -2.8257 10.5312
11 3 14 9.8237 -12.8039
11 3 16 0.2987 -1.1134
11 3 18 8.5188 2.6792
11 4 1 36.2921 6.6740
11 4 3 -19.1429 1.0992
11 4 5 45.7267 3.6219
11 4 7 -5.5464 -5.1619
11 4 9 -21.0415 6.6114
11 4 11 2.1054 1.8922
11 4 13 -0.2339 -7.7769
11 4 15 9.7257 3.5263
11 4 17 4.6046 3.2527
11 4 19 23.5663 -0.3113
11 5 2 31.1436 16.1346
11 5 4 4.1562 6.5493
11 5 6 -20.4505 2.5329
11 5 8 -22.9128 -0.8033
11 5 10 1.5943 -8.9976
11 5 12 6.5267 5.5264
11 5 14 0.5664 -0.0689
11 5 16 0.7814 2.2514
11 5 18 1.3620 -0.6542
11 6 1 -14.5021 3.7286
11 6 3 -4.7585 0.2134
11 6 5 -17.6530 -14.4019
11 6 7 15.3412 -24.4622
11 6 9 -24.4650 6.4748
11 6 11 -6.6321 6.4374
11 6 13 -2.8364 -4.1497
11 6 15 7.5410 7.3644
11 6 17 -3.1199 -1.1448
11 6 19 6.8898 -4.1924
11 7 2 20.4879 11.7960
11 7 4 34.0712 -19.4315
11 7 6 -28.7244 -3.7240
11 7 8 24.9251 24.2425
11 7 10 4.0696 -11.1729
11 7 12 -16.3789 -10.5757
11 7 14 1.6919 14.0232
11 7 16 5.1407 -2.4655
11 7 18 -7.0010 -4.0051
11 8 1 27.5863 -9.3486
11 8 3 5.5769 -8.3294
11 8 5 7.1820 8.8185
11 8 7 -7.5034 6.4216
11 8 9 -15.9466 -3.8057
11 8 11 11.4550 1.3521
11 8 13 1.3535 6.4760
11 8 15 -6.3755 -2.9868
11 8 17 5.0962 -5.0026
11 8 19 -5.5305 -2.1404
11 9 2 26.8141 5.7320
11 9 4 18.5142 -16.8684
11 9 6 -22.5419 4.2855
11 9 8 14.4278 25.9744
11 9 10 9.5239 -5.8475
11 9 12 -0.3942 -9.5136
11 9 14 6.2907 -6.5450
11 9 16 -5.6022 -3.3289
11 9 18 6.5898 4.9119
11 10 1 1.1854 -13.9932
11 10 3 -8.2102 -20.0426
11 10 5 -9.5401 17.7849
11 10 7 -8.8696 29.9497
11 10 9 19.0401 -17.8656
11 10 11 8.6076 -13.2535
11 10 13 -3.0090 9.8605
11 10 15 -1.6476 -7.7300
11 10 17 9.3034 -1.2345
11 10 19 4.2000 8.3814
11 11 2 -122.3443 -56.2171
11 11 6 2.2975 25.0116
11 11 10 2.0389 13.1714
11 11 14 9.7331 -35.4975
11 11 18 15.0522 21.4145
12 0 0 23.2256 15.5796
12 0 2 -22.8275 -8.0122
12 0 4 -12.2360 -19.7435
12 0 6 31.0802 10.6743
12 0 8 -25.1996 -6.2688
12 0 10 -13.8987 24.2590
12 0 12 1.9964 10.3399
12 0 14 6.5513 -22.0705
12 0 18 -14.4448 -3.6363
12 1 1 -9.1140 -8.4394
12 1 3 24.6618 3.6101
12 1 5 -29.8170 9.2171
12 1 7 -12.0177 -6.4534
12 1 9 -12.0511 9.2819
12 1 11 -3.6256 1.3865
12 1 13 3.7720 -8.6420
12 1 15 -0.5498 3.2249
12 1 17 17.1506 -1.8688
12 1 19 3.0248 -2.3810
12 2 0 -51.7567 17.8216
12 2 2 -74.7350 -2.0121
12 2 4 -26.1683 1.5709
12 2 6 -3.0883 3.5778
12 2 8 -4.5164 2.1174
12 2 10 -0.8567 -13.5652
12 2 12 -8.3784 -8.8443
12 2 14 11.7732 8.0360
12 2 16 -0.0886 7.1732
12 2 18 5.3593 6.0528
12 3 1 -25.6181 8.8937
12 3 3 -8.6823 1.2330
12 3 5 -12.2317 5.3609
12 3 7 10.3158 -0.0519
12 3 9 17.5071 -10.3045
12 3 11 -6.2701 -3.0675
12 3 13 3.1446 0.5912
12 3 15 16.0546 -0.6748
12 3 17 -1.7235 4.7958
12 3 19 -2.5020 2.1071
12 4 0 92.8039 28.0225
12 4 2 12.5124 11.7077
12 4 4 11.5939 4.3676
12 4 6 -24.8354 1.2826
12 4 8 -24.4241 -3.5201
12 4 10 7.1604 -4.4100
12 4 12 7.2622 -5.7161
12 4 14 0.9714 4.7682
12 4 16 3.0760 5.0788
12 4 18 -1.6954 -1.8550
12 5 1 -9.6964 22.1101
12 5 3 43.9884 -7.8826
12 5 5 19.6466 -5.3929
12 5 7 -9.8618 16.2613
12 5 9 6.2366 5.8587
12 5 11 -1.2540 0.9065
12 5 13 3.7354 -0.2917
12 5 15 -7.0151 -7.6559
12 5 17 -12.8811 1.8024
12 5 19 2.1546 2.4407
12 6 0 -8.0030 15.7840
12 6 2 -24.4682 -2.2202
12 6 4 -31.0331 -2.0791
12 6 6 11.6613 16.3722
12 6 8 -5.0151 -0.9577
12 6 10 9.0307 -0.6299
12 6 12 -4.2296 0.3239
12 6 14 -6.3723 -5.6557
12 6 16 1.6778 2.1214
12 6 18 -3.7129 3.3226
12 7 1 -54.6588 -6.8980
12 7 3 20.2616 -10.6764
12 7 5 8.9882 -0.6321
12 7 7 10.3232 2.0344
12 7 9 -9.2652 11.7706
12 7 11 -13.6493 -3.0309
12 7 13 7.5348 -8.4500
12 7 15 7.3360 0.8124
12 7 17 -6.9985 1.5798
12 7 19 -1.6948 0.9818
12 8 0 44.1737 25.8890
12 8 2 -22.5568 -5.2561
12 8 4 62.5750 -3.0778
12 8 6 -1.5554 18.9390
12 8 8 5.6121 14.5192
12 8 10 -12.4633 -12.1606
12 8 12 -10.0757 -6.2188
12 8 14 -2.5307 0.5507
12 8 16 3.0888 -8.7693
12 8 18 3.1694 1.7482
12 9 1 11.2003 -1.8753
12 9 3 3.2916 12.2601
12 9 5 -4.3964 10.5830
12 9 7 -54.2090 -15.7922
12 9 9 8.5051 -3.7220
12 9 11 -4.1523 6.3699
12 9 13 4.6038 -0.6983
12 9 15 -3.0874 0.9510
12 9 17 5.7462 1.7335
12 9 19 -2.7030 -6.5105
12 10 0 31.7309 13.0280
12 10 2 17.8680 16.3637
12 10 4 19.2099 6.1336
12 10 6 -6.4682 -12.6030
12 10 8 9.1226 12.0346
12 10 10 -0.5144 1.5581
12 10 12 -2.5075 -2.9273
12 10 14 -6.0830 4.9843
12 10 16 -2.0671 -4.8174
12 10 18 16.9848 -0.4152
12 11 1 6.5588 0.9336
12 11 3 5.1603 3.9730
12 11 5 15.8131 3.7637
12 11 9 19.2953 -10.8769
12 11 11 -11.3831 9.9123
12 11 13 -1.7560 8.6376
12 11 15 4.9944 -3.6662
12 11 17 3.3440 0.9635
12 11 19 6.3391 -10.8618
12 12 0 2.3527 10.1330
12 12 4 -23.2159 -4.3257
12 12 8 7.1701 -16.8241
12 12 12 4.3359 5.5643
12 12 16 -5.8007 8.6551
13 0 1 -51.9299 -37.0847
13 0 3 8.1296 86.6805
13 0 5 21.1050 -23.8976
13 0 7 -30.2569 -36.7285
13 0 9 27.5900 38.9295
13 0 11 21.5873 -34.5244
13 0 13 -8.8070 -17.6228
13 0 17 -6.0497 5.9814
13 0 19 -10.2763 -13.0239
13 1 2 -61.9423 32.6982
13 1 4 18.2700 -35.5344
13 1 6 2.7554 0.0892
13 1 8 -34.3842 19.6507
13 1 10 7.6651 -19.6157
13 1 12 1.5002 7.0056
13 1 14 -0.9663 5.0383
13 1 16 5.0350 -4.3468
13 1 18 -2.3650 -1.0322
13 2 1 26.1512 22.3034
13 2 3 -7.7750 -4.2746
13 2 5 -21.7187 -3.2051
13 2 7 1.3252 -11.2257
13 2 9 4.2068 9.3149
13 2 11 1.2587 21.9908
13 2 13 -7.2703 -5.1120
13 2 15 -4.4384 -6.3594
13 2 17 -0.7285 -6.4787
13 2 19 -7.5557 -1.5924
13 3 2 -59.5140 8.0418
13 3 4 37.4252 -17.3553
13 3 6 -2.2374 -4.4768
13 3 8 -2.8487 18.4348
13 3 10 -6.7769 -0.5302
13 3 12 -6.5040 -3.3100
13 3 14 7.2237 8.3369
13 3 16 -20.2441 -2.6684
13 3 18 -4.9285 -6.8268
13 4 1 31.1415 7.3309
13 4 3 21.0173 -33.3969
13 4 5 15.0460 10.7075
13 4 7 3.7725 12.7586
13 4 9 24.3927 -7.9719
13 4 11 2.4553 8.7014
13 4 13 -3.4034 -0.0870
13 4 15 8.1987 -12.9593
13 4 17 -1.6648 -3.3219
13 4 19 1.6870 2.4544
13 5 2 -30.2579 -3.3754
13 5 4 -9.4393 15.3304
13 5 6 -28.2683 -3.5131
13 5 8 7.9019 -6.5823
13 5 10 -0.4948 1.2983
13 5 12 -11.3248 -3.4351
13 5 14 1.2034 0.2975
13 5 16 -6.3905 1.4962
13 5 18 4.2925 -2.4324
13 6 1 19.0880 28.1297
13 6 3 -12.5226 -6.4436
13 6 5 22.8444 -6.5599
13 6 7 -16.2192 -3.6920
13 6 9 9.3306 -7.8307
13 6 11 -10.1594 1.0403
13 6 13 -5.4350 14.7144
13 6 15 3.7459 -1.5471
13 6 17 7.9363 -4.6267
13 6 19 -10.0328 0.4505
13 7 2 -9.1203 8.9109
13 7 4 -9.5668 23.1846
13 7 6 -17.2683 5.3979
13 7 8 -2.9108 -21.3906
13 7 10 -6.4239 -8.2122
13 7 12 -9.0748 13.3108
13 7 14 10.0215 -4.4268
13 7 16 5.5207 1.8692
13 7 18 4.2163 2.9122
13 8 1 -28.5228 -3.9443
13 8 3 -2.5144 14.7286
13 8 5 10.6956 -15.6949
13 8 7 -29.8539 -27.3591
13 8 9 5.8927 11.8876
13 8 11 3.0852 10.5612
13 8 13 -4.5050 -6.4261
13 8 15 -9.0014 5.8268
13 8 17 2.4018 0.5956
13 8 19 15.2729 -0.7836
13 9 2 -18.7786 -2.6259
13 9 4 13.4456 -7.7325
13 9 6 -6.2037 -4.1718
13 9 8 -9.6531 4.2770
13 9 10 -6.7618 0.6097
13 9 12 -7.7324 0.9333
13 9 14 1.6001 5.0228
13 9 16 4.3417 -0.6630
13 9 18 -4.1903 -3.3849
13 10 1 -0.6941 -11.1879
13 10 3 25.1373 5.5989
13 10 5 1.8112 -7.1206
13 10 7 -4.0346 -12.9310
13 10 9 -16.5352 10.9025
13 10 11 -2.5019 8.5520
13 10 13 1.2623 -5.1663
13 10 15 -0.4373 3.1173
13 10 17 6.9714 -1.0044
13 10 19 -0.1680 -10.4467
13 11 2 2.1992 11.4292
13 11 4 34.0125 -6.2731
13 11 6 25.3559 -2.6843
13 11 8 -1.3844 27.4988
13 11 10 -0.2346 -9.6283
13 11 12 -6.5631 -19.1647
13 11 14 -4.3811 7.3320
13 11 16 -8.2787 -1.8168
13 11 18 7.0540 -5.9631
13 12 1 -8.0129 -17.7330
13 12 3 -3.4906 -6.8603
13 12 5 -6.5223 12.0169
13 12 9 7.6732 -11.8740
13 12 11 7.6428 -16.4940
13 12 13 -2.1481 9.7120
13 12 15 -0.0737 -3.4560
13 12 17 1.1459 -3.4227
13 13 2 -24.3155 -38.5035
13 13 6 -38.4371 25.5473
13 13 10 19.2259 3.8870
13 13 14 5.3779 -30.7640
13 13 18 17.4718 22.4259
14 0 0 9.3183 0.1098
14 0 2 33.3713 3.9645
14 0 4 -49.8346 -1.5061
14 0 6 20.6119 -13.9843
14 0 8 -5.5803 11.8466
14 0 12 -1.9513 -4.8193
14 0 14 -2.3901 -10.3029
14 0 16 14.8492 -3.2513
14 0 18 -9.5731 -6.9281
14 1 1 -11.7789 12.1829
14 1 3 12.1504 -1.2902
14 1 5 -38.3868 0.2695
14 1 7 0.5911 -1.5585
14 1 9 26.2772 -4.5380
14 1 11 0.6832 -4.8988
14 1 13 -11.2419 3.4386
14 1 15 -15.3392 2.9090
14 1 17 9.1371 -2.6267
14 1 19 -1.8356 1.0467
14 2 0 -27.3647 20.2266
14 2 2 -1.0295 -3.9763
14 2 4 42.5329 2.0367
14 2 6 15.3233 8.5489
14 2 8 -29.1771 -5.0676
14 2 10 -0.2995 -10.7650
14 2 12 2.6357 -7.7023
14 2 14 6.1012 2.9124
14 2 16 17.6099 10.8609
14 2 18 -7.1511 2.1869
14 3 1 32.4955 11.6940
14 3 3 13.2196 5.1701
14 3 5 7.0251 -5.1918
14 3 7 -12.6782 8.4053
14 3 9 10.8666 4.3833
14 3 11 2.6348 -4.4517
14 3 13 -7.7076 2.9936
14 3 15 -8.2887 1.1933
14 3 17 -8.7721 -1.9230
14 3 19 -12.3793 -0.4774
14 4 0 17.2104 13.8415
14 4 2 9.0078 -3.1609
14 4 4 -0.1448 -2.3112
14 4 6 7.3046 4.1037
14 4 8 -3.8164 -10.0954
14 4 10 6.9644 -9.4041
14 4 12 0.1633 3.2575
14 4 14 -14.4685 9.3791
14 4 16 -0.9622 4.3592
14 4 18 -3.3112 1.7943
14 5 1 -27.9468 12.3951
14 5 3 2.1197 -5.8537
14 5 5 36.2832 0.1835
14 5 7 -10.7821 0.8261
14 5 9 9.6118 -4.4110
14 5 11 -11.7019 1.5829
14 5 13 0.2719 0.5031
14 5 15 2.7020 -1.3127
14 5 17 -9.1001 3.9055
14 5 19 -4.0861 0.3357
14 6 0 -1.4294 13.3115
14 6 2 -1.5951 0.5014
14 6 4 -5.0791 2.9390
14 6 6 8.5616 10.8072
14 6 8 -2.4389 -0.0048
14 6 10 -16.5264 -2.6906
14 6 12 -3.4447 -5.1378
14 6 14 5.1790 -1.5352
14 6 16 6.9152 1.1368
14 6 18 -3.9290 -2.7073
14 7 1 40.7424 11.9253
14 7 3 18.2942 -13.3458
14 7 5 -0.3166 -3.3066
14 7 7 -18.4281 10.7863
14 7 9 3.4406 7.2688
14 7 11 -5.5697 1.9349
14 7 13 0.6696 -4.2736
14 7 15 -0.9561 -8.5279
14 7 17 3.2384 3.7090
14 7 19 1.8277 1.7243
14 8 0 37.7517 19.9210
14 8 2 26.9680 -8.5161
14 8 4 -17.4589 -1.3159
14 8 6 -8.5485 6.8235
14 8 8 11.7273 6.0071
14 8 10 2.3059 2.9795
14 8 12 -8.0470 -0.2056
14 8 14 1.5019 -2.1390
14 8 16 -5.0648 -3.4910
14 8 18 12.4492 0.1309
14 9 1 -33.7939 -9.7533
14 9 3 -22.2301 -5.1137
14 9 5 6.5524 -5.9510
14 9 7 12.4847 6.6224
14 9 9 16.9301 11.0029
14 9 11 -5.7017 -8.3048
14 9 13 1.1214 -3.2415
14 9 15 -2.4497 3.7485
14 9 17 -1.2057 -0.4031
14 9 19 -0.2690 -0.3964
14 10 0 36.0880 9.1347
14 10 2 -17.4375 -14.1825
14 10 4 5.4032 -2.0054
14 10 6 19.8107 18.5271
14 10 8 18.4599 7.4531
14 10 10 -9.6208 -12.7894
14 10 12 -2.2168 -4.5072
14 10 14 2.6934 0.2123
14 10 16 -4.0236 -3.9857
14 10 18 -0.2272 2.8210
14 11 1 -10.7721 -2.5970
14 11 3 -14.4136 0.7979
14 11 5 3.9799 1.6276
14 11 7 -14.8669 -6.5945
14 11 9 7.3142 -1.7570
14 11 11 -5.0116 1.6855
14 11 13 -2.4470 -1.5447
14 11 15 1.6019 1.5553
14 11 17 -2.8106 0.8996
14 12 0 11.5953 10.8618
14 12 2 24.4353 2.6630
14 12 4 23.8648 6.8372
14 12 6 -14.3269 -2.5745
14 12 8 8.7649 8.9292
14 12 10 0.1795 -1.5983
14 12 12 -4.5461 1.6239
14 12 14 -8.9711 3.7665
14 12 16 -5.9768 -6.7973
14 12 18 -15.8027 -1.2143
14 13 1 -35.2141 4.5509
14 13 3 11.3336 9.2978
14 13 5 -0.6180 7.9842
14 13 9 9.4599 -15.0538
14 13 11 -7.5157 9.3283
14 13 13 0.9906 11.3361
14 13 15 -0.3975 4.8383
14 13 17 9.0381 0.5546
14 14 0 -59.1030 -8.9659
14 14 4 41.9427 5.0166
14 14 8 -2.7071 1.7748
14 14 12 4.7475 -3.4662
14 14 16 -0.1685 3.7621
15 0 1 17.9398 51.0943
15 0 3 -5.5677 -72.8896
15 0 5 -5.3703 40.3734
15 0 7 -32.2220 25.6572
15 0 11 15.0415 13.7200
15 0 13 -16.6898 19.8902
15 0 15 20.9067 -8.8768
15 0 17 19.6521 9.4935
15 0 19 14.7785 5.0027
15 1 2 19.2127 -27.6604
15 1 4 7.6572 25.0071
15 1 6 65.4333 -0.3716
15 1 8 2.3821 -14.1100
15 1 10 -16.8489 22.0812
15 1 12 -3.7942 -4.8930
15 1 14 -2.5832 -10.6296
15 1 16 -6.6540 7.0601
15 1 18 2.8976 -0.3074
15 2 1 -27.5011 1.6791
15 2 3 -12.9010 -5.7495
15 2 5 -1.9094 -2.0918
15 2 7 32.0831 3.3701
15 2 11 3.0253 2.4670
15 2 13 -7.3086 0.9629
15 2 15 7.2962 -8.9600
15 2 17 -13.3526 -7.7693
15 2 19 -6.7736 -0.2594
15 3 2 -21.5567 -16.5700
15 3 4 -1.8232 18.5511
15 3 6 5.5605 4.0232
15 3 8 -8.9683 -16.2352
15 3 10 3.5918 6.9470
15 3 12 3.7018 3.7557
15 3 14 4.4356 -12.2509
15 3 16 3.2273 4.2469
15 3 18 -8.7022 4.3416
15 4 1 28.5063 13.4692
15 4 3 -70.3386 20.1325
15 4 5 -25.1376 -7.4340
15 4 7 5.5075 -3.4324
15 4 11 4.2594 -0.3115
15 4 13 -1.7184 -8.4215
15 4 15 -4.7964 0.9433
15 4 17 3.0590 0.0246
15 4 19 8.7630 1.9390
15 5 2 20.7955 10.1382
15 5 4 -4.3816 -4.3578
15 5 6 25.8333 0.9146
15 5 8 19.8159 5.5086
15 5 10 4.9379 -4.7954
15 5 12 -16.2649 1.0386
15 5 14 -11.8951 1.8878
15 5 16 -8.7717 -1.8569
15 5 18 6.2798 0.3120
15 6 1 -37.1450 -6.0525
15 6 3 14.5824 -7.6996
15 6 5 24.8863 5.6374
15 6 7 1.8909 0.6905
15 6 11 -0.1343 1.7074
15 6 13 -1.1416 -8.3267
15 6 15 12.1156 2.4767
15 6 17 -11.1564 4.0601
15 6 19 4.1559 2.1436
15 7 2 -21.9294 7.0682
15 7 4 0.6903 -0.7950
15 7 6 -14.4974 -4.7896
15 7 8 -0.4283 6.4221
15 7 10 10.1888 -4.0818
15 7 12 -4.4930 -5.9398
15 7 14 -1.6200 4.4999
15 7 16 2.1621 1.5202
15 7 18 -2.1179 -3.1865
15 8 1 -22.9765 22.4281
15 8 3 7.5088 -3.5821
15 8 5 13.8103 -1.5011
15 8 7 -1.2228 5.2752
15 8 11 9.2028 -4.2288
15 8 13 -11.1761 9.9865
15 8 15 4.3508 -0.2560
15 8 17 -0.5952 -4.2286
15 9 2 -4.1504 5.5122
15 9 4 8.8045 14.3344
15 9 6 -0.6738 3.8544
15 9 10 2.8196 -3.0033
15 9 12 -15.6314 2.7621
15 9 14 2.3556 -2.1209
15 9 16 7.4518 -1.7069
15 9 18 1.0214 -0.4203
15 10 1 -36.2248 0.3853
15 10 3 19.9691 8.8131
15 10 5 30.6276 -3.7313
15 10 7 -15.0411 -9.5257
15 10 9 -6.7947 1.7391
15 10 11 2.9511 3.7675
15 10 13 -0.1968 1.3254
15 10 15 -3.0985 -0.0255
15 10 17 -5.2324 0.3587
15 11 2 4.1528 -8.1682
15 11 4 2.8926 4.9658
15 11 6 -18.4970 -6.5530
15 11 10 6.2140 8.9242
15 11 12 0.6980 10.3016
15 11 14 6.5026 -2.9661
15 11 16 -5.1859 -0.6715
15 11 18 -10.8995 3.3339
15 12 1 39.5849 -5.3314
15 12 3 -9.5054 7.0400
15 12 5 -38.0861 -11.3737
15 12 9 -2.8846 12.6424
15 12 11 -10.3685 9.6327
15 12 13 -0.0927 -9.4106
15 12 15 -3.7998 1.3259
15 12 17 -8.2314 2.1849
15 13 2 2.1987 -1.1876
15 13 4 25.6852 -3.8536
15 13 6 8.0541 -5.0371
15 13 10 -4.7770 1.4873
15 13 12 -11.3563 -17.9746
15 13 14 0.9652 1.3688
15 13 16 1.7054 1.1140
15 13 18 0.4714 -4.5498
15 14 1 -14.9270 -15.4567
15 14 3 -3.8921 7.2039
15 14 5 -0.1891 3.0548
15 14 9 0.0051 3.9229
15 14 11 2.6692 -9.3815
15 14 13 0.2697 -1.9402
15 14 15 7.8531 2.7848
15 14 17 4.9390 -1.2778
15 15 2 7.8281 -17.1167
15 15 10 7.8354 -2.1438
15 15 14 -0.3285 -19.0627
15 15 18 12.5558 16.0540
16 0 0 86.0617 9.3645
16 0 2 -35.6979 -4.4328
16 0 4 -16.0769 -18.7014
16 0 10 15.4883 -12.8619
16 0 12 0.4269 10.2134
16 0 14 0.7910 0.8847
16 0 16 1.8330 -28.5577
16 0 18 -10.5403 5.2775
16 1 1 -14.1084 -2.6331
16 1 3 -32.1175 -5.8623
16 1 5 -2.9032 3.0512
16 1 7 8.5439 5.0659
16 1 11 -4.2391 8.0449
16 1 13 -6.9707 5.9207
16 1 15 11.9724 -8.2792
16 1 17 18.1300 6.2672
16 1 19 1.7538 2.3194
16 2 0 5.5114 -3.3511
16 2 2 19.9002 -2.7091
16 2 4 21.8596 0.6569
16 2 6 2.1566 8.5908
16 2 8 -14.7554 -10.6159
16 2 10 -13.5521 -6.4322
16 2 12 -10.3982 3.0607
16 2 14 -5.7918 3.4342
16 2 16 3.2537 8.0508
16 2 18 10.8612 1.3919
16 3 1 20.5013 8.1595
16 3 3 12.5077 4.7057
16 3 5 -19.2753 5.5704
16 3 7 -5.0284 -12.1069
16 3 11 2.9182 7.6988
16 3 13 -5.5269 1.4390
16 3 15 0.8839 -0.3174
16 3 17 -2.5519 -0.3767
16 3 19 8.4171 -3.2080
16 4 0 -2.1504 12.0871
16 4 2 3.7664 -2.9219
16 4 4 4.6660 4.8916
16 4 6 -11.1184 -8.9520
16 4 8 -5.9076 -11.6482
16 4 10 10.3700 7.5341
16 4 12 -7.9548 -1.9215
16 4 14 -5.7981 -1.3645
16 4 16 6.6542 8.1166
16 4 18 1.0506 -6.0328
16 5 1 9.2663 4.8497
16 5 3 -36.7553 0.5063
16 5 5 14.7610 -4.7053
16 5 7 -3.6059 5.0561
16 5 11 -10.8924 -1.6230
16 5 13 -3.1367 0.8335
16 5 15 -5.1898 1.5987
16 5 17 -0.0160 -3.5193
16 5 19 13.9014 1.6592
16 6 0 -56.6623 11.3062
16 6 2 -4.0663 2.6871
16 6 4 -2.1438 -0.8995
16 6 6 25.1934 -12.2657
16 6 10 5.6627 6.0342
16 6 12 3.3094 4.1097
16 6 14 -5.8065 3.3376
16 6 16 -0.2171 -4.6898
16 6 18 -10.3200 -3.3244
16 7 1 -8.7452 10.0614
16 7 3 -0.0358 -4.7532
16 7 5 15.7000 -4.7449
16 7 7 -12.0576 5.7408
16 7 11 6.9268 -2.9076
16 7 13 5.8895 3.7455
16 7 15 5.8926 0.0170
16 7 17 -2.8974 -1.1700
16 8 0 33.3168 -2.6178
16 8 2 -11.0688 -9.6590
16 8 4 -26.5387 -6.8196
16 8 6 -14.9655 5.8005
16 8 10 10.0238 -2.9418
16 8 12 2.0313 4.7414
16 8 14 1.7875 -1.7894
16 8 16 11.3079 -3.3149
16 8 18 -6.9609 3.3312
16 9 1 -22.1471 -2.7872
16 9 3 -21.5817 -4.7193
16 9 5 1.0593 -0.1013
16 9 7 -0.5658 4.2386
16 9 9 -3.4368 -1.0224
16 9 11 -6.6608 -0.2210
16 9 13 -8.8400 -3.1117
16 9 15 7.0535 -2.4694
16 9 17 -2.8455 2.1282
16 10 0 -33.5964 25.6517
16 10 2 13.8538 -8.5873
16 10 4 5.0101 -1.5211
16 10 6 -8.2009 3.2931
16 10 10 -10.3790 2.9261
16 10 12 0.5072 3.3306
16 10 14 1.9210 -1.0161
16 10 16 6.9993 -6.2528
16 10 18 -3.7698 -1.6218
16 11 1 6.9104 -12.2294
16 11 3 2.9296 2.4478
16 11 5 -14.1727 4.3326
16 11 7 23.6004 -1.3618
16 11 9 -5.5364 4.1798
16 11 11 -0.8877 -3.9413
16 11 13 -13.7275 -0.9156
16 11 15 0.9140 4.3149
16 11 17 -2.5478 -0.7862
16 12 0 -18.2982 -9.4837
16 12 2 -8.4975 -7.3825
16 12 4 -8.9460 6.9140
16 12 6 -7.5894 2.5442
16 12 10 1.3405 -8.2447
16 12 12 5.2395 -6.5604
16 12 14 0.8611 5.8316
16 12 16 2.0175 3.2574
16 12 18 14.1547 0.0428
16 13 1 -22.2625 0.8513
16 13 3 -9.8669 -2.5852
16 13 5 -11.7954 -3.5189
16 13 9 2.1070 -4.7817
16 13 11 2.1317 -0.6093
16 13 13 -4.4247 2.8282
16 13 15 5.2705 -2.7513
16 13 17 7.9833 -2.1610
16 14 0 -5.5309 7.9571
16 14 2 -6.7198 -0.8234
16 14 4 38.6018 2.9705
16 14 6 9.5967 1.9860
16 14 8 -6.0235 6.1984
16 14 10 -2.2735 0.4399
16 14 12 7.5887 2.1072
16 14 14 4.4061 -1.1880
16 14 16 -0.1626 -3.9984
16 14 18 18.1801 -1.7222
16 15 3 10.6738 9.8528
16 15 9 -2.5789 -14.2066
16 15 11 3.1262 4.8488
16 15 13 1.9352 12.5829
16 15 15 7.6685 7.3597
16 15 17 -0.0358 -3.1169
16 16 8 7.2557 12.7784
16 16 12 -3.3244 -7.0287
16 16 16 -10.9565 -2.6786
17 0 1 3.5259 -29.4489
17 0 3 0.5261 63.8430
17 0 5 31.1704 -29.5666
17 0 11 13.0401 -17.6451
17 0 13 10.6893 -11.7170
17 0 15 11.2517 25.3781
17 0 17 0.5165 5.4620
17 1 2 -22.6396 20.7835
17 1 4 -15.9929 -11.1797
17 1 6 2.4311 -1.5610
17 1 8 -1.1055 9.4703
17 1 10 16.2847 -9.8746
17 1 12 10.7534 0.6495
17 1 14 0.7565 3.5163
17 1 16 -1.9825 -2.4643
17 1 18 -0.7319 -5.0027
17 2 1 81.0025 4.3560
17 2 3 -21.1131 2.6172
17 2 5 -0.7601 -4.2101
17 2 7 8.2440 -1.1676
17 2 11 4.5032 4.4455
17 2 13 -2.3187 -6.4294
17 2 15 -1.4663 -0.4933
17 2 17 1.3340 -0.3034
17 3 2 16.9450 16.1499
17 3 4 22.5055 -19.7100
17 3 6 -28.0569 2.2223
17 3 8 -0.6020 18.8072
17 3 10 -1.0680 -10.2847
17 3 12 0.7055 -6.8048
17 3 14 1.3636 7.1583
17 3 16 -2.8944 -1.6775
17 3 18 -0.1690 1.6717
17 4 1 -19.8601 -2.0113
17 4 3 -22.6382 -17.4309
17 4 5 2.2418 11.6342
17 4 7 14.5664 17.0323
17 4 11 -0.9592 -2.1220
17 4 13 -1.5886 0.8235
17 4 15 6.6995 -6.5360
17 4 17 -3.6984 -0.8491
17 5 2 9.0122 -10.6765
17 5 4 10.3023 5.9030
17 5 6 -0.6027 3.1582
17 5 8 4.2066 -4.5880
17 5 10 1.1967 4.1245
17 5 12 -0.9914 -1.6043
17 5 14 3.0467 -5.7243
17 5 16 7.3175 2.8321
17 5 18 -10.9733 3.9592
17 6 1 30.6505 9.6750
17 6 3 16.1883 -4.9975
17 6 5 0.7491 11.6729
17 6 7 -14.3272 13.5139
17 6 9 19.2434 -10.1318
17 6 11 3.1231 -9.6702
17 6 13 -6.8716 2.7057
17 6 15 -2.3077 3.5248
17 6 17 6.1664 4.3002
17 7 2 21.5745 -3.2427
17 7 4 -14.5465 13.7019
17 7 6 -2.5056 -1.5548
17 7 8 7.3137 -6.7193
17 7 10 10.3990 3.2413
17 7 12 -9.3219 2.1007
17 7 14 2.9606 -3.3807
17 7 16 -1.5524 1.5746
17 7 18 -1.6139 -0.8213
17 8 1 6.8638 0.3173
17 8 3 19.7668 9.1759
17 8 5 -1.6618 3.0615
17 8 7 -7.7013 0.5272
17 8 9 8.1249 4.8623
17 8 11 4.0748 -4.8852
17 8 13 1.8301 -4.8608
17 8 15 -5.3478 4.2048
17 8 17 -2.3520 1.6034
17 9 2 -13.7354 -0.6681
17 9 4 -12.2999 -9.2526
17 9 6 13.8487 -3.9519
17 9 10 -0.2717 -0.4053
17 9 12 -0.3048 0.3356
17 9 14 1.3513 -1.2701
17 9 16 -6.7256 -0.4001
17 9 18 -1.3041 3.3258
17 10 1 14.1670 2.7109
17 10 3 6.0947 3.1479
17 10 5 12.4643 -6.0627
17 10 7 -12.2013 2.4604
17 10 9 -15.9014 1.6205
17 10 11 -8.0499 -2.3356
17 10 13 -5.4079 2.2126
17 10 15 6.1479 -1.3074
17 10 17 12.6345 -4.3334
17 11 2 -9.8558 3.7706
17 11 4 11.8441 -2.9093
17 11 6 9.4301 -0.0493
17 11 10 -9.4975 -1.2578
17 11 12 -3.3478 -3.2059
17 11 14 -4.0833 -1.5512
17 11 16 -2.8096 0.6293
17 11 18 9.5048 -2.2651
17 12 1 -12.2036 -4.6997
17 12 3 6.5510 -6.5832
17 12 5 13.6587 3.8326
17 12 7 3.0321 1.1613
17 12 9 3.0166 1.3609
17 12 11 -4.0094 5.4136
17 12 13 -5.4700 -1.6478
17 12 15 -0.3670 -2.5594
17 12 17 4.9101 -0.7198
17 13 2 -4.4369 -1.2686
17 13 4 -0.1299 7.8040
17 13 6 -20.6741 -8.1304
17 13 8 2.1398 -6.0909
17 13 10 -3.5115 -0.2997
17 13 12 -0.4662 4.2170
17 13 14 -2.4280 6.1559
17 13 16 -0.1928 1.9014
17 13 18 20.6860 1.4148
17 14 1 30.9785 -1.9662
17 14 3 0.2977 2.4600
17 14 5 -11.3793 -3.7600
17 14 9 0.1772 -0.0691
17 14 11 3.4278 5.1009
17 14 13 2.6016 -3.1199
17 14 15 0.0036 0.0647
17 14 17 -9.7813 1.2890
17 15 8 -0.3564 6.7259
17 15 10 1.1505 2.1964
17 15 12 -9.3433 -7.9412
17 15 14 3.4188 4.5240
17 15 16 6.6153 2.9251
17 16 7 -8.4595 -10.9137
17 16 9 2.2935 5.1431
17 16 11 -1.6105 -0.4959
17 16 13 0.7301 -0.8587
17 16 15 10.4552 5.4795
17 16 17 -2.2505 -0.6235
17 17 10 3.6155 -4.6217
17 17 14 -8.3515 -5.8258
18 0 0 18.6425 -9.9593
18 0 2 13.7503 -7.6487
18 0 4 -48.7465 16.1415
18 0 10 -22.4559 35.1407
18 0 12 -6.4242 -9.5269
18 0 14 -0.3837 -20.6549
18 0 16 1.3772 19.6644
18 0 18 -12.0414 -12.4751
18 1 1 26.2950 1.0873
18 1 3 41.9286 7.1172
18 1 5 -5.2499 -7.8920
18 1 7 5.0830 -7.2608
18 1 9 22.1883 19.7407
18 1 11 -0.8682 -10.7178
18 1 13 -0.4395 -5.0960
18 1 15 -8.3675 15.9400
18 1 17 -11.8208 -13.0293
18 2 0 14.2801 1.0388
18 2 2 1.9690 -2.4470
18 2 4 -5.7233 5.1663
18 2 6 -8.1365 -9.4808
18 2 8 9.8229 6.6607
18 2 10 2.3675 -2.2730
18 2 12 1.6848 -4.0035
18 2 14 -0.3352 1.6715
18 2 16 3.5356 -3.0723
18 2 18 -11.1804 0.1182
18 3 1 29.2220 -3.3501
18 3 3 -6.3640 4.7546
18 3 5 -8.8433 -4.6587
18 3 7 12.3172 3.6309
18 3 9 -9.8908 1.3460
18 3 11 -4.3970 -2.6126
18 3 13 -0.6756 3.7100
18 3 15 5.3616 4.1284
18 3 17 -5.1050 -4.4725
18 4 0 10.4845 -3.2322
18 4 2 3.4855 3.6662
18 4 4 9.7192 -2.3549
18 4 6 -9.1086 -3.0555
18 4 8 -10.3040 0.3440
18 4 10 7.6686 -5.9920
18 4 12 3.7362 7.1873
18 4 14 -5.6862 5.9613
18 4 16 -0.4473 -2.5663
18 4 18 5.9169 1.0297
18 5 1 -16.1436 6.0397
18 5 3 -11.2976 6.8260
18 5 5 5.1790 -0.5394
18 5 7 -5.1038 -0.6108
18 5 9 -5.1928 -9.3443
18 5 11 1.7211 2.7921
18 5 13 1.8547 2.9701
18 5 15 -5.5305 -3.7185
18 5 17 -4.1110 -0.1025
18 6 0 -20.5773 -5.4710
18 6 2 -0.3734 0.3155
18 6 4 -8.9510 -0.4790
18 6 6 -5.0750 -1.0818
18 6 8 15.6338 -9.1633
18 6 10 5.3996 9.8953
18 6 12 0.9019 6.0533
18 6 14 -0.1971 -7.6938
18 6 16 -11.8255 -2.0218
18 6 18 10.9350 -1.8702
18 7 1 -19.9663 -2.7858
18 7 3 -24.7617 -2.8266
18 7 5 -9.0720 4.6547
18 7 7 10.2561 -1.8768
18 7 9 -15.3070 1.9595
18 7 11 -1.8513 4.4577
18 7 13 -7.0832 -5.2637
18 7 15 -4.5687 -1.7948
18 7 17 4.5344 -0.6178
18 8 0 -33.8954 21.7805
18 8 2 -0.2668 1.2087
18 8 4 3.1002 1.2807
18 8 6 8.3984 -14.2442
18 8 8 27.3647 1.3310
18 8 10 -0.8868 7.0988
18 8 12 -2.1962 0.4997
18 8 14 -1.9222 0.0872
18 8 16 -10.1560 -2.1368
18 8 18 3.0731 1.2223
18 9 1 -2.0561 4.6561
18 9 3 11.5825 6.7947
18 9 5 1.3705 4.6605
18 9 7 -2.5198 -1.4317
18 9 9 -3.3181 0.0267
18 9 11 5.6844 -0.5094
18 9 13 3.4384 -0.1673
18 9 15 -3.8976 2.7929
18 9 17 -2.2571 0.4656
18 10 0 8.2131 -16.8137
18 10 2 -10.7762 -6.1418
18 10 4 -21.0191 -2.7619
18 10 6 14.9246 -3.8993
18 10 8 3.2197 -1.0790
18 10 10 -0.6413 -2.8956
18 10 12 0.7315 -1.0692
18 10 14 2.0508 3.1965
18 10 16 -1.7293 1.7771
18 10 18 -5.6604 3.1224
18 11 1 3.9563 -14.5035
18 11 3 -6.7590 -2.5910
18 11 5 -22.8480 -5.6075
18 11 7 -4.6744 7.2573
18 11 9 11.1686 0.5730
18 11 11 -3.4601 -3.4214
18 11 13 -0.6219 0.3915
18 11 15 3.4851 -1.7679
18 11 17 9.0579 -1.7362
18 12 0 -9.6591 21.9922
18 12 2 7.6436 2.0558
18 12 4 14.8056 2.9651
18 12 6 2.8537 5.2777
18 12 8 -7.8252 0.6348
18 12 10 -2.7052 -0.7437
18 12 12 -2.4843 2.2217
18 12 14 -3.9532 -0.1906
18 12 16 -10.7282 -3.0183
18 12 18 -9.1780 0.2146
18 13 1 4.6157 -4.3845
18 13 3 33.0321 1.8533
18 13 5 13.2338 4.0082
18 13 7 19.9093 1.3868
18 13 9 -7.5022 3.1166
18 13 11 -3.7736 1.3736
18 13 13 -0.4552 -2.0291
18 13 15 -11.9473 -1.8974
18 13 17 0.0157 -2.4964
18 14 0 -11.5025 -15.2394
18 14 2 -15.0232 0.8707
18 14 4 3.6991 6.5542
18 14 6 -16.1516 -1.2704
18 14 8 -3.5371 -2.3634
18 14 10 9.9919 -2.3830
18 14 12 2.3369 -5.0993
18 14 14 -0.4765 2.7537
18 14 16 7.2813 5.1600
18 15 7 11.3728 7.2885
18 15 9 -5.9998 4.9717
18 15 11 -6.0490 2.8433
18 15 13 -0.5858 -3.7951
18 15 15 -1.0114 -8.2712
18 15 17 -9.0771 0.9976
18 16 6 -38.0311 0.3100
18 16 8 -1.8870 6.1413
18 16 10 0.9007 5.3611
18 16 12 -2.1844 1.9493
18 16 14 3.8327 -4.2545
18 16 16 -9.8694 -4.0625
18 17 7 -9.3189 -1.6953
18 17 9 -2.2716 1.1698
18 17 11 7.1498 0.3930
18 17 13 -6.6610 5.3359
18 17 15 4.1024 3.1137
18 17 17 -4.8979 -2.8589
18 18 8 7.3717 12.5561
18 18 12 -19.3573 -1.7704
18 18 16 2.2453 -7.4004
19 0 1 -28.6132 19.4380
19 0 3 15.8565 -25.3956
19 0 5 39.7515 -2.9914
19 0 9 -4.2518 -25.1156
19 0 11 6.4177 -1.4984
19 0 13 -1.2882 24.0668
19 0 15 -7.4769 -8.8436
19 0 17 5.9233 -1.7018
19 1 2 32.3827 -7.0492
19 1 4 4.0322 9.4003
19 1 6 31.3659 5.9999
19 1 8 -9.7896 -9.0218
19 1 10 -3.9109 -1.0570
19 1 12 1.1415 4.6962
19 1 14 -0.9265 -7.0361
19 1 16 -13.3768 0.5096
19 1 18 -3.4808 7.2813
19 2 1 -15.1614 -7.1696
19 2 3 20.8263 0.4946
19 2 5 2.7368 3.5501
19 2 7 -0.8351 1.3677
19 2 9 26.2537 -4.2536
19 2 11 -1.1632 -2.2261
19 2 13 -8.3867 -0.7822
19 2 15 -6.9580 1.9946
19 2 17 -5.0078 0.9140
19 3 2 -44.0633 -7.4570
19 3 4 -21.0741 6.4837
19 3 6 -5.1972 2.2473
19 3 8 4.8248 -6.0344
19 3 10 -9.1239 4.1346
19 3 12 4.3247 4.5830
19 3 14 -0.6856 -5.4365
19 3 16 6.0160 -1.5384
19 3 18 8.0281 -0.7310
19 4 1 -1.9455 -10.5010
19 4 3 12.7111 6.5026
19 4 5 2.7263 0.3987
19 4 7 9.3368 -3.9244
19 4 9 -15.2118 6.2170
19 4 11 -10.9714 0.9502
19 4 13 2.9975 -5.8951
19 4 15 3.2879 1.2986
19 4 17 -3.5759 2.1915
19 5 2 31.6044 1.3961
19 5 4 1.4682 -2.4430
19 5 6 -1.3181 -2.2517
19 5 8 6.1408 6.4382
19 5 10 -6.1557 -1.7116
19 5 12 5.2262 -2.1538
19 5 14 -6.5983 3.4475
19 5 16 -13.2341 2.2331
19 5 18 2.9490 -2.7400
19 6 1 -6.2919 -5.8648
19 6 3 -25.5375 1.4881
19 6 5 1.2351 -4.3928
19 6 7 -4.3276 2.4560
19 6 9 8.6200 -0.1970
19 6 11 4.4049 -6.1738
19 6 13 -3.7451 2.9247
19 6 15 -3.0057 3.5758
19 6 17 -2.1340 0.2883
19 7 2 -23.0599 -0.1891
19 7 4 -17.8251 -9.6542
19 7 6 7.9966 -0.2569
19 7 8 4.3680 6.2228
19 7 10 2.1352 -2.0737
19 7 12 4.3154 1.3068
19 7 14 -0.1683 1.4791
19 7 16 -4.0041 0.6494
19 7 18 -5.4594 1.2300
19 8 1 -4.2055 -2.8225
19 8 3 -12.5063 -7.9050
19 8 5 0.5930 9.9439
19 8 7 8.5367 9.0540
19 8 9 -12.1511 -10.1559
19 8 11 6.9915 -2.7373
19 8 13 -8.0174 3.7693
19 8 15 -15.2919 -0.1264
19 8 17 -8.6962 -2.0295
19 9 2 1.1480 -2.9380
19 9 4 4.1298 1.7683
19 9 6 -2.6462 -2.3065
19 9 8 3.0710 0.4816
19 9 10 -3.6062 -0.2252
19 9 12 5.7310 1.0899
19 9 14 -1.8695 -1.4717
19 9 16 -7.6396 -1.8189
19 9 18 5.5870 -5.8539
19 10 1 -11.8993 8.1735
19 10 3 17.5191 -4.2864
19 10 5 -17.3105 6.6789
19 10 7 -15.7638 6.4655
19 10 9 0.9288 -1.2218
19 10 11 6.8001 1.5543
19 10 13 -1.3663 0.2947
19 10 15 -8.0791 -2.4800
19 10 17 -3.8884 -1.8345
19 11 2 -33.0677 -2.9771
19 11 4 -3.9542 1.4117
19 11 6 -1.8363 -0.8272
19 11 8 7.2790 -3.0655
19 11 10 -1.0714 -3.1246
19 11 12 -1.8624 -0.6593
19 11 14 2.0172 -0.6456
19 11 16 4.1597 2.1553
19 11 18 2.2923 4.3133
19 12 1 1.5786 -5.0193
19 12 3 3.2134 2.1330
19 12 5 14.0040 -7.4413
19 12 7 1.3205 -1.3186
19 12 9 -2.8827 2.7785
19 12 11 7.9582 -0.1462
19 12 13 3.9080 1.6921
19 12 15 3.9628 -3.0757
19 12 17 -4.8141 -3.9855
19 13 2 -6.8121 -2.2709
19 13 4 -6.2136 0.5899
19 13 6 14.6523 -3.8452
19 13 8 -3.5522 0.2043
19 13 10 -0.1567 -2.5405
19 13 12 2.7005 1.1568
19 13 14 -4.4959 3.1466
19 13 16 8.6301 0.9014
19 14 1 -10.5584 -3.9782
19 14 3 -30.1888 -6.2984
19 14 5 2.0242 -0.4154
19 14 7 1.2562 2.4696
19 14 9 -0.4511 2.5601
19 14 11 -1.6437 5.3296
19 14 13 -0.2581 -3.5243
19 14 15 -0.0358 -0.3352
19 14 17 -6.5215 1.8752
19 15 6 -15.0437 -4.4790
19 15 8 5.1740 -8.9395
19 15 10 -4.3632 -8.4072
19 15 12 -3.9238 4.2633
19 15 14 -4.3132 10.8139
19 15 16 15.9944 5.2689
19 16 7 -6.6869 -1.1486
19 16 9 -1.6874 -5.4763
19 16 11 -19.2848 -2.2620
19 16 13 8.2678 -2.0354
19 16 15 -5.1971 2.8171
19 16 17 6.6130 2.3433
19 17 6 -4.2054 -7.3675
19 17 8 0.4115 -5.4235
19 17 10 -1.1586 -4.0470
19 17 12 -14.8474 -0.7163
19 17 14 1.0446 8.0286
19 17 16 -9.8195 1.3438
19 18 5 -1.8078 -6.4125
19 18 7 -11.0129 -8.2974
19 18 9 3.8844 -1.7851
19 18 11 1.5829 -0.8690
19 18 13 -15.5445 1.9158
19 18 15 -3.2429 8.2490
19 18 17 11.7924 4.7799
19 19 6 12.5727 -2.2996
19 19 10 -2.8469 -3.2373
19 19 14 -3.7394 4.0026
20 0 0 27.9600 3.1163
20 0 2 -25.5615 -17.2062
20 0 4 -7.4951 -17.6187
20 0 10 2.5818 -36.7943
20 0 12 3.1798 11.8973
20 0 14 2.8978 10.6540
20 0 16 -17.1763 -26.5687
20 0 18 9.5513 11.4100
20 1 1 -14.7952 1.9685
20 1 3 -0.1252 -6.5708
20 1 5 3.4967 6.7843
20 1 7 -19.2235 5.5538
20 1 9 9.8826 -15.3810
20 1 11 3.2776 13.5711
20 1 13 4.4364 2.9328
20 1 15 1.6160 -12.7033
20 1 17 7.7544 10.3023
20 2 0 35.0256 -22.0071
20 2 2 5.3487 -2.4979
20 2 4 -10.2621 -2.7189
20 2 6 -30.1596 0.5198
20 2 8 -20.6560 -2.9901
20 2 10 0.7880 6.1426
20 2 12 -3.8743 5.7930
20 2 14 4.4654 -5.1029
20 2 16 -5.9303 0.4995
20 2 18 14.2783 -0.5995
20 3 1 -0.8561 -3.5537
20 3 3 11.0072 5.1445
20 3 5 -8.5423 9.1623
20 3 7 15.8977 -10.0880
20 3 9 5.2711 -2.0314
20 3 11 4.7585 3.6969
20 3 13 0.4781 -8.2532
20 3 15 -2.6578 1.3231
20 3 17 8.3232 0.7118
20 4 0 -26.6785 -4.5395
20 4 2 -1.6697 4.6845
20 4 4 25.2826 10.4097
20 4 6 3.8857 -4.5440
20 4 8 -1.6550 1.6424
20 4 10 8.8488 0.4692
20 4 12 -4.7202 -6.5096
20 4 14 3.3029 -1.6769
20 4 16 -3.6644 5.6827
20 4 18 -3.4218 -0.8948
20 5 1 -0.5523 -2.4352
20 5 3 2.1000 1.4351
20 5 5 20.4645 -0.2924
20 5 7 4.2479 -6.4885
20 5 9 -2.4148 4.3482
20 5 11 -6.3632 1.3499
20 5 13 -4.2180 -1.5881
20 5 15 -4.4332 3.9541
20 5 17 1.1225 -2.9414
20 6 0 -8.1819 3.8345
20 6 2 9.4289 3.7872
20 6 4 -1.3710 5.1137
20 6 6 -6.3811 -7.0623
20 6 8 -4.8157 10.8501
20 6 10 5.3593 2.0665
20 6 12 0.2263 -3.8383
20 6 14 -4.4429 2.3983
20 6 16 -2.2628 -2.5939
20 6 18 -3.7078 2.0918
20 7 1 -3.2809 5.9007
20 7 3 -2.6721 5.7957
20 7 5 -4.2386 -5.0420
20 7 7 4.7110 8.1506
20 7 9 3.7580 -4.6240
20 7 11 0.3664 -4.8197
20 7 13 0.6806 0.9780
20 7 15 -6.3730 -1.3106
20 7 17 3.8600 -0.2165
20 8 0 31.5918 -22.0296
20 8 2 0.0108 -5.9027
20 8 4 3.2022 0.6358
20 8 6 12.6503 3.2615
20 8 8 7.0723 0.3948
20 8 10 -0.3899 0.6354
20 8 12 -0.4421 0.3980
20 8 14 2.2348 -3.6318
20 8 16 -3.3323 -1.5210
20 8 18 4.6967 0.5699
20 9 1 2.4651 -7.9689
20 9 3 15.4457 -1.5869
20 9 5 -9.0031 0.1328
20 9 7 -11.9475 2.9050
20 9 9 2.3181 -0.1230
20 9 11 1.4377 -1.4788
20 9 13 -1.9971 -3.4529
20 9 15 2.2825 -1.0339
20 9 17 -3.2612 3.8798
20 10 0 15.3948 28.8258
20 10 2 3.8399 4.7081
20 10 4 5.4264 0.2943
20 10 6 11.3457 0.2003
20 10 8 -8.1511 -7.7030
20 10 10 -3.8126 -3.3695
20 10 12 -2.9366 3.0490
20 10 14 2.8621 2.3282
20 10 16 3.7465 1.7172
20 11 1 5.1991 6.1354
20 11 3 11.7733 7.4742
20 11 5 8.0860 4.9331
20 11 7 7.9291 -7.6019
20 11 9 8.2782 4.2448
20 11 11 1.7165 6.6521
20 11 13 -3.9499 -1.5225
20 11 15 2.0358 1.2021
20 11 17 -2.5815 0.0133
20 12 0 -14.1532 -22.7420
20 12 2 0.3483 -0.5539
20 12 4 5.9005 -1.4957
20 12 6 -9.5991 -3.2283
20 12 8 16.3968 2.7953
20 12 10 7.8932 0.2235
20 12 12 2.7615 -2.1533
20 12 14 -0.4017 0.9554
20 12 16 0.8646 2.0690
20 13 1 12.8924 -14.1183
20 13 3 -2.6766 -6.2130
20 13 5 1.6681 -5.3582
20 13 7 -13.1405 3.0991
20 13 9 5.4405 4.5273
20 13 11 -9.0232 0.5673
20 13 13 2.6472 -2.8963
20 13 15 1.7004 -2.7521
20 13 17 5.2213 1.1510
20 14 0 15.4903 19.1914
20 14 2 11.4083 4.0849
20 14 4 -11.5888 4.3888
20 14 6 -6.2158 -1.9571
20 14 8 -15.7804 2.9999
20 14 10 2.6531 2.4536
20 14 12 -10.0942 -2.1086
20 14 14 -3.1379 -0.9274
20 14 16 5.3088 -2.1789
20 15 7 -1.5776 9.4975
20 15 9 -1.7954 4.6064
20 15 11 -2.6560 -1.4176
20 15 13 5.8361 -2.1281
20 15 15 5.0503 -3.0305
20 15 17 11.2051 -2.2511
20 16 6 14.6500 -6.7475
20 16 8 -3.9180 -7.9092
20 16 10 -3.0275 4.4855
20 16 12 -0.2904 -1.4355
20 16 14 -6.0504 -0.7156
20 16 16 -2.9142 4.1869
20 17 5 -3.3682 -9.2246
20 17 7 0.6993 8.7891
20 17 9 -1.5470 9.5383
20 17 11 7.9546 -0.9664
20 17 13 5.9783 -4.0809
20 17 15 1.2027 -3.5861
20 17 17 -3.8408 5.6150
20 18 4 -4.6030 -6.7565
20 18 6 4.2378 -1.0115
20 18 8 -6.7293 -1.2687
20 18 10 -2.4689 9.0278
20 18 12 11.6973 5.7679
20 18 14 2.1909 -5.2799
20 18 16 8.0183 -3.0558
20 19 3 -12.3951 4.4652
20 19 5 1.4179 -11.6654
20 19 7 -11.0246 4.2539
20 19 9 3.4323 7.2252
20 19 11 -1.8054 -6.9160
20 19 13 -0.6244 -0.9887
20 19 15 3.9778 4.3287
20 20 4 -1.6035 -15.5598
20 20 8 0.2615 7.9386
20 20 12 -3.3326 7.9007
20 20 16 -14.4029 -16.1660
21 0 1 -23.1821 9.7500
21 0 3 37.8840 6.7990
21 0 9 -1.9838 0.7447
21 0 11 -11.6287 18.2932
21 0 13 -8.5116 -13.9733
21 0 15 -11.5189 6.3361
21 0 17 0.1779 9.3120
21 1 2 4.2632 -1.7506
21 1 4 -1.4705 12.1826
21 1 6 3.5957 -8.3711
21 1 8 5.6588 4.0842
21 1 10 3.8644 4.2160
21 1 12 1.0346 -10.8764
21 1 14 3.7433 5.1675
21 1 16 -10.3218 1.1610
21 1 18 -13.0822 -7.7241
21 2 1 7.4620 -16.0745
21 2 3 3.6047 14.8917
21 2 5 3.3707 -2.7863
21 2 7 14.2805 0.5248
21 2 9 3.5121 2.4775
21 2 11 -10.2417 -8.2843
21 2 13 6.5353 3.5776
21 2 15 4.0646 1.7046
21 2 17 4.6525 0.5837
21 3 2 16.8109 5.6941
21 3 4 3.9043 -4.6276
21 3 6 10.7209 -2.7253
21 3 8 -10.1078 5.7091
21 3 10 0.2866 -3.5625
21 3 12 2.1202 1.2637
21 3 14 -2.7564 2.5804
21 3 16 1.6675 -0.7483
21 3 18 0.0072 -1.2986
21 4 1 -6.6618 -6.7946
21 4 3 -14.2700 -0.4835
21 4 5 -7.6888 -7.6852
21 4 7 3.3865 -1.1713
21 4 9 -4.4998 1.2562
21 4 11 0.8689 3.2762
21 4 13 0.2103 2.9480
21 4 15 2.7401 -2.9886
21 4 17 -10.5900 -4.5942
21 5 2 -20.6528 4.5850
21 5 4 3.1559 -3.3493
21 5 6 -5.1961 4.7485
21 5 8 -5.7016 2.5794
21 5 10 -5.4377 -3.9348
21 5 12 -3.3366 4.8910
21 5 14 -3.0363 -1.0442
21 5 16 4.7149 -1.0481
21 5 18 3.7288 -5.6876
21 6 1 18.9108 -8.2418
21 6 3 -5.1576 -4.9914
21 6 5 4.6691 3.3655
21 6 7 -7.4290 -5.7916
21 6 9 -0.7835 -4.6490
21 6 11 -7.8607 5.1270
21 6 13 2.0539 0.3426
21 6 15 9.8028 -0.5693
21 6 17 2.1827 0.7406
21 7 2 26.8383 -7.0646
21 7 4 0.1851 5.7992
21 7 6 -15.5828 -2.8439
21 7 8 -1.5550 -2.7745
21 7 10 -0.0963 5.6452
21 7 12 1.8134 0.3816
21 7 14 -8.4632 -0.9055
21 7 16 -1.1784 0.2066
21 7 18 10.5090 -4.5147
21 8 1 3.2606 6.6742
21 8 3 13.3832 1.1893
21 8 5 -5.3951 -4.8264
21 8 7 2.4698 -3.1576
21 8 9 0.2116 -0.7789
21 8 11 8.3347 -0.3636
21 8 13 -1.3688 4.4664
21 8 15 1.4523 1.6925
21 8 17 -1.9314 -1.2631
21 9 2 2.5975 -0.2944
21 9 4 -10.1098 0.7876
21 9 6 1.7945 -5.1936
21 9 8 4.0381 3.2626
21 9 10 -6.3838 -0.1604
21 9 12 3.2731 2.1616
21 9 14 2.6013 1.6086
21 9 16 1.7137 0.1973
21 10 1 -6.7046 -8.8633
21 10 3 -7.9546 0.4745
21 10 5 -10.2318 1.6502
21 10 7 1.5889 5.3593
21 10 9 -4.6821 1.1553
21 10 11 7.3779 0.1905
21 10 13 8.0933 -1.1112
21 10 15 6.5268 -4.6489
21 10 17 -2.3930 -4.1515
21 11 2 4.6715 -5.5742
21 11 4 4.8814 -3.5393
21 11 6 -12.8709 5.9916
21 11 8 9.7627 3.2488
21 11 10 -6.8164 -6.3576
21 11 12 5.6716 0.2996
21 11 14 -1.6881 -3.4470
21 11 16 7.6541 -2.6708
21 12 1 0.0316 6.1243
21 12 3 -6.9000 -1.9692
21 12 5 1.2265 4.3694
21 12 7 -5.6240 3.5685
21 12 9 4.0400 -3.3940
21 12 11 -0.9358 1.9489
21 12 13 -3.4436 -0.3983
21 12 15 -1.9636 2.0441
21 12 17 -0.0144 1.3663
21 13 2 -12.1961 -1.4475
21 13 4 -4.7808 1.1637
21 13 6 17.8837 0.8406
21 13 8 -0.7187 -1.6846
21 13 10 4.1478 -2.0264
21 13 12 6.2812 -2.0074
21 13 14 -0.6594 -0.0550
21 13 16 -1.9609 2.2601
21 14 1 -3.7076 -6.1386
21 14 3 8.7852 -0.4274
21 14 5 5.2492 -0.8333
21 14 7 10.8798 0.7734
21 14 9 -9.4266 -1.0037
21 14 11 0.8039 -1.1477
21 14 13 -12.0373 -0.3193
21 14 15 -3.9469 -0.2648
21 14 17 2.9504 -2.1075
21 15 6 4.9102 -3.8404
21 15 8 8.8688 -2.4392
21 15 10 0.4726 1.1247
21 15 12 5.2865 4.3749
21 15 14 -0.2429 3.8837
21 15 16 -11.5330 -2.8491
21 16 5 -18.7818 -3.2431
21 16 7 11.0821 4.7226
21 16 9 -0.4902 1.0922
21 16 11 13.2094 3.8737
21 16 13 -2.4495 0.0836
21 16 15 -5.0302 -2.7328
21 17 4 -22.0289 4.5569
21 17 6 0.0936 1.2500
21 17 8 3.8040 -3.6459
21 17 10 0.3749 -5.5236
21 17 12 -2.2101 2.5849
21 17 14 1.9290 0.8815
21 17 16 2.9096 3.3234
21 18 3 8.6311 -0.7889
21 18 5 1.1680 5.6962
21 18 7 0.2837 5.5258
21 18 9 0.2795 -5.2567
21 18 11 1.7068 -3.5635
21 18 13 0.8161 -1.9636
21 18 15 -6.6875 2.4286
21 19 2 -6.7294 0.7920
21 19 4 -10.3722 4.8582
21 19 6 -7.8586 -1.9930
21 19 8 -7.7916 -6.6508
21 19 10 -5.9138 1.6828
21 19 12 1.9325 2.8724
21 19 14 8.4673 2.9171
21 19 16 15.6434 -1.1650
21 20 1 -0.6730 3.0852
21 20 3 -3.1797 5.1362
21 20 5 -3.7024 3.2878
21 20 7 -15.7957 -1.4125
21 20 9 3.9014 -5.3507
21 20 11 3.1351 -2.1537
21 20 13 -3.5623 -0.0140
21 20 15 -0.2789 7.9901
21 21 2 -2.6398 2.9079
21 21 6 4.4496 -6.1614
21 21 10 -5.6252 2.9171
21 21 14 -4.6248 7.3313
22 0 0 22.6819 -33.9276
22 0 2 17.7574 4.4223
22 0 4 -45.5414 37.8379
22 0 8 10.2609 6.5584
22 0 10 -4.5590 26.3173
22 0 12 -13.7225 -28.6825
22 0 14 3.3630 -10.3857
22 0 16 3.4095 24.7696
22 0 18 -10.6003 -9.3772
22 1 1 -2.1237 13.6205
22 1 3 13.3846 1.5648
22 1 5 -6.9104 -18.1214
22 1 7 -5.2403 3.0143
22 1 9 9.2392 11.3370
22 1 11 -10.0674 -8.8424
22 1 13 -0.4459 1.7771
22 1 15 -3.0825 9.3832
22 1 17 -5.6051 -11.9037
22 2 0 -46.5257 5.8550
22 2 2 -17.2309 -5.2231
22 2 4 18.0054 -6.8346
22 2 6 -16.2805 -10.4085
22 2 8 2.8543 5.1531
22 2 10 6.6832 -1.2723
22 2 12 -1.0065 0.7178
22 2 14 8.2745 1.7968
22 2 16 -0.5880 -3.4553
22 2 18 -10.3559 3.0634
22 3 1 -1.1134 6.2792
22 3 3 -12.3053 -3.4893
22 3 5 -16.8578 -6.5103
22 3 7 -3.6136 9.3538
22 3 9 4.0820 1.5912
22 3 11 1.7773 -5.6304
22 3 13 4.6606 2.9877
22 3 15 -1.0754 3.6730
22 3 17 -8.5080 0.1055
22 4 0 14.0900 -23.1679
22 4 2 4.2665 -7.0239
22 4 4 1.3270 -1.3317
22 4 6 -2.5024 10.7228
22 4 8 -1.8354 4.9750
22 4 10 6.1697 -10.7759
22 4 12 -3.0725 1.6743
22 4 14 0.5908 3.3732
22 4 16 0.6967 -3.4691
22 5 1 -9.3553 -10.0285
22 5 3 -7.0218 1.3069
22 5 5 -5.5648 1.0431
22 5 7 6.4909 -0.0768
22 5 9 -2.3502 -2.6475
22 5 11 1.5076 0.2717
22 5 13 1.5753 -3.3791
22 5 15 2.0344 -3.1043
22 5 17 -4.2984 -0.0757
22 6 0 -7.7145 -12.3290
22 6 2 -15.6648 1.6104
22 6 4 6.7476 5.2906
22 6 6 6.0343 8.0286
22 6 8 0.0839 1.7608
22 6 10 -5.3929 -5.3554
22 6 12 8.2713 0.6867
22 6 14 3.0442 -0.0869
22 6 16 -8.6142 -1.0237
22 7 1 5.6388 -1.6432
22 7 3 13.5055 2.0198
22 7 5 13.1189 2.6099
22 7 7 4.0378 -6.4078
22 7 9 4.1351 -0.6409
22 7 11 1.8804 2.6598
22 7 13 6.8003 -0.9063
22 7 15 -4.2360 0.6288
22 7 17 -0.6339 3.6694
22 8 0 27.8198 15.8343
22 8 2 7.2928 2.9402
22 8 4 -3.3115 2.0929
22 8 6 0.7587 0.9498
22 8 8 -5.6964 3.7085
22 8 10 6.6441 0.3000
22 8 12 -6.0754 -4.3716
22 8 14 7.1432 0.1542
22 8 16 -1.4235 2.1911
22 9 1 -5.3933 8.0510
22 9 3 -6.9420 -0.0223
22 9 5 4.4969 0.7098
22 9 7 0.8701 2.0439
22 9 9 8.9584 -1.3771
22 9 11 -6.5734 -0.9007
22 9 13 2.4978 -1.2682
22 9 15 -1.5575 0.9571
22 9 17 -4.4885 4.7969
22 10 0 -5.8692 -25.8151
22 10 2 -5.1062 -6.1831
22 10 4 -0.4619 1.8545
22 10 6 -1.8466 -5.2178
22 10 8 -13.9289 2.3788
22 10 10 6.4361 1.2569
22 10 12 -4.1905 -1.6467
22 10 14 2.9541 1.5487
22 10 16 3.0012 -0.0285
22 11 1 14.5204 -12.8164
22 11 3 3.2337 -3.4144
22 11 5 -28.2391 -5.5585
22 11 7 -15.2273 -0.6398
22 11 9 4.8739 -1.7474
22 11 11 0.8630 -2.1431
22 11 13 1.8961 1.7366
22 11 15 1.1127 1.0362
22 11 17 4.8570 0.3245
22 12 0 30.6158 24.9095
22 12 2 8.4750 2.3739
22 12 4 -0.4731 0.2883
22 12 6 -16.4969 2.1257
22 12 8 -6.6274 -4.5577
22 12 10 0.2266 -0.7312
22 12 12 1.3574 1.8864
22 12 14 -13.7589 -0.4890
22 12 16 1.5342 0.1672
22 13 1 -13.3776 10.6083
22 13 3 1.9824 7.8607
22 13 5 -0.7050 -2.3585
22 13 7 1.9658 1.0634
22 13 9 0.3737 2.9230
22 13 11 -4.4998 -0.8308
22 13 13 2.1651 3.0424
22 13 15 4.3311 2.1718
22 13 17 6.2129 0.7539
22 14 0 -6.5265 -14.5129
22 14 2 -11.2594 -3.7571
22 14 4 4.3601 -6.2124
22 14 6 18.1992 2.7542
22 14 8 -3.0395 -0.9109
22 14 10 0.1888 -1.5998
22 14 12 4.2886 4.3372
22 14 14 0.3081 -0.5900
22 14 16 -0.3530 -1.2750
22 15 5 0.1592 0.0340
22 15 7 -4.8710 -5.2436
22 15 9 -1.3808 -0.8072
22 15 11 4.2519 -0.4203
22 15 13 -2.9778 -0.4977
22 15 15 -6.5913 4.0032
22 16 4 -16.7809 0.1098
22 16 6 -2.9447 -3.0680
22 16 8 3.4571 -1.2846
22 16 10 -2.4487 1.9189
22 16 12 -0.6660 -1.3758
22 16 14 -3.1403 -0.3215
22 16 16 -9.5117 -2.2093
22 17 3 7.0824 -2.7840
22 17 5 11.7343 -0.7085
22 17 7 -1.0448 -0.1233
22 17 9 4.5157 -3.5821
22 17 11 -7.2515 0.9959
22 17 13 0.8895 1.3223
22 17 15 -2.5191 -0.1267
22 18 0 -6.1306 5.4842
22 18 2 3.7569 6.6641
22 18 4 -1.3729 2.5664
22 18 6 5.6731 -10.2612
22 18 8 -3.0330 -4.7295
22 18 10 -4.6326 4.3208
22 18 12 1.0990 -4.5727
22 18 14 -0.6387 1.3447
22 18 16 2.0473 0.5462
22 19 1 3.3405 0.7490
22 19 3 9.9003 0.3260
22 19 5 2.4810 -5.5303
22 19 7 9.6359 7.6159
22 19 9 -5.4031 -0.1274
22 19 11 -6.1673 -3.9145
22 19 13 -0.6230 0.6775
22 19 15 1.5198 -1.2647
22 20 0 1.8799 -0.4929
22 20 2 0.8559 5.8782
22 20 4 -6.5415 -4.5858
22 20 6 2.8736 -2.9139
22 20 8 -0.9845 -4.7312
22 20 10 -1.6716 10.3560
22 20 12 10.3698 1.3943
22 20 14 -2.1763 -4.4966
22 21 1 6.0011 3.5992
22 21 3 -11.2330 3.9862
22 21 5 -13.0420 -11.4728
22 21 7 4.0673 7.5972
22 21 9 -3.3013 4.7493
22 21 11 -2.3970 -10.8583
22 21 13 -4.4268 -0.8301
22 21 15 -1.7422 6.0222
22 22 0 -6.6506 19.2221
22 22 4 3.0486 -19.6228
22 22 8 -14.0792 0.6945
22 22 12 3.9317 11.4755
23 0 1 -13.1621 -2.6064
23 0 3 -10.5452 24.7570
23 0 7 -23.3176 -4.1368
23 0 9 -6.6586 8.5134
23 0 11 17.1278 -13.1982
23 0 13 -3.4643 20.7847
23 0 15 9.6969 -0.0108
23 0 17 -18.5607 -12.3144
23 1 2 -9.8977 7.7694
23 1 4 2.3225 -12.5126
23 1 6 14.0280 9.3182
23 1 8 0.5128 0.6527
23 1 10 -8.5451 -13.6120
23 1 12 0.4188 10.3164
23 1 14 -2.4944 -5.4431
23 1 16 5.0985 -0.4199
23 2 1 -20.8818 -6.5928
23 2 3 -11.4662 1.8235
23 2 5 20.1874 13.2428
23 2 7 5.3928 2.9757
23 2 9 1.3493 -5.8458
23 2 11 -3.1822 1.9379
23 2 13 -0.4399 -5.4542
23 2 15 1.9660 0.4666
23 2 17 -8.9554 4.7315
23 3 2 -14.1708 9.1513
23 3 4 9.5132 8.1628
23 3 6 8.9016 -3.6439
23 3 8 -5.5017 -1.7441
23 3 10 0.1951 0.6934
23 3 12 5.8626 -1.3131
23 3 14 -5.0566 0.0597
23 3 16 4.6048 -0.1376
23 4 1 24.0668 -7.3513
23 4 3 -1.5731 -0.2337
23 4 5 -28.3785 -2.9618
23 4 7 -16.7254 -5.8863
23 4 9 -0.0750 4.1738
23 4 11 0.2275 6.4385
23 4 13 2.8653 -0.1719
23 4 15 -1.4193 -1.6136
23 4 17 6.7185 -4.2082
23 5 2 19.2514 -6.7965
23 5 4 -12.6920 5.6219
23 5 6 2.7692 -5.2603
23 5 8 3.6648 -2.5318
23 5 10 -3.9831 2.3569
23 5 12 -7.0719 -2.0514
23 5 14 1.2103 1.6239
23 5 16 -6.3090 0.7718
23 6 1 -15.8016 -2.6856
23 6 3 3.5107 8.2345
23 6 5 9.4151 -10.1235
23 6 7 -10.1289 -3.3741
23 6 9 4.3110 5.7013
23 6 11 6.7276 -1.7038
23 6 13 -1.4454 0.3036
23 6 15 4.1787 -1.8994
23 6 17 1.6442 -1.1622
23 7 2 16.2105 5.9883
23 7 4 0.5206 -2.4830
23 7 6 -7.8590 0.4898
23 7 8 -0.9950 4.3547
23 7 10 1.7585 -1.9861
23 7 12 2.1752 3.1068
23 7 14 1.5998 -1.6469
23 7 16 3.6523 0.8110
23 8 1 21.1676 -11.3899
23 8 3 -12.6115 0.1438
23 8 5 -4.5102 0.7808
23 8 7 0.0541 -2.7040
23 8 9 -1.3436 -2.7966
23 8 11 -1.7260 3.4505
23 8 13 0.7551 0.4308
23 8 15 6.7270 0.4580
23 8 17 1.1303 -1.7183
23 9 2 2.0003 -0.0712
23 9 4 -3.3090 -0.4014
23 9 6 -2.8302 1.0932
23 9 8 7.7368 -0.6887
23 9 10 2.1223 1.8632
23 9 12 -2.0472 0.7938
23 9 14 -2.3607 -1.7328
23 9 16 9.9321 -0.6938
23 10 1 -8.8897 9.7360
23 10 3 7.9243 -0.8230
23 10 5 -5.8541 2.7032
23 10 7 -1.4832 1.1573
23 10 9 11.8901 -1.6871
23 10 11 -4.2224 0.2145
23 10 13 -1.8203 -1.0236
23 10 15 0.4638 1.3344
23 10 17 -5.7300 -1.0197
23 11 2 -5.7785 -1.1261
23 11 4 18.6083 2.5394
23 11 6 -2.5798 -2.7245
23 11 8 -3.3545 4.1472
23 11 10 1.1084 3.1453
23 11 12 -0.0084 -3.3228
23 11 14 0.4799 -1.6886
23 11 16 -5.2029 -0.6206
23 12 1 7.6364 -3.6719
23 12 3 -1.3650 2.7239
23 12 5 -2.1381 0.8355
23 12 7 5.4257 1.9531
23 12 9 10.9905 1.6800
23 12 11 -0.7377 -2.9501
23 12 13 1.8069 -2.3327
23 12 15 1.2760 -0.0248
23 12 17 6.2647 -1.3486
23 13 2 -11.9129 -8.7292
23 13 4 -6.2690 -3.3934
23 13 6 -0.2889 5.4888
23 13 8 0.1451 2.8732
23 13 10 0.0185 -2.0291
23 13 12 -6.9206 1.5847
23 13 14 -1.1528 -5.4228
23 13 16 -0.4424 -1.4509
23 14 1 22.1727 8.8680
23 14 3 -3.8159 4.8472
23 14 5 -3.7251 -0.5990
23 14 7 -9.8589 2.2648
23 14 9 -3.6166 -3.4021
23 14 11 -2.8227 1.8294
23 14 13 2.2458 0.7593
23 14 15 1.1515 1.3257
23 15 4 -12.3601 -4.8898
23 15 6 -6.1310 1.0897
23 15 8 6.1217 3.6955
23 15 10 3.5433 5.8716
23 15 12 3.4678 -1.7264
23 15 14 5.6853 -5.3853
23 15 16 14.5015 2.7017
23 16 1 -12.0076 -5.9350
23 16 3 -2.0218 -1.1253
23 16 5 -5.8027 0.0933
23 16 7 8.4133 1.4893
23 16 9 -10.4185 0.4937
23 16 11 5.0201 1.6124
23 16 13 4.9152 -3.0998
23 16 15 -8.8465 -0.3733
23 17 2 -24.3504 0.1151
23 17 4 -13.4861 -2.8660
23 17 6 3.4333 -0.9951
23 17 8 11.3508 3.3090
23 17 10 -4.2044 5.7758
23 17 12 3.8214 -0.4219
23 17 14 0.7999 -0.1456
23 17 16 13.8907 -3.4538
23 18 1 -4.1340 6.5663
23 18 3 -9.6367 -3.8814
23 18 5 4.3439 -4.8034
23 18 7 4.1538 0.0465
23 18 9 -6.9252 3.6038
23 18 11 1.1810 5.5268
23 18 13 -8.9548 -0.0510
23 18 15 -1.3301 -3.0712
23 19 2 -12.8222 6.9187
23 19 4 1.9169 -1.1466
23 19 6 -3.0791 1.7306
23 19 8 -1.6123 6.0904
23 19 10 -11.8172 -3.8294
23 19 12 3.7471 -3.5858
23 19 14 -2.7875 -0.7199
23 20 1 -3.1063 -0.5209
23 20 3 3.6197 -1.3134
23 20 5 -0.1086 1.2262
23 20 7 17.4929 5.6310
23 20 9 7.8766 -4.2650
23 20 11 -0.9877 0.6634
23 20 13 0.4386 0.9884
23 20 15 -0.5380 1.5355
23 21 2 7.5276 0.7059
23 21 4 6.1925 -4.1468
23 21 6 -0.3943 -0.2378
23 21 8 -0.0253 -2.5535
23 21 10 0.8125 1.4035
23 21 12 -9.7576 2.8227
23 21 14 4.1301 0.0005
23 22 1 -4.2901 1.2841
23 22 3 12.5869 -2.3193
23 22 5 -2.6615 8.3176
23 22 7 0.0527 3.5074
23 22 9 -5.7954 -9.1006
23 22 11 -5.1495 -1.6225
23 22 13 -5.0668 0.1018
23 22 15 0.0987 6.1879
23 23 2 -11.0696 -2.7902
23 23 6 5.0007 -6.4568
23 23 10 3.7650 7.9451
23 23 14 6.7511 3.4970
24 0 2 12.3992 -41.5528
24 0 8 2.7775 -4.8426
24 0 10 -0.4756 -29.4201
24 0 12 -5.7457 19.9521
24 0 14 7.1613 -3.1061
24 0 16 -3.4022 -15.7722
24 1 1 -16.9689 -17.9375
24 1 3 -8.1858 1.3084
24 1 5 -14.2832 22.0326
24 1 7 -5.8677 -14.3489
24 1 9 8.8823 -2.8810
24 1 11 1.1818 15.0613
24 1 13 3.7892 -6.7242
24 1 15 7.4834 -3.9161
24 1 17 10.0613 8.1500
24 2 0 -27.4673 -35.6123
24 2 2 -5.1167 0.1129
24 2 4 3.3669 -0.1101
24 2 6 -6.0817 -8.7008
24 2 8 -5.1483 1.2502
24 2 10 2.2087 3.0212
24 2 12 -7.5709 1.6532
24 2 14 -2.2069 -0.1226
24 2 16 -2.7904 -0.0060
24 3 1 16.8853 -2.4544
24 3 3 14.8461 -6.4331
24 3 5 -10.6914 4.6338
24 3 7 4.4191 -0.1631
24 3 9 9.7555 -2.7863
24 3 11 -9.6379 6.5189
24 3 13 -4.4687 -2.8754
24 3 15 1.9282 -6.2841
24 3 17 10.1264 2.5811
24 4 0 -0.3935 4.3920
24 4 2 -2.6839 9.1787
24 4 4 9.9637 5.6718
24 4 6 2.5767 -8.4195
24 4 8 -17.1047 0.2251
24 4 10 5.6394 -0.5880
24 4 12 -4.7277 -5.4079
24 4 14 8.0306 2.4907
24 4 16 8.5846 3.2628
24 5 1 1.3470 7.3178
24 5 3 -22.3309 0.6061
24 5 5 -2.9465 -2.4571
24 5 7 -13.3596 5.3312
24 5 9 -0.1428 3.0927
24 5 11 4.8855 -1.2283
24 5 13 5.1950 1.1701
24 5 15 4.0383 1.2769
24 5 17 -1.8263 -0.1995
24 6 0 -7.2806 -6.1655
24 6 2 -4.4157 -5.5738
24 6 4 -13.7878 -1.3008
24 6 6 4.5015 2.4951
24 6 8 8.6343 0.5363
24 6 10 -1.2755 -2.6799
24 6 12 -7.4540 -0.1485
24 6 14 0.8461 2.0950
24 6 16 -1.3546 1.8625
24 7 1 -1.2151 -1.9149
24 7 3 7.6339 -1.7716
24 7 5 8.0650 -4.1102
24 7 7 1.4503 1.6346
24 7 9 -10.0867 2.5141
24 7 11 -2.2412 -5.2645
24 7 13 0.8845 0.8767
24 7 15 -6.7792 2.0438
24 7 17 -2.8873 2.9511
24 8 0 -8.0601 -18.4288
24 8 2 -0.1329 -5.3315
24 8 4 -2.1582 2.8636
24 8 6 -11.0017 2.9385
24 8 8 2.2501 2.9195
24 8 10 -4.1664 -1.5183
24 8 12 -3.2662 1.3749
24 8 14 3.9901 0.8306
24 8 16 7.8848 -5.3591
24 9 1 2.6501 -11.1250
24 9 3 -6.5347 2.2491
24 9 5 -7.5949 -1.4536
24 9 7 -6.7138 0.3493
24 9 9 -5.0907 -3.4940
24 9 11 -4.4378 -2.3046
24 9 13 5.0129 3.0923
24 9 15 -2.2410 -0.0755
24 9 17 5.6495 -5.4650
24 10 0 17.8969 22.0675
24 10 2 5.4817 5.7813
24 10 4 -3.2549 -0.4454
24 10 6 3.0846 5.2040
24 10 8 7.6545 -2.4062
24 10 10 9.6483 -2.9334
24 10 12 -1.2530 2.2643
24 10 14 -0.7225 -0.5289
24 10 16 0.7394 -0.3298
24 11 1 -2.3469 8.8168
24 11 3 -3.6470 2.8336
24 11 5 -0.2623 2.5254
24 11 7 4.4533 0.2585
24 11 9 3.7160 -4.5085
24 11 11 1.8340 3.2714
24 11 13 3.9623 1.5942
24 11 15 -1.8498 -1.1850
24 12 0 -19.7217 -17.8261
24 12 2 -12.3220 -4.5925
24 12 4 0.6577 -3.4204
24 12 6 1.8190 -0.2375
24 12 8 7.6843 -0.8618
24 12 10 0.3969 2.0360
24 12 12 4.7915 4.2474
24 12 14 4.9983 0.2167
24 12 16 -2.1433 0.0749
24 13 1 0.3556 -13.7925
24 13 3 2.2718 -3.7689
24 13 5 -13.6160 1.4299
24 13 7 -3.5847 -9.1878
24 13 9 6.0209 -1.7278
24 13 11 1.1356 1.3518
24 13 13 -5.6200 0.7284
24 13 15 0.1104 1.9584
24 14 0 9.5887 16.7757
24 14 2 10.6839 -5.1897
24 14 4 -0.6622 -1.2235
24 14 6 -12.4747 -2.0282
24 14 8 15.7800 1.3170
24 14 10 1.9562 2.0893
24 14 12 1.8019 -3.9543
24 14 14 -0.7171 -2.0985
24 14 16 -2.4716 -0.9454
24 15 1 9.7907 0.5483
24 15 3 13.2546 7.0689
24 15 5 2.9345 1.7687
24 15 7 12.2467 4.6803
24 15 9 -8.0227 -2.2557
24 15 11 -2.3837 -4.7462
24 15 13 3.5532 2.6363
24 15 15 -5.7850 1.8682
24 16 0 4.7417 -3.3390
24 16 2 -1.8650 -2.2100
24 16 4 -0.2195 0.1476
24 16 6 5.0899 0.7832
24 16 8 11.5842 -0.5417
24 16 10 0.4045 -1.3531
24 16 12 -1.8612 1.5700
24 16 14 -1.0631 2.1354
24 16 16 -15.1365 -1.7170
24 17 1 6.1114 -5.2435
24 17 3 13.6262 10.5362
24 17 5 -0.8667 -0.9244
24 17 7 1.3542 -1.8325
24 17 9 -6.5290 -5.8781
24 17 11 5.4814 -3.8351
24 17 13 5.0816 5.1831
24 17 15 10.3533 5.7408
24 18 0 29.2231 3.1427
24 18 2 2.9161 2.2315
24 18 4 -5.9321 -1.1132
24 18 6 -6.4085 6.0478
24 18 8 -1.7191 -5.7857
24 18 10 -3.8744 -4.1945
24 18 12 4.2241 1.2448
24 18 14 2.5283 2.5113
24 19 1 -1.3966 -5.6099
24 19 3 -7.6263 -4.5237
24 19 5 -0.9107 0.9296
24 19 7 -4.5417 -6.3242
24 19 9 -9.4234 -5.7377
24 19 11 -6.3138 6.8662
24 19 13 -3.2307 3.1067
24 19 15 13.8130 -1.3751
24 20 0 -13.5764 16.3502
24 20 2 -0.7761 1.9778
24 20 4 11.9897 -0.4995
24 20 6 11.9750 -0.8912
24 20 8 -8.7672 -1.4060
24 20 10 -0.5166 -0.1450
24 20 12 4.2445 -5.3833
24 20 14 -18.4317 2.1804
24 21 1 8.6425 -1.4474
24 21 3 5.2887 5.0962
24 21 5 -5.3545 4.5389
24 21 7 -3.3956 -0.0172
24 21 9 -8.1902 -3.2573
24 21 11 -0.8174 4.2035
24 21 13 3.8950 1.5269
24 21 15 0.6752 -5.7980
24 22 0 6.7605 -4.2278
24 22 2 0.9951 6.5166
24 22 4 -5.5325 -0.2808
24 22 6 -6.3345 -9.5899
24 22 8 7.2583 -1.0600
24 22 10 2.3572 10.2881
24 22 12 4.9759 -2.8299
24 22 14 -9.5634 -3.4381
24 23 1 6.8119 -0.1177
24 23 3 -3.8763 -1.4885
24 23 5 -6.7518 -8.0832
24 23 7 0.5344 10.8920
24 23 9 3.3150 4.2764
24 23 11 5.4477 -7.2237
24 23 13 7.8794 -2.0472
24 24 0 3.9689 19.0728
24 24 4 -10.0538 -16.6145
24 24 8 -4.2793 -5.6541
24 24 12 0.6510 11.1006
25 0 1 -24.1869 20.8247
25 0 3 1.5088 -23.6014
25 0 7 -6.5910 -9.3062
25 0 9 -2.6383 -16.7708
25 0 11 3.1655 22.0742
25 0 13 -2.1706 -0.9846
25 0 15 6.6931 -4.0065
25 0 17 10.2880 4.6653
25 1 2 -0.9657 -7.8134
25 1 4 7.2414 14.6741
25 1 6 -6.5988 -6.3510
25 1 8 7.9234 -2.2962
25 1 10 7.5029 9.4917
25 1 12 3.2123 -7.6932
25 1 14 6.2836 1.4523
25 1 16 -11.9414 4.6455
25 2 1 2.5305 -14.9271
25 2 3 -14.1694 7.5550
25 2 5 22.1371 0.6904
25 2 7 -2.6868 8.2660
25 2 9 7.0705 1.8071
25 2 11 5.6436 -9.8895
25 2 13 -9.0619 2.8602
25 2 15 1.8059 2.1517
25 2 17 0.3385 -3.7677
25 3 2 -24.6749 -2.7888
25 3 4 4.3566 4.9701
25 3 6 -11.8874 -3.7541
25 3 8 -0.2373 -7.0541
25 3 10 -2.5722 -0.6631
25 3 12 -7.0364 2.1964
25 3 14 7.2304 -0.7725
25 3 16 -4.3080 1.9753
25 4 1 -19.2747 -4.0810
25 4 3 5.9115 8.2963
25 4 5 8.6196 -2.9765
25 4 7 5.4478 3.3970
25 4 9 -0.3992 4.7291
25 4 11 -11.3762 -2.0324
25 4 13 8.2081 -0.5401
25 4 15 4.3471 -1.5571
25 4 17 -8.2664 -2.7758
25 5 2 -0.6630 10.5745
25 5 4 8.7078 -3.0499
25 5 6 -7.3018 0.3739
25 5 8 -0.5652 1.1046
25 5 10 10.4978 -3.3143
25 5 12 2.7527 0.8197
25 5 14 5.2495 -0.5604
25 5 16 4.8071 -1.2404
25 6 1 8.2770 -9.4150
25 6 3 -5.7375 -1.1672
25 6 5 7.7625 -1.1461
25 6 7 0.4915 -2.2802
25 6 9 4.7655 3.8143
25 6 11 1.4104 5.5011
25 6 13 -3.2097 -3.3357
25 6 15 2.8208 -0.2817
25 6 17 2.0234 -4.3022
25 7 2 3.4582 -3.2236
25 7 4 -8.4188 -2.4669
25 7 6 1.1504 -1.9130
25 7 8 8.7825 -0.1549
25 7 10 0.9081 0.4663
25 7 12 -9.4791 -1.7955
25 7 14 -0.9951 2.0140
25 7 16 7.4348 1.3728
25 8 1 -17.3382 1.8270
25 8 3 15.6427 -0.3524
25 8 5 7.6186 1.9782
25 8 7 -2.3303 1.3061
25 8 9 -11.4770 -1.8013
25 8 11 1.5070 -3.6154
25 8 13 1.0016 -0.1358
25 8 15 -2.5072 1.6464
25 8 17 9.8895 1.6062
25 9 2 -7.6539 2.8296
25 9 4 2.3549 4.3073
25 9 6 -2.1602 -1.1733
25 9 8 1.6719 0.1373
25 9 10 6.2762 1.5374
25 9 12 -1.7034 -1.5072
25 9 14 -2.1577 -1.5145
25 9 16 -5.3636 0.9876
25 10 1 5.3484 -7.1850
25 10 3 -1.1462 2.6967
25 10 5 -1.3852 -1.4752
25 10 7 7.7254 -0.5311
25 10 9 1.1674 -0.0732
25 10 11 9.5268 -0.6904
25 10 13 -1.9518 0.0069
25 10 15 2.8317 1.4553
25 11 2 -6.6223 -2.8413
25 11 4 0.6783 -3.6174
25 11 6 -8.1062 0.6304
25 11 8 3.9495 1.5817
25 11 10 -2.6500 1.5182
25 11 12 -5.4726 0.5576
25 11 14 3.4796 -1.6569
25 11 16 -13.0111 -0.0340
25 12 1 3.6280 4.9686
25 12 3 -0.9086 3.0749
25 12 5 -2.9761 -0.3359
25 12 7 -2.2557 1.2203
25 12 9 4.1320 -1.6284
25 12 11 -3.9308 -0.5351
25 12 13 1.3653 -1.5887
25 12 15 8.1490 2.6507
25 13 2 -1.7168 2.1605
25 13 4 4.3483 -0.9878
25 13 6 7.5905 -0.2618
25 13 8 -14.2402 1.2869
25 13 10 4.5672 2.2620
25 13 12 6.0362 -1.3517
25 13 14 1.2276 -2.0402
25 13 16 -2.0664 4.0597
25 14 1 12.9292 0.5327
25 14 3 -15.1016 2.4051
25 14 5 -4.2544 -1.2221
25 14 7 8.6150 -2.9140
25 14 9 5.0670 1.3794
25 14 11 4.3040 1.0858
25 14 13 -5.5268 -1.4203
25 14 15 8.8928 0.5801
25 15 2 -18.7038 -4.0044
25 15 4 1.1090 -5.9778
25 15 6 -1.9321 1.3302
25 15 8 6.4854 0.9402
25 15 10 -1.2756 1.1614
25 15 12 -6.4827 0.2689
25 15 14 5.8811 -0.5985
25 15 16 -10.9428 0.1623
25 16 1 -6.3458 9.6720
25 16 3 0.3888 2.1541
25 16 5 -1.4866 -0.9504
25 16 7 4.4149 1.1526
25 16 9 0.8519 -2.4449
25 16 11 -0.9748 0.3984
25 16 13 0.6772 0.2896
25 16 15 -0.4615 0.4073
25 17 2 12.4452 -0.0066
25 17 4 10.6692 -6.5471
25 17 6 -6.6713 -1.2520
25 17 8 -0.7868 5.1481
25 17 10 -6.0678 3.8829
25 17 12 -1.9002 -2.2001
25 17 14 0.2770 -1.3233
25 18 1 4.6160 0.4926
25 18 3 -0.4996 -3.7350
25 18 5 -4.7093 -1.9901
25 18 7 2.1484 -0.3862
25 18 9 2.8385 0.7751
25 18 11 1.0872 5.7605
25 18 13 -0.1347 -3.9640
25 18 15 -0.0633 -0.0238
25 19 2 -13.2880 3.5146
25 19 4 -6.6981 -2.3135
25 19 6 -0.2893 -0.4986
25 19 8 4.2068 0.9792
25 19 10 -0.3503 1.0621
25 19 12 -2.4687 -3.4440
25 19 14 5.4685 0.6216
25 20 1 0.9593 7.8203
25 20 3 0.0465 -0.0694
25 20 5 2.9577 -6.0402
25 20 7 7.2249 -3.1270
25 20 9 -4.4527 4.3925
25 20 11 7.9644 3.0369
25 20 13 -6.9626 -1.3874
25 20 15 -3.7488 0.4762
25 21 2 -3.1580 6.2841
25 21 4 -3.4287 -2.4276
25 21 6 5.4167 2.9608
25 21 8 -15.8981 6.8197
25 21 10 -2.8614 -4.9992
25 21 12 14.1117 -7.9486
25 21 14 -4.2890 -0.6078
25 22 1 1.1573 1.0394
25 22 3 -1.8323 1.5846
25 22 5 -6.2681 -1.4374
25 22 7 -10.6543 1.4034
25 22 9 -0.2869 -0.4507
25 22 11 -3.7457 -0.8321
25 22 13 -4.0849 1.8190
25 23 2 -2.7747 7.1062
25 23 4 -3.8146 -5.7234
25 23 6 9.3119 -0.1078
25 23 8 -25.9560 -0.5103
25 23 10 14.3096 -4.3269
25 23 12 3.5802 1.7156
25 23 14 12.1854 2.7535
25 24 1 -3.2894 -1.6339
25 24 3 -0.2617 -4.3107
25 24 5 1.7911 13.1965
25 24 7 1.9687 6.5726
25 24 9 -3.2185 -8.1705
25 24 11 8.7147 -4.0867
25 24 13 -2.5753 -1.4985
25 25 2 6.0922 -4.7320
25 25 6 13.0600 -3.9081
25 25 10 -11.7354 6.4618
26 0 2 1.0478 28.5260
26 0 6 16.2302 -39.0957
26 0 8 -12.4420 28.5454
26 0 10 -12.6390 16.7488
26 0 12 9.0382 -33.9766
26 0 14 14.1417 3.6476
26 0 16 10.9043 14.0872
26 1 1 22.1215 23.6002
26 1 3 27.7632 -2.8110
26 1 5 12.1723 -22.2032
26 1 7 -1.0112 20.0923
26 1 9 0.2489 -4.8309
26 1 11 5.2547 -10.5032
26 1 13 -3.3159 9.2293
26 1 15 1.6868 -1.5465
26 1 17 -11.4841 -3.0591
26 2 0 33.5758 24.0524
26 2 2 -5.8226 -2.9059
26 2 4 -14.5619 -7.1562
26 2 6 -7.4253 -4.3453
26 2 8 5.6015 -8.8128
26 2 10 5.5655 5.6042
26 2 12 0.3854 5.5229
26 2 14 -6.6187 -3.3666
26 2 16 0.5381 -1.6925
26 3 1 -1.9389 10.0435
26 3 3 0.5262 1.7391
26 3 5 -0.7103 -5.1108
26 3 7 -5.3362 8.7468
26 3 9 3.6359 6.3871
26 3 11 -2.8357 -6.8892
26 3 13 0.8133 -0.1968
26 3 15 2.9041 3.2638
26 3 17 -4.6486 1.2152
26 4 0 -14.7930 -25.9106
26 4 2 15.0330 -11.5506
26 4 4 4.9730 -5.1519
26 4 6 1.6669 4.4193
26 4 8 -15.3880 -5.0527
26 4 10 5.4776 -3.7871
26 4 12 -4.9293 4.2107
26 4 14 7.5720 0.8289
26 4 16 5.6772 0.4818
26 5 1 22.9622 -12.7679
26 5 3 12.6844 -2.7137
26 5 5 -4.2832 3.0652
26 5 7 0.2094 -3.8304
26 5 9 2.5157 0.1486
26 5 11 -5.5849 2.4190
26 5 13 -2.2003 -1.8993
26 5 15 -0.5224 -2.7505
26 6 0 4.2961 0.0779
26 6 2 -3.0009 8.9165
26 6 4 -3.0243 1.9927
26 6 6 -2.9381 -0.0354
26 6 8 -2.5691 -0.3573
26 6 10 1.5594 -6.9602
26 6 12 -3.6443 0.9667
26 6 14 -0.7956 3.8992
26 6 16 -4.2078 -0.8446
26 7 1 -11.4438 3.7953
26 7 3 -13.4022 7.3322
26 7 5 7.4866 2.7958
26 7 7 1.4937 -0.0444
26 7 9 1.3561 -2.1773
26 7 11 -11.1613 2.2280
26 7 13 1.1356 1.1956
26 7 15 -1.3075 -0.3732
26 8 0 7.9601 10.7917
26 8 2 -0.5292 3.8619
26 8 4 -8.2597 -0.7987
26 8 6 -5.4769 -1.2126
26 8 8 0.2043 -2.1140
26 8 10 -4.6667 4.8405
26 8 12 6.9240 1.5555
26 8 14 4.5440 -3.3892
26 8 16 6.2669 -3.7733
26 9 1 6.0320 5.6894
26 9 3 8.0986 -2.7581
26 9 5 -0.6151 -3.1772
26 9 7 -3.1215 0.9352
26 9 9 10.5560 2.1399
26 9 11 3.4974 2.0629
26 9 13 -0.7358 -0.2370
26 9 15 -7.8368 -0.2860
26 10 0 -0.7872 -15.7102
26 10 2 -5.5869 -4.6663
26 10 4 -15.4630 0.7203
26 10 6 -3.6613 -1.7943
26 10 8 14.5926 2.7617
26 10 10 3.1028 4.5176
26 10 12 -1.8098 -1.7889
26 10 14 0.9907 0.1543
26 10 16 -3.0210 3.8395
26 11 1 -5.5841 -16.5067
26 11 3 -8.1343 -4.4927
26 11 5 4.7661 0.0303
26 11 7 4.8611 -0.3823
26 11 9 1.3577 -1.0824
26 11 11 -3.9394 -2.7139
26 11 13 -2.9497 0.5627
26 11 15 -1.1207 -0.6435
26 12 0 -5.9653 17.7144
26 12 2 6.4103 0.9018
26 12 4 7.2070 4.2729
26 12 6 3.8002 3.0068
26 12 8 -10.4573 0.8199
26 12 10 -4.2540 -3.1884
26 12 12 1.6115 -1.7740
26 12 14 -0.3926 -1.3055
26 12 16 -1.1413 -5.4519
26 13 1 6.5965 3.7133
26 13 3 10.4779 5.8311
26 13 5 1.7849 -1.8700
26 13 7 -1.0677 6.6522
26 13 9 15.9665 -0.9779
26 13 11 -4.1010 -1.0288
26 13 13 -2.7247 -0.2776
26 13 15 2.7207 -2.7594
26 14 0 -1.9274 -10.2375
26 14 2 -4.5649 -0.6095
26 14 4 2.9369 -2.6973
26 14 6 -5.6524 7.3312
26 14 8 3.9174 -0.9223
26 14 10 8.0642 -2.3276
26 14 12 2.9129 4.5669
26 14 14 5.7024 1.2755
26 14 16 10.9127 7.0738
26 15 1 -11.8618 -6.9814
26 15 3 -10.2903 0.1172
26 15 5 2.3188 2.2317
26 15 7 7.7680 -4.3681
26 15 9 3.5802 1.1939
26 15 11 -4.9603 3.5489
26 15 13 1.5753 -2.7173
26 15 15 1.5381 -0.5079
26 16 0 5.4915 6.6785
26 16 2 1.9823 -6.8144
26 16 4 7.8590 -4.3053
26 16 6 1.5546 1.2714
26 16 8 -1.2893 -0.7820
26 16 10 -7.1065 1.4447
26 16 12 3.2625 -1.0712
26 16 14 -4.9169 -1.1629
26 17 1 4.0759 -9.6197
26 17 3 7.7936 0.1767
26 17 5 -5.3523 6.0700
26 17 7 -1.2603 0.4878
26 17 9 1.9727 -0.9296
26 17 11 4.9349 1.2167
26 17 13 1.8264 -2.7344
26 17 15 -1.8637 -2.5974
26 18 0 -0.2215 6.6694
26 18 2 -7.3642 3.9349
26 18 4 -7.9691 4.0326
26 18 6 -0.1293 -4.2705
26 18 8 7.9665 1.8924
26 18 10 -7.2073 2.6365
26 18 12 1.8339 -2.2970
26 18 14 -4.0944 1.1377
26 19 1 3.0250 2.2769
26 19 3 -2.2373 5.0529
26 19 5 0.2106 -2.8683
26 19 7 2.5779 3.7556
26 19 9 -0.1989 -0.0845
26 19 11 -1.7187 -1.1818
26 19 13 4.5573 3.4672
26 19 15 1.3223 1.3155
26 20 0 3.7094 -8.3318
26 20 2 1.6830 -2.4551
26 20 4 -7.6127 1.9036
26 20 6 9.4225 3.1855
26 20 8 3.8080 -4.4735
26 20 10 -1.3257 -2.3286
26 20 12 -1.1389 2.0780
26 20 14 -0.8950 3.2262
26 21 1 1.8909 -5.3081
26 21 3 13.0227 -4.3188
26 21 5 2.3619 -2.9928
26 21 7 -2.2337 -2.3033
26 21 9 5.0418 -2.5727
26 21 11 -3.1296 7.2956
26 21 13 -1.6620 3.9607
26 22 0 -2.7658 18.4963
26 22 2 -5.2100 -4.2952
26 22 4 6.0953 -3.0821
26 22 6 -1.2107 7.7960
26 22 8 -2.6991 -2.8923
26 22 10 3.9206 -3.3326
26 22 12 0.0068 -0.9896
26 22 14 -9.2216 -0.5040
26 23 1 -0.4374 -2.1917
26 23 3 -6.4956 6.3905
26 23 5 4.2337 7.2359
26 23 7 6.0658 -6.1302
26 23 9 -18.4753 -0.6726
26 23 11 1.3381 5.6386
26 23 13 1.5297 -1.5336
26 24 0 5.0566 -4.5395
26 24 2 4.2247 6.3782
26 24 4 3.8361 -0.5356
26 24 6 -0.0292 -11.2353
26 24 8 14.2733 0.2916
26 24 10 3.1494 7.6024
26 24 12 12.9318 -1.8481
26 25 1 -3.3740 -1.4946
26 25 3 1.4264 -2.3249
26 25 5 -0.4718 0.3116
26 25 7 -7.2714 3.8659
26 25 9 -0.6456 1.2497
26 25 11 6.4089 -2.0518
26 25 13 2.7498 -3.3965
26 26 0 8.3936 14.1253
26 26 4 -13.6370 -10.0456
26 26 8 8.3066 -6.4273
26 26 12 -1.8424 10.0210
27 0 1 -22.7838 -6.8216
27 0 5 -3.2088 -21.9666
27 0 7 -11.9956 -17.7213
27 0 9 0.3174 13.5974
27 0 11 -6.3691 -2.1985
27 0 13 11.3328 -0.0932
27 0 15 5.7746 7.9358
27 1 2 10.5166 8.9634
27 1 4 2.6068 -9.3599
27 1 6 11.2194 -0.4371
27 1 8 -0.1438 4.8398
27 1 10 -2.5579 -4.2011
27 1 12 2.8965 3.2753
27 1 14 -0.9416 2.9449
27 1 16 -0.7863 -2.8299
27 2 1 2.0280 -4.5346
27 2 3 9.3341 1.3194
27 2 5 4.9849 4.6154
27 2 7 -6.7190 5.8425
27 2 9 -4.6284 -1.7226
27 2 11 -5.8122 -2.5119
27 2 13 -7.9908 -2.7105
27 2 15 2.8473 0.0398
27 3 2 -11.8760 5.1025
27 3 4 -17.0127 -5.1281
27 3 6 -14.5023 0.7998
27 3 8 3.9584 4.1953
27 3 10 1.3760 -0.6467
27 3 12 5.2092 1.4132
27 3 14 -0.2525 1.9729
27 3 16 10.2091 -2.0664
27 4 1 -13.5410 -6.2413
27 4 3 -11.3151 -8.8583
27 4 5 -9.1687 3.9001
27 4 7 8.4265 8.7054
27 4 9 -1.2256 -2.7854
27 4 11 -0.8963 -0.0724
27 4 13 3.1435 1.6276
27 4 15 7.7710 -1.1309
27 5 2 8.0074 -2.4138
27 5 4 7.0555 4.3899
27 5 6 -1.8098 -1.2859
27 5 8 -2.7129 -3.2229
27 5 10 2.8390 1.3838
27 5 12 -1.7614 -2.8031
27 5 14 -1.8061 -0.1025
27 5 16 -13.4622 1.1950
27 6 1 0.4066 2.3897
27 6 3 0.2728 1.9403
27 6 5 -2.0199 0.5954
27 6 7 -8.3255 2.5828
27 6 9 6.9252 -0.3248
27 6 11 -0.9189 -1.0659
27 6 13 -7.2215 0.5015
27 6 15 5.2785 -0.6663
27 7 2 -9.5631 -1.8638
27 7 4 -3.7127 0.4554
27 7 6 -3.9226 2.8798
27 7 8 -2.1430 -0.5472
27 7 10 6.6896 -0.7639
27 7 12 -6.7366 0.1929
27 7 14 1.0269 -1.7592
27 7 16 -8.4602 -2.3336
27 8 1 0.4849 -8.2747
27 8 3 7.5455 4.2661
27 8 5 2.7886 -2.4210
27 8 7 2.3311 -1.2168
27 8 9 12.4259 2.8479
27 8 11 -8.7980 -0.5249
27 8 13 2.0472 -2.3612
27 8 15 -0.5119 2.4516
27 9 2 8.8209 0.7290
27 9 4 -3.6556 -3.6208
27 9 6 1.8411 -0.0769
27 9 8 -0.1253 -1.8396
27 9 10 -0.6397 -1.7978
27 9 12 -4.3794 -0.1165
27 9 14 0.2229 3.4671
27 9 16 -7.8240 2.6552
27 10 1 0.0671 -1.6229
27 10 3 5.0562 -1.2620
27 10 5 -1.1857 1.4059
27 10 7 -6.4611 0.4983
27 10 9 3.1624 -2.2496
27 10 11 4.2668 0.4918
27 10 13 0.1393 0.9566
27 10 15 -4.4771 3.4862
27 11 2 -8.1867 3.9777
27 11 4 1.1837 1.1641
27 11 6 0.7221 -0.3189
27 11 8 2.9676 1.7341
27 11 10 -3.7475 -0.6097
27 11 12 1.2209 -2.6018
27 11 14 0.6839 0.1253
27 11 16 -9.7183 -1.2100
27 12 1 11.4400 -0.6243
27 12 3 -2.6341 -1.9005
27 12 5 4.0619 -1.6622
27 12 7 -4.4469 -1.1489
27 12 9 -2.7376 -1.5209
27 12 11 -7.3712 1.0326
27 12 13 1.2302 1.1404
27 12 15 -2.6264 -1.3717
27 13 2 -4.3847 -2.3809
27 13 4 -6.8967 1.4785
27 13 6 0.1896 -0.3340
27 13 8 2.0497 -2.9393
27 13 10 6.3809 0.7806
27 13 12 6.7594 2.1990
27 13 14 -2.5489 2.8927
27 14 1 6.5758 2.5315
27 14 3 -13.6342 0.6498
27 14 5 19.4640 -1.7572
27 14 7 3.0526 -0.1697
27 14 9 -3.8289 -1.5098
27 14 11 -2.2426 -0.9348
27 14 13 1.8322 1.0809
27 14 15 -4.3013 2.0682
27 15 2 11.1381 -0.3246
27 15 4 7.8168 3.1580
27 15 6 3.1364 -0.4316
27 15 8 -8.1276 -6.1162
27 15 10 7.2489 -2.5210
27 15 12 -6.5411 3.2458
27 15 14 -0.0772 4.2522
27 16 1 -1.7241 1.5955
27 16 3 3.1798 1.6100
27 16 5 5.9182 -3.1255
27 16 7 1.8259 -3.7860
27 16 9 -3.1332 2.0299
27 16 11 -2.0968 4.5062
27 16 13 6.6899 -1.5778
27 16 15 -3.1275 0.9708
27 17 2 -3.3008 0.2186
27 17 4 1.0826 -4.3061
27 17 6 2.0273 -0.3222
27 17 8 -5.6534 -1.4726
27 17 10 -2.8924 -0.3968
27 17 12 6.9011 -0.0026
27 17 14 3.5747 0.1804
27 18 1 -3.9976 3.2416
27 18 3 3.2654 -0.0497
27 18 5 -5.6554 2.9762
27 18 7 -5.2089 2.7431
27 18 9 -1.2313 -2.6207
27 18 11 -7.7130 -4.0498
27 18 13 0.8073 -3.3092
27 18 15 -0.2933 2.7662
27 19 2 0.1983 1.6807
27 19 4 12.2050 -3.2966
27 19 6 -0.1706 -0.3946
27 19 8 2.3704 1.2250
27 19 10 5.4596 -0.7520
27 19 12 3.6469 -1.7361
27 19 14 8.7167 2.0498
27 20 1 -0.6605 2.6315
27 20 3 9.6043 -6.1413
27 20 5 -9.2448 -0.5633
27 20 7 0.6155 -1.1288
27 20 9 -3.3072 0.8403
27 20 11 -3.2549 0.5801
27 20 13 9.0615 -1.9075
27 21 2 5.0043 4.8856
27 21 4 -12.1934 2.1861
27 21 6 0.5327 -0.3453
27 21 8 14.9493 -0.2087
27 21 10 -14.9908 -3.6374
27 21 12 -4.1876 -2.8811
27 21 14 0.3841 4.2524
27 22 1 -9.5219 9.4490
27 22 3 -9.8248 2.7145
27 22 5 3.7134 -5.5385
27 22 7 7.0406 -3.1025
27 22 9 1.3022 3.6736
27 22 11 7.8764 1.8133
27 22 13 -0.0996 1.8165
27 23 2 1.6303 1.2980
27 23 4 -7.5002 -3.2660
27 23 6 21.0454 4.9624
27 23 8 -2.5926 4.6223
27 23 10 -15.4484 -1.2173
27 23 12 -9.9862 -3.3502
27 24 1 1.2286 -0.3542
27 24 3 -9.2701 -0.4296
27 24 5 -2.7678 -0.2597
27 24 7 30.6595 -0.0544
27 24 9 10.4041 0.7030
27 24 11 4.7509 -2.5818
27 24 13 2.7870 1.3505
27 25 2 -7.6345 5.1463
27 25 4 2.4325 -4.2320
27 25 6 0.8199 -0.2793
27 25 8 2.9474 0.1716
27 25 10 1.2351 -3.4257
27 25 12 -8.4588 2.3265
27 26 1 2.3864 -10.3246
27 26 3 7.5910 -4.4939
27 26 5 -3.7738 13.7721
27 26 7 0.7898 6.7836
27 26 9 -6.2787 -2.1493
27 26 11 9.0475 -6.7705
27 27 2 7.1689 -4.2578
27 27 6 -22.1598 -0.4433
27 27 10 1.2703 3.1892
28 0 2 5.2530 -40.3768
28 0 4 -4.6991 -23.9747
28 0 6 15.7705 56.6969
28 0 8 14.4009 -19.1818
28 0 10 5.7756 -16.9266
28 0 12 -3.1139 19.2345
28 0 14 -5.0120 -10.9869
28 0 16 -7.1276 -4.5821
28 1 1 -16.6753 -25.0398
28 1 3 -4.9525 9.2925
28 1 5 12.2023 23.7151
28 1 7 0.9192 -21.6359
28 1 9 -3.5864 2.5968
28 1 11 -2.9775 7.9967
28 1 13 -0.8962 -9.5356
28 1 15 -9.8339 3.2521
28 2 0 3.9338 -32.1023
28 2 2 -1.6396 2.1087
28 2 4 1.2074 0.8688
28 2 6 1.1261 -7.2776
28 2 8 -11.4052 5.3524
28 2 10 -1.6594 0.0689
28 2 12 2.2322 -0.1267
28 2 14 2.9072 3.1452
28 2 16 -0.1420 -1.4670
28 3 1 -4.2549 -5.2291
28 3 3 4.2950 -2.1851
28 3 5 -2.4523 3.6096
28 3 7 -11.6092 -5.6122
28 3 9 2.3939 -6.0900
28 3 11 6.8970 4.0445
28 3 13 -2.8460 -4.1646
28 3 15 -19.0892 -2.8925
28 4 0 -9.7239 19.2244
28 4 2 -10.3109 18.0095
28 4 4 10.8851 3.5841
28 4 6 -3.7127 -14.6742
28 4 8 6.7985 -1.8706
28 4 10 9.1560 4.8258
28 4 12 -0.8472 -1.7759
28 4 14 -3.4144 0.8854
28 4 16 6.3594 1.6929
28 5 1 0.2330 19.2244
28 5 3 -8.6193 0.8359
28 5 5 0.3129 -5.7416
28 5 7 0.5466 6.3786
28 5 9 -2.3462 -1.2249
28 5 11 8.3644 -0.6598
28 5 13 -2.4425 4.2252
28 5 15 -6.1329 0.5700
28 6 0 -6.7822 -8.9746
28 6 2 3.0728 -9.6515
28 6 4 9.2797 0.0799
28 6 6 -2.4983 3.6430
28 6 8 2.3371 -4.4118
28 6 10 0.9981 5.0869
28 6 12 -5.7323 -1.6018
28 6 14 -0.7978 -1.7094
28 6 16 1.8023 0.7669
28 7 1 4.8793 -4.4458
28 7 3 0.2673 0.6631
28 7 5 -4.7671 -3.7687
28 7 7 -5.1603 -3.0974
28 7 9 -0.8314 3.7995
28 7 11 18.0545 -1.1511
28 7 13 4.0019 -1.6892
28 7 15 1.6571 3.4436
28 8 0 -5.1235 -2.9553
28 8 2 8.5558 -1.8452
28 8 4 1.7799 -2.5947
28 8 6 -5.5770 0.6273
28 8 8 3.3506 2.0367
28 8 10 6.8270 -3.2141
28 8 12 0.5875 1.3767
28 8 14 -2.4859 1.2317
28 8 16 -5.5879 3.3681
28 9 1 -10.7754 -6.3416
28 9 3 -28.5394 2.2004
28 9 5 6.0201 -0.1646
28 9 7 -0.4215 0.7130
28 9 9 3.9284 1.6333
28 9 11 -0.1352 -0.1004
28 9 13 -4.9040 -1.2248
28 9 15 3.1613 0.9317
28 10 0 17.4947 13.4935
28 10 2 1.3290 6.3709
28 10 4 0.5270 0.8685
28 10 6 17.8513 0.3497
28 10 8 1.1158 0.8713
28 10 10 -2.5787 -1.1539
28 10 12 -5.1033 -1.0618
28 10 14 6.7982 -2.0803
28 11 1 11.0791 9.0709
28 11 3 2.4844 -0.1910
28 11 5 -5.1945 -1.0079
28 11 7 -4.2500 3.2004
28 11 9 -1.6141 -2.0821
28 11 11 2.3695 4.6329
28 11 13 -2.0950 0.1426
28 11 15 -1.1674 -5.1817
28 12 0 1.0901 -9.3049
28 12 2 1.1010 -0.6270
28 12 4 -3.9037 0.6163
28 12 6 -5.4647 1.8292
28 12 8 2.8330 -0.1683
28 12 10 -2.1090 3.2096
28 12 12 -3.2228 -0.6209
28 12 14 -0.3364 1.1638
28 13 1 -3.6039 -8.6854
28 13 3 -2.5385 -7.3452
28 13 5 2.9124 -1.2110
28 13 7 7.5244 -2.2861
28 13 9 -1.0206 2.1152
28 13 11 -1.7907 2.1681
28 13 13 -2.2682 -5.3857
28 13 15 0.2943 1.5652
28 14 0 -6.3782 8.4037
28 14 2 -1.0550 -0.7318
28 14 4 8.7951 3.0542
28 14 6 2.0185 0.4279
28 14 8 0.3301 0.6843
28 14 10 0.7298 0.3312
28 14 12 2.8679 -4.5517
28 14 14 -2.1764 -1.9332
28 15 1 -6.1957 1.9871
28 15 3 -7.2578 1.8994
28 15 5 3.3293 -3.7930
28 15 7 4.4430 4.5432
28 15 9 -4.0747 5.4386
28 15 11 -1.0861 -3.1942
28 15 13 4.5811 -5.1742
28 15 15 -6.6167 -5.4177
28 16 0 8.2307 -3.9129
28 16 2 -0.4666 3.3960
28 16 4 -3.4684 1.3046
28 16 6 0.6955 1.4608
28 16 8 -3.2228 2.0321
28 16 10 2.2028 -1.6729
28 16 12 -11.0212 -0.1945
28 16 14 -0.3689 0.6157
28 17 1 -2.1710 2.1549
28 17 3 -13.2232 -0.3681
28 17 5 -1.6083 -2.8566
28 17 7 -5.9050 5.8281
28 17 9 4.4254 2.7826
28 17 11 4.5390 -0.6860
28 17 13 2.8087 -0.1667
28 18 0 -7.7781 -3.4572
28 18 2 -1.7827 -3.7139
28 18 4 7.6544 -3.9328
28 18 6 11.5046 0.9196
28 18 8 3.3789 -3.4388
28 18 10 -1.2930 2.5071
28 18 12 -7.3791 4.2215
28 18 14 9.6611 0.2660
28 19 1 1.5360 -6.2020
28 19 3 -1.5530 -2.4805
28 19 5 -0.3612 2.2726
28 19 7 0.3284 -1.7638
28 19 9 -6.4516 0.6285
28 19 11 -2.1615 3.6629
28 19 13 3.2356 -3.0246
28 20 0 4.4444 11.7916
28 20 2 3.2604 6.2140
28 20 4 -4.8090 0.4419
28 20 6 -3.6352 -5.0733
28 20 8 -3.5402 -0.7146
28 20 10 -9.8417 3.1939
28 20 12 -4.7743 0.2890
28 20 14 5.4054 -3.3672
28 21 1 -7.1498 10.8543
28 21 3 -8.4309 1.8780
28 21 5 1.0293 -0.9900
28 21 7 10.5559 0.7684
28 21 9 -1.0937 1.1404
28 21 11 -1.4058 -0.1052
28 21 13 -0.5161 -0.6534
28 22 0 -14.0253 -10.9911
28 22 2 -0.8570 -4.4044
28 22 4 4.1295 2.7290
28 22 6 5.4314 -0.1441
28 22 8 5.7332 -1.5769
28 22 10 -0.6463 -0.4822
28 22 12 0.5904 -1.9898
28 23 1 4.5810 -3.5576
28 23 3 3.6634 -1.5771
28 23 5 1.3041 -0.4510
28 23 7 0.3154 -2.5516
28 23 9 -12.7039 -1.7789
28 23 11 7.6382 0.8358
28 23 13 5.5957 2.8306
28 24 0 4.9246 12.8473
28 24 2 -0.3855 -3.7589
28 24 4 3.6130 0.9877
28 24 6 -6.6658 8.0642
28 24 8 6.3927 0.2407
28 24 10 0.9534 -1.7402
28 24 12 -0.7282 -0.3158
28 25 1 -0.0813 0.1196
28 25 3 -0.2623 3.9038
28 25 5 -4.5051 3.9470
28 25 7 6.0722 -4.6818
28 25 9 4.5476 -0.9377
28 25 11 -1.4880 1.0400
28 26 0 4.6967 -3.7905
28 26 2 -4.8078 5.7267
28 26 4 5.8953 1.6560
28 26 6 10.2449 -6.5468
28 26 8 -0.1358 -1.0078
28 26 10 9.5076 3.5722
28 26 12 -2.9165 -1.6724
28 27 1 -4.3475 0.0874
28 27 3 -3.2923 0.3780
28 27 5 1.8836 3.6492
28 27 7 -10.5471 -1.4731
28 27 9 -20.6677 -2.1725
28 27 11 -5.8767 -1.2979
28 28 0 -0.5518 7.5509
28 28 4 -18.5283 -3.3297
28 28 8 -4.1185 -5.0484
29 0 1 11.9262 12.7731
29 0 3 -9.3490 -15.1438
29 0 5 -7.0617 -4.2525
29 0 7 -2.9260 12.3102
29 0 9 -0.5302 -16.0178
29 0 11 1.8539 -0.5935
29 0 13 -0.5729 18.2208
29 0 15 -12.2298 -8.9769
29 1 2 -3.1869 -7.2614
29 1 4 2.9861 -4.0905
29 1 6 14.8687 7.8076
29 1 8 -1.9440 -3.9423
29 1 10 -4.2337 1.5256
29 1 12 -9.2063 7.1741
29 1 14 -1.6398 -7.6341
29 1 16 -12.1047 -2.3549
29 2 1 12.7485 0.5245
29 2 3 4.5260 -4.3945
29 2 5 1.8900 2.6666
29 2 7 -5.2852 0.8035
29 2 9 -6.2571 -3.9504
29 2 11 4.9805 3.7646
29 2 13 5.6613 -1.6071
29 2 15 -2.4567 1.2542
29 3 2 5.9733 -0.2408
29 3 4 3.2708 9.6772
29 3 6 -6.3068 0.6585
29 3 8 -3.9767 -8.0232
29 3 10 -5.7595 5.3724
29 3 12 3.8158 2.2551
29 3 14 -0.0330 -1.9585
29 3 16 -6.7949 0.7402
29 4 1 9.4885 -5.2596
29 4 3 1.5483 4.2199
29 4 5 -13.3239 3.2766
29 4 7 9.2300 1.6002
29 4 9 9.5712 1.9594
29 4 11 1.8173 -4.1518
29 4 13 -0.8098 -5.9719
29 4 15 -10.4662 2.9211
29 5 2 -7.4309 -3.2559
29 5 4 -4.9153 -0.1290
29 5 6 7.1092 1.6315
29 5 8 2.0404 3.2939
29 5 10 -0.3745 0.7096
29 5 12 -5.9794 -2.6594
29 5 14 -3.2050 -0.2012
29 5 16 -2.3226 -3.2723
29 6 1 3.2646 -0.0155
29 6 3 -0.6814 1.6709
29 6 5 0.9400 -6.2752
29 6 7 -3.2689 -1.5694
29 6 9 -5.3477 2.5463
29 6 11 10.1015 -0.1290
29 6 13 1.1130 0.4763
29 6 15 -3.9508 -0.7353
29 7 2 11.6725 6.0959
29 7 4 -6.7337 -7.0574
29 7 6 -5.6091 2.1078
29 7 8 -5.9815 5.0475
29 7 10 6.8596 -4.6585
29 7 12 18.4928 -1.7279
29 7 14 -1.5036 2.1660
29 8 1 -5.8843 0.7564
29 8 3 -0.6878 -1.3525
29 8 5 -9.2216 5.2875
29 8 7 -3.7880 4.4546
29 8 9 5.3027 -5.3120
29 8 11 -3.0106 1.7063
29 8 13 -4.8850 0.8837
29 8 15 -0.0903 2.6813
29 9 2 -3.8109 -2.1043
29 9 4 6.5197 0.2085
29 9 6 9.4990 3.0034
29 9 8 2.5410 -1.0659
29 9 10 -2.1932 -1.4888
29 9 12 -0.0440 -1.1213
29 9 14 1.7269 0.5920
29 10 1 -14.5156 3.9905
29 10 3 3.6572 -2.2218
29 10 5 5.8206 2.4491
29 10 7 -0.9387 1.0271
29 10 9 0.9602 -2.5727
29 10 11 2.6320 0.5261
29 10 13 7.1511 1.7278
29 10 15 2.5127 -1.4679
29 11 2 2.0013 -0.5407
29 11 4 -5.6664 6.2400
29 11 6 1.9297 -3.0518
29 11 8 1.1897 -6.3428
29 11 10 -0.2467 1.8750
29 11 12 -1.3454 1.6055
29 11 14 0.6800 1.0321
29 12 1 -4.7039 -4.5919
29 12 3 0.6531 2.8038
29 12 5 -15.3968 -4.1161
29 12 7 -3.4474 -1.6936
29 12 9 4.5392 2.1629
29 12 11 -2.1921 1.4270
29 12 13 -2.2345 0.3425
29 12 15 -0.1606 -0.0625
29 13 2 -2.9973 -1.2857
29 13 4 3.2464 0.5424
29 13 6 -7.0857 1.1051
29 13 8 6.7419 1.1944
29 13 10 -3.4448 -1.1975
29 13 12 -0.8547 -0.1324
29 13 14 1.7318 1.8279
29 14 1 -8.2609 -2.0363
29 14 3 -1.9350 -2.2008
29 14 5 10.2402 -1.0254
29 14 7 2.5234 -0.2196
29 14 9 -0.6050 0.5465
29 14 11 0.1018 1.6086
29 14 13 -1.8354 -0.0388
29 14 15 0.5545 0.1255
29 15 2 12.4229 0.2444
29 15 4 1.7890 2.0120
29 15 6 -1.4144 2.6545
29 15 8 2.4687 -0.9513
29 15 10 1.6111 -2.2197
29 15 12 -6.0968 1.7644
29 15 14 -0.1132 1.7302
29 16 1 7.3786 -1.3409
29 16 3 -4.2886 -1.2607
29 16 5 -15.7867 3.7140
29 16 7 -4.6052 0.5301
29 16 9 7.3415 -1.8426
29 16 11 2.4673 -1.4078
29 16 13 -7.2361 -1.3201
29 17 2 4.0975 -2.3450
29 17 4 -26.4246 5.4651
29 17 6 13.5345 -0.9838
29 17 8 3.6336 -5.8992
29 17 10 1.1696 -0.8349
29 17 12 3.4540 2.1932
29 17 14 -0.8795 0.4537
29 18 1 -3.9763 0.5851
29 18 3 4.0746 -0.4322
29 18 5 9.5869 -0.4134
29 18 7 16.5129 -0.5629
29 18 9 -9.2014 -1.1028
29 18 11 3.7649 -0.2975
29 18 13 -5.1266 2.1880
29 19 2 3.0883 0.9280
29 19 4 13.2130 -0.6735
29 19 6 6.4031 -0.4041
29 19 8 -4.2614 -1.9421
29 19 10 2.2153 0.7414
29 19 12 -0.9266 3.1067
29 19 14 0.5215 0.7023
29 20 1 6.3424 0.7115
29 20 3 -10.7432 -0.9911
29 20 5 4.7413 2.8264
29 20 7 -2.2618 2.3782
29 20 9 -7.1852 -0.4890
29 20 11 -1.6861 -2.3445
29 20 13 -1.6304 -0.6480
29 21 2 -1.5916 -2.1087
29 21 4 11.4146 -1.9505
29 21 6 -10.9119 1.8815
29 21 8 0.4020 0.3327
29 21 10 3.4040 3.0894
29 21 12 5.4613 0.9170
29 22 1 4.4892 1.3376
29 22 3 -2.1206 -3.6414
29 22 5 10.3152 -1.1078
29 22 7 -6.2750 -3.4120
29 22 9 5.8680 2.2720
29 22 11 0.8772 0.1324
29 22 13 2.5101 -1.2140
29 23 2 10.1459 2.7649
29 23 4 4.9914 0.3360
29 23 6 -7.6057 1.4405
29 23 8 -7.7137 1.2709
29 23 10 4.1402 -1.9264
29 23 12 11.9944 -1.0228
29 24 1 2.7294 4.5828
29 24 3 2.7493 2.3761
29 24 5 -5.2025 -2.5007
29 24 7 -0.3695 -4.3140
29 24 9 1.8971 3.0577
29 24 11 -10.9322 0.0482
29 25 2 6.5753 0.2987
29 25 4 -17.4867 -3.5350
29 25 6 -11.3123 2.3154
29 25 8 9.2420 3.6360
29 25 10 1.1572 0.2065
29 25 12 7.6320 0.0355
29 26 1 0.0941 1.9585
29 26 3 0.6761 -3.6185
29 26 5 1.2851 -1.9091
29 26 7 11.2494 -0.5126
29 26 9 -0.8395 -0.5111
29 26 11 -3.5658 2.3103
29 27 2 -5.4988 4.0427
29 27 4 -7.7066 0.0416
29 27 6 3.9888 -0.3321
29 27 8 3.3030 -0.4906
29 27 10 1.2840 0.7796
29 28 1 -2.9833 -9.1401
29 28 3 -18.1156 -3.2099
29 28 5 9.4752 7.1359
29 28 7 8.9352 3.0041
29 28 9 1.0511 1.5624
29 28 11 2.6014 -3.2690
29 29 2 0.9582 -1.1736
29 29 6 9.0634 0.8171
29 29 10 -6.1008 -0.5073
30 0 0 39.2934 -29.2886
30 0 2 6.1476 21.9935
30 0 4 -3.7633 20.5755
30 0 6 -3.1018 -32.3419
30 0 8 0.3127 21.8468
30 0 10 -4.0417 13.1964
30 0 12 -1.4811 -20.1064
30 0 14 -13.1282 4.7609
30 1 1 -1.3503 14.2660
30 1 3 -5.9991 -2.8529
30 1 5 -0.2319 -16.2774
30 1 7 10.2879 13.3140
30 1 9 -11.2682 -4.0659
30 1 11 -9.2637 -7.0874
30 1 13 2.4164 7.6836
30 1 15 8.8249 2.0891
30 2 0 -19.5332 22.7999
30 2 2 -6.4745 -0.4242
30 2 4 4.5817 -0.2999
30 2 6 -4.0983 4.1550
30 2 8 -3.8623 -4.4139
30 2 10 -3.5346 -0.5028
30 2 12 2.0231 -1.5822
30 2 14 2.8356 -0.7449
30 3 1 -6.7144 6.4978
30 3 3 -6.3205 3.8423
30 3 5 -6.1832 -4.2251
30 3 7 -5.7901 4.3964
30 3 9 1.3710 3.0690
30 3 11 6.9368 -3.5888
30 3 13 -0.2138 1.3055
30 3 15 9.3400 1.2132
30 4 0 8.3521 -12.4980
30 4 2 11.2214 -9.0544
30 4 4 -7.5177 -7.0101
30 4 6 -2.2000 5.3760
30 4 8 5.2484 -4.4292
30 4 10 -1.2103 0.9829
30 4 12 0.1553 7.9779
30 4 14 -6.0837 0.6489
30 5 1 -5.8046 -7.9263
30 5 3 -2.7294 -1.9471
30 5 5 4.7887 -0.0495
30 5 7 2.2298 -7.2530
30 5 9 -8.8614 -0.1986
30 5 11 -11.4296 1.2463
30 5 13 -6.3059 -0.9207
30 5 15 3.8795 1.2728
30 6 0 -23.7530 4.3585
30 6 2 1.5771 6.9330
30 6 4 15.3748 1.8960
30 6 6 2.3469 -0.7980
30 6 8 -2.3503 3.2842
30 6 10 2.1865 -1.5487
30 6 12 10.2299 -1.5786
30 6 14 -0.3753 0.9644
30 7 1 3.2645 6.7674
30 7 3 0.7217 0.7578
30 7 5 3.4816 2.3447
30 7 7 -6.9087 0.8222
30 7 9 4.8118 -3.2020
30 7 11 5.1869 3.7215
30 7 13 -2.5024 -0.7993
30 7 15 1.8244 1.5221
30 8 0 0.5329 5.9711
30 8 2 6.2493 -1.4773
30 8 4 -8.6291 -0.2291
30 8 6 -6.4334 -0.7988
30 8 8 3.1274 -0.3501
30 8 10 -0.6027 2.2841
30 8 12 2.7450 -1.7282
30 8 14 -1.0392 -0.9835
30 9 1 -1.6459 2.9799
30 9 3 0.5628 1.7985
30 9 5 2.3190 1.0357
30 9 7 4.1691 -0.8493
30 9 9 -2.4759 0.4075
30 9 11 -6.9741 1.7494
30 9 13 -2.1070 -1.9150
30 9 15 6.7320 -1.6034
30 10 0 -18.9969 -5.1112
30 10 2 -7.0998 -6.3156
30 10 4 13.1244 -1.7249
30 10 6 -2.9147 -1.7154
30 10 8 -11.9986 -1.2849
30 10 10 -1.7551 3.0230
30 10 12 0.2702 -1.0489
30 10 14 0.2276 0.1719
30 11 1 4.7487 -6.2540
30 11 3 -3.2816 -5.5903
30 11 5 1.3157 -3.7247
30 11 7 -4.2572 1.6771
30 11 9 2.1185 3.5520
30 11 11 5.1455 -1.7347
30 11 13 12.0251 -0.6775
30 11 15 -1.3142 7.1042
30 12 0 12.2828 9.0951
30 12 2 4.5483 3.0452
30 12 4 -4.8710 -0.4690
30 12 6 1.1043 -1.8281
30 12 8 0.7814 1.5707
30 12 10 3.4346 -2.9704
30 12 12 -4.4216 -2.4772
30 12 14 2.9070 2.8485
30 13 1 7.4017 7.6544
30 13 3 -9.2401 2.8870
30 13 5 2.6894 0.2470
30 13 7 0.2445 1.2115
30 13 9 2.4767 -2.3588
30 13 11 -4.7822 -0.3957
30 13 13 3.3247 0.3531
30 14 0 -5.2830 -5.4048
30 14 2 -1.6142 2.7675
30 14 4 2.7197 2.8726
30 14 6 -0.1186 2.0569
30 14 8 -6.2601 -0.5582
30 14 10 -5.5945 0.5998
30 14 12 -1.7931 1.7032
30 14 14 -3.0841 -0.8843
30 15 1 15.1928 1.4992
30 15 3 -0.0538 -2.4759
30 15 5 -0.9375 -3.1511
30 15 7 -7.3253 -0.9435
30 15 9 -8.7420 -1.0445
30 15 11 -0.9151 2.3450
30 15 13 4.7382 -0.4862
30 16 0 -2.8747 -0.6695
30 16 2 -4.5242 1.3176
30 16 4 -8.4592 -1.1415
30 16 6 3.8961 0.1937
30 16 8 -0.7823 -2.5837
30 16 10 -4.4334 1.0594
30 16 12 2.4625 -1.3154
30 16 14 3.2982 -0.0229
30 17 1 -2.6420 1.2922
30 17 3 -4.3797 -1.9643
30 17 5 4.1476 -3.5532
30 17 7 4.1429 -2.2490
30 17 9 3.6955 2.9478
30 17 11 4.4956 -2.1144
30 17 13 4.9398 -0.5070
30 18 0 -2.1322 2.6843
30 18 2 -0.5154 2.3821
30 18 4 1.1340 -1.7450
30 18 6 -1.0740 -3.6165
30 18 8 -3.9061 2.6407
30 18 10 12.5640 2.1738
30 18 12 8.4163 -3.0451
30 19 1 0.1178 3.9908
30 19 3 9.6498 -1.0440
30 19 5 -1.4564 0.4824
30 19 7 0.6209 4.7910
30 19 9 7.3143 1.5766
30 19 11 6.5957 -3.1512
30 19 13 -4.5770 -0.2116
30 20 0 7.0404 -10.5975
30 20 2 0.4806 -1.1908
30 20 4 0.9690 0.8077
30 20 6 -3.2653 -1.5803
30 20 8 4.8464 0.5602
30 20 10 9.3339 0.6929
30 20 12 0.2607 0.4019
30 21 1 3.3504 0.1048
30 21 3 0.6069 -0.9135
30 21 5 -5.2456 0.2581
30 21 7 8.0882 1.1795
30 21 9 -7.0584 -1.4753
30 21 11 1.9509 -2.8861
30 21 13 -2.6986 0.5348
30 22 0 -5.9104 9.0781
30 22 2 -3.6776 2.8232
30 22 4 1.8242 -0.3542
30 22 6 4.9261 -1.1193
30 22 8 7.5704 -2.4677
30 22 10 -0.9584 -0.7365
30 22 12 -0.5672 0.5797
30 23 1 2.9599 9.6056
30 23 3 2.6731 2.5623
30 23 5 -0.0318 -1.2256
30 23 7 -2.1778 -2.2221
30 23 9 -8.8171 -0.4985
30 23 11 0.1967 -0.8699
30 24 0 0.8741 -8.7441
30 24 2 -0.9706 -4.7687
30 24 4 -6.1368 0.8843
30 24 6 -2.7462 3.6449
30 24 8 6.1655 0.1834
30 24 10 3.5194 0.5215
30 24 12 -0.1998 -4.1221
30 25 1 -6.8824 -5.0109
30 25 3 14.7481 -0.3272
30 25 5 -1.6925 2.7608
30 25 7 -4.4367 -3.8115
30 25 9 6.6792 -1.5221
30 25 11 5.4685 -1.3190
30 26 0 -6.0472 5.2967
30 26 2 -5.4697 -2.5360
30 26 4 7.9602 2.3427
30 26 6 -1.7782 6.5904
30 26 8 -2.1453 3.6988
30 26 10 -6.1595 -3.3266
30 27 1 2.0028 -1.0663
30 27 3 4.4882 -1.9951
30 27 5 5.4045 1.6243
30 27 7 -1.0764 -0.2246
30 27 9 -0.1962 0.4466
30 27 11 7.3679 -0.7521
30 28 0 4.8586 -1.9808
30 28 2 -2.4308 1.5039
30 28 4 10.5561 3.5658
30 28 6 -2.9055 -3.0812
30 28 8 2.6266 -0.1991
30 28 10 -7.8318 -2.9438
30 29 1 -0.6232 -0.3959
30 29 3 -10.7285 -2.6270
30 29 5 -15.9093 1.7296
30 29 7 10.0985 0.1417
30 29 9 4.2148 0.5956
30 30 0 31.3587 0.9281
30 30 4 11.3927 1.8685
30 30 8 5.9375 -3.0899
31 0 1 -2.3987 -2.6125
31 0 3 7.7236 12.5653
31 0 5 0.7099 4.7463
31 0 7 8.0651 -24.9707
31 0 9 -2.4783 8.8076
31 0 11 8.3082 12.6020
31 0 13 -10.1784 -22.2065
31 0 15 10.3349 13.0165
31 1 2 -1.2115 6.7783
31 1 4 -9.4028 6.0741
31 1 6 -0.7551 -10.1285
31 1 8 -5.8773 5.6757
31 1 10 3.5979 3.9905
31 1 12 6.3816 -12.2475
31 1 14 0.0216 9.5109
31 2 1 3.8683 -4.0388
31 2 3 -0.0593 5.9871
31 2 5 1.7638 -9.1975
31 2 7 4.1569 -3.0262
31 2 9 -1.7335 6.6724
31 2 11 0.4472 -0.8764
31 2 13 3.8501 0.6064
31 2 15 6.4708 -0.3553
31 3 2 -0.3509 3.0007
31 3 4 3.0201 -11.7136
31 3 6 8.5851 -1.0543
31 3 8 -6.2484 7.2333
31 3 10 4.3187 -5.1775
31 3 12 5.7912 -2.2595
31 3 14 0.9030 3.6295
31 4 1 -1.4211 3.2926
31 4 3 -2.3786 -5.7576
31 4 5 5.0156 0.8684
31 4 7 5.8196 7.1860
31 4 9 -7.2846 -5.4650
31 4 11 -0.9828 -3.4691
31 4 13 -0.6585 1.7378
31 4 15 0.7517 2.8336
31 5 2 4.0268 6.1466
31 5 4 -7.2275 1.4499
31 5 6 2.0692 5.8602
31 5 8 -3.9351 -1.3842
31 5 10 -3.3820 -1.9224
31 5 12 -5.6533 2.5703
31 5 14 -0.9796 -3.2386
31 6 1 -6.4107 3.4167
31 6 3 4.5282 -6.8049
31 6 5 -9.4196 7.4314
31 6 7 0.9753 0.8835
31 6 9 6.3334 -7.9509
31 6 11 3.0497 3.5745
31 6 13 5.9225 -1.5284
31 6 15 16.8426 -0.8072
31 7 2 -4.6210 -7.7556
31 7 4 -10.6104 6.3534
31 7 6 1.2513 -1.2681
31 7 8 -1.2270 -6.5404
31 7 10 -2.4496 5.2521
31 7 12 12.1256 -0.1438
31 7 14 -5.0086 -0.0710
31 8 1 -12.5850 8.9119
31 8 3 0.2474 4.9334
31 8 5 6.4626 -4.6730
31 8 7 -3.3224 -3.7062
31 8 9 -1.8897 3.6036
31 8 11 2.0403 0.1709
31 8 13 -0.6830 -0.7596
31 8 15 -3.6068 -1.1420
31 9 2 -2.8056 2.6246
31 9 4 -6.2822 -4.3319
31 9 6 -5.3600 -2.2488
31 9 8 2.0159 3.2044
31 9 10 1.1812 -0.7683
31 9 12 -7.0130 -0.5836
31 9 14 3.0267 -0.6956
31 10 1 -0.7039 -6.3490
31 10 3 -1.3031 5.0074
31 10 5 4.6635 -2.1214
31 10 7 3.8758 1.2421
31 10 9 -1.2849 3.1312
31 10 11 2.1017 -1.3797
31 10 13 -2.8668 -0.8746
31 11 2 0.4087 1.4198
31 11 4 1.8942 -6.1194
31 11 6 6.8788 0.9976
31 11 8 -0.2865 3.2478
31 11 10 2.4444 -2.1140
31 11 12 -0.0607 -1.1469
31 11 14 -0.3756 2.3223
31 12 1 -3.6695 5.7052
31 12 3 2.6377 -4.7214
31 12 5 -0.9462 7.7053
31 12 7 3.1147 6.1049
31 12 9 7.7619 -4.3525
31 12 11 -0.6845 2.0902
31 12 13 -2.1713 0.6261
31 13 2 2.7025 3.1889
31 13 4 0.0604 4.8449
31 13 6 5.9759 -1.9940
31 13 8 -2.0884 -1.2534
31 13 10 -5.6391 1.9825
31 13 12 7.2151 -1.2103
31 13 14 0.6446 -1.3190
31 14 1 2.6320 -4.7026
31 14 3 6.1779 -0.7101
31 14 5 -3.2589 -1.2770
31 14 7 1.1270 -1.9535
31 14 9 0.2379 -0.1219
31 14 11 -4.3935 -0.4530
31 14 13 0.1949 -1.3895
31 15 2 1.8570 -7.1942
31 15 4 0.5883 1.4526
31 15 6 6.9108 0.1869
31 15 8 2.1370 0.8795
31 15 10 0.0257 1.7793
31 15 12 -3.8189 -1.7859
31 15 14 3.3633 -4.6808
31 16 1 -4.4768 -1.2949
31 16 3 5.4579 1.3595
31 16 5 -0.5928 -1.6633
31 16 7 1.8522 0.2818
31 16 9 -1.2851 2.9081
31 16 11 4.9139 -0.6479
31 16 13 4.5157 0.4965
31 17 2 1.4377 0.8383
31 17 4 0.3609 0.6438
31 17 6 -3.8828 4.3573
31 17 8 0.3073 2.1430
31 17 10 -7.0636 0.6813
31 17 12 0.5905 2.1442
31 18 1 2.4445 -4.0320
31 18 3 2.8205 1.7452
31 18 5 1.7141 4.0047
31 18 7 4.3766 -1.1449
31 18 9 18.6699 -0.9941
31 18 11 0.0695 0.5984
31 18 13 5.2939 1.4454
31 19 2 -4.3358 0.2024
31 19 4 -5.0825 0.8997
31 19 6 0.2157 -0.6155
31 19 8 -12.0017 -1.9370
31 19 10 -8.0285 3.1936
31 19 12 4.0378 0.3132
31 20 1 0.1585 -1.4014
31 20 3 14.1288 -0.7851
31 20 5 10.5032 -0.3573
31 20 7 -1.9957 -2.8546
31 20 9 15.1017 -1.2240
31 20 11 -1.7540 -0.8968
31 20 13 3.5321 -0.4597
31 21 2 -1.0803 1.2498
31 21 4 -0.5032 -0.3400
31 21 6 -4.0952 -2.0156
31 21 8 -4.1593 -1.7612
31 21 10 13.6106 1.4814
31 21 12 1.8329 2.3986
31 22 1 9.1803 -0.1980
31 22 3 4.2276 -0.1654
31 22 5 2.9951 1.3143
31 22 7 -4.7530 0.9845
31 22 9 0.6504 0.9931
31 22 11 1.1974 0.4867
31 23 2 7.5927 -0.4661
31 23 4 -1.5543 -2.9279
31 23 6 -0.4906 2.0430
31 23 8 1.1306 0.5855
31 23 10 1.7102 1.8113
31 23 12 -0.9403 5.6829
31 24 1 6.7475 4.8591
31 24 3 -5.3084 0.2248
31 24 5 10.0411 -0.7361
31 24 7 0.3291 -3.2751
31 24 9 2.0164 0.4743
31 24 11 -0.6391 3.9349
31 25 2 4.4122 1.2093
31 25 4 -13.1380 1.0412
31 25 6 0.2554 2.0154
31 25 8 0.6329 -1.1288
31 25 10 -1.4681 1.4794
31 26 1 0.1969 2.1193
31 26 3 -4.8257 1.5874
31 26 5 -10.1467 -1.8725
31 26 7 1.2708 -5.0496
31 26 9 0.8159 2.6160
31 26 11 -3.8679 -0.2988
31 27 2 -15.5177 -1.2260
31 27 4 9.6666 -1.3693
31 27 6 3.6866 -0.4148
31 27 8 -0.6178 0.2867
31 27 10 -1.4934 -0.3527
31 28 1 -7.5519 1.8142
31 28 3 -9.9740 -1.0580
31 28 5 -0.1434 -2.3432
31 28 7 -6.8776 -0.4905
31 28 9 2.4327 1.6094
31 29 2 6.3394 6.7573
31 29 4 10.3813 4.9293
31 29 6 -7.5712 0.2864
31 29 8 -9.1751 -3.7254
31 30 1 -0.4897 -2.4072
31 30 3 7.3519 2.2970
31 30 5 1.1766 1.3034
31 30 7 -4.4073 -1.1121
31 30 9 3.1371 3.4524
31 31 2 1.4951 3.9189
31 31 6 12.8352 -0.2585
32 0 0 2.8641 14.2996
32 0 2 19.6183 -11.2604
32 0 4 0.9777 -16.4563
32 0 6 2.7915 18.9885
32 0 8 0.6690 -3.6833
32 0 10 -15.1027 -8.6051
32 0 12 -1.0385 10.5192
32 0 14 5.6433 -1.4830
32 1 1 -1.8073 -5.4831
32 1 3 7.8138 1.8456
32 1 5 -7.0668 9.7158
32 1 7 -8.6980 -4.7016
32 1 9 -3.9130 0.4822
32 1 11 8.1284 6.7758
32 1 13 9.4239 -2.4462
32 1 15 -0.0868 -3.2164
32 2 0 11.3478 -10.5176
32 2 2 11.2591 -0.8183
32 2 4 -6.8118 -0.8379
32 2 6 -6.4647 5.3155
32 2 8 6.0332 1.4660
32 2 10 2.4418 -4.0881
32 2 12 1.0873 -0.8837
32 2 14 16.3876 0.3408
32 3 1 7.4396 -4.4304
32 3 3 -0.0300 -2.9939
32 3 5 5.7828 3.5550
32 3 7 6.1030 -3.6857
32 3 9 2.1444 -1.3058
32 3 11 -4.7697 3.1599
32 3 13 -7.8769 0.0446
32 3 15 7.2130 0.0657
32 4 0 -9.2386 13.5180
32 4 2 3.6688 6.6088
32 4 4 0.9146 3.6470
32 4 6 -7.5379 -5.4393
32 4 8 -2.9014 -0.2487
32 4 10 -0.8362 4.2140
32 4 12 -1.7465 -0.9852
32 4 14 6.4958 0.1525
32 5 1 5.3367 8.8233
32 5 3 -8.6347 0.1290
32 5 5 -3.9023 -1.5274
32 5 7 0.7810 3.5725
32 5 9 4.5626 0.0679
32 5 11 5.6923 0.0560
32 5 13 7.6345 -0.2783
32 5 15 11.7350 0.9257
32 6 0 -15.5857 -0.5644
32 6 2 -0.9966 -1.6782
32 6 4 -5.3363 0.6803
32 6 6 0.9092 0.7512
32 6 8 -7.3341 0.7581
32 6 10 16.6241 1.7499
32 6 12 4.7773 -0.5552
32 6 14 -0.5766 -0.1165
32 7 1 -10.0251 0.7061
32 7 3 -12.0606 -1.0345
32 7 5 0.7801 -1.7647
32 7 7 4.3892 0.7811
32 7 9 0.5010 1.2043
32 7 11 -0.0703 -3.0683
32 7 13 -4.4285 -0.8939
32 8 0 -23.1852 -2.8163
32 8 2 -11.0511 -5.7000
32 8 4 2.9794 -1.6784
32 8 6 3.7101 4.3001
32 8 8 4.6069 -0.2074
32 8 10 1.9453 -0.5899
32 8 12 -2.0349 -0.8327
32 8 14 6.8880 -0.0109
32 9 1 -1.0020 -4.3054
32 9 3 6.1957 -1.0136
32 9 5 0.4961 4.5473
32 9 7 -3.3996 -0.6311
32 9 9 -8.7356 -1.8509
32 9 11 3.0731 -0.2920
32 9 13 -3.8871 -0.2639
32 10 0 11.7197 10.5578
32 10 2 1.2771 0.9917
32 10 4 -9.5978 -1.0611
32 10 6 -3.5003 -1.5020
32 10 8 12.2190 0.5690
32 10 10 4.2675 -1.6235
32 10 12 -0.9936 1.5791
32 10 14 0.1338 1.9283
32 11 1 8.9302 1.3700
32 11 3 23.1576 4.0935
32 11 5 -6.3373 5.2154
32 11 7 13.3901 0.3921
32 11 9 1.3913 -0.2228
32 11 11 -2.1383 -0.3751
32 11 13 -1.4622 -0.4149
32 12 0 -11.4474 -5.6186
32 12 2 -11.9697 -1.5005
32 12 4 10.9568 1.0264
32 12 6 5.0194 -1.6393
32 12 8 -4.7239 -3.5962
32 12 10 2.4038 1.4167
32 12 12 -0.4921 0.5372
32 12 14 7.2965 0.9845
32 13 1 -1.4329 -0.1332
32 13 3 0.2959 -3.6985
32 13 5 -3.3524 -2.1003
32 13 7 4.2007 -0.7935
32 13 9 -1.4922 -2.0613
32 13 11 1.4335 0.9165
32 13 13 0.7321 4.2750
32 14 0 5.6458 4.0710
32 14 2 2.1238 2.5294
32 14 4 -2.1881 -2.3431
32 14 6 2.9026 -2.5287
32 14 8 -2.9612 -0.1924
32 14 10 3.8365 0.7836
32 14 12 -1.9555 0.1688
32 14 14 -3.0615 1.4607
32 15 1 1.0386 2.3205
32 15 3 8.4378 1.8325
32 15 5 4.9255 2.3897
32 15 7 1.7214 -3.4197
32 15 9 -0.0652 -1.9230
32 15 11 0.3886 -0.5455
32 15 13 2.6068 3.9770
32 16 0 0.3441 -3.7430
32 16 2 7.9408 -1.3990
32 16 4 4.9036 2.1933
32 16 6 -2.6021 1.5934
32 16 8 13.7419 0.5824
32 16 10 0.0225 0.4870
32 16 12 1.0434 -0.9622
32 17 1 8.1066 -0.2522
32 17 3 13.7230 0.0971
32 17 5 18.7340 -0.5088
32 17 7 -11.6220 -0.6319
32 17 9 -5.9375 -1.0689
32 17 11 -0.7161 -0.4789
32 17 13 7.8669 3.1339
32 18 0 0.8256 -5.8464
32 18 2 1.9883 2.4454
32 18 4 9.7269 0.2698
32 18 6 -0.7333 -0.2301
32 18 8 10.9819 1.7035
32 18 10 4.5773 -1.0743
32 18 12 -2.6381 -2.3912
32 19 1 5.1825 -1.2098
32 19 3 -0.6562 -0.2402
32 19 5 -2.5384 -2.6798
32 19 7 -15.3106 -0.5412
32 19 9 -11.5831 -1.7682
32 19 11 -2.9481 -2.1653
32 20 0 20.9701 1.5064
32 20 2 -12.4184 -1.2900
32 20 4 -3.4817 -2.9680
32 20 6 -0.5254 0.1719
32 20 8 13.6617 0.4623
32 20 10 -4.4169 0.9960
32 20 12 -7.5502 -2.5884
32 21 1 5.4804 0.7784
32 21 3 1.2768 -0.7007
32 21 5 2.3052 3.4034
32 21 7 -6.8284 1.8685
32 21 9 3.4589 2.9481
32 21 11 -3.5619 -2.0852
32 22 0 8.1463 -9.1133
32 22 2 3.0171 0.3845
32 22 4 -0.6330 0.0185
32 22 6 12.4132 -0.3238
32 22 8 0.2313 0.8787
32 22 10 4.7404 -0.1250
32 22 12 1.6045 -1.8669
32 23 1 -1.5623 0.0480
32 23 3 -3.8514 -2.7575
32 23 5 0.2037 1.1080
32 23 7 -3.7297 0.7036
32 23 9 11.3149 0.4311
32 23 11 -4.2594 -2.1597
32 24 0 -7.9237 2.0025
32 24 2 5.0858 -0.3971
32 24 4 0.1078 -0.2144
32 24 6 0.6075 -0.9029
32 24 8 -11.8595 0.5643
32 24 10 -0.6949 -2.4222
32 25 1 0.3194 3.9458
32 25 3 9.5547 1.3818
32 25 5 1.4783 -2.1164
32 25 7 -6.5404 0.6769
32 25 9 -3.8997 -0.9894
32 25 11 -5.0401 -0.2898
32 26 0 2.1015 -5.7615
32 26 2 9.7566 -5.4955
32 26 4 -2.7908 0.2295
32 26 6 4.9466 2.6080
32 26 8 -4.7019 0.5698
32 26 10 -7.8127 -2.0967
32 27 1 10.0560 -3.7732
32 27 3 8.7912 0.3724
32 27 5 1.1488 1.4020
32 27 7 4.4256 -1.0391
32 27 9 8.7145 -0.1810
32 28 0 -8.6948 0.5039
32 28 2 2.4222 -2.7116
32 28 4 -1.6285 1.0522
32 28 6 0.1992 3.0999
32 28 8 -2.8462 0.4215
32 29 1 1.8310 -2.0791
32 29 3 2.6176 -2.7627
32 29 5 2.8176 -0.9674
32 29 7 6.5387 0.8316
32 29 9 -3.8328 5.0581
32 30 0 -4.8880 -0.7950
32 30 2 7.0349 -0.3072
32 30 4 -4.9861 0.9542
32 30 6 10.6975 -0.5125
32 30 8 5.2442 1.6011
32 31 1 -0.7530 -0.0739
32 31 3 8.6925 -3.9303
32 31 5 5.0546 1.2356
32 31 7 7.3174 2.4174
32 32 0 -13.5571 -1.2552
32 32 4 -11.2118 3.0534
33 0 1 -8.9646 5.5475
33 0 3 5.1887 -10.9087
33 0 5 3.5608 -6.6168
33 0 7 -7.2888 23.3084
33 0 9 -10.6731 -14.7091
33 0 11 0.6257 -14.6807
33 0 13 5.8148 24.7929
33 1 2 3.6494 -7.0752
33 1 4 -7.8465 -4.1077
33 1 6 0.2069 9.1404
33 1 8 2.0105 -9.2235
33 1 10 0.7593 -5.3934
33 1 12 4.7302 11.1619
33 1 14 -5.0565 -9.8837
33 2 1 1.6382 7.9368
33 2 3 -5.0761 -7.4706
33 2 5 -11.9925 2.7280
33 2 7 4.9692 -1.8193
33 2 9 12.8367 -4.3701
33 2 11 0.5517 8.7737
33 2 13 3.9168 -1.9545
33 3 2 -19.3164 -1.1839
33 3 4 -6.1562 9.5804
33 3 6 4.2791 2.9147
33 3 8 1.9716 -8.2545
33 3 10 -4.4615 5.0273
33 3 12 -0.9110 0.5914
33 3 14 -3.8111 0.5232
33 4 1 -18.1943 -3.3760
33 4 3 14.3397 5.0367
33 4 5 5.5446 1.8457
33 4 7 -2.3171 -7.4151
33 4 9 -6.8047 5.2452
33 4 11 -8.0256 2.0223
33 4 13 -0.3272 -7.0486
33 5 2 3.4231 -3.2122
33 5 4 -0.1867 1.2083
33 5 6 -3.7395 -6.3069
33 5 8 -1.6281 -1.1506
33 5 10 12.4051 2.0872
33 5 12 0.6638 -3.1748
33 5 14 -1.4069 0.1332
33 6 1 13.0767 2.9466
33 6 3 -1.1562 1.8010
33 6 5 -6.8412 -8.2720
33 6 7 -3.9337 -1.2204
33 6 9 5.6704 2.8034
33 6 11 2.1897 -3.1555
33 6 13 -1.9941 1.7697
33 7 2 -5.7094 7.0244
33 7 4 -4.6792 -5.6889
33 7 6 12.3047 1.2016
33 7 8 -1.5403 6.6059
33 7 10 -5.6391 -3.7480
33 7 12 -3.9894 2.0041
33 7 14 2.9802 1.0479
33 8 1 -5.1427 -1.8957
33 8 3 3.0561 -5.1235
33 8 5 5.6851 2.4549
33 8 7 0.6307 2.0196
33 8 9 -1.6705 -4.5550
33 8 11 -0.9372 1.8026
33 8 13 1.9060 1.8039
33 9 2 5.2889 -0.0672
33 9 4 -3.4189 -2.9185
33 9 6 -7.3085 -0.1549
33 9 8 -0.3997 -2.5523
33 9 10 1.2465 2.4567
33 9 12 -3.7057 1.8899
33 9 14 -3.5411 0.9504
33 10 1 -1.1595 14.1625
33 10 3 1.1579 -2.2648
33 10 5 -3.8549 3.7986
33 10 7 0.1278 2.7256
33 10 9 0.4409 -2.6208
33 10 11 6.6777 1.0939
33 10 13 -1.2101 -0.7121
33 11 2 -11.6360 1.1211
33 11 4 -3.3318 2.6954
33 11 6 5.4885 -3.0734
33 11 8 0.9524 -3.0481
33 11 10 -2.1639 4.1323
33 11 12 0.5912 -1.0803
33 11 14 -2.9607 -5.6045
33 12 1 -2.5909 -7.5362
33 12 3 -2.1955 2.1020
33 12 5 1.0878 -4.4855
33 12 7 3.3423 -2.4672
33 12 9 -3.3707 5.2974
33 12 11 1.7713 -1.8917
33 12 13 -0.3008 -2.8330
33 13 2 5.4904 -3.7357
33 13 4 -1.0784 -5.9928
33 13 6 -3.4014 -1.1092
33 13 8 -2.4950 3.6172
33 13 10 1.9815 -1.2595
33 13 12 2.7990 -3.2809
33 14 1 3.6767 1.6815
33 14 3 -1.2539 1.5763
33 14 5 -2.8718 3.6324
33 14 7 5.1918 3.4721
33 14 9 3.5998 0.7086
33 14 11 -4.7551 0.3557
33 14 13 -1.8900 -1.4566
33 15 2 -3.8229 5.3186
33 15 4 -1.8929 -1.8940
33 15 6 7.5032 0.3620
33 15 8 1.3480 5.6173
33 15 10 -7.1201 0.5675
33 15 12 -5.4882 -4.9741
33 16 1 -5.3163 -5.3723
33 16 3 0.7739 0.3914
33 16 5 3.1136 -0.2313
33 16 7 -1.3842 -1.5618
33 16 9 -2.5950 -1.2985
33 16 11 3.4372 -0.3910
33 16 13 1.2023 1.3770
33 17 2 5.6773 -1.0415
33 17 4 5.1703 0.6744
33 17 6 -0.8124 0.0212
33 17 8 -1.2271 -1.6350
33 17 10 1.1304 0.7428
33 17 12 5.2956 -0.0566
33 18 1 3.9923 -0.0226
33 18 3 -2.6663 0.5229
33 18 5 -6.0557 -2.1123
33 18 7 -2.6449 -1.8866
33 18 9 -9.7948 1.0607
33 18 11 -5.7991 -1.6415
33 19 2 -6.5391 1.1211
33 19 4 4.4777 -0.7869
33 19 6 0.2987 2.1994
33 19 8 5.1715 0.6925
33 19 10 0.2474 1.3336
33 19 12 -0.9598 -1.5595
33 20 1 0.2250 -1.2944
33 20 3 -10.6349 2.1841
33 20 5 -1.6890 0.2967
33 20 7 -4.0230 -2.6482
33 20 9 -5.7368 -0.2265
33 20 11 5.7598 2.8384
33 21 2 6.7024 2.5572
33 21 4 5.9159 -2.2179
33 21 6 -0.3618 -0.8867
33 21 8 -2.7526 -0.9373
33 21 10 0.5805 1.9720
33 22 1 -0.2589 -2.2207
33 22 3 0.6100 0.1911
33 22 5 -9.6671 1.5873
33 22 7 -4.4314 0.4147
33 22 9 3.0681 -0.4403
33 22 11 2.4925 2.0718
33 23 2 -2.7431 -0.7004
33 23 4 0.9338 1.8656
33 23 6 3.7139 -1.4911
33 23 8 0.6948 -4.5050
33 23 10 -15.6848 0.6665
33 24 1 -6.3296 -3.6693
33 24 3 -1.8268 0.9173
33 24 5 2.8167 -0.0194
33 24 7 -3.0742 -0.5511
33 24 9 -0.5630 1.5213
33 25 2 9.0113 -0.2191
33 25 4 15.6604 -3.0048
33 25 6 -1.0857 1.5453
33 25 8 -4.8616 -0.2496
33 25 10 -0.0190 -1.8631
33 26 1 11.1419 5.0051
33 26 3 11.7629 3.4731
33 26 5 -8.6318 1.3305
33 26 7 4.5213 -1.0350
33 26 9 -5.2291 0.8458
33 27 2 11.1254 2.3269
33 27 4 8.2509 1.5003
33 27 6 -5.2305 1.1086
33 27 8 5.2545 -0.5784
33 28 1 3.0146 2.8276
33 28 3 10.4540 -0.9553
33 28 5 2.4424 -0.5141
33 28 7 4.1212 -0.3035
33 28 9 0.0622 0.3709
33 29 2 9.9342 -3.7813
33 29 4 -3.7869 -1.0076
33 29 6 5.0033 -1.3667
33 29 8 -1.8132 -1.8407
33 30 1 3.2775 0.8467
33 30 3 3.7207 -2.7055
33 30 5 -6.7060 -1.3611
33 30 7 6.4819 1.3648
33 31 2 -21.2343 -0.4190
33 31 4 -1.3095 6.3480
33 31 6 1.2842 0.3907
33 32 1 -2.3813 -2.7494
33 32 3 -10.2077 6.5608
33 32 5 0.5030 -1.0082
33 33 2 -2.0494 8.0570
34 0 0 1.3938 -1.6629
34 0 2 -0.9037 -0.6261
34 0 4 -0.8565 2.1731
34 0 6 -0.3512 -0.6872
34 0 8 -1.8554 -5.3148
34 0 10 -2.2620 11.4813
34 0 12 2.7116 -1.6425
34 0 14 -1.7803 -7.4094
34 1 1 14.4668 0.8278
34 1 3 3.2114 -1.4395
34 1 5 -0.3940 -1.9033
34 1 7 -1.6718 -2.1266
34 1 9 3.3149 6.3307
34 1 11 5.3208 -3.8048
34 1 13 13.5062 -4.2196
34 2 0 -3.5359 6.0438
34 2 2 -3.9171 -0.2943
34 2 4 -10.1530 3.4648
34 2 6 5.3650 0.8908
34 2 8 8.2767 1.3583
34 2 10 8.6952 -3.3979
34 2 12 -13.5622 -2.8122
34 2 14 -8.6114 3.3396
34 3 1 -2.4844 3.7021
34 3 3 -36.6182 2.0614
34 3 5 4.7107 -2.0746
34 3 7 1.3798 1.7231
34 3 9 -0.5656 1.7969
34 3 11 -4.4374 0.8453
34 3 13 -0.5706 3.4273
34 4 0 8.0934 5.0755
34 4 2 5.2553 1.1558
34 4 4 -0.6554 -4.8440
34 4 6 11.1053 1.0673
34 4 8 -10.7109 1.2173
34 4 10 -7.1402 -1.6295
34 4 12 -0.5226 -0.2115
34 4 14 1.6005 -2.5348
34 5 1 7.6257 2.0791
34 5 3 -2.4533 -2.1068
34 5 5 -8.4277 -0.2699
34 5 7 -1.4711 0.7002
34 5 9 -10.3628 -0.7529
34 5 11 -0.5423 -1.6464
34 5 13 1.0433 -0.2891
34 6 0 1.9651 0.6179
34 6 2 -5.8880 -1.8960
34 6 4 -4.1341 1.6755
34 6 6 0.8730 3.7979
34 6 8 8.7465 -1.4839
34 6 10 -7.6650 1.4747
34 6 12 -8.4894 0.5153
34 6 14 -1.2973 -0.5964
34 7 1 -4.2098 -1.1583
34 7 3 -11.9576 -2.4049
34 7 5 4.8037 3.6721
34 7 7 8.1208 -1.4557
34 7 9 0.8339 -1.0376
34 7 11 -12.6558 -1.3995
34 7 13 -0.7599 -1.2747
34 8 0 6.5881 6.5745
34 8 2 5.4255 4.4469
34 8 4 -1.2066 2.7941
34 8 6 0.5982 -1.1878
34 8 8 -3.8725 1.8329
34 8 10 2.7747 -2.0309
34 8 12 5.9836 -2.1138
34 8 14 7.6328 -0.9398
34 9 1 2.9350 3.0187
34 9 3 2.8268 2.6414
34 9 5 -7.1764 0.9122
34 9 7 -2.3778 1.2861
34 9 9 13.2227 0.6934
34 9 11 -0.8482 -1.5898
34 9 13 12.3599 1.3816
34 10 0 -1.1125 -3.3746
34 10 2 -6.0253 -4.8206
34 10 4 -7.7854 -0.1727
34 10 6 1.5719 2.8052
34 10 8 -2.4974 -1.1263
34 10 10 3.6707 1.3730
34 10 12 -5.4444 0.9292
34 11 1 -7.0889 -3.2983
34 11 3 -9.6057 -2.2444
34 11 5 0.0577 -0.2627
34 11 7 -1.6735 -0.4215
34 11 9 5.8697 -0.9547
34 11 11 -4.5719 -2.8762
34 11 13 -1.1756 2.5437
34 12 0 -5.3953 7.2565
34 12 2 -2.0047 1.7358
34 12 4 7.1050 -1.1234
34 12 6 4.7142 0.7000
34 12 8 1.2310 -2.2719
34 12 10 5.4175 -0.7604
34 12 12 0.5834 2.0419
34 13 1 4.1077 -1.9047
34 13 3 -6.1351 3.6328
34 13 5 -3.9226 6.1576
34 13 7 0.9368 -2.8671
34 13 9 5.8222 2.5646
34 13 11 2.6098 0.2522
34 13 13 -12.7555 0.0956
34 14 0 -8.9259 -5.3685
34 14 2 -6.9772 -1.9339
34 14 4 -3.3317 2.0082
34 14 6 -12.0593 -1.1819
34 14 8 4.2367 -0.4478
34 14 10 -0.0635 -0.8391
34 14 12 2.0296 -0.3262
34 15 1 -4.9961 0.6868
34 15 3 -7.4441 -0.9418
34 15 5 -2.2120 0.1053
34 15 7 5.6565 0.1634
34 15 9 -1.2233 -3.3085
34 15 11 -3.3214 2.3688
34 16 0 4.0822 0.3513
34 16 2 -0.1105 2.5214
34 16 4 -3.8747 -0.5951
34 16 6 -0.6628 -1.0794
34 16 8 1.0166 0.7493
34 16 10 2.2274 0.2273
34 16 12 6.1088 -0.8575
34 17 1 -19.2337 -1.1027
34 17 3 -8.0125 0.4857
34 17 5 -4.6637 -0.1076
34 17 7 11.8785 -0.3357
34 17 9 -1.5194 0.3863
34 17 11 -0.2579 0.2109
34 18 0 -2.0096 -3.8845
34 18 2 -1.9552 -4.0842
34 18 4 -2.6151 0.4257
34 18 6 -2.5280 3.5824
34 18 8 -8.5417 -1.0255
34 18 10 -4.0489 1.5385
34 18 12 -2.0817 -0.3674
34 19 1 -8.9105 -2.6928
34 19 3 -3.5736 0.5441
34 19 5 -3.2974 2.4761
34 19 7 10.2371 -3.0531
34 19 9 1.4586 2.3270
34 19 11 -0.1751 0.8149
34 20 0 2.4365 -6.4206
34 20 2 6.3298 2.1726
34 20 4 6.5232 0.4579
34 20 6 -8.8930 -0.9322
34 20 8 -25.3612 3.6452
34 20 10 0.2450 -0.6961
34 21 1 -3.1127 -2.3962
34 21 3 -0.1497 -0.3825
34 21 5 8.5032 -0.3532
34 21 7 15.1285 1.0893
34 21 9 0.6671 0.0254
34 21 11 2.6076 -1.6725
34 22 0 -6.7342 -2.2300
34 22 2 8.9737 0.7170
34 22 4 -4.6082 0.6427
34 22 6 -1.3146 -1.8632
34 22 8 -3.7934 -0.6794
34 22 10 0.2533 -1.0006
34 23 1 2.4296 1.5482
34 23 3 -1.6017 -0.6953
34 23 5 -3.6589 -0.6529
34 23 7 -7.6327 3.3861
34 23 9 6.7056 0.6516
34 24 0 4.1775 -4.3853
34 24 2 -0.4999 1.3105
34 24 4 -2.7753 -1.9481
34 24 6 -1.8457 0.3132
34 24 8 -2.7076 -2.2491
34 24 10 12.1549 -0.0713
34 25 1 -6.0308 1.9335
34 25 3 -8.5786 -2.0731
34 25 5 -14.0825 -0.4867
34 25 7 7.6785 -0.2427
34 25 9 -4.5573 3.3840
34 26 0 -0.0917 -2.2080
34 26 2 -5.1007 -0.7627
34 26 4 -1.5765 -1.8898
34 26 6 3.2131 -2.3329
34 26 8 4.4948 0.7150
34 27 1 5.3757 0.7348
34 27 3 -8.0902 1.8321
34 27 5 -15.5111 0.7009
34 27 7 11.5245 -0.3784
34 28 0 -5.1362 -2.5618
34 28 2 -7.4805 -0.5823
34 28 4 2.1137 1.9223
34 28 6 4.7723 -1.8500
34 28 8 4.9956 0.6477
34 29 1 0.4746 0.3611
34 29 3 2.1643 2.2713
34 29 5 2.1714 0.9675
34 29 7 1.9355 1.2531
34 30 0 4.4471 -1.9146
34 30 2 -8.2889 0.1405
34 30 4 -14.0718 2.4221
34 30 6 2.3331 0.6634
34 31 1 1.1771 0.1382
34 31 3 -0.4321 -0.7218
34 31 5 0.9228 -2.1019
34 32 0 5.4212 0.1891
34 32 2 5.6162 1.4741
34 32 4 -18.9256 0.1288
34 33 1 -4.1342 -0.5130
34 33 3 8.2510 -4.3512
34 34 0 2.7923 -1.4284
35 0 1 -6.7935 -8.7988
35 0 3 4.7086 19.2919
35 0 5 -5.2154 4.6446
35 0 7 0.9444 -22.5628
35 0 9 3.9640 13.0519
35 0 11 -6.8012 6.6617
35 0 13 -8.9970 -23.1772
35 1 2 1.9987 9.4257
35 1 4 -7.2219 1.4318
35 1 6 3.9762 -6.7588
35 1 8 -0.6821 8.6482
35 1 10 1.9576 1.4612
35 1 12 0.6882 -9.3014
35 2 1 5.4868 0.6794
35 2 3 -0.5693 4.2402
35 2 5 -1.6139 -9.2322
35 2 7 -3.0737 -2.9838
35 2 9 0.2459 6.6992
35 2 11 -4.1526 1.1860
35 2 13 -7.5952 7.4820
35 3 2 0.5788 1.4642
35 3 4 10.9381 -8.0470
35 3 6 3.8012 -2.3611
35 3 8 -1.1764 6.4809
35 3 10 -3.0532 -4.5621
35 3 12 -2.8272 -4.2424
35 4 1 3.7036 3.0038
35 4 3 -15.5567 -3.6780
35 4 5 -1.0530 2.5322
35 4 7 -1.1391 5.5738
35 4 9 2.5490 -5.9578
35 4 11 -7.4468 -1.1711
35 4 13 8.8221 1.2227
35 5 2 -4.4705 3.0669
35 5 4 -3.5485 0.5526
35 5 6 2.0611 4.3698
35 5 8 2.9308 -0.8437
35 5 10 -2.2024 -0.4031
35 5 12 -0.7996 4.5827
35 6 1 2.7681 0.8262
35 6 3 -7.3720 -5.4640
35 6 5 3.7607 3.1593
35 6 7 -1.8896 0.3205
35 6 9 -3.3811 -2.6597
35 6 11 -3.6681 2.1739
35 6 13 -4.1456 1.3122
35 7 2 -2.0287 -3.7360
35 7 4 -1.6268 6.4249
35 7 6 -6.1524 -1.1274
35 7 8 -2.0651 -7.2854
35 7 10 4.8003 4.4871
35 7 12 -2.2393 1.1524
35 8 1 -7.9322 7.4969
35 8 3 7.2799 -0.6196
35 8 5 4.4940 -3.6639
35 8 7 -1.8384 -4.6263
35 8 9 -1.8632 4.2306
35 8 11 3.3053 1.6231
35 8 13 -4.6949 0.7952
35 9 2 -2.2826 -1.6208
35 9 4 0.3473 0.2304
35 9 6 1.6857 -1.2404
35 9 8 0.5910 2.6718
35 9 10 -1.7115 2.3270
35 9 12 6.5641 -1.5832
35 10 1 2.2683 -8.3681
35 10 3 1.2739 1.9847
35 10 5 0.8403 -3.1799
35 10 7 -3.6331 -2.6622
35 10 9 5.3292 1.5503
35 10 11 3.2768 -2.0496
35 10 13 -1.9741 -4.6568
35 11 2 4.8051 1.3618
35 11 4 -7.7734 -5.1766
35 11 6 2.0199 0.7476
35 11 8 1.6243 1.6080
35 11 10 0.0315 -2.9182
35 11 12 4.7299 -0.2894
35 12 1 2.3901 6.9425
35 12 3 -6.0941 -0.4999
35 12 5 0.2602 3.4403
35 12 7 0.1971 4.8432
35 12 9 0.0677 -1.5381
35 12 11 1.6075 0.4325
35 12 13 1.7208 3.8693
35 13 2 -2.4119 5.0869
35 13 4 -6.9268 -0.7438
35 13 6 3.5236 2.0476
35 13 8 2.0913 0.4923
35 13 10 2.9444 0.7829
35 13 12 11.9377 -2.2468
35 14 1 -6.9032 -3.2112
35 14 3 -5.6713 -2.5187
35 14 5 6.4430 -0.6821
35 14 7 0.1368 -1.5183
35 14 9 -2.6522 0.1162
35 14 11 0.6045 0.2395
35 15 2 -2.5654 -3.4232
35 15 4 3.6079 0.1238
35 15 6 0.1209 -1.7007
35 15 8 -1.7800 -3.4871
35 15 10 0.3961 -0.8212
35 15 12 1.3787 -3.7172
35 16 1 0.6858 3.3532
35 16 3 -1.2024 2.4671
35 16 5 -4.3771 -0.7716
35 16 7 -8.1346 -1.0053
35 16 9 2.1295 1.4143
35 16 11 6.6020 0.7567
35 17 2 -2.0204 1.8527
35 17 4 0.4117 -1.3158
35 17 6 -1.9364 -0.4228
35 17 8 -0.3700 1.3666
35 17 10 5.0716 -0.9533
35 17 12 -0.8306 -2.8463
35 18 1 -10.5482 -4.2725
35 18 3 4.9424 1.8393
35 18 5 0.5921 -2.2916
35 18 7 -1.8861 -0.2023
35 18 9 3.8859 2.5869
35 18 11 3.3932 -1.0725
35 19 2 -5.3056 1.3799
35 19 4 -4.4441 -0.5878
35 19 6 0.5391 1.9789
35 19 8 -0.8739 0.4780
35 19 10 0.8557 0.3466
35 20 1 -10.3467 -3.9111
35 20 3 1.0270 0.7852
35 20 5 0.3960 0.6016
35 20 7 -4.9065 0.9674
35 20 9 -2.6613 -0.3177
35 20 11 4.7747 0.2921
35 21 2 -4.2890 1.3112
35 21 4 3.2880 -1.6685
35 21 6 9.7555 0.9311
35 21 8 -3.5282 -0.6472
35 21 10 8.8965 -1.0624
35 22 1 -5.8007 -2.5408
35 22 3 -1.0423 -1.0981
35 22 5 -13.1914 -0.3710
35 22 7 0.4451 -0.6680
35 22 9 1.3885 -1.5829
35 23 2 4.2188 1.3775
35 23 4 -9.3234 -1.3525
35 23 6 -2.7255 -1.1093
35 23 8 -2.0420 -1.2816
35 23 10 0.1490 1.0035
35 24 1 -22.1069 -0.4313
35 24 3 1.7485 -0.7189
35 24 5 -0.1115 1.3121
35 24 7 -2.7196 2.7988
35 24 9 -0.0189 1.2035
35 25 2 -0.0172 -2.6871
35 25 4 -3.3449 1.9244
35 25 6 3.8338 0.9835
35 25 8 -1.3987 -2.6344
35 26 1 -4.8119 -3.4273
35 26 3 1.9924 -1.3908
35 26 5 -4.4167 1.1286
35 26 7 -0.6465 0.9039
35 27 2 -19.2476 -3.7628
35 27 4 -6.9137 0.2995
35 27 6 8.7084 0.3702
35 27 8 7.4746 -2.0257
35 28 1 -0.4802 -1.8731
35 28 3 -4.3162 4.3034
35 28 5 -2.9124 -0.9717
35 28 7 -1.0553 -0.3371
35 29 2 2.2643 0.3993
35 29 4 3.7124 -2.4130
35 29 6 -0.2233 -0.4393
35 30 1 0.0690 0.5189
35 30 3 -6.5229 -3.6217
35 30 5 1.2729 0.3572
35 31 2 6.7277 -0.1561
35 31 4 -8.0110 -1.3185
35 32 1 7.0338 2.5804
35 32 3 1.0998 -6.4213
35 33 2 26.0598 -3.0741
36 0 0 -0.9979 -3.4442
36 0 2 -4.8464 12.0353
36 0 4 -1.8016 0.0942
36 0 6 0.3118 -12.5428
36 0 8 1.9279 14.4915
36 0 10 -2.1983 -4.3430
36 0 12 21.6978 -4.2134
36 1 1 -8.3410 10.5960
36 1 3 0.3108 -5.8993
36 1 5 -0.8641 -5.6410
36 1 7 -1.4701 7.9911
36 1 9 6.4178 -7.5578
36 1 11 -3.5857 0.4421
36 1 13 0.6662 7.2233
36 2 0 -5.4131 7.3356
36 2 2 0.0407 -2.9102
36 2 4 -0.2634 -1.6873
36 2 6 3.5219 7.4136
36 2 8 -5.3720 -4.5845
36 2 10 -0.5574 -0.1379
36 2 12 -0.4091 -0.0997
36 3 1 -4.1472 1.6057
36 3 3 10.0087 0.2204
36 3 5 -1.0382 2.1612
36 3 7 -1.6055 -1.7853
36 3 9 -1.3323 2.6387
36 3 11 2.8862 0.4602
36 3 13 2.6924 -3.7595
36 4 0 -8.0156 -0.9349
36 4 2 -4.5314 -5.7182
36 4 4 0.7679 -2.2838
36 4 6 -4.1968 0.0799
36 4 8 -1.4129 -1.1079
36 4 10 11.6583 1.2689
36 4 12 2.0310 0.9511
36 5 1 -0.4753 -4.0982
36 5 3 11.1275 -0.6015
36 5 5 -0.8915 1.8654
36 5 7 1.8437 -4.3880
36 5 9 1.9974 1.5693
36 5 11 20.7840 -0.0002
36 5 13 3.0578 1.8639
36 6 0 -0.4693 8.3072
36 6 2 -1.1641 6.3240
36 6 4 10.8338 0.7521
36 6 6 0.5413 -5.2398
36 6 8 -3.8644 2.0436
36 6 10 -8.8366 -1.4430
36 6 12 0.5222 -3.0960
36 7 1 5.0312 6.8038
36 7 3 2.9562 1.2942
36 7 5 -1.5719 -2.8470
36 7 7 0.0659 3.1270
36 7 9 -5.0889 -1.7596
36 7 11 7.8992 -1.4074
36 7 13 7.8226 2.2754
36 8 0 5.1543 -4.2109
36 8 2 -2.4128 -1.5325
36 8 4 7.6667 0.7469
36 8 6 -3.1956 4.1342
36 8 8 0.5574 -1.3407
36 8 10 -1.9337 1.5045
36 8 12 -0.4657 1.2860
36 9 1 -2.8785 0.0420
36 9 3 -26.8729 -3.0441
36 9 5 -4.6927 -1.8021
36 9 7 3.4190 -1.9376
36 9 9 -4.8843 0.3231
36 9 11 -2.8718 -2.5898
36 10 0 -0.6552 8.1105
36 10 2 4.7657 0.9073
36 10 4 1.1799 -0.0221
36 10 6 -1.9706 3.0128
36 10 8 -1.0513 -0.2533
36 10 10 -2.4487 -2.5460
36 10 12 0.0344 -0.4046
36 11 1 -0.2947 -1.0464
36 11 3 -0.6493 2.6512
36 11 5 -3.2457 1.4507
36 11 7 -3.5119 -2.4826
36 11 9 -13.8032 4.1152
36 11 11 7.6787 -1.0994
36 12 0 -2.6588 -4.0593
36 12 2 -6.0113 -1.8057
36 12 4 4.9403 0.0852
36 12 6 -3.6566 -0.7567
36 12 8 4.1436 1.2212
36 12 10 5.8888 0.6113
36 12 12 6.2456 1.3192
36 13 1 -1.2976 0.7721
36 13 3 -9.2848 -1.2446
36 13 5 2.0205 -2.3927
36 13 7 1.2063 0.2588
36 13 9 -1.1084 -1.5157
36 13 11 5.1005 0.5117
36 14 0 -3.2769 2.5064
36 14 2 0.1607 2.2443
36 14 4 -0.3912 0.5562
36 14 6 2.7376 0.9152
36 14 8 2.9891 -2.1473
36 14 10 -4.2785 -0.5368
36 14 12 3.6394 0.0761
36 15 1 -0.8550 -0.0531
36 15 3 1.8905 0.7947
36 15 5 0.2155 1.3101
36 15 7 3.5971 0.3513
36 15 9 -7.1272 2.9912
36 15 11 8.0034 0.4039
36 16 0 -2.3709 -3.9689
36 16 2 -0.8923 -4.9500
36 16 4 0.8603 -0.5163
36 16 6 -3.2612 0.5115
36 16 8 -6.4063 -0.3780
36 16 10 2.0634 0.6292
36 17 1 2.0595 -0.1109
36 17 3 0.1867 -1.1588
36 17 5 -5.0682 1.9621
36 17 7 2.3303 -0.2679
36 17 9 -2.4714 1.4477
36 17 11 6.3886 1.6566
36 18 0 -16.7855 -1.2327
36 18 2 -3.2055 1.9416
36 18 4 2.6103 1.6842
36 18 6 -1.7139 -2.4752
36 18 8 0.8602 1.0721
36 18 10 1.4249 -0.5280
36 19 1 5.0880 0.0680
36 19 3 -0.7638 1.3035
36 19 5 -0.6920 -1.6304
36 19 7 -0.1517 1.0827
36 19 9 1.4158 0.9539
36 20 0 -11.6847 -5.0505
36 20 2 -9.0316 -0.4097
36 20 4 -4.2733 0.6888
36 20 6 -22.2577 1.6182
36 20 8 -3.5770 -2.3195
36 20 10 -0.2288 0.9127
36 21 1 4.2841 0.5561
36 21 3 -4.1966 0.6424
36 21 5 -9.8994 -0.5245
36 21 7 -3.3398 -3.0622
36 21 9 -1.3605 -0.4520
36 22 0 -13.9855 -2.4649
36 22 2 2.7302 2.0191
36 22 4 0.5649 -1.5072
36 22 6 -4.7313 -1.1021
36 22 8 7.0616 0.7766
36 23 1 6.8706 0.0397
36 23 3 4.7726 -1.0609
36 23 5 -8.9340 0.4335
36 23 7 6.0398 -0.1134
36 23 9 -9.8953 1.5285
36 24 0 -8.6627 -3.0305
36 24 2 -10.0962 3.1062
36 24 4 0.7478 2.3147
36 24 6 -21.5559 -2.6656
36 24 8 -0.9268 0.8659
36 25 1 -11.5144 2.3343
36 25 3 4.3294 -0.8027
36 25 5 6.8577 -0.2766
36 25 7 -1.2717 1.4281
36 26 0 5.5481 -1.9297
36 26 2 -5.6063 1.6515
36 26 4 -2.3241 0.9645
36 26 6 2.3893 -1.2684
36 26 8 6.3974 -3.8411
36 27 1 4.0176 3.1143
36 27 3 0.3443 -0.2289
36 27 5 10.8669 -3.8922
36 27 7 -4.4695 0.0761
36 28 0 4.7792 -3.0467
36 28 2 1.6166 0.4163
36 28 4 -3.4856 -2.5367
36 28 6 -9.3386 -0.4150
36 29 1 4.0667 -1.0416
36 29 3 -2.7204 2.4705
36 29 5 7.8926 3.5757
36 30 0 -0.7031 -0.5284
36 30 2 12.7037 3.6452
36 30 4 -2.2043 4.2848
36 31 1 -7.3445 0.0264
36 31 3 5.8650 1.0904
36 32 0 -6.5171 -2.2799
37 0 1 2.0179 16.6767
37 0 3 -2.0347 -29.2357
37 0 5 -2.4642 6.0395
37 0 7 0.6929 19.8618
37 0 9 0.7896 -21.6157
37 0 11 0.1292 -1.8097
37 0 13 16.3684 17.4290
37 1 2 -13.8302 -12.1408
37 1 4 -5.2414 7.8573
37 1 6 7.3010 2.8652
37 1 8 2.1043 -9.5426
37 1 10 -6.7957 5.2712
37 1 12 -3.8390 3.9281
37 2 1 -1.4043 2.5434
37 2 3 0.9504 0.4698
37 2 5 5.7816 1.4597
37 2 7 -1.0461 0.4563
37 2 9 -5.4840 -1.4233
37 2 11 9.7567 1.1001
37 2 13 4.2153 -4.3694
37 3 2 3.4429 -3.4984
37 3 4 -0.5152 4.0142
37 3 6 -9.1262 3.0993
37 3 8 -4.7604 -5.9286
37 3 10 5.5796 1.0376
37 3 12 6.2470 1.9731
37 4 1 8.7141 1.3412
37 4 3 -0.7352 8.2466
37 4 5 -9.9569 -0.6769
37 4 7 9.0162 -4.8679
37 4 9 1.4452 5.7355
37 4 11 2.9885 1.3931
37 5 2 -11.9705 0.7100
37 5 4 -3.7992 -0.0206
37 5 6 0.5251 -2.2322
37 5 8 3.8749 2.0239
37 5 10 -7.4964 -0.5727
37 5 12 8.3687 -2.0431
37 6 1 -4.8246 -2.6873
37 6 3 5.3338 1.8689
37 6 5 4.9927 1.5099
37 6 7 -0.3332 0.1018
37 6 9 -1.4679 1.8917
37 6 11 9.9238 -1.5609
37 7 2 -2.7033 0.7352
37 7 4 -8.1797 -3.4318
37 7 6 -1.9181 -1.0420
37 7 8 2.6286 5.4541
37 7 10 -0.8676 0.3163
37 7 12 14.9611 -1.7480
37 8 1 -0.7682 -2.9088
37 8 3 -7.6086 -5.5667
37 8 5 -6.5730 -2.0950
37 8 7 2.1633 2.6902
37 8 9 5.0562 -1.9803
37 8 11 -6.5821 -1.9712
37 9 2 -9.4437 0.8740
37 9 4 -4.6215 2.9952
37 9 6 7.3189 2.5912
37 9 8 2.8284 -3.0125
37 9 10 -3.2870 -1.8938
37 9 12 -8.4769 -3.8286
37 10 1 -7.4805 7.0672
37 10 3 -0.7695 0.5144
37 10 5 6.6318 3.4596
37 10 7 1.9382 -0.9469
37 10 9 -3.0452 -0.8010
37 10 11 5.8238 2.0178
37 11 2 -0.6653 -1.0512
37 11 4 -1.8624 2.6445
37 11 6 -2.3483 3.4782
37 11 8 -1.9913 -1.4729
37 11 10 3.9647 1.3125
37 11 12 -1.0189 5.9533
37 12 1 -1.2281 -1.8738
37 12 3 -2.0661 -0.8720
37 12 5 -3.4145 0.1360
37 12 7 -2.6869 -4.0920
37 12 9 -0.7483 -0.2996
37 12 11 -5.7760 0.4890
37 13 2 -9.7959 -3.6307
37 13 4 -5.4224 1.6371
37 13 6 -4.7393 -0.3524
37 13 8 -4.1134 -2.7679
37 13 10 0.4233 0.3781
37 14 1 -8.5957 0.9964
37 14 3 0.1184 3.1486
37 14 5 5.0405 -1.3361
37 14 7 -3.1151 0.7595
37 14 9 0.6148 1.4129
37 14 11 7.0276 -1.3906
37 15 2 -2.4973 1.3870
37 15 4 -2.0258 -1.2134
37 15 6 -0.5942 1.4870
37 15 8 9.2046 2.1008
37 15 10 3.2758 -1.6262
37 16 1 5.8523 -2.8073
37 16 3 -2.1581 0.1994
37 16 5 -2.9862 0.8006
37 16 7 -0.1281 1.7124
37 16 9 4.7041 -0.3691
37 16 11 7.6347 0.7859
37 17 2 5.5540 2.8142
37 17 4 -5.4553 0.6491
37 17 6 -1.9096 -0.2088
37 17 8 1.9868 -2.3957
37 17 10 -5.3409 -0.9934
37 18 1 -12.9366 2.1138
37 18 3 1.7345 0.0012
37 18 5 0.3481 -0.7307
37 18 7 3.0478 1.2520
37 18 9 2.1734 0.6577
37 19 2 -5.9470 0.8641
37 19 4 -3.4144 -1.1123
37 19 6 3.5392 -0.8952
37 19 8 4.1143 -1.1762
37 19 10 -3.4928 -0.5841
37 20 1 -2.2965 0.3076
37 20 3 0.8119 -1.3250
37 20 5 2.1552 -1.3860
37 20 7 -6.8503 1.2810
37 20 9 0.8060 1.3135
37 21 2 -4.2785 -3.1787
37 21 4 -6.2833 0.2608
37 21 6 -4.2883 3.0846
37 21 8 1.1691 1.8640
37 22 1 8.7024 -5.4802
37 22 3 1.8053 0.9903
37 22 5 5.1641 1.9044
37 22 7 -4.7939 0.2994
37 22 9 -2.3319 2.3500
37 23 2 0.3801 -0.1227
37 23 4 -6.9834 -1.4863
37 23 6 1.2742 0.7076
37 23 8 0.1719 2.3898
37 24 1 -2.8586 -3.5898
37 24 3 -3.6310 -1.4419
37 24 5 9.7806 -0.6367
37 24 7 -1.9147 0.5537
37 25 2 -0.9813 1.1966
37 25 4 -8.2346 1.9066
37 25 6 2.0871 -1.5024
37 26 1 1.8628 -1.4280
37 26 3 -2.1947 1.4250
37 26 5 -4.3588 -3.1592
37 26 7 -3.4614 -2.4939
37 27 2 -2.5940 0.2816
37 27 4 -3.0659 0.1127
37 27 6 -7.6551 0.6834
37 28 1 5.3661 -0.1450
37 28 3 -2.5705 -2.0734
37 28 5 -1.2364 0.9756
37 29 2 14.0403 -1.5333
37 29 4 1.2671 -0.3065
37 30 1 6.7157 -0.6468
37 30 3 1.5548 -0.2685
38 0 0 -0.9783 11.4880
38 0 2 0.4521 -16.7235
38 0 4 -7.8650 -6.7442
38 0 6 5.0908 20.1311
38 0 8 0.9212 -15.1643
38 0 10 -8.5475 2.9292
38 0 12 12.8990 8.5482
38 1 1 -2.9171 -10.1425
38 1 3 4.3300 2.4586
38 1 5 1.4135 10.5310
38 1 7 1.0563 -11.3727
38 1 9 1.7482 6.4975
38 1 11 -4.1702 2.6939
38 2 0 -8.4291 -9.5892
38 2 2 0.6708 2.0624
38 2 4 -4.9810 0.8601
38 2 6 -5.1302 -5.1651
38 2 8 -2.2540 4.2770
38 2 10 -11.9452 -0.4097
38 2 12 -1.7474 -7.5387
38 3 1 -0.3061 -1.6548
38 3 3 7.9646 -0.1899
38 3 5 -4.6463 1.4251
38 3 7 -3.8270 -2.1284
38 3 9 7.1585 -1.5566
38 3 11 0.6108 0.0837
38 4 0 10.9705 9.6047
38 4 2 -0.4129 3.1991
38 4 4 -4.3561 -0.4697
38 4 6 -5.0785 -3.5459
38 4 8 -0.1907 0.1437
38 4 10 1.0086 -0.7689
38 4 12 2.8303 3.1710
38 5 1 -4.5533 4.8449
38 5 3 -1.2597 0.8820
38 5 5 5.8474 -1.3512
38 5 7 7.8993 4.3343
38 5 9 -3.1292 0.7699
38 5 11 -4.2399 -0.7803
38 6 0 0.0647 -2.3498
38 6 2 0.0186 -4.0837
38 6 4 3.4475 -5.9078
38 6 6 3.7245 -1.1132
38 6 8 -0.4041 -2.7640
38 6 10 -1.6988 3.4504
38 6 12 4.1169 3.5105
38 7 1 2.6010 -2.4868
38 7 3 -21.0476 -0.9531
38 7 5 -5.7579 0.4966
38 7 7 -2.6293 -4.1019
38 7 9 1.1508 1.3329
38 7 11 12.8105 1.8754
38 8 0 1.9154 2.8494
38 8 2 1.9445 3.7322
38 8 4 -10.6786 4.9224
38 8 6 2.2784 -0.1709
38 8 8 -0.3398 0.6730
38 8 10 -1.9075 -2.6324
38 8 12 2.6370 -2.6766
38 9 1 0.6910 2.1338
38 9 3 -3.6565 1.9274
38 9 5 8.6557 -0.7306
38 9 7 -1.0789 0.8707
38 9 9 -0.5823 -0.6602
38 9 11 -2.0439 -2.7115
38 10 0 -4.4993 -0.6225
38 10 2 -4.3751 0.4338
38 10 4 3.4861 -3.0306
38 10 6 -2.7420 -1.8139
38 10 8 -0.6782 0.2856
38 10 10 0.8402 0.3658
38 11 1 4.2383 3.2882
38 11 3 -3.4061 -1.7661
38 11 5 5.8205 -4.9811
38 11 7 -3.0733 -1.3987
38 11 9 -0.3170 0.5208
38 11 11 14.3261 3.2980
38 12 0 -0.8361 3.1183
38 12 2 7.3104 -0.6042
38 12 4 0.3525 -0.1178
38 12 6 3.2291 4.2081
38 12 8 7.1043 0.2618
38 12 10 1.0994 2.5356
38 13 1 -2.1613 -2.9843
38 13 3 -6.2196 -0.1354
38 13 5 -7.8104 0.4574
38 13 7 0.2918 0.2618
38 13 9 -1.9232 3.0610
38 13 11 -13.0858 -3.3982
38 14 0 -2.9338 -3.1518
38 14 2 -5.5381 -2.6742
38 14 4 -0.0501 -1.1705
38 14 6 -4.8949 -1.2197
38 14 8 -4.4487 1.0418
38 14 10 -5.4216 -0.6204
38 15 1 4.5374 1.4356
38 15 3 0.5763 0.5845
38 15 5 8.1896 -0.0192
38 15 7 -0.9274 -0.3867
38 15 9 1.3411 -0.9272
38 16 0 -2.8079 1.2528
38 16 2 -1.5137 2.4522
38 16 4 9.1646 2.5170
38 16 6 1.9994 -2.1393
38 16 8 -0.9136 0.0805
38 16 10 3.2290 0.1345
38 17 1 -0.4139 1.6586
38 17 3 0.6420 0.2496
38 17 5 10.2491 -1.7639
38 17 7 -0.4803 2.5462
38 17 9 -0.8811 0.5229
38 18 0 -12.3736 -4.6243
38 18 2 -4.1808 -3.2354
38 18 4 3.5831 -2.3118
38 18 6 5.3079 2.4686
38 18 8 5.9458 -1.8728
38 18 10 -4.8378 -0.2788
38 19 1 0.5821 0.1517
38 19 3 -1.6178 -2.0014
38 19 5 0.8861 1.6769
38 19 7 -1.6733 -0.0346
38 19 9 -2.5106 0.0064
38 20 0 -2.1748 1.6246
38 20 2 1.0525 0.0764
38 20 4 11.5594 1.1980
38 20 6 4.0249 -0.9656
38 20 8 0.6968 -0.9047
38 21 1 -3.1085 1.3043
38 21 3 -6.3226 2.0328
38 21 5 2.9660 0.1903
38 21 7 5.5848 -2.6123
38 22 0 -6.7340 -4.8642
38 22 2 -0.1561 2.2144
38 22 4 -6.8767 0.1199
38 22 6 9.0833 -2.5673
38 22 8 1.7907 3.6113
38 23 1 -3.0776 0.9227
38 23 3 -1.8758 -0.9709
38 23 5 4.5593 -2.0361
38 23 7 0.3390 0.8729
38 24 0 -7.1447 0.7661
38 24 2 -3.6132 -1.1449
38 24 4 13.2561 -0.7305
38 24 6 3.1727 2.1110
38 25 1 -0.3233 0.9510
38 25 3 -1.2431 -1.4881
38 25 5 -2.0918 -0.5576
38 26 0 -9.9917 -2.6110
38 26 2 3.1287 0.0751
38 26 4 8.6806 0.8752
38 26 6 -2.1528 -1.3724
38 27 1 -5.4619 -1.0521
38 27 3 -5.9200 -1.4230
38 27 5 -8.9537 -1.0708
38 28 0 -0.6733 -0.6015
38 28 2 -0.0429 1.0779
38 28 4 5.8328 1.1281
38 29 1 -13.2604 0.3767
38 29 3 -7.7244 -1.1322
39 0 1 1.7037 -18.2719
39 0 3 -8.1499 34.9076
39 0 5 -5.4415 -13.0204
39 0 7 1.4808 -14.9305
39 0 9 1.4164 23.4151
39 0 11 -19.9133 -6.3856
39 1 2 0.3329 14.0785
39 1 4 -0.0105 -15.5231
39 1 6 -5.0042 -0.5302
39 1 8 -5.9044 10.4743
39 1 10 0.0077 -8.4923
39 2 1 0.5527 4.3505
39 2 3 2.1161 -2.0444
39 2 5 -2.5379 0.8547
39 2 7 -0.3782 -0.4108
39 2 9 -5.3659 -2.3127
39 2 11 2.5916 2.1059
39 3 2 0.0857 3.8115
39 3 4 -0.9870 -4.5736
39 3 6 1.5649 -2.5309
39 3 8 -3.4999 5.5785
39 3 10 1.2509 -1.3463
39 4 1 -5.0943 -1.1900
39 4 3 -2.5083 -5.6944
39 4 5 4.4649 3.5001
39 4 7 4.3309 5.8549
39 4 9 -6.2468 -2.8864
39 4 11 -4.2395 -1.8128
39 5 2 -1.9635 -2.2889
39 5 4 -7.8430 0.4561
39 5 6 2.0097 -0.2066
39 5 8 -0.3711 -2.0779
39 5 10 4.3972 1.0512
39 6 1 12.5463 2.8161
39 6 3 -2.0637 1.7253
39 6 5 -2.5096 1.3451
39 6 7 0.3784 2.9216
39 6 9 -2.7057 -0.2982
39 6 11 1.8889 -1.5549
39 7 2 20.7151 0.5191
39 7 4 -3.0373 1.5771
39 7 6 -0.6335 0.7994
39 7 8 0.8137 -1.9689
39 7 10 7.6899 -2.0462
39 8 1 -0.3596 -0.2280
39 8 3 1.5015 -0.0872
39 8 5 -5.7169 1.3533
39 8 7 -7.8494 -2.5759
39 8 9 -2.9998 1.0396
39 8 11 -11.6062 -0.7976
39 9 2 -6.0331 -3.7691
39 9 4 -1.0385 0.4847
39 9 6 -1.7275 -1.2615
39 9 8 -1.5118 1.3700
39 9 10 -0.8090 2.3063
39 10 1 2.0075 -3.9122
39 10 3 2.4293 -1.6770
39 10 5 1.6042 0.2896
39 10 7 -0.9216 -0.6509
39 10 9 3.2531 1.8796
39 10 11 8.5511 2.3181
39 11 2 -3.9219 1.7100
39 11 4 2.1048 2.2075
39 11 6 3.8021 0.5431
39 11 8 1.5963 0.7938
39 11 10 0.5600 -1.9528
39 12 1 -2.9363 -0.1641
39 12 3 -0.0476 5.2212
39 12 5 2.9229 0.2380
39 12 7 -0.7076 -0.4336
39 12 9 -1.2306 -2.2195
39 13 2 -2.7925 1.4376
39 13 4 -2.3504 -0.0142
39 13 6 0.7668 2.2566
39 13 8 -0.0435 -1.3197
39 13 10 -0.6802 -2.3962
39 14 1 -4.5493 2.9426
39 14 3 2.5989 -3.8125
39 14 5 -0.1890 2.2789
39 14 7 -0.0239 -0.2383
39 14 9 0.4778 -4.5652
39 15 2 2.4323 -1.0079
39 15 4 -0.2040 0.3954
39 15 6 7.0252 0.4433
39 15 8 -3.1274 -1.9552
39 15 10 1.1031 3.3731
39 16 1 -0.4023 0.8002
39 16 3 17.1826 -1.0084
39 16 5 -0.4443 -0.1453
39 16 7 -1.9391 0.4388
39 16 9 -9.3827 0.5558
39 17 2 3.2869 -2.7344
39 17 4 -8.6177 2.1173
39 17 6 -1.5764 -1.3944
39 17 8 -6.2743 0.1538
39 18 1 5.7713 0.1871
39 18 3 -5.7753 2.9724
39 18 5 -6.8301 -1.6032
39 18 7 5.8944 0.6719
39 18 9 -6.7209 1.3867
39 19 2 -1.7877 2.7381
39 19 4 -3.0914 -1.2711
39 19 6 10.9500 -0.2737
39 19 8 -0.9452 0.6539
39 20 1 6.7021 -2.9015
39 20 3 1.5766 -1.2362
39 20 5 -0.2735 -0.4373
39 20 7 0.3558 0.0829
39 21 2 -7.5507 0.3094
39 21 4 -3.0538 -2.1467
39 21 6 8.3136 -0.3342
39 21 8 -1.0743 4.2740
39 22 1 -1.8342 3.1018
39 22 3 4.5294 0.6388
39 22 5 -4.5369 0.6930
39 22 7 -4.1616 2.6540
39 23 2 -5.8372 0.3007
39 23 4 -8.0251 0.9895
39 23 6 5.8481 1.4572
39 24 1 0.9547 -1.9827
39 24 3 3.7607 0.8370
39 24 5 -0.9162 0.1252
39 25 2 -3.3624 -0.0551
39 25 4 -2.4860 -0.2501
39 26 1 0.7794 -0.3557
39 26 3 2.7563 0.7523
39 26 5 11.2028 -0.7859
39 27 2 -2.6498 2.2364
39 28 1 -12.5152 -1.1052
40 0 0 -5.4145 -11.7783
40 0 2 6.2100 15.8155
40 0 4 -3.2469 9.4396
40 0 6 -4.6553 -20.4304
40 0 8 1.4006 9.8218
40 0 10 -2.9203 5.6291
40 1 1 -0.5857 8.8364
40 1 3 8.5780 -0.1892
40 1 5 -0.4476 -6.7571
40 1 7 -2.2490 7.1148
40 1 9 2.4864 -1.4140
40 1 11 -1.4018 -8.1694
40 2 0 3.6861 11.1070
40 2 2 4.4686 -1.5461
40 2 4 -1.5408 -0.9714
40 2 6 0.3690 2.8878
40 2 8 0.3342 -2.2883
40 2 10 11.3252 -0.8242
40 3 1 2.1189 2.1255
40 3 3 -8.8774 0.2120
40 3 5 -6.4283 0.0501
40 3 7 4.5414 1.5598
40 3 9 2.8157 0.5365
40 3 11 -6.4693 3.0859
40 4 0 4.2488 -8.8427
40 4 2 -3.6873 -2.8047
40 4 4 4.3558 -3.1711
40 4 6 6.7746 0.9400
40 4 8 1.4535 -1.5263
40 4 10 -1.5572 -1.0098
40 5 1 1.7431 -6.6971
40 5 3 -17.8328 0.2192
40 5 5 1.4497 2.1014
40 5 7 -3.3883 -3.9907
40 5 9 -1.2273 0.0917
40 5 11 -0.3602 -0.5512
40 6 0 10.7250 5.0846
40 6 2 5.8662 3.6314
40 6 4 -11.7708 1.7118
40 6 6 -1.8534 -1.3656
40 6 8 -0.1853 -0.0181
40 6 10 0.3593 0.5622
40 7 1 -0.9953 2.1747
40 7 3 2.8200 1.1115
40 7 5 1.1087 2.4285
40 7 7 2.1354 2.8419
40 7 9 -1.0756 0.6618
40 7 11 -6.5272 -1.5898
40 8 0 -4.5784 -0.0241
40 8 2 -4.7103 0.4784
40 8 4 -4.2778 -1.0569
40 8 6 2.6671 -3.8837
40 8 8 7.4993 -0.9987
40 8 10 -3.1009 -1.1827
40 9 1 -3.0993 3.8125
40 9 3 7.0161 0.0675
40 9 5 -3.3383 -2.8303
40 9 7 1.6805 -1.4819
40 9 9 1.8925 -0.4481
40 10 0 -0.1278 -0.8258
40 10 2 0.9649 1.1732
40 10 4 -0.1952 1.9540
40 10 6 -2.4804 1.2511
40 10 8 -4.5928 -0.6160
40 10 10 6.1557 4.3813
40 11 1 -2.0595 -6.0651
40 11 3 8.7369 -1.7041
40 11 5 4.4555 1.4785
40 11 7 0.7889 0.5326
40 11 9 1.0553 1.3243
40 12 0 -5.9915 1.9726
40 12 2 -10.3022 -1.1461
40 12 4 0.6591 -2.5933
40 12 6 2.1444 -2.4813
40 12 8 0.1632 2.5619
40 12 10 -2.2130 -3.4896
40 13 1 3.9843 2.3257
40 13 3 -8.8458 2.1105
40 13 5 1.3614 -1.9927
40 13 7 2.5233 1.4449
40 13 9 9.7168 -1.3144
40 14 0 0.8119 -1.1644
40 14 2 2.7708 1.3758
40 14 4 -1.2262 2.3940
40 14 6 -1.3572 3.7333
40 14 8 -3.3696 0.5456
40 15 1 5.0249 -2.1444
40 15 3 -9.7572 0.1866
40 15 5 -9.4389 0.7498
40 15 7 -0.3296 -0.3791
40 15 9 14.4639 -0.0910
40 16 0 8.5471 -0.8262
40 16 2 8.6472 -0.9627
40 16 4 -5.8544 -2.2909
40 16 6 -0.8252 -1.3840
40 16 8 -2.8598 -0.2206
40 17 1 -2.5311 -0.6660
40 17 3 -9.8479 0.2591
40 17 5 -3.8273 0.3875
40 17 7 4.0283 0.2922
40 18 0 7.3268 1.5800
40 18 2 1.5922 0.5994
40 18 4 -12.4578 1.6139
40 18 6 6.4767 2.1770
40 18 8 -6.1064 0.0043
40 19 1 -3.8899 1.2582
40 19 3 -2.9128 -0.4287
40 19 5 0.8715 2.1347
40 19 7 0.4279 0.4442
40 20 0 10.1153 -4.4472
40 20 2 1.1345 0.2355
40 20 4 -1.0791 0.3869
40 20 6 0.4829 -2.3396
40 21 1 -4.2405 -0.5734
40 21 3 -9.3978 -1.3788
40 21 5 -1.8991 -2.1399
40 21 7 -1.2550 4.6504
40 22 0 11.1322 4.3296
40 22 2 6.0942 -3.3212
40 22 4 6.8538 -2.4038
40 22 6 3.1976 4.5274
40 23 1 -3.5758 1.4304
40 23 3 -20.9295 0.8260
40 23 5 1.8014 3.5360
40 24 0 6.6504 -3.6334
40 24 2 -1.2148 -0.6890
40 24 4 -0.4598 -1.0623
40 25 1 3.5871 -1.6002
40 25 3 -13.6766 -1.1440
40 26 0 7.1310 2.2803
40 26 2 10.5763 -2.8053
40 27 1 -0.5988 -1.7814
41 0 1 -4.6210 19.4863
41 0 3 4.1615 -34.0382
41 0 5 -0.4858 17.5944
41 0 7 -8.2251 12.1346
41 0 9 -14.3286 -23.5139
41 1 2 5.3255 -13.7115
41 1 4 3.5056 15.8543
41 1 6 4.7645 -2.3135
41 1 8 0.6474 -10.3563
41 1 10 1.0851 11.2904
41 2 1 -0.6920 -5.8434
41 2 3 -6.3696 -0.0008
41 2 5 -3.6162 -2.3479
41 2 7 5.2385 1.9493
41 2 9 1.3966 3.3404
41 3 2 -7.2747 -6.4873
41 3 4 -4.8284 1.3908
41 3 6 16.7008 1.8952
41 3 8 0.9582 -2.3629
41 3 10 2.4433 -1.3859
41 4 1 -0.5350 1.6069
41 4 3 2.2278 6.3475
41 4 5 1.1946 -3.1627
41 4 7 0.2838 -2.9848
41 4 9 -5.6723 2.8297
41 5 2 1.6834 6.7981
41 5 4 -1.4221 -2.6045
41 5 6 -4.3764 0.1089
41 5 8 -3.2255 2.8928
41 5 10 2.4944 0.6753
41 6 1 -9.6479 -5.7194
41 6 3 -3.0596 -1.4937
41 6 5 -1.7893 1.8819
41 6 7 9.9242 0.3521
41 6 9 2.3619 -0.0743
41 7 2 0.9115 -2.2895
41 7 4 -8.1019 -1.4664
41 7 6 3.0304 -3.4244
41 7 8 -4.5584 0.7151
41 7 10 -1.8863 -1.8065
41 8 1 -7.0230 2.2551
41 8 3 2.2136 -1.0448
41 8 5 -1.9261 -2.5806
41 8 7 -1.7553 0.9336
41 8 9 0.2126 1.3146
41 9 2 2.5852 3.4995
41 9 4 -1.1762 -1.1934
41 9 6 0.4482 1.1156
41 9 8 0.2971 2.1226
41 9 10 9.6295 -1.3519
41 10 1 0.0953 -1.8393
41 10 3 -0.6300 0.2416
41 10 5 0.4522 2.5864
41 10 7 -0.4965 2.2754
41 10 9 3.3915 -1.2729
41 11 2 -3.8121 -0.1066
41 11 4 1.4771 1.9039
41 11 6 2.2997 0.1966
41 11 8 -1.0346 -3.0641
41 12 1 3.4872 1.9453
41 12 3 -0.8529 -2.7099
41 12 5 2.3925 1.4332
41 12 7 -3.0550 -2.5845
41 12 9 1.3392 -2.1903
41 13 2 4.8616 -0.5950
41 13 4 -12.1790 -0.1783
41 13 6 1.4643 -2.1928
41 13 8 -2.6748 -0.8597
41 14 1 2.7636 -1.3562
41 14 3 -4.0189 1.5709
41 14 5 -2.6329 -2.0540
41 14 7 7.2994 -1.3174
41 14 9 1.5027 0.8411
41 15 2 -10.3577 -2.9340
41 15 4 2.0222 1.2727
41 15 6 6.7798 -0.3113
41 15 8 -1.3444 0.5140
41 16 1 10.6524 -1.6314
41 16 3 -0.9105 1.3685
41 16 5 -2.5401 0.4111
41 16 7 -16.6371 1.5982
41 17 2 0.4137 3.9088
41 17 4 -0.6183 -3.3009
41 17 6 -0.4096 0.9817
41 17 8 3.8239 2.4033
41 18 1 -4.9603 0.5559
41 18 3 -5.1606 -4.3891
41 18 5 2.5680 -0.2504
41 18 7 -4.9999 -0.6755
41 19 2 -4.6106 -1.2575
41 19 4 -6.7551 0.9838
41 19 6 3.8127 -1.1021
41 20 1 1.3322 5.1424
41 20 3 1.4147 0.4691
41 20 5 0.0193 0.3727
41 21 2 4.8234 0.4977
41 21 4 -6.3627 0.1940
41 21 6 -9.6987 -1.4802
41 22 1 1.0063 -3.1375
41 22 3 -0.6924 0.0831
41 22 5 0.9458 -2.4561
41 23 2 -4.6369 -0.9001
41 23 4 -3.5500 -4.8149
41 24 1 0.9807 2.4590
41 24 3 -2.2814 -0.1768
41 25 2 -8.5286 -0.1964
42 0 0 5.0506 10.5369
42 0 2 5.2392 -10.0998
42 0 4 -0.9182 -11.1894
42 0 6 -2.1232 13.1612
42 0 8 -8.1462 -2.4537
42 1 1 0.4254 -5.3491
42 1 3 3.4893 -2.2050
42 1 5 -5.8578 7.1571
42 1 7 -2.8957 -5.2480
42 1 9 -1.0278 -3.9262
42 2 0 3.9770 -10.5840
42 2 2 -0.8944 3.6226
42 2 4 -5.2480 1.5348
42 2 6 2.6061 -0.8178
42 2 8 1.8521 0.7110
42 2 10 -2.6601 6.2093
42 3 1 -0.7122 -0.0624
42 3 3 -3.8927 2.0951
42 3 5 0.0324 1.0748
42 3 7 -1.6344 -3.6991
42 3 9 0.5951 0.7077
42 4 0 -5.3802 6.9237
42 4 2 1.2301 4.0251
42 4 4 4.6482 4.5029
42 4 6 -0.7009 -1.0956
42 4 8 -3.4879 -0.0267
42 5 1 -2.8653 2.6296
42 5 3 -3.9116 -2.3673
42 5 5 5.7959 -2.0847
42 5 7 -9.2944 1.5995
42 5 9 -10.9344 0.2066
42 6 0 -12.6875 -2.9745
42 6 2 -7.5655 -2.3208
42 6 4 -6.6698 -1.5020
42 6 6 9.0181 -1.6791
42 6 8 -1.3908 0.9610
42 7 1 0.3828 -0.0578
42 7 3 -4.5500 0.4285
42 7 5 2.5855 -2.2834
42 7 7 -3.2023 1.2610
42 7 9 4.5241 0.9687
42 8 0 -4.4201 -2.3655
42 8 2 6.3643 -1.8948
42 8 4 -0.4729 1.8454
42 8 6 -0.9784 5.6035
42 8 8 -3.5120 -0.4676
42 9 1 1.6064 -2.9866
42 9 3 -0.2123 -1.0115
42 9 5 -4.1555 4.8689
42 9 7 -0.5988 0.6495
42 9 9 13.6196 1.8839
42 10 0 -1.5143 5.2581
42 10 2 -1.4775 2.7247
42 10 4 4.7294 0.2704
42 10 6 -2.8268 -5.9858
42 10 8 -9.2614 -2.0946
42 11 1 5.9700 3.7605
42 11 3 -4.7120 3.0202
42 11 5 -1.3332 -0.9624
42 11 7 -2.4043 -0.8720
42 12 0 1.7793 -4.0765
42 12 2 -0.2519 -0.1109
42 12 4 -0.3572 0.8770
42 12 6 2.9892 1.0057
42 12 8 -1.9643 1.9370
42 13 1 1.8175 -6.5706
42 13 3 0.8991 -3.3752
42 13 5 -0.0163 1.0916
42 13 7 3.8217 1.9626
42 14 0 -1.8950 2.1297
42 14 2 0.6417 -1.1018
42 14 4 3.3994 -0.4389
42 14 6 -1.9802 1.1053
42 14 8 -5.1049 -1.7257
42 15 1 1.2028 0.5492
42 15 3 2.0416 4.2965
42 15 5 -0.3205 -0.0832
42 15 7 -4.6030 -2.3741
42 16 0 -0.6576 -0.4892
42 16 2 -0.0997 1.9534
42 16 4 3.7779 1.1715
42 16 6 -1.3944 1.9113
42 17 1 3.6960 -1.0935
42 17 3 -0.6798 0.1921
42 17 5 -2.0347 1.4181
42 17 7 6.4242 1.7469
42 18 0 18.2266 -2.9537
42 18 2 -0.7713 2.6072
42 18 4 2.2927 -0.0186
42 18 6 -6.5334 -1.4405
42 19 1 9.5453 0.2440
42 19 3 -3.9270 -1.1491
42 19 5 -7.3175 -2.5492
42 20 0 11.0417 5.3815
42 20 2 -1.6710 -0.9331
42 20 4 -1.0042 -1.7123
42 21 1 0.0902 1.3595
42 21 3 -3.7407 -0.9948
42 22 0 -0.1893 -4.2628
42 22 2 0.3958 0.0846
42 22 4 -6.0886 2.2345
42 23 1 -2.1294 -0.5359
42 24 0 10.5068 5.3462
43 0 1 7.6170 -17.4404
43 0 3 2.9060 26.9429
43 0 5 -6.5551 -13.8156
43 0 7 0.9373 -8.4908
43 0 9 9.3394 15.4822
43 1 2 0.9820 7.6796
43 1 4 -0.7303 -11.2956
43 1 6 -9.1155 2.4863
43 1 8 1.6845 6.3625
43 2 1 -1.8916 2.2124
43 2 3 -0.6058 -0.2987
43 2 5 3.7091 2.9415
43 2 7 -0.2892 1.2477
43 2 9 -0.0859 -5.5873
43 3 2 1.9216 6.5776
43 3 4 1.2827 -0.3170
43 3 6 -2.1391 0.9179
43 3 8 -0.5273 0.3654
43 4 1 -5.5987 -3.7733
43 4 3 -4.7924 -8.4690
43 4 5 -5.3375 -1.0574
43 4 7 -9.6270 0.0868
43 4 9 3.4757 2.3430
43 5 2 -4.1862 -4.8342
43 5 4 -1.3280 3.0189
43 5 6 -0.4384 -0.8906
43 5 8 3.8043 -0.8560
43 6 1 10.4483 6.2034
43 6 3 0.2436 3.3153
43 6 5 0.2562 -2.6377
43 6 7 -3.2355 -1.4442
43 7 2 -6.6987 2.2963
43 7 4 3.6650 -1.0704
43 7 6 -0.7859 2.4163
43 7 8 -1.3111 -0.1987
43 8 1 3.5752 -1.0853
43 8 3 2.7808 2.9479
43 8 5 -0.5689 -0.2217
43 8 7 -0.6649 -0.1274
43 9 2 -4.7904 -0.8151
43 9 4 -1.7409 -0.1968
43 9 6 -3.1518 -0.4004
43 9 8 -0.1005 -2.2579
43 10 1 -2.5174 -1.1238
43 10 3 3.7749 -1.9835
43 10 5 1.1064 -0.3580
43 10 7 2.6646 -2.0568
43 11 2 3.5567 1.1004
43 11 4 6.0798 -1.3409
43 11 6 -2.9559 -2.9749
43 11 8 -6.9609 3.5852
43 12 1 -5.4835 -2.1828
43 12 3 -2.0495 2.1282
43 12 5 3.2090 -1.1595
43 12 7 1.1168 3.6483
43 13 2 10.2978 2.1616
43 13 4 -2.2182 0.4651
43 13 6 1.8346 1.3062
43 14 1 -3.2421 2.6191
43 14 3 -5.4327 -0.5514
43 14 5 -0.8343 0.5592
43 14 7 4.4266 -1.0348
43 15 2 5.5051 0.5571
43 15 4 6.6980 -2.3343
43 15 6 -3.1747 -1.5248
43 16 1 -2.2897 -0.1886
43 16 3 -4.7083 -3.1423
43 16 5 -2.0675 -1.4135
43 17 2 8.9985 -4.2719
43 17 4 3.3195 1.5484
43 18 1 6.7701 0.0100
43 18 3 1.2793 -0.0460
43 18 5 10.9672 4.2337
43 19 2 -0.4264 0.1575
43 19 4 2.6214 3.2836
43 20 1 0.4762 -3.6459
43 20 3 3.1232 2.8698
43 21 2 2.6728 5.3131
43 22 1 8.3773 6.4076
44 0 0 4.3694 -7.1911
44 0 2 -0.3460 4.2591
44 0 4 -4.0517 11.1982
44 0 6 -0.8799 -9.0023
44 0 8 10.4248 -2.2147
44 1 1 1.9457 1.7488
44 1 3 0.2619 3.7135
44 1 5 -5.5595 -6.9521
44 1 7 1.0594 -0.2724
44 2 0 -2.7752 5.6291
44 2 2 -8.5637 0.1576
44 2 4 -4.3590 0.4772
44 2 6 0.8732 -5.4972
44 2 8 1.3564 5.9460
44 3 1 4.5937 2.7988
44 3 3 6.3779 -1.2779
44 3 5 -2.3743 -6.1348
44 3 7 3.3574 4.4977
44 4 0 -3.4672 -5.4315
44 4 2 -3.3589 -2.0088
44 4 4 1.9022 -2.6767
44 4 6 -29.1205 8.8117
44 4 8 -2.5478 -1.9645
44 5 1 6.3359 0.1449
44 5 3 7.1841 -0.6656
44 5 5 -1.0036 1.1536
44 5 7 2.0651 -0.7739
44 6 0 -8.1478 0.1799
44 6 2 1.7273 -2.1546
44 6 4 10.2913 2.7752
44 6 6 -3.6370 1.4705
44 6 8 -0.0486 2.1753
44 7 1 4.6994 -0.8534
44 7 3 -0.7128 -1.6837
44 7 5 -0.4333 0.3017
44 7 7 3.2144 0.1865
44 8 0 9.0516 4.6892
44 8 2 2.6305 -0.7260
44 8 4 -1.0473 -1.2825
44 8 6 -3.0087 -0.2638
44 9 1 1.8119 3.8556
44 9 3 -0.8519 2.3883
44 9 5 -4.0727 2.0844
44 9 7 3.7990 -3.0628
44 10 0 -3.2417 -7.1338
44 10 2 -0.7280 -3.4273
44 10 4 -0.9673 2.6636
44 10 6 -3.3797 -2.8079
44 11 1 -2.8790 -4.0446
44 11 3 3.8255 -2.8031
44 11 5 -2.8510 -0.9698
44 11 7 3.8367 9.1832
44 12 0 3.6237 6.9189
44 12 2 0.1145 1.4086
44 12 4 3.4075 -1.8071
44 12 6 -3.9649 4.9577
44 13 1 2.5291 1.1223
44 13 3 10.3878 3.3310
44 13 5 -8.8993 4.5048
44 14 0 4.0750 -5.8180
44 14 2 -0.8983 -0.1478
44 14 4 1.1678 3.3372
44 14 6 -3.9010 -7.9681
44 15 1 -5.5908 -1.9751
44 15 3 2.5667 -2.2963
44 15 5 -4.9081 -7.3770
44 16 0 0.6492 1.5274
44 16 2 -5.3787 -0.1049
44 16 4 -4.6191 -4.2505
44 17 1 -9.5159 -2.9779
44 17 3 11.7028 2.4683
44 18 0 -6.7168 0.4110
44 18 2 3.3265 4.1481
44 19 1 -0.5531 4.3970
44 20 0 -11.8229 -2.0182
45 0 1 5.6764 10.3410
45 0 3 0.5344 -14.7665
45 0 5 -8.1705 6.0760
45 0 7 -14.0424 3.8999
45 1 2 0.4869 -2.0585
45 1 4 0.4446 5.6879
45 1 6 9.2020 1.1881
45 2 1 8.6919 -3.0872
45 2 3 6.0631 -1.0844
45 2 5 -4.3451 -1.3603
45 2 7 -3.9148 -2.3797
45 3 2 2.1918 -5.0782
45 3 4 -3.4041 2.5760
45 3 6 -10.6399 -1.9621
45 4 1 8.9606 2.7470
45 4 3 -2.6543 3.7043
45 4 5 -15.4353 -0.9435
45 4 7 -5.9653 0.3093
45 5 2 0.0438 1.1428
45 5 4 1.9868 0.6125
45 5 6 0.4905 1.8185
45 6 1 -8.1452 -2.6235
45 6 3 1.5579 3.2409
45 6 5 4.8049 -2.4757
45 6 7 -1.9694 -2.9478
45 7 2 0.1903 2.6341
45 7 4 2.8698 -1.2090
45 7 6 -9.4695 0.8005
45 8 1 -4.6921 1.4343
45 8 3 -1.6390 0.5724
45 8 5 2.0625 0.5279
45 9 2 2.2747 -1.0966
45 9 4 5.8328 -2.8540
45 9 6 1.1120 -1.4614
45 10 1 -2.4775 3.1277
45 10 3 -0.1831 0.8878
45 10 5 3.9654 -3.1766
45 11 2 5.1122 1.9036
45 11 4 -3.0180 0.6156
45 12 1 10.0106 -0.6593
45 12 3 -4.9569 0.6888
45 12 5 -8.0716 3.1525
45 13 2 7.6306 1.6899
45 13 4 -10.3148 -0.4225
45 14 1 -3.6507 -1.3739
45 14 3 16.4825 -1.3970
45 15 2 -12.5811 -0.7750
45 16 1 1.5532 1.2677
45 16 3 8.5359 0.5576
45 17 2 5.8690 -1.2987
46 0 0 -6.6323 3.4388
46 0 2 6.9369 -2.4901
46 0 4 -2.8013 -10.5068
46 0 6 2.8941 7.1708
46 1 1 -4.3177 -3.6264
46 1 3 2.2218 -1.6514
46 1 5 0.1091 4.2856
46 2 0 -2.6366 -4.5309
46 2 2 0.3986 -1.4873
46 2 4 5.4882 0.9727
46 2 6 12.5693 2.9572
46 3 1 -0.5016 -1.7947
46 3 3 3.5289 -0.2357
46 3 5 0.3948 1.6997
46 4 0 5.2419 -0.0432
46 4 2 0.4422 1.7542
46 4 4 5.2631 2.1740
46 4 6 -12.4982 -4.3027
46 5 1 1.7130 3.8391
46 5 3 0.1161 -1.3549
46 5 5 6.7993 -1.0092
46 6 0 -4.1698 5.8305
46 6 2 -1.0252 -4.3558
46 6 4 1.3082 0.5190
46 7 1 1.3421 -1.9765
46 7 3 3.8924 1.3617
46 7 5 1.7124 0.9694
46 8 0 -1.2893 -9.4792
46 8 2 0.4501 -1.0740
46 8 4 1.2247 -0.1366
46 9 1 -0.2576 1.1307
46 9 3 2.3173 -0.5918
46 9 5 -5.3766 -7.0865
46 10 0 1.0147 12.7257
46 10 2 3.4117 -1.4866
46 10 4 -2.1423 -4.4810
46 11 1 -1.5152 -1.6614
46 11 3 5.5003 0.5033
46 12 0 4.0348 -14.1477
46 12 2 2.7117 1.4513
46 13 1 -8.3025 3.5385
46 13 3 11.7379 -2.2813
46 14 0 2.7921 13.8411
46 14 2 2.8831 -3.3528
47 0 1 -28.6576 -1.6954
47 0 3 3.9669 2.2009
47 1 2 -2.9286 -2.6932
47 1 4 3.8183 0.8646
47 2 1 -19.7650 -1.6276
47 2 3 1.7369 1.5415
47 3 2 -2.7080 4.0258
47 3 4 1.9885 -2.0931
47 4 1 -11.9235 0.0623
47 4 3 1.3959 -0.2409
47 5 2 4.1388 1.0687
47 5 4 3.0860 -0.6813
47 6 1 -6.1172 0.9804
47 6 3 10.1104 -1.0164
47 7 2 17.3426 -1.8378
47 8 1 -2.4553 0.9842
47 8 3 -7.3991 -0.4845
47 9 2 1.9068 -0.4760
47 10 1 1.0225 -2.7609
48 0 0 -11.9047 -7.4580
48 0 2 7.9340 0.3363
48 1 1 -1.9996 2.3842
48 2 0 -25.3772 4.8078
48 2 2 -3.1581 0.1259
48 3 1 -3.9044 -3.4654
48 4 0 -12.8859 -1.4923
48 5 1 1.0751 -0.5575
48 6 0 -8.7330 -7.1500
0 0 0 0.0 0.0
;
_shelx_fab_checksum              66032
_olex2_submission_special_instructions 'No special instructions were received'
_oxdiff_exptl_absorpt_empirical_details
;
Empirical correction (ABSPACK) includes:
- Absorption correction using spherical harmonics
- Frame scaling
;
_oxdiff_exptl_absorpt_empirical_full_max 2.785
_oxdiff_exptl_absorpt_empirical_full_min 0.446
loop_
_space_group_symop_operation_xyz
'x, y, z'
'-x+1/2, -y, z+1/2'
'-y+1/4, x+3/4, z+1/4'
'y+1/4, -x+1/4, z+3/4'
'-x+1/2, y, -z+1/2'
'x, -y, -z'
'y+1/4, x+3/4, -z+1/4'
'-y+1/4, -x+1/4, -z+3/4'
'x+1/2, y+1/2, z+1/2'
'-x+1, -y+1/2, z+1'
'-y+3/4, x+5/4, z+3/4'
'y+3/4, -x+3/4, z+5/4'
'-x+1, y+1/2, -z+1'
'x+1/2, -y+1/2, -z+1/2'
'y+3/4, x+5/4, -z+3/4'
'-y+3/4, -x+3/4, -z+5/4'
'-x, -y, -z'
'x-1/2, y, -z-1/2'
'y-1/4, -x-3/4, -z-1/4'
'-y-1/4, x-1/4, -z-3/4'
'x-1/2, -y, z-1/2'
'-x, y, z'
'-y-1/4, -x-3/4, z-1/4'
'y-1/4, x-1/4, z-3/4'
'-x+1/2, -y+1/2, -z+1/2'
'x, y+1/2, -z'
'y+1/4, -x-1/4, -z+1/4'
'-y+1/4, x+1/4, -z-1/4'
'x, -y+1/2, z'
'-x+1/2, y+1/2, z+1/2'
'-y+1/4, -x-1/4, z+1/4'
'y+1/4, x+1/4, z-1/4'
loop_
_atom_site_label
_atom_site_type_symbol
_atom_site_fract_x
_atom_site_fract_y
_atom_site_fract_z
_atom_site_U_iso_or_equiv
_atom_site_adp_type
_atom_site_occupancy
_atom_site_site_symmetry_order
_atom_site_calc_flag
_atom_site_refinement_flags_posn
_atom_site_refinement_flags_adp
_atom_site_refinement_flags_occupancy
Hf2 Hf 0.54295(2) 0.52075(2) 0.09065(2) 0.0780(2) Uani 1 1 d . U .
Hf1 Hf 0.500000 0.44631(2) 0.06768(3) 0.0850(2) Uani 1 2 d S TU P
O10 O 0.500000 0.64344(17) 0.6858(4) 0.0606(15) Uani 1 2 d S TU P
O9 O 0.65697(11) 0.71732(19) 0.7765(3) 0.0889(18) Uani 1 1 d . U .
O8 O 0.67864(12) 0.68944(18) 0.6734(3) 0.0816(16) Uani 1 1 d . U .
O1 O 0.5282(2) 0.54557(14) 0.1995(3) 0.103(2) Uani 1 1 d . U .
O5 O 0.56563(18) 0.4922(2) 0.1889(4) 0.1042(19) Uani 1 1 d D U .
O2 O 0.500000 0.49335(19) 0.1246(7) 0.103(3) Uani 1 2 d S TU P
O3 O 0.5426(2) 0.47354(14) 0.0366(4) 0.117(2) Uani 1 1 d . U .
O4 O 0.5313(3) 0.43346(16) 0.1682(4) 0.127(3) Uani 1 1 d D U .
O6 O 0.5959(2) 0.51770(18) 0.0688(6) 0.133(3) Uani 1 1 d . U .
O12 O 0.52869(18) 0.6153(3) 0.5826(4) 0.133(3) Uani 1 1 d . U .
O7 O 0.500000 0.5446(3) 0.0537(7) 0.125(3) Uani 1 2 d S TU P
C12 C 0.56577(18) 0.6730(2) 0.7362(5) 0.078(2) Uani 1 1 d . U .
H12 H 0.547669 0.678300 0.767444 0.093 Uiso 1 1 calc R . .
C11 C 0.59590(19) 0.6869(2) 0.7514(5) 0.080(2) Uani 1 1 d . U .
H11 H 0.598190 0.700655 0.795062 0.096 Uiso 1 1 calc R . .
C9 C 0.62273(18) 0.6812(2) 0.7043(5) 0.078(2) Uani 1 1 d . U .
C10 C 0.65537(18) 0.6973(3) 0.7198(5) 0.080(2) Uani 1 1 d . U .
C1 C 0.500000 0.5518(3) 0.2301(7) 0.093(3) Uani 1 2 d S TU P
C2 C 0.500000 0.5667(3) 0.3109(8) 0.102(4) Uani 1 2 d S TU P
C6 C 0.5622(2) 0.6510(3) 0.6743(5) 0.099(3) Uani 1 1 d . U .
C8 C 0.6195(2) 0.6601(4) 0.6410(7) 0.129(5) Uani 1 1 d . U .
H8 H 0.637464 0.655770 0.608547 0.155 Uiso 1 1 calc R . .
C5 C 0.500000 0.5945(4) 0.4587(9) 0.116(5) Uani 1 2 d S TU P
C3 C 0.5299(4) 0.5727(4) 0.3490(6) 0.138(5) Uani 1 1 d . U .
H3 H 0.549867 0.567610 0.324613 0.165 Uiso 1 1 calc R . .
C7 C 0.5897(2) 0.6455(4) 0.6260(7) 0.141(5) Uani 1 1 d . U .
H7 H 0.587593 0.631571 0.582665 0.170 Uiso 1 1 calc R . .
C4 C 0.5293(4) 0.5863(4) 0.4246(7) 0.134(5) Uani 1 1 d . U .
H4 H 0.548953 0.589851 0.451784 0.161 Uiso 1 1 calc R . .
B1 B 0.500000 0.6111(6) 0.5421(9) 0.113(5) Uani 1 2 d S TU P
B2 B 0.5290(3) 0.6319(4) 0.6550(7) 0.104(3) Uani 1 1 d . U .
C15 C 0.6067(6) 0.500000 0.000000 0.148(6) Uani 1 2 d S TU P
H15 H 0.629704 0.500003 -0.000001 0.178 Uiso 1 2 calc RS T P
C13 C 0.5582(5) 0.4562(4) 0.1987(12) 0.114(5) Uani 0.5 1 d D U .
O11 O 0.5342(3) 0.5956(3) 0.7235(8) 0.091(3) Uani 0.5 1 d . U .
C14 C 0.5183(4) 0.4062(4) 0.2125(8) 0.074(3) Uani 0.5 1 d . U .
loop_
_atom_site_aniso_label
_atom_site_aniso_U_11
_atom_site_aniso_U_22
_atom_site_aniso_U_33
_atom_site_aniso_U_23
_atom_site_aniso_U_13
_atom_site_aniso_U_12
Hf2 0.1425(4) 0.0424(2) 0.0489(3) -0.00192(13) 0.0023(2) -0.00336(19)
Hf1 0.1684(7) 0.0388(3) 0.0477(3) 0.00040(19) 0.000 0.000
O10 0.055(3) 0.079(4) 0.048(3) -0.002(3) 0.000 0.000
O9 0.040(2) 0.165(6) 0.061(3) -0.010(3) -0.001(2) -0.006(3)
O8 0.047(2) 0.135(5) 0.063(3) -0.003(3) 0.000(2) 0.003(3)
O1 0.196(7) 0.055(3) 0.057(3) -0.016(2) 0.013(4) -0.024(3)
O5 0.110(4) 0.140(5) 0.063(3) 0.013(3) -0.006(3) -0.009(4)
O2 0.124(5) 0.054(4) 0.129(8) -0.036(4) 0.000 0.000
O3 0.234(7) 0.059(3) 0.059(3) -0.018(3) 0.024(4) -0.021(4)
O4 0.249(9) 0.074(3) 0.059(3) 0.003(3) -0.015(4) 0.046(4)
O6 0.159(5) 0.077(4) 0.163(7) 0.027(4) 0.066(5) 0.021(4)
O12 0.094(4) 0.210(9) 0.093(4) -0.079(5) 0.029(3) -0.051(5)
O7 0.153(7) 0.131(6) 0.092(6) 0.058(6) 0.000 0.000
C12 0.055(3) 0.108(6) 0.071(5) -0.020(4) 0.013(3) -0.008(4)
C11 0.063(4) 0.115(6) 0.062(4) -0.018(4) 0.002(3) -0.009(4)
C9 0.051(3) 0.121(6) 0.062(4) -0.007(4) 0.001(3) -0.007(4)
C10 0.047(3) 0.141(7) 0.053(4) 0.000(4) -0.007(3) 0.001(4)
C1 0.195(11) 0.044(5) 0.040(5) -0.001(4) 0.000 0.000
C2 0.186(12) 0.059(6) 0.060(6) -0.019(5) 0.000 0.000
C6 0.064(4) 0.156(8) 0.077(5) -0.041(5) 0.020(4) -0.028(5)
C8 0.067(5) 0.223(12) 0.098(7) -0.069(7) 0.030(5) -0.040(6)
C5 0.149(11) 0.126(11) 0.074(8) -0.041(8) 0.000 0.000
C3 0.169(10) 0.170(11) 0.073(6) -0.062(7) 0.033(6) -0.052(9)
C7 0.072(5) 0.240(14) 0.112(8) -0.098(9) 0.032(5) -0.043(7)
C4 0.162(10) 0.160(11) 0.081(6) -0.060(7) 0.031(6) -0.034(9)
B1 0.124(10) 0.158(15) 0.056(7) -0.033(8) 0.000 0.000
B2 0.074(5) 0.146(8) 0.094(6) -0.050(5) 0.028(5) -0.031(5)
C15 0.132(10) 0.158(13) 0.154(12) -0.019(10) 0.000 0.000
C13 0.133(13) 0.118(9) 0.091(12) 0.060(10) 0.005(8) 0.034(8)
O11 0.070(6) 0.093(7) 0.110(8) -0.032(5) 0.007(6) 0.015(5)
C14 0.102(10) 0.087(8) 0.033(6) -0.012(5) -0.004(6) 0.036(6)
loop_
_atom_type_symbol
_atom_type_description
_atom_type_scat_dispersion_real
_atom_type_scat_dispersion_imag
_atom_type_scat_source
C C 0.0181 0.0091 'International Tables Vol C Tables 4.2.6.8 and 6.1.1.4'
H H 0.0000 0.0000 'International Tables Vol C Tables 4.2.6.8 and 6.1.1.4'
B B 0.0090 0.0039 'International Tables Vol C Tables 4.2.6.8 and 6.1.1.4'
Hf Hf -6.1794 4.9776 'International Tables Vol C Tables 4.2.6.8 and 6.1.1.4'
O O 0.0492 0.0322 'International Tables Vol C Tables 4.2.6.8 and 6.1.1.4'
loop_
_geom_angle_atom_site_label_1
_geom_angle_atom_site_label_2
_geom_angle_atom_site_label_3
_geom_angle
_geom_angle_site_symmetry_1
_geom_angle_site_symmetry_3
Hf2 Hf2 Hf2 90.0 22_655 6_565
Hf2 Hf2 Hf1 60.217(9) 22_655 .
Hf1 Hf2 Hf2 59.871(9) 17_665 22_655
Hf1 Hf2 Hf2 60.338(12) 17_665 6_565
Hf1 Hf2 Hf2 59.306(12) . 6_565
Hf1 Hf2 Hf1 89.765(16) 17_665 .
O8 Hf2 Hf2 109.06(18) 8_665 22_655
O8 Hf2 Hf2 110.79(14) 8_665 6_565
O8 Hf2 Hf1 73.63(16) 8_665 17_665
O8 Hf2 Hf1 163.39(16) 8_665 .
O8 Hf2 O1 75.5(2) 8_665 .
O8 Hf2 O5 115.7(3) 8_665 .
O1 Hf2 Hf2 164.1(2) . 6_565
O1 Hf2 Hf2 74.1(2) . 22_655
O1 Hf2 Hf1 109.9(2) . 17_665
O1 Hf2 Hf1 110.74(18) . .
O1 Hf2 O5 73.7(3) . .
O5 Hf2 Hf2 114.38(19) . 22_655
O5 Hf2 Hf2 114.1(2) . 6_565
O5 Hf2 Hf1 80.9(2) . .
O5 Hf2 Hf1 170.7(2) . 17_665
O2 Hf2 Hf2 89.3(3) . 6_565
O2 Hf2 Hf2 35.7(2) . 22_655
O2 Hf2 Hf1 35.0(2) . .
O2 Hf2 Hf1 90.0(3) . 17_665
O2 Hf2 O8 141.3(3) . 8_665
O2 Hf2 O1 77.8(3) . .
O2 Hf2 O5 82.2(3) . .
O2 Hf2 O3 108.5(4) . 6_565
O2 Hf2 O6 144.6(3) . .
O3 Hf2 Hf2 89.6(3) . 22_655
O3 Hf2 Hf2 89.6(3) 6_565 22_655
O3 Hf2 Hf2 34.80(15) 6_565 6_565
O3 Hf2 Hf2 35.75(19) . 6_565
O3 Hf2 Hf1 90.5(2) . 17_665
O3 Hf2 Hf1 35.4(2) 6_565 17_665
O3 Hf2 Hf1 34.1(2) . .
O3 Hf2 Hf1 88.7(2) 6_565 .
O3 Hf2 O8 78.1(2) 6_565 8_665
O3 Hf2 O8 143.3(2) . 8_665
O3 Hf2 O1 142.1(2) 6_565 .
O3 Hf2 O1 141.1(2) . .
O3 Hf2 O5 81.9(3) . .
O3 Hf2 O5 143.4(3) 6_565 .
O3 Hf2 O2 69.1(3) . .
O3 Hf2 O3 70.5(3) . 6_565
O3 Hf2 O6 83.3(4) . .
O3 Hf2 O6 81.0(4) 6_565 .
O6 Hf2 Hf2 79.8(3) . 6_565
O6 Hf2 Hf2 169.7(3) . 22_655
O6 Hf2 Hf1 114.9(2) . .
O6 Hf2 Hf1 112.6(2) . 17_665
O6 Hf2 O8 73.3(3) . 8_665
O6 Hf2 O1 116.0(4) . .
O6 Hf2 O5 72.1(3) . .
O7 Hf2 Hf2 33.5(2) . 22_655
O7 Hf2 Hf2 87.7(4) . 6_565
O7 Hf2 Hf1 87.2(3) . .
O7 Hf2 Hf1 34.0(3) . 17_665
O7 Hf2 O8 78.7(3) . 8_665
O7 Hf2 O1 79.1(4) . .
O7 Hf2 O5 144.0(3) . .
O7 Hf2 O2 69.1(3) . .
O7 Hf2 O3 69.3(4) . 6_565
O7 Hf2 O3 106.4(5) . .
O7 Hf2 O6 142.7(3) . .
Hf2 Hf1 Hf2 59.570(18) . 22_655
Hf2 Hf1 Hf2 60.359(13) 6_565 .
Hf2 Hf1 Hf2 90.238(16) 17_665 .
Hf2 Hf1 Hf2 60.359(13) 17_665 22_655
Hf2 Hf1 Hf2 60.263(19) 17_665 6_565
Hf2 Hf1 Hf2 90.239(16) 6_565 22_655
O9 Hf1 Hf2 111.24(17) 3_644 .
O9 Hf1 Hf2 74.29(14) 3_644 6_565
O9 Hf1 Hf2 109.70(16) 3_644 17_665
O9 Hf1 Hf2 164.52(14) 24 .
O9 Hf1 Hf2 109.70(16) 24 6_565
O9 Hf1 Hf2 164.52(14) 3_644 22_655
O9 Hf1 Hf2 74.29(14) 24 17_665
O9 Hf1 Hf2 111.24(17) 24 22_655
O9 Hf1 O9 74.5(4) 24 3_644
O9 Hf1 O4 115.2(3) 3_644 22_655
O9 Hf1 O4 74.0(3) 24 22_655
O9 Hf1 O4 115.2(3) 24 .
O9 Hf1 O4 74.0(2) 3_644 .
O2 Hf1 Hf2 35.12(16) . 22_655
O2 Hf1 Hf2 90.4(3) . 17_665
O2 Hf1 Hf2 90.4(3) . 6_565
O2 Hf1 Hf2 35.11(16) . .
O2 Hf1 O9 142.62(18) . 24
O2 Hf1 O9 142.62(18) . 3_644
O2 Hf1 O4 82.0(3) . 22_655
O2 Hf1 O4 82.0(3) . .
O3 Hf1 Hf2 90.9(2) . 17_665
O3 Hf1 Hf2 34.23(17) . .
O3 Hf1 Hf2 36.5(2) 22_655 17_665
O3 Hf1 Hf2 34.24(17) 22_655 22_655
O3 Hf1 Hf2 90.9(2) 22_655 6_565
O3 Hf1 Hf2 89.1(2) 22_655 .
O3 Hf1 Hf2 36.6(2) . 6_565
O3 Hf1 Hf2 89.1(2) . 22_655
O3 Hf1 O9 78.9(2) . 3_644
O3 Hf1 O9 142.6(2) 22_655 3_644
O3 Hf1 O9 78.9(2) 22_655 24
O3 Hf1 O9 142.6(2) . 24
O3 Hf1 O2 69.3(2) 22_655 .
O3 Hf1 O2 69.3(2) . .
O3 Hf1 O3 109.3(5) 22_655 .
O3 Hf1 O4 81.1(4) 22_655 22_655
O3 Hf1 O4 142.3(3) . 22_655
O3 Hf1 O4 81.1(4) . .
O3 Hf1 O4 142.3(3) 22_655 .
O4 Hf1 Hf2 170.5(2) 22_655 6_565
O4 Hf1 Hf2 113.98(17) 22_655 .
O4 Hf1 Hf2 80.2(2) 22_655 22_655
O4 Hf1 Hf2 80.2(2) . .
O4 Hf1 Hf2 113.8(3) . 6_565
O4 Hf1 Hf2 113.8(3) 22_655 17_665
O4 Hf1 Hf2 170.5(2) . 17_665
O4 Hf1 Hf2 113.98(17) . 22_655
O4 Hf1 O4 70.8(5) . 22_655
O7 Hf1 Hf2 87.6(3) 17_665 22_655
O7 Hf1 Hf2 33.91(16) 17_665 17_665
O7 Hf1 Hf2 87.6(3) 17_665 .
O7 Hf1 Hf2 33.91(16) 17_665 6_565
O7 Hf1 O9 79.2(3) 17_665 3_644
O7 Hf1 O9 79.2(3) 17_665 24
O7 Hf1 O2 106.8(5) 17_665 .
O7 Hf1 O3 70.3(3) 17_665 22_655
O7 Hf1 O3 70.3(3) 17_665 .
O7 Hf1 O4 144.0(3) 17_665 .
O7 Hf1 O4 144.0(3) 17_665 22_655
B2 O10 B2 118.5(10) 22_655 .
C10 O9 Hf1 132.2(5) . 4_565
C10 O8 Hf2 133.1(6) . 8_665
C1 O1 Hf2 132.6(7) . .
C13 O5 Hf2 120.3(8) . .
Hf2 O2 Hf2 108.6(4) . 22_655
Hf1 O2 Hf2 109.9(3) . .
Hf1 O2 Hf2 109.9(3) . 22_655
Hf2 O3 Hf2 109.5(3) . 6_565
Hf1 O3 Hf2 111.7(4) . .
Hf1 O3 Hf2 108.0(4) . 6_565
C13 O4 Hf1 122.5(7) . .
C14 O4 Hf1 112.3(9) . .
C14 O4 C13 123.4(10) . .
C15 O6 Hf2 117.9(12) . .
B1 O12 B2 120.7(10) . .
Hf2 O7 Hf2 113.0(5) . 22_655
Hf2 O7 Hf1 112.1(4) . 17_665
Hf2 O7 Hf1 112.1(4) 22_655 17_665
C11 C12 C6 120.1(7) . .
C9 C11 C12 121.8(8) . .
C11 C9 C10 121.7(8) . .
C11 C9 C8 118.9(8) . .
C8 C9 C10 119.4(7) . .
O9 C10 O8 126.7(8) . .
O9 C10 C9 117.4(7) . .
O8 C10 C9 115.9(8) . .
O1 C1 O1 126.4(11) . 22_655
O1 C1 C2 116.8(6) . .
O1 C1 C2 116.8(6) 22_655 .
C3 C2 C1 119.5(6) 22_655 .
C3 C2 C1 119.5(6) . .
C3 C2 C3 120.8(13) . 22_655
C12 C6 C7 117.6(8) . .
C12 C6 B2 124.0(8) . .
C7 C6 B2 118.4(8) . .
C7 C8 C9 119.8(9) . .
C4 C5 C4 121.4(15) . 22_655
C4 C5 B1 119.2(7) . .
C4 C5 B1 119.2(7) 22_655 .
C2 C3 C4 118.5(13) . .
C8 C7 C6 121.6(9) . .
C5 C4 C3 120.1(14) . .
O12 B1 O12 117.3(12) 22_655 .
O12 B1 C5 120.7(7) . .
O12 B1 C5 120.7(7) 22_655 .
O10 B2 O12 119.3(10) . .
O10 B2 C6 119.0(9) . .
O10 B2 O11 97.3(8) . .
O12 B2 C6 115.0(8) . .
O12 B2 O11 99.5(10) . .
C6 B2 O11 99.2(10) . .
O6 C15 O6 144(2) 6_565 .
O5 C13 O4 134.2(13) . .
C14 O11 B2 121.1(12) 6_566 .
O4 C14 C14 111.5(8) . 22_655
O11 C14 O4 107.9(15) 6_566 .
O11 C14 C14 120.6(10) 6_566 22_655
loop_
_geom_bond_atom_site_label_1
_geom_bond_atom_site_label_2
_geom_bond_distance
_geom_bond_site_symmetry_2
Hf2 Hf2 3.4794(11) 22_655
Hf2 Hf2 3.5030(7) 6_565
Hf2 Hf1 3.5021(5) .
Hf2 Hf1 3.4657(6) 17_665
Hf2 O8 2.183(5) 8_665
Hf2 O1 2.185(6) .
Hf2 O5 2.226(7) .
Hf2 O2 2.142(6) .
Hf2 O3 2.120(5) .
Hf2 O3 2.170(7) 6_565
Hf2 O6 2.179(9) .
Hf2 O7 2.087(5) .
Hf1 O9 2.186(6) 24
Hf1 O9 2.186(6) 3_644
Hf1 O2 2.136(7) .
Hf1 O3 2.112(8) 22_655
Hf1 O3 2.113(8) .
Hf1 O4 2.186(7) 22_655
Hf1 O4 2.186(7) .
Hf1 O7 2.091(10) 17_665
O10 B2 1.367(12) 22_655
O10 B2 1.367(12) .
O9 C10 1.259(11) .
O8 C10 1.269(9) .
O1 C1 1.279(9) .
O5 C13 1.501(14) .
O4 C13 1.516(16) .
O4 C14 1.436(19) .
O6 C15 1.437(10) .
O12 B1 1.361(11) .
O12 B2 1.400(12) .
C12 C11 1.369(11) .
C12 C6 1.383(12) .
C11 C9 1.368(11) .
C9 C10 1.497(11) .
C9 C8 1.379(13) .
C1 C2 1.498(16) .
C2 C3 1.394(15) .
C2 C3 1.394(15) 22_655
C6 C7 1.399(12) .
C6 B2 1.584(14) .
C8 C7 1.367(14) .
C5 C4 1.361(15) .
C5 C4 1.361(15) 22_655
C5 B1 1.566(19) .
C3 C4 1.397(13) .
B2 O11 1.89(2) .
O11 C14 1.264(19) 6_566
C14 C14 1.48(3) 22_655
loop_
_smtbx_masks_void_nr
_smtbx_masks_void_average_x
_smtbx_masks_void_average_y
_smtbx_masks_void_average_z
_smtbx_masks_void_volume
_smtbx_masks_void_count_electrons
1 -0.779 -0.848 -0.222 17729.5 2617.1
