#------------------------------------------------------------------------------
#$Date: 2019-05-08 01:32:12 +0300 (Wed, 08 May 2019) $
#$Revision: 214980 $
#$URL: file:///home/coder/svn-repositories/cod/cif/1/55/09/1550989.cif $
#------------------------------------------------------------------------------
#
# This file is available in the Crystallography Open Database (COD),
# http://www.crystallography.net/
#
# All data on this site have been placed in the public domain by the
# contributors.
#
data_1550989
loop_
_publ_author_name
'Kim, Hyehyun'
'Kim, Dongwook'
'Moon, Dohyun'
'Choi, Yong Nam'
'Baek, Seung Bin'
'Lah, Myoung Soo'
_publ_section_title
;
 Symmetry-guided syntheses of mixed-linker Zr metal-organic frameworks
 with precise linker locations
;
_journal_name_full               'Chemical Science'
_journal_paper_doi               10.1039/C9SC01301F
_journal_year                    2019
_chemical_formula_sum            'C64 H50 O43 Zr6'
_chemical_formula_weight         2054.36
_space_group_crystal_system      tetragonal
_space_group_IT_number           128
_space_group_name_Hall           '-P 4 2n'
_space_group_name_H-M_alt        'P 4/m n c'
_symmetry_space_group_name_Hall  '-P 4 2n'
_symmetry_space_group_name_H-M   'P 4/m n c'
_atom_sites_solution_hydrogens   geom
_audit_creation_method           SHELXL-2014/7
_audit_update_record
;
2019-02-08 deposited with the CCDC.    2019-05-07 downloaded from the CCDC.
;
_cell_angle_alpha                90
_cell_angle_beta                 90
_cell_angle_gamma                90
_cell_formula_units_Z            2
_cell_length_a                   17.439(3)
_cell_length_b                   17.439(3)
_cell_length_c                   22.592(5)
_cell_measurement_reflns_used    82498
_cell_measurement_temperature    250(2)
_cell_measurement_theta_max      27.999
_cell_measurement_theta_min      1.776
_cell_volume                     6871(2)
_computing_cell_refinement       HKL3000
_computing_data_collection       'PAL BL2D-SMDC Program'
_computing_data_reduction        HKL3000
_computing_molecular_graphics    ORTEP
_computing_publication_material  CIFTAB
_computing_structure_refinement  SHELXL
_computing_structure_solution    SHELXS
_diffrn_ambient_temperature      250(2)
_diffrn_measured_fraction_theta_full 0.999
_diffrn_measured_fraction_theta_max 1.000
_diffrn_measurement_device_type  'ADSC Q210 CCD area detector'
_diffrn_measurement_method       'omega scan'
_diffrn_radiation_type           synchrotron
_diffrn_radiation_wavelength     0.700
_diffrn_reflns_av_R_equivalents  0.0645
_diffrn_reflns_av_unetI/netI     0.0281
_diffrn_reflns_Laue_measured_fraction_full 0.999
_diffrn_reflns_Laue_measured_fraction_max 1.000
_diffrn_reflns_limit_h_max       23
_diffrn_reflns_limit_h_min       -23
_diffrn_reflns_limit_k_max       23
_diffrn_reflns_limit_k_min       -23
_diffrn_reflns_limit_l_max       30
_diffrn_reflns_limit_l_min       -30
_diffrn_reflns_number            60100
_diffrn_reflns_point_group_measured_fraction_full 0.999
_diffrn_reflns_point_group_measured_fraction_max 1.000
_diffrn_reflns_theta_full        24.835
_diffrn_reflns_theta_max         27.999
_diffrn_reflns_theta_min         1.776
_diffrn_source                   'PLSII 2D bending magnet'
_exptl_absorpt_coefficient_mu    0.469
_exptl_absorpt_correction_T_max  0.973
_exptl_absorpt_correction_T_min  0.971
_exptl_absorpt_correction_type   multi-scan
_exptl_absorpt_process_details   HKL3000
_exptl_crystal_colour            colorless
_exptl_crystal_density_diffrn    0.993
_exptl_crystal_description       block
_exptl_crystal_F_000             2036
_exptl_crystal_size_max          0.062
_exptl_crystal_size_mid          0.060
_exptl_crystal_size_min          0.058
_refine_diff_density_max         5.562
_refine_diff_density_min         -1.486
_refine_diff_density_rms         0.163
_refine_ls_extinction_coef       0.0051(9)
_refine_ls_extinction_expression Fc^*^=kFc[1+0.001xFc^2^\l^3^/sin(2\q)]^-1/4^
_refine_ls_extinction_method     'SHELXL-2014/7 (Sheldrick 2014'
_refine_ls_goodness_of_fit_ref   1.080
_refine_ls_hydrogen_treatment    constr
_refine_ls_matrix_type           full
_refine_ls_number_parameters     292
_refine_ls_number_reflns         4460
_refine_ls_number_restraints     266
_refine_ls_restrained_S_all      1.067
_refine_ls_R_factor_all          0.0842
_refine_ls_R_factor_gt           0.0710
_refine_ls_shift/su_max          0.001
_refine_ls_shift/su_mean         0.000
_refine_ls_structure_factor_coef Fsqd
_refine_ls_weighting_details
'w=1/[\s^2^(Fo^2^)+(0.1672P)^2^] where P=(Fo^2^+2Fc^2^)/3'
_refine_ls_weighting_scheme      calc
_refine_ls_wR_factor_gt          0.2047
_refine_ls_wR_factor_ref         0.2150
_reflns_Friedel_coverage         0.000
_reflns_number_gt                3501
_reflns_number_total             4460
_reflns_threshold_expression     'I > 2\s(I)'
_cod_data_source_file            c9sc01301f2.cif
_cod_data_source_block           p17_024ttg_sq
_cod_depositor_comments
;
The following automatic conversions were performed:

'_exptl_absorpt_correction_type' value 'Multi-scan' changed to
'multi-scan' according to
/home/data/users/saulius/crontab/automatic-downloads/rss-feeds/RSC/lib/dictionaries/cif_core.dic
dictionary named 'cif_core.dic' version 2.4.2 from 2011-04-26.

Automatic conversion script
Id: cif_fix_values 4973 2017-02-22 13:04:09Z antanas 
;
_cod_database_code               1550989
_shelx_shelxl_version_number     2014/7
_shelx_space_group_comment
;
The symmetry employed for this shelxl refinement is uniquely defined
by the following loop, which should always be used as a source of
symmetry information in preference to the above space-group names.
They are only intended as comments.
;
_shelx_estimated_absorpt_t_min   0.972
_shelx_estimated_absorpt_t_max   0.973
_shelx_res_file
;

    p17_024ttg_sq.res created by SHELXL-2014/7


TITL P17_024Ttg in P4/mnc [(Zr)3/4(O)1/2(OH)1/2(ndc)1/2(dobdc)1/8(H2O)7/8](dobdc
CELL 0.70000  17.4390  17.4390  22.5920  90.000  90.000  90.000
ZERR    2.00   0.0025   0.0025   0.0045   0.000   0.000   0.000
LATT 1
SYMM -X, -Y, Z
SYMM -Y, X, Z
SYMM Y, -X, Z
SYMM 0.5-X, 0.5+Y, 0.5-Z
SYMM 0.5+X, 0.5-Y, 0.5-Z
SYMM 0.5+Y, 0.5+X, 0.5-Z
SYMM 0.5-Y, 0.5-X, 0.5-Z
SFAC C  H  O  Zr
DISP C          0.0030         0.0016          10.98
DISP O          0.0105         0.0059          30.82
DISP Zr        -3.5084         0.5477        2341.16
UNIT 128 100 86 12 ! [Zr12O8(OH)8(ndc)8(dobdc)2(H2O)14](dobdc)
OMIT  -3.00  56.00
L.S. 40 0    6
ACTA
BOND
FMAP 2
PLAN 20
dang 2.40 0.01 c26 c22
dang 2.40 0.01 c25 c21
dang 2.40 0.01 c24 c26
dang 2.40 0.01 c23 c25
dang 2.40 0.01 c22 c24
dang 2.40 0.01 c21 c23
dfix 1.39 0.01 c26 c21
dfix 1.39 0.01 c25 c26
dfix 1.39 0.01 c24 c25
dfix 1.39 0.01 c23 c24
dfix 1.39 0.01 c22 c23
dfix 1.39 0.01 c21 c22
HTAB O1S O11
SIZE 0.062 0.060 0.058
dang 1.5 h1s h1s_$5
DANG 2.45 O13  C12
DANG 2.45 C12  C14
DANG 2.45 C11  C13
DANG 2.40 O12  C12
DANG 2.40 O11  C12
DANG 2.35 O11  O12
DFIX 1.40 0.01 O13  C13
DFIX 1.39 0.01 C13  C14
DFIX 1.39 0.01 C12  C14_$10
DFIX 1.39 0.01 C12  C13
DFIX 1.45 0.01 C11  C12
DFIX 1.35 O12  C11
DFIX 1.35 O11  C11
FLAT O11  O12  C11  C12
FLAT C11  C12  C13  C14  O13  C14_$9 C12_$10
EQIV $10  y+1/2, x-1/2, -z+1/2
EQIV $9   x, y, -z+2
EQIV $5   x, y, -z
DELU 0.05 C21 C22 O25 C23 C24 C25 O26 C26 C27 C28
DELU 0.05 O23 C28 O24 C24
DELU 0.05 O21 C27 O22 C21
SIMU 0.05 C21 C22 O25 C23 C24 C25 O26 C26 C27 C28
SIMU 0.05 O23 C28 O24 C24
SIMU 0.05 O21 C27 O22 C21
ISOR 0.05  C22 C23 C24 C25 C26 C28
ISOR 0.05  O23 O24 O25 O26
ISOR 0.005 O21 O22 C27 C21
FLAT 0.01 C21 C22 C23 O25
FLAT 0.01 C24 C25 C26 O26
FLAT 0.01 C21 C22 C23 C24 C25 C26 C27 C28 O25 O26
FLAT 0.01 O21 O22 C27 C21
FLAT 0.01 O23 O24 C28 C24
DFIX 1.35 0.01 C27 O21
DFIX 1.35 0.01 C27 O22
DFIX 1.45 0.01 C27 C21
DFIX 1.35 0.01 C28 O23
DFIX 1.35 0.01 C28 O24
DFIX 1.45 0.01 C28 C24
DFIX 1.40 0.01 C22 O25
DFIX 1.40 0.01 C25 O26

DANG 2.45 0.01 C24 O26
DANG 2.45 0.01 C26 O26

DANG 2.45 0.01 C21 O25
DANG 2.45 0.01 C23 O25
DANG 2.35 0.01 O21 O22
DANG 2.35 0.01 O23 O24
DANG 2.40 0.01 C21 O21
DANG 2.40 0.01 C21 O22
DANG 2.40 0.01 C24 O23
DANG 2.40 0.01 C24 O24
DANG 2.45 0.01 C22 C27
DANG 2.45 0.01 C26 C27
DANG 2.45 0.01 C23 C28
DANG 2.45 0.01 C25 C28
FREE Zr1  Zr2
TEMP -23
ABIN
WGHT    0.167200
EXTI    0.005130
FVAR       0.25021   0.30008
ZR1   4    1.000000    0.000000   -0.108420    10.25000    0.01994    0.01994 =
         0.00719    0.00000    0.00000    0.00000
ZR2   4    0.884096    0.084452    0.000000    10.50000    0.02774    0.03355 =
         0.01124    0.00000    0.00000    0.01084
O1M   3    0.984330    0.100111   -0.052260    11.00000    0.03369    0.14008 =
         0.04451   -0.06394    0.01062   -0.01759
O1    3    1.062070    0.088385   -0.157606    11.00000    0.03936    0.03511 =
         0.01640    0.00419    0.00256   -0.01116
O2    3    1.116594    0.162541   -0.088685    11.00000    0.07825    0.05896 =
         0.01618    0.00219    0.00177   -0.04089
C1    1    1.104267    0.142419   -0.141540    11.00000    0.05776    0.04463 =
         0.01546    0.00490    0.00434   -0.02451
C2    1    1.196088    0.240856   -0.175677    11.00000    0.11965    0.10114 =
         0.01360    0.00922   -0.00097   -0.08027
AFIX  43
H2    2    1.206879    0.251319   -0.135720    11.00000   -1.20000
AFIX   0
C3    1    1.142410    0.187560   -0.189169    11.00000    0.09466    0.08568 =
         0.01819    0.00839    0.00148   -0.06033
C4    1    1.124539    0.171309   -0.249251    11.00000    0.12027    0.12116 =
         0.02537    0.00240    0.00551   -0.09596
AFIX  43
H4    2    1.087126    0.134418   -0.258537    11.00000   -1.20000
AFIX   0
C5    1    1.161770    0.209333   -0.293263    11.00000    0.13337    0.13838 =
         0.01370    0.00768    0.00210   -0.10021
AFIX  43
H5    2    1.149075    0.199026   -0.332909    11.00000   -1.20000
AFIX   0
C6    1    1.219427    0.264277   -0.280415    11.00000    0.11599    0.10883 =
         0.01667    0.00700    0.00246   -0.08745
PART 1
O1S   3    0.861126    0.205303    0.000000    10.37500    0.05613    0.04817 =
         0.04012    0.00000    0.00000    0.01629
AFIX 147
H1S   2    0.845276    0.218440    0.033124    10.25000   -1.50000
AFIX   0
O11   3    0.870992    0.305134    0.090714    10.25000    0.10927    0.04265 =
         0.02859   -0.02076   -0.00767    0.02475
O12   3    0.956761    0.233158    0.139279    10.25000    0.04218    0.06692 =
         0.05313   -0.04309   -0.00320    0.02137
C11   1    0.907218    0.287163    0.139489    10.25000    0.18341    0.02628 =
         0.02967   -0.00828   -0.02513    0.02497
C12   1    0.877635    0.318680    0.195178    10.25000    0.06281    0.03125 =
         0.02873   -0.01063    0.00580    0.01603
C13   1    0.902910    0.292239    0.249399    10.25000    0.04136    0.04708 =
         0.06047   -0.00436   -0.00341    0.00494
O13   3    0.960354    0.236363    0.253406    10.25000    0.04774    0.09083 =
         0.04764    0.00352    0.00684    0.02765
C14   1    0.875549    0.321987    0.302176    10.25000    0.05243    0.08339 =
         0.02465    0.00688   -0.01181    0.01987
AFIX  43
H14   2    0.896426    0.303673    0.337836    10.25000   -1.20000
AFIX   0
PART 2
O21   3    0.880581    0.213747    0.000000    10.12500    0.01741    0.01055 =
         0.01793    0.00000    0.00000    0.00257
O22   3    0.932430    0.259213    0.089330    10.12500    0.04787    0.03913 =
         0.03069   -0.02533   -0.00307    0.01035
O23   3    0.641505    0.525549    0.117196    10.12500    0.18989    0.24855 =
         0.12162   -0.08542   -0.05982    0.18178
O24   3    0.588348    0.485896    0.026513    10.12500    0.09337    0.08384 =
         0.18608   -0.07448   -0.04919    0.03638
O25   3    0.878535    0.365254    0.141086    10.12500    0.08076    0.20685 =
         0.23400    0.00850   -0.07242   -0.01544
O26   3    0.641820    0.376292   -0.027801    10.12500    0.17357    0.20333 =
         0.14693   -0.07146   -0.03604    0.06549
C21   1    0.817826    0.317274    0.051076    10.12500    0.03014    0.02359 =
         0.02979    0.00000    0.00148    0.00397
C22   1    0.818821    0.368270    0.098713    10.12500    0.06492    0.04236 =
         0.05924   -0.02563    0.01781    0.01893
C23   1    0.760256    0.421811    0.103667    10.12500    0.05713    0.03356 =
         0.08752   -0.01044    0.01147    0.01041
AFIX  43
H23   2    0.760122    0.456453    0.135544    10.12500   -1.20000
AFIX   0
C24   1    0.702366    0.424595    0.062278    10.12500    0.09833    0.05082 =
         0.06889   -0.01488   -0.01215    0.01771
C25   1    0.701283    0.373827    0.014875    10.12500    0.11455    0.12508 =
         0.11124   -0.03817   -0.00090    0.06153
C26   1    0.760035    0.319933    0.009835    10.12500    0.10061    0.05673 =
         0.08648   -0.03027   -0.00129    0.03779
C27   1    0.878771    0.261556    0.046413    10.12500    0.01585    0.01160 =
         0.01096   -0.00299    0.00128    0.00654
C28   1    0.641814    0.480687    0.068771    10.12500    0.10775    0.07109 =
         0.11482   -0.02143   -0.03288    0.03922
PART 0
O2S   3    0.757119    0.062060    0.000000    10.50000    0.02646    0.09494 =
         0.04439    0.00000    0.00000    0.01207
HKLF 4

REM  P17_024Ttg in P4/mnc [(Zr)3/4(O)1/2(OH)1/2(ndc)1/2(dobdc)1/8(H2O)7/8](dobdc
REM R1 =  0.0710 for    3501 Fo > 4sig(Fo)  and  0.0842 for all    4460 data
REM    292 parameters refined using    266 restraints

END

WGHT      0.1671      0.0000

REM Highest difference peak  5.562,  deepest hole -1.486,  1-sigma level  0.163
Q1    1   0.9191  0.1172  0.0000  10.50000  0.05    5.56
Q2    1   0.9985  0.0796 -0.0432  11.00000  0.05    1.13
Q3    1   0.7418  0.2760  0.0333  11.00000  0.05    0.90
Q4    1   0.9860  0.1262 -0.0564  11.00000  0.05    0.90
Q5    1   0.7821  0.1248  0.0000  10.50000  0.05    0.81
Q6    1   0.9271  0.2546  0.0000  10.50000  0.05    0.79
Q7    1   0.9265  0.2352  0.0000  10.50000  0.05    0.75
Q8    1   0.7094  0.0529  0.0390  11.00000  0.05    0.71
Q9    1   0.9154  0.2051  0.0000  10.50000  0.05    0.68
Q10   1   0.7739  0.0399  0.0000  10.50000  0.05    0.68
Q11   1   0.9545  0.3016  0.0750  11.00000  0.05    0.68
Q12   1   1.0870  0.0628 -0.1567  11.00000  0.05    0.67
Q13   1   1.1595  0.1190 -0.0903  11.00000  0.05    0.67
Q14   1   0.7086  0.2666  0.0000  10.50000  0.05    0.64
Q15   1   0.9752  0.3023  0.0843  11.00000  0.05    0.64
Q16   1   0.9048  0.2465  0.0888  11.00000  0.05    0.61
Q17   1   0.9429  0.2450  0.1496  11.00000  0.05    0.58
Q18   1   0.9077  0.2688  0.1394  11.00000  0.05    0.57
Q19   1   0.9600  0.3040  0.1170  11.00000  0.05    0.55
Q20   1   0.6436  0.4678  0.1373  11.00000  0.05    0.55
;
_shelx_res_checksum              18969
_shelx_fab_file
;
    0    0    2     41.61      0.00
    0    0    4    -15.53      0.00
    0    0    6    -38.04      0.00
    0    0    8    -19.71      0.00
    0    0   10     15.03      0.00
    0    0   12     11.32      0.00
    0    0   14      6.40      0.00
    0    0   16     -4.87      0.00
    0    0   18     -2.32      0.00
    0    0   20      1.72      0.00
    0    0   22      2.96      0.00
    0    0   24      1.65      0.00
    0    0   26     -4.37      0.00
    0    0   28     -2.73      0.00
    0    0   30     -3.23      0.00
    0    1   29     -0.30      0.00
    0    1   27      0.65      0.00
    0    1   25     -0.08      0.00
    0    1   23      0.43      0.00
    0    1   21      0.63      0.00
    0    1   19     -0.60      0.00
    0    1   17     -0.94      0.00
    0    1   15      0.10      0.00
    0    1   13      1.37      0.00
    0    1   11      2.70      0.00
    0    1    9      1.39      0.00
    0    1    7     -5.52      0.00
    0    1    5     -9.51      0.00
    0    1    3     -4.00      0.00
    0    2   30      0.46      0.00
    0    2   28      1.44      0.00
    0    2   26      1.18      0.00
    0    2   24      1.21      0.00
    0    2   22     -0.02      0.00
    0    2   20     -0.20      0.00
    0    2   18     -0.35      0.00
    0    2   16     -0.77      0.00
    0    2   14      3.12      0.00
    0    2   12      3.88      0.00
    0    2   10      6.06      0.00
    0    2    8     -3.25      0.00
    0    2    6     -7.22      0.00
    0    2    4    -13.02      0.00
    0    2    2    -19.49      0.00
    0    2    0     22.63      0.00
    0    3   29     -1.32      0.00
    0    3   27      1.39      0.00
    0    3   25     -1.05      0.00
    0    3   23      1.28      0.00
    0    3   21      0.63      0.00
    0    3   19     -1.03      0.00
    0    3   17     -3.19      0.00
    0    3   15     -0.78      0.00
    0    3   13      3.39      0.00
    0    3   11      8.07      0.00
    0    3    9      2.15      0.00
    0    3    7    -15.79      0.00
    0    3    5    -13.16      0.00
    0    3    3     -1.96      0.00
    0    3    1     23.04      0.00
    0    4   28      0.77      0.00
    0    4   26      0.89      0.00
    0    4   24      0.11      0.00
    0    4   22     -0.21      0.00
    0    4   20     -0.04      0.00
    0    4   18      1.75      0.00
    0    4   16      1.05      0.00
    0    4   14     -1.57      0.00
    0    4   12     -3.29      0.00
    0    4   10     -2.19      0.00
    0    4    8      6.13      0.00
    0    4    6     15.64      0.00
    0    4    4     12.82      0.00
    0    4    2     -9.57      0.00
    0    4    0    -27.05      0.00
    0    5   29      0.27      0.00
    0    5   27      2.35      0.00
    0    5   25     -0.32      0.00
    0    5   23     -1.14      0.00
    0    5   21     -2.33      0.00
    0    5   19     -1.73      0.00
    0    5   17      0.85      0.00
    0    5   15      0.11      0.00
    0    5   13     -1.77      0.00
    0    5   11     -0.50      0.00
    0    5    9     -1.97      0.00
    0    5    7      3.54      0.00
    0    5    3      5.46      0.00
    0    5    1     -4.10      0.00
    0    5    5      6.30      0.00
    0    6   28     -0.62      0.00
    0    6   26     -1.59      0.00
    0    6   24      0.87      0.00
    0    6   22      0.95      0.00
    0    6   20     -1.71      0.00
    0    6   18     -1.48      0.00
    0    6   16     -1.19      0.00
    0    6   14      0.48      0.00
    0    6   12      3.12      0.00
    0    6   10      3.86      0.00
    0    6    8     -4.73      0.00
    0    6    6     -7.55      0.00
    0    6    4      1.00      0.00
    0    6    2      4.99      0.00
    0    6    0      3.58      0.00
    0    7   27     -0.63      0.00
    0    7   25     -0.31      0.00
    0    7   23     -0.74      0.00
    0    7   21     -0.61      0.00
    0    7   19      0.53      0.00
    0    7   17      2.34      0.00
    0    7   15     -0.90      0.00
    0    7   13     -3.63      0.00
    0    7   11     -4.71      0.00
    0    7    9     -2.30      0.00
    0    7    7      5.98      0.00
    0    7    5      5.33      0.00
    0    7    3     -0.22      0.00
    0    7    1    -14.26      0.00
    0    8   28      0.15      0.00
    0    8   26      0.40      0.00
    0    8   24      0.28      0.00
    0    8   22     -0.14      0.00
    0    8   20     -1.78      0.00
    0    8   18     -1.09      0.00
    0    8   16      2.23      0.00
    0    8   14      2.31      0.00
    0    8   12      0.05      0.00
    0    8   10     -0.38      0.00
    0    8    8     -1.74      0.00
    0    8    6      1.35      0.00
    0    8    4      3.74      0.00
    0    8    2     -0.78      0.00
    0    8    0     -5.69      0.00
    0    9   27     -0.93      0.00
    0    9   25      0.57      0.00
    0    9   23      0.87      0.00
    0    9   21     -0.30      0.00
    0    9   19     -0.57      0.00
    0    9   17     -1.56      0.00
    0    9   15     -1.01      0.00
    0    9   13      2.27      0.00
    0    9   11      3.76      0.00
    0    9    9      2.35      0.00
    0    9    7     -3.07      0.00
    0    9    5     -0.88      0.00
    0    9    3      1.10      0.00
    0    9    1      6.64      0.00
    0   10   26     -0.52      0.00
    0   10   24     -0.15      0.00
    0   10   22      0.52      0.00
    0   10   20      1.30      0.00
    0   10   18      0.21      0.00
    0   10   16      1.52      0.00
    0   10   14     -0.18      0.00
    0   10   12     -3.56      0.00
    0   10   10     -1.09      0.00
    0   10    8      1.23      0.00
    0   10    6      3.76      0.00
    0   10    4      1.33      0.00
    0   10    2     -5.71      0.00
    0   10    0     -6.48      0.00
    0   11   25     -0.16      0.00
    0   11   23      0.38      0.00
    0   11   21      0.34      0.00
    0   11   19     -0.69      0.00
    0   11   17     -1.15      0.00
    0   11   15      1.05      0.00
    0   11   13      1.94      0.00
    0   11   11      0.14      0.00
    0   11    9     -1.39      0.00
    0   11    7     -1.53      0.00
    0   11    5     -0.31      0.00
    0   11    3     -0.30      0.00
    0   11    1      1.39      0.00
    0   12   26     -0.41      0.00
    0   12   24      0.37      0.00
    0   12   22      0.24      0.00
    0   12   20      0.22      0.00
    0   12   18     -0.62      0.00
    0   12   16     -1.66      0.00
    0   12   14     -1.17      0.00
    0   12   12      0.10      0.00
    0   12   10      3.83      0.00
    0   12    8     -0.66      0.00
    0   12    6     -1.47      0.00
    0   12    4     -0.21      0.00
    0   12    2      0.98      0.00
    0   12    0      6.97      0.00
    0   13   25     -1.36      0.00
    0   13   23     -1.90      0.00
    0   13   21      1.69      0.00
    0   13   19      2.13      0.00
    0   13   17      1.06      0.00
    0   13   15     -0.10      0.00
    0   13   13     -3.53      0.00
    0   13   11     -3.12      0.00
    0   13    9     -1.30      0.00
    0   13    7      1.98      0.00
    0   13    5      2.16      0.00
    0   13    3      0.14      0.00
    0   13    1     -0.53      0.00
    0   14   24     -0.05      0.00
    0   14   22     -0.33      0.00
    0   14   20     -0.69      0.00
    0   14   18     -0.31      0.00
    0   14   16      0.15      0.00
    0   14   14      2.12      0.00
    0   14   12      1.65      0.00
    0   14   10     -0.56      0.00
    0   14    8     -2.34      0.00
    0   14    6     -1.05      0.00
    0   14    4     -0.76      0.00
    0   14    2     -1.53      0.00
    0   14    0      1.32      0.00
    0   15   23      0.00      0.00
    0   15   21      2.00      0.00
    0   15   19      0.57      0.00
    0   15   17     -0.39      0.00
    0   15   15      0.21      0.00
    0   15   13     -0.19      0.00
    0   15   11      2.13      0.00
    0   15    9      1.74      0.00
    0   15    7     -0.71      0.00
    0   15    5     -1.03      0.00
    0   15    3     -1.03      0.00
    0   15    1      2.32      0.00
    0   16   22     -0.89      0.00
    0   16   20      1.30      0.00
    0   16   18      0.27      0.00
    0   16   16      0.03      0.00
    0   16   14     -0.84      0.00
    0   16   12     -1.28      0.00
    0   16   10     -2.11      0.00
    0   16    8     -0.70      0.00
    0   16    6      2.75      0.00
    0   16    4      2.67      0.00
    0   16    2     -1.50      0.00
    0   16    0     -1.46      0.00
    0   17   19     -0.47      0.00
    0   17   17      2.20      0.00
    0   17   15      1.25      0.00
    0   17   13      1.40      0.00
    0   17   11      0.24      0.00
    0   17    9     -0.36      0.00
    0   17    7     -1.47      0.00
    0   17    5     -0.99      0.00
    0   17    3     -1.89      0.00
    0   17    1      1.88      0.00
    0   18   18     -1.39      0.00
    0   18   16     -0.82      0.00
    0   18   14      0.22      0.00
    0   18   12     -0.06      0.00
    0   18   10      0.71      0.00
    0   18    8      0.30      0.00
    0   18    6     -0.61      0.00
    0   18    4      0.08      0.00
    0   18    2     -0.69      0.00
    0   18    0      1.74      0.00
    0   19   17      2.16      0.00
    0   19   15     -1.54      0.00
    0   19   13     -1.61      0.00
    0   19   11      0.01      0.00
    0   19    9     -1.74      0.00
    0   19    7     -1.19      0.00
    0   19    5     -0.06      0.00
    0   19    3     -1.48      0.00
    0   19    1      0.35      0.00
    0   20   14      1.28      0.00
    0   20   12      0.09      0.00
    0   20   10      0.87      0.00
    0   20    8      1.98      0.00
    0   20    6     -0.75      0.00
    0   20    4     -1.25      0.00
    0   20    2     -1.55      0.00
    0   20    0     -3.17      0.00
    0   21   13      1.05      0.00
    0   21   11      2.43      0.00
    0   21    9      0.38      0.00
    0   21    7     -1.79      0.00
    0   21    5     -0.43      0.00
    0   21    3     -0.03      0.00
    0   21    1      3.58      0.00
    0   22   10     -0.19      0.00
    0   22    8      1.23      0.00
    0   22    6      1.07      0.00
    0   22    4     -0.72      0.00
    0   22    2      0.82      0.00
    0   22    0     -3.13      0.00
    0   23    5      3.17      0.00
    0   23    3      0.24      0.00
    0   23    1     -2.79      0.00
    1   23    5     -0.37      0.00
    1   23    4      1.04      0.00
    1   23    3      1.27      0.00
    1   23    2     -0.56      0.00
    1   23    1      2.35      0.00
    1   23    0      0.15      0.00
    1   22   10      0.02      0.00
    1   22    9     -1.21      0.00
    1   22    8     -0.21      0.00
    1   22    7      0.32      0.00
    1   22    6     -1.01      0.00
    1   22    5     -0.74      0.00
    1   22    4     -0.22      0.00
    1   22    3     -0.97      0.00
    1   22    2     -1.30      0.00
    1   22    1      0.42      0.00
    1   22    0     -1.12      0.00
    1   21   13     -0.85      0.00
    1   21   12      0.01      0.00
    1   21   11      1.08      0.00
    1   21   10      0.50      0.00
    1   21    9      0.37      0.00
    1   21    8     -0.68      0.00
    1   21    7      0.24      0.00
    1   21    6     -0.77      0.00
    1   21    5     -1.33      0.00
    1   21    4      0.75      0.00
    1   21    3     -0.10      0.00
    1   21    2      0.14      0.00
    1   21    1      0.21      0.00
    1   21    0      1.44      0.00
    1   20   15      0.19      0.00
    1   20   14      0.56      0.00
    1   20   13      0.38      0.00
    1   20   12      0.59      0.00
    1   20   11     -2.32      0.00
    1   20   10      0.18      0.00
    1   20    9     -0.69      0.00
    1   20    8     -1.00      0.00
    1   20    7      1.23      0.00
    1   20    6     -0.48      0.00
    1   20    5      1.34      0.00
    1   20    4      0.22      0.00
    1   20    3     -0.20      0.00
    1   20    2     -0.14      0.00
    1   20    1     -1.37      0.00
    1   20    0      1.03      0.00
    1   19   17      0.33      0.00
    1   19   16      0.81      0.00
    1   19   15      0.81      0.00
    1   19   14     -0.46      0.00
    1   19   13     -0.43      0.00
    1   19   12     -0.41      0.00
    1   19   11      0.18      0.00
    1   19   10      0.12      0.00
    1   19    9      0.09      0.00
    1   19    8     -0.27      0.00
    1   19    7      0.40      0.00
    1   19    6      0.59      0.00
    1   19    5     -0.03      0.00
    1   19    4      1.28      0.00
    1   19    3     -0.51      0.00
    1   19    2      1.82      0.00
    1   19    1     -0.01      0.00
    1   19    0     -1.41      0.00
    1   18   19     -0.62      0.00
    1   18   18      0.29      0.00
    1   18   17     -2.32      0.00
    1   18   16      0.10      0.00
    1   18   15     -0.84      0.00
    1   18   14     -0.58      0.00
    1   18   13      0.70      0.00
    1   18   12     -0.98      0.00
    1   18   11      1.68      0.00
    1   18   10     -1.47      0.00
    1   18    9      1.00      0.00
    1   18    8     -1.22      0.00
    1   18    7      0.53      0.00
    1   18    6      0.68      0.00
    1   18    5      0.21      0.00
    1   18    4      0.67      0.00
    1   18    3      0.15      0.00
    1   18    2      0.03      0.00
    1   18    1      0.17      0.00
    1   18    0     -0.48      0.00
    1   17   20     -0.90      0.00
    1   17   19     -0.09      0.00
    1   17   18     -0.53      0.00
    1   17   17     -0.75      0.00
    1   17   16      0.41      0.00
    1   17   15      1.27      0.00
    1   17   14      1.46      0.00
    1   17   13      1.06      0.00
    1   17   12      0.13      0.00
    1   17   11      2.10      0.00
    1   17   10      0.26      0.00
    1   17    9      2.04      0.00
    1   17    8      0.10      0.00
    1   17    7      1.46      0.00
    1   17    6     -1.51      0.00
    1   17    5      0.29      0.00
    1   17    4     -0.97      0.00
    1   17    3     -0.13      0.00
    1   17    2      1.52      0.00
    1   17    1      0.60      0.00
    1   17    0     -0.78      0.00
    1   16   22      0.09      0.00
    1   16   21     -0.31      0.00
    1   16   20      0.23      0.00
    1   16   19      0.49      0.00
    1   16   18      1.01      0.00
    1   16   17      0.47      0.00
    1   16   16      0.80      0.00
    1   16   15     -0.48      0.00
    1   16   14      0.42      0.00
    1   16   13     -1.18      0.00
    1   16   12     -0.85      0.00
    1   16   11     -1.01      0.00
    1   16   10     -1.33      0.00
    1   16    9     -1.79      0.00
    1   16    8     -1.70      0.00
    1   16    7      1.48      0.00
    1   16    6     -1.36      0.00
    1   16    5      1.92      0.00
    1   16    4     -0.95      0.00
    1   16    3      0.91      0.00
    1   16    2     -0.16      0.00
    1   16    1     -2.19      0.00
    1   16    0     -0.09      0.00
    1   15   23     -0.27      0.00
    1   15   22     -0.32      0.00
    1   15   21      0.30      0.00
    1   15   20     -0.50      0.00
    1   15   19      1.08      0.00
    1   15   18     -0.69      0.00
    1   15   17      0.22      0.00
    1   15   16     -0.27      0.00
    1   15   15     -0.60      0.00
    1   15   14     -0.46      0.00
    1   15   13     -1.25      0.00
    1   15   12     -0.53      0.00
    1   15   11     -0.48      0.00
    1   15   10      2.17      0.00
    1   15    9      0.36      0.00
    1   15    8      1.06      0.00
    1   15    7      1.41      0.00
    1   15    6     -1.63      0.00
    1   15    5      1.16      0.00
    1   15    4     -1.31      0.00
    1   15    3      0.30      0.00
    1   15    2      0.97      0.00
    1   15    1     -0.55      0.00
    1   15    0      0.50      0.00
    1   14   24     -0.59      0.00
    1   14   23      0.46      0.00
    1   14   22     -0.09      0.00
    1   14   21     -1.78      0.00
    1   14   20      0.05      0.00
    1   14   19     -1.64      0.00
    1   14   18      0.27      0.00
    1   14   17      0.23      0.00
    1   14   16     -0.66      0.00
    1   14   15      0.63      0.00
    1   14   14     -0.49      0.00
    1   14   13      2.46      0.00
    1   14   12     -0.35      0.00
    1   14   11      0.95      0.00
    1   14   10      1.47      0.00
    1   14    9     -0.73      0.00
    1   14    8      0.32      0.00
    1   14    7      0.07      0.00
    1   14    6     -1.38      0.00
    1   14    5     -0.54      0.00
    1   14    4     -1.41      0.00
    1   14    3      0.75      0.00
    1   14    2     -0.10      0.00
    1   14    1      0.25      0.00
    1   14    0     -0.44      0.00
    1   13   25      0.94      0.00
    1   13   24     -0.01      0.00
    1   13   23      1.34      0.00
    1   13   22     -0.19      0.00
    1   13   21     -0.43      0.00
    1   13   20      1.51      0.00
    1   13   19     -0.09      0.00
    1   13   18      1.21      0.00
    1   13   17     -0.43      0.00
    1   13   16      1.35      0.00
    1   13   15     -0.34      0.00
    1   13   14     -0.72      0.00
    1   13   13      0.60      0.00
    1   13   12     -2.20      0.00
    1   13   11      0.07      0.00
    1   13   10     -2.51      0.00
    1   13    9     -0.17      0.00
    1   13    8      0.72      0.00
    1   13    7     -0.18      0.00
    1   13    6      2.34      0.00
    1   13    5      0.09      0.00
    1   13    4      1.55      0.00
    1   13    3      0.12      0.00
    1   13    2     -0.49      0.00
    1   13    1      0.95      0.00
    1   13    0     -3.80      0.00
    1   12   25      1.14      0.00
    1   12   24      0.19      0.00
    1   12   23      0.82      0.00
    1   12   22      0.81      0.00
    1   12   21     -0.40      0.00
    1   12   20      0.64      0.00
    1   12   19     -0.91      0.00
    1   12   18      0.35      0.00
    1   12   17     -0.57      0.00
    1   12   16     -0.40      0.00
    1   12   15     -1.42      0.00
    1   12   14     -1.18      0.00
    1   12   13      0.87      0.00
    1   12   12     -1.97      0.00
    1   12   11      2.72      0.00
    1   12   10      0.04      0.00
    1   12    9      1.82      0.00
    1   12    8      1.12      0.00
    1   12    7     -0.84      0.00
    1   12    6      0.11      0.00
    1   12    5     -2.53      0.00
    1   12    4     -0.18      0.00
    1   12    3     -0.52      0.00
    1   12    2     -0.74      0.00
    1   12    1      0.21      0.00
    1   12    0     -1.56      0.00
    1   11   26      0.07      0.00
    1   11   25      0.91      0.00
    1   11   24     -0.29      0.00
    1   11   23      1.63      0.00
    1   11   22     -0.86      0.00
    1   11   21     -0.92      0.00
    1   11   20     -1.00      0.00
    1   11   19     -0.57      0.00
    1   11   18     -0.22      0.00
    1   11   17     -0.49      0.00
    1   11   16      0.67      0.00
    1   11   15      0.36      0.00
    1   11   14      1.43      0.00
    1   11   13      1.98      0.00
    1   11   12      1.91      0.00
    1   11   11      2.45      0.00
    1   11   10     -1.35      0.00
    1   11    9      1.52      0.00
    1   11    8     -0.98      0.00
    1   11    7     -0.14      0.00
    1   11    6     -0.29      0.00
    1   11    5     -0.17      0.00
    1   11    4     -0.79      0.00
    1   11    3     -0.17      0.00
    1   11    2     -0.06      0.00
    1   11    1     -0.20      0.00
    1   11    0     -1.50      0.00
    1   10   27      0.08      0.00
    1   10   26      0.38      0.00
    1   10   25     -0.10      0.00
    1   10   24      0.47      0.00
    1   10   23     -0.71      0.00
    1   10   22     -0.04      0.00
    1   10   21      0.57      0.00
    1   10   20     -1.14      0.00
    1   10   19      1.17      0.00
    1   10   18     -0.48      0.00
    1   10   17      2.29      0.00
    1   10   16      0.42      0.00
    1   10   15     -0.20      0.00
    1   10   14      1.04      0.00
    1   10   13     -2.38      0.00
    1   10   12      0.23      0.00
    1   10   11     -3.22      0.00
    1   10   10      0.45      0.00
    1   10    9     -0.48      0.00
    1   10    8      0.50      0.00
    1   10    7      4.06      0.00
    1   10    6     -0.64      0.00
    1   10    5      2.05      0.00
    1   10    4     -0.41      0.00
    1   10    3      1.45      0.00
    1   10    2     -0.88      0.00
    1   10    1     -3.09      0.00
    1   10    0     -3.53      0.00
    1    9   27     -0.86      0.00
    1    9   26     -0.79      0.00
    1    9   25     -0.57      0.00
    1    9   24      0.30      0.00
    1    9   23      0.22      0.00
    1    9   22      0.19      0.00
    1    9   21     -0.36      0.00
    1    9   20      0.79      0.00
    1    9   19      0.59      0.00
    1    9   18     -0.05      0.00
    1    9   17      0.98      0.00
    1    9   16     -2.10      0.00
    1    9   15     -0.40      0.00
    1    9   14     -1.55      0.00
    1    9   13     -0.92      0.00
    1    9   12      1.41      0.00
    1    9   11     -0.79      0.00
    1    9   10      1.92      0.00
    1    9    9     -0.23      0.00
    1    9    8     -2.17      0.00
    1    9    7      0.45      0.00
    1    9    6     -4.31      0.00
    1    9    5      1.82      0.00
    1    9    4     -3.47      0.00
    1    9    3      1.48      0.00
    1    9    2      3.16      0.00
    1    9    1      1.09      0.00
    1    9    0     10.49      0.00
    1    8   28      0.38      0.00
    1    8   27      1.32      0.00
    1    8   26      0.07      0.00
    1    8   25     -0.15      0.00
    1    8   24      0.79      0.00
    1    8   23     -0.06      0.00
    1    8   22     -0.01      0.00
    1    8   21     -0.21      0.00
    1    8   20     -1.19      0.00
    1    8   19     -1.18      0.00
    1    8   18     -0.67      0.00
    1    8   17     -0.49      0.00
    1    8   16     -1.18      0.00
    1    8   15      0.82      0.00
    1    8   14     -0.14      0.00
    1    8   13      1.67      0.00
    1    8   12      1.54      0.00
    1    8   11      0.42      0.00
    1    8   10      2.80      0.00
    1    8    9      0.37      0.00
    1    8    8      0.01      0.00
    1    8    7     -0.19      0.00
    1    8    6     -2.55      0.00
    1    8    5     -1.36      0.00
    1    8    4     -0.19      0.00
    1    8    3     -0.45      0.00
    1    8    2      2.26      0.00
    1    8    1     -1.16      0.00
    1    8    0      1.07      0.00
    1    7   28      0.14      0.00
    1    7   27      1.32      0.00
    1    7   26      0.94      0.00
    1    7   25      0.03      0.00
    1    7   24     -0.26      0.00
    1    7   23     -0.02      0.00
    1    7   22     -0.32      0.00
    1    7   21     -1.21      0.00
    1    7   20      2.00      0.00
    1    7   19     -0.30      0.00
    1    7   18      0.91      0.00
    1    7   17      0.63      0.00
    1    7   16      0.16      0.00
    1    7   15      0.33      0.00
    1    7   14     -1.12      0.00
    1    7   13      0.54      0.00
    1    7   12     -2.90      0.00
    1    7   11      0.11      0.00
    1    7   10     -1.81      0.00
    1    7    9     -1.35      0.00
    1    7    8      3.80      0.00
    1    7    7     -2.39      0.00
    1    7    6      7.54      0.00
    1    7    5     -1.65      0.00
    1    7    4     -0.20      0.00
    1    7    3     -2.36      0.00
    1    7    2     -5.27      0.00
    1    7    1     -2.51      0.00
    1    7    0     -1.86      0.00
    1    6   29     -0.98      0.00
    1    6   28      0.48      0.00
    1    6   27     -0.66      0.00
    1    6   26     -0.22      0.00
    1    6   25      0.29      0.00
    1    6   24     -0.08      0.00
    1    6   23      1.25      0.00
    1    6   22     -0.19      0.00
    1    6   21      1.23      0.00
    1    6   20     -0.02      0.00
    1    6   19      0.21      0.00
    1    6   18      0.23      0.00
    1    6   17     -1.80      0.00
    1    6   16     -0.86      0.00
    1    6   15     -0.82      0.00
    1    6   14     -0.44      0.00
    1    6   13      3.23      0.00
    1    6   12      0.91      0.00
    1    6   11      3.31      0.00
    1    6   10      2.64      0.00
    1    6    9      2.73      0.00
    1    6    8      1.64      0.00
    1    6    7     -8.34      0.00
    1    6    6     -0.76      0.00
    1    6    5     -7.37      0.00
    1    6    4     -0.77      0.00
    1    6    3      1.72      0.00
    1    6    2     -0.67      0.00
    1    6    1     16.25      0.00
    1    6    0      4.98      0.00
    1    5   29     -0.88      0.00
    1    5   28      0.37      0.00
    1    5   27      0.01      0.00
    1    5   26      1.19      0.00
    1    5   25     -0.62      0.00
    1    5   24     -0.35      0.00
    1    5   23      0.89      0.00
    1    5   22     -0.87      0.00
    1    5   21      0.21      0.00
    1    5   20      0.05      0.00
    1    5   19      0.54      0.00
    1    5   18     -0.34      0.00
    1    5   17     -0.78      0.00
    1    5   16      0.40      0.00
    1    5   15     -0.29      0.00
    1    5   14      1.48      0.00
    1    5   13      2.03      0.00
    1    5   12     -0.12      0.00
    1    5   11      2.75      0.00
    1    5   10      0.07      0.00
    1    5    9      0.68      0.00
    1    5    8     -0.77      0.00
    1    5    7     -6.55      0.00
    1    5    6      0.90      0.00
    1    5    5     -4.28      0.00
    1    5    4     -5.70      0.00
    1    5    3      3.61      0.00
    1    5    2     -6.29      0.00
    1    5    1     18.30      0.00
    1    5    0      8.76      0.00
    1    4   29      0.33      0.00
    1    4   28      0.83      0.00
    1    4   27     -1.24      0.00
    1    4   26      0.17      0.00
    1    4   25      0.66      0.00
    1    4   24      0.18      0.00
    1    4   23     -0.43      0.00
    1    4   22     -0.26      0.00
    1    4   21      0.63      0.00
    1    4   20      0.13      0.00
    1    4   19      1.00      0.00
    1    4   18     -0.36      0.00
    1    4   17      2.05      0.00
    1    4   16     -1.18      0.00
    1    4   15     -0.06      0.00
    1    4   14      0.88      0.00
    1    4   13     -1.44      0.00
    1    4   12      2.55      0.00
    1    4   11     -5.01      0.00
    1    4   10      4.27      0.00
    1    4    9      0.19      0.00
    1    4    8     -1.00      0.00
    1    4    7      6.40      0.00
    1    4    6     -7.64      0.00
    1    4    5      0.79      0.00
    1    4    4    -11.97      0.00
    1    4    3      0.51      0.00
    1    4    2     -7.91      0.00
    1    4    1    -15.73      0.00
    1    4    0     12.24      0.00
    1    3   30     -0.26      0.00
    1    3   29     -0.05      0.00
    1    3   28     -1.28      0.00
    1    3   27     -0.05      0.00
    1    3   26     -2.04      0.00
    1    3   25     -0.25      0.00
    1    3   24     -0.32      0.00
    1    3   23      1.21      0.00
    1    3   22      0.82      0.00
    1    3   21      0.97      0.00
    1    3   20     -0.36      0.00
    1    3   19      0.11      0.00
    1    3   18     -0.76      0.00
    1    3   17     -1.38      0.00
    1    3   16     -1.94      0.00
    1    3   15      0.06      0.00
    1    3   14      1.49      0.00
    1    3   13      2.99      0.00
    1    3   12      3.58      0.00
    1    3   11      3.67      0.00
    1    3   10      3.22      0.00
    1    3    9      1.51      0.00
    1    3    8     -7.05      0.00
    1    3    7     -7.88      0.00
    1    3    6    -12.92      0.00
    1    3    5    -12.08      0.00
    1    3    4     -7.27      0.00
    1    3    3    -10.92      0.00
    1    3    2     12.90      0.00
    1    3    1     -0.92      0.00
    1    3    0     31.96      0.00
    1    2   30     -1.89      0.00
    1    2   29     -0.16      0.00
    1    2   28     -1.58      0.00
    1    2   27     -0.39      0.00
    1    2   26     -2.47      0.00
    1    2   25      0.35      0.00
    1    2   24      0.22      0.00
    1    2   23     -1.14      0.00
    1    2   22      1.04      0.00
    1    2   21     -0.33      0.00
    1    2   20      0.75      0.00
    1    2   19      0.19      0.00
    1    2   18     -1.63      0.00
    1    2   17      2.38      0.00
    1    2   16     -2.84      0.00
    1    2   15      0.29      0.00
    1    2   14      1.29      0.00
    1    2   13     -3.06      0.00
    1    2   12      3.77      0.00
    1    2   11     -5.32      0.00
    1    2   10      4.39      0.00
    1    2    9     -0.86      0.00
    1    2    8     -7.34      0.00
    1    2    7     10.66      0.00
    1    2    6    -16.56      0.00
    1    2    5      8.81      0.00
    1    2    4     -7.57      0.00
    1    2    3     12.27      0.00
    1    2    2     23.56      0.00
    1    2    1     -7.41      0.00
    1    2    0     63.40      0.00
    1    1   30      1.48      0.00
    1    1   28      0.27      0.00
    1    1   26      0.75      0.00
    1    1   24     -1.44      0.00
    1    1   22     -1.01      0.00
    1    1   20     -1.13      0.00
    1    1   18      2.28      0.00
    1    1   16      1.22      0.00
    1    1   14     -3.78      0.00
    1    1   12     -6.81      0.00
    1    1   10     -9.64      0.00
    1    1    8      8.50      0.00
    1    1    6     23.24      0.00
    1    1    4     15.37      0.00
    1    1    2    -10.53      0.00
    2   23    4     -0.40      0.00
    2   23    3      0.45      0.00
    2   23    2     -0.30      0.00
    2   23    1     -2.58      0.00
    2   23    0     -0.64      0.00
    2   22    9     -0.58      0.00
    2   22    8     -0.92      0.00
    2   22    7      0.63      0.00
    2   22    6     -0.22      0.00
    2   22    5      2.70      0.00
    2   22    4     -0.84      0.00
    2   22    3     -0.47      0.00
    2   22    2      1.95      0.00
    2   22    1     -1.51      0.00
    2   22    0      0.17      0.00
    2   21   13      0.57      0.00
    2   21   12      0.16      0.00
    2   21   11      2.76      0.00
    2   21   10     -0.41      0.00
    2   21    9      0.72      0.00
    2   21    8      0.92      0.00
    2   21    7     -0.41      0.00
    2   21    6      0.30      0.00
    2   21    5     -0.24      0.00
    2   21    4     -0.32      0.00
    2   21    3     -0.88      0.00
    2   21    2      1.39      0.00
    2   21    1      0.16      0.00
    2   21    0     -0.79      0.00
    2   20   15      0.16      0.00
    2   20   14      1.44      0.00
    2   20   13      1.35      0.00
    2   20   12     -0.77      0.00
    2   20   11     -0.01      0.00
    2   20   10     -0.75      0.00
    2   20    9      0.31      0.00
    2   20    8      0.47      0.00
    2   20    7     -0.50      0.00
    2   20    6      0.06      0.00
    2   20    5      0.80      0.00
    2   20    4     -0.36      0.00
    2   20    3      0.18      0.00
    2   20    2      1.92      0.00
    2   20    1      0.83      0.00
    2   20    0      0.11      0.00
    2   19   17      1.25      0.00
    2   19   16      0.37      0.00
    2   19   15      0.20      0.00
    2   19   14      0.41      0.00
    2   19   13     -0.43      0.00
    2   19   12     -0.35      0.00
    2   19   11      0.77      0.00
    2   19   10      0.21      0.00
    2   19    9     -1.11      0.00
    2   19    8      1.22      0.00
    2   19    7      0.29      0.00
    2   19    6     -0.98      0.00
    2   19    5      0.70      0.00
    2   19    4     -0.55      0.00
    2   19    3     -0.89      0.00
    2   19    2      0.55      0.00
    2   19    1      0.07      0.00
    2   19    0     -0.49      0.00
    2   18   19      0.47      0.00
    2   18   18     -0.17      0.00
    2   18   17      0.57      0.00
    2   18   16     -0.34      0.00
    2   18   15     -1.10      0.00
    2   18   14     -0.20      0.00
    2   18   13     -0.40      0.00
    2   18   12     -1.45      0.00
    2   18   11     -0.62      0.00
    2   18   10     -0.26      0.00
    2   18    9     -1.24      0.00
    2   18    8      0.71      0.00
    2   18    7     -0.35      0.00
    2   18    6     -0.89      0.00
    2   18    5      0.79      0.00
    2   18    4     -1.13      0.00
    2   18    3      0.71      0.00
    2   18    2     -0.16      0.00
    2   18    1     -0.85      0.00
    2   18    0      0.05      0.00
    2   17   20     -0.23      0.00
    2   17   19     -0.06      0.00
    2   17   18     -0.58      0.00
    2   17   17      1.58      0.00
    2   17   16     -1.21      0.00
    2   17   15     -0.28      0.00
    2   17   14     -0.31      0.00
    2   17   13      0.16      0.00
    2   17   12     -0.14      0.00
    2   17   11     -0.49      0.00
    2   17   10      1.00      0.00
    2   17    9     -0.18      0.00
    2   17    8      1.22      0.00
    2   17    7      0.86      0.00
    2   17    6     -1.01      0.00
    2   17    5     -0.02      0.00
    2   17    4     -1.08      0.00
    2   17    3     -0.44      0.00
    2   17    2     -0.28      0.00
    2   17    1      0.14      0.00
    2   17    0     -0.37      0.00
    2   16   21     -1.25      0.00
    2   16   20      2.52      0.00
    2   16   19     -0.72      0.00
    2   16   18      1.37      0.00
    2   16   17      0.45      0.00
    2   16   16     -0.05      0.00
    2   16   15      0.11      0.00
    2   16   14     -0.25      0.00
    2   16   13      0.42      0.00
    2   16   12      0.09      0.00
    2   16   11     -0.75      0.00
    2   16   10     -0.23      0.00
    2   16    9     -1.74      0.00
    2   16    8      0.64      0.00
    2   16    7     -1.06      0.00
    2   16    6      0.30      0.00
    2   16    5     -0.09      0.00
    2   16    4      0.70      0.00
    2   16    3      0.09      0.00
    2   16    2     -0.02      0.00
    2   16    1      1.52      0.00
    2   16    0     -1.31      0.00
    2   15   23      0.60      0.00
    2   15   22      0.21      0.00
    2   15   21      0.48      0.00
    2   15   20      0.23      0.00
    2   15   19     -0.40      0.00
    2   15   18      0.10      0.00
    2   15   17     -1.50      0.00
    2   15   16     -0.05      0.00
    2   15   15     -2.17      0.00
    2   15   14     -0.53      0.00
    2   15   13     -1.43      0.00
    2   15   12      0.12      0.00
    2   15   11     -0.05      0.00
    2   15   10     -0.55      0.00
    2   15    9      0.21      0.00
    2   15    8      1.78      0.00
    2   15    7     -0.85      0.00
    2   15    6      2.49      0.00
    2   15    5     -1.65      0.00
    2   15    4      1.88      0.00
    2   15    3     -0.14      0.00
    2   15    2     -0.48      0.00
    2   15    1      1.06      0.00
    2   15    0     -1.62      0.00
    2   14   24      0.11      0.00
    2   14   23      0.05      0.00
    2   14   22      0.22      0.00
    2   14   21      0.36      0.00
    2   14   20     -0.79      0.00
    2   14   19     -0.78      0.00
    2   14   18     -0.92      0.00
    2   14   17     -0.86      0.00
    2   14   16     -1.30      0.00
    2   14   15      0.15      0.00
    2   14   14      0.58      0.00
    2   14   13      0.43      0.00
    2   14   12      1.11      0.00
    2   14   11      1.50      0.00
    2   14   10      0.47      0.00
    2   14    9      0.41      0.00
    2   14    8      0.57      0.00
    2   14    7     -0.27      0.00
    2   14    6     -0.25      0.00
    2   14    5     -1.00      0.00
    2   14    4      0.27      0.00
    2   14    3     -0.52      0.00
    2   14    2      0.55      0.00
    2   14    1      0.68      0.00
    2   14    0      0.46      0.00
    2   13   25      0.19      0.00
    2   13   24     -0.53      0.00
    2   13   23      0.23      0.00
    2   13   22     -0.04      0.00
    2   13   21      0.54      0.00
    2   13   20     -0.56      0.00
    2   13   19      0.63      0.00
    2   13   18     -0.42      0.00
    2   13   17      0.21      0.00
    2   13   16      0.94      0.00
    2   13   15      1.07      0.00
    2   13   14      2.01      0.00
    2   13   13     -0.67      0.00
    2   13   12      1.87      0.00
    2   13   11     -1.28      0.00
    2   13   10     -1.96      0.00
    2   13    9     -0.59      0.00
    2   13    8     -1.32      0.00
    2   13    7      1.94      0.00
    2   13    6     -0.43      0.00
    2   13    5      0.84      0.00
    2   13    4      0.27      0.00
    2   13    3      0.39      0.00
    2   13    2      0.00      0.00
    2   13    1     -2.76      0.00
    2   13    0      1.09      0.00
    2   12   25     -1.09      0.00
    2   12   24      1.33      0.00
    2   12   23     -2.33      0.00
    2   12   22      0.32      0.00
    2   12   21      0.94      0.00
    2   12   20     -0.57      0.00
    2   12   19      0.78      0.00
    2   12   18     -0.70      0.00
    2   12   17      0.96      0.00
    2   12   16     -0.91      0.00
    2   12   15     -0.22      0.00
    2   12   14     -0.23      0.00
    2   12   13     -2.25      0.00
    2   12   12      0.17      0.00
    2   12   11     -1.54      0.00
    2   12   10      2.66      0.00
    2   12    9     -0.51      0.00
    2   12    8     -0.64      0.00
    2   12    7      1.26      0.00
    2   12    6     -2.74      0.00
    2   12    5      1.02      0.00
    2   12    4     -1.02      0.00
    2   12    3     -0.62      0.00
    2   12    2      1.41      0.00
    2   12    1     -0.67      0.00
    2   12    0      3.16      0.00
    2   11   26      0.23      0.00
    2   11   25     -1.80      0.00
    2   11   24     -0.53      0.00
    2   11   23     -0.80      0.00
    2   11   22     -0.38      0.00
    2   11   21     -0.82      0.00
    2   11   20      0.23      0.00
    2   11   19     -0.54      0.00
    2   11   18     -0.33      0.00
    2   11   17     -0.57      0.00
    2   11   16     -1.02      0.00
    2   11   15      0.94      0.00
    2   11   14     -0.57      0.00
    2   11   13      1.11      0.00
    2   11   12      1.16      0.00
    2   11   11     -0.72      0.00
    2   11   10      0.84      0.00
    2   11    9     -1.21      0.00
    2   11    8     -1.09      0.00
    2   11    7      0.41      0.00
    2   11    6     -1.33      0.00
    2   11    5      0.42      0.00
    2   11    4      0.07      0.00
    2   11    3      2.10      0.00
    2   11    2      1.82      0.00
    2   11    1      0.59      0.00
    2   11    0      4.42      0.00
    2   10   27      1.22      0.00
    2   10   26      0.63      0.00
    2   10   25      0.00      0.00
    2   10   24      0.45      0.00
    2   10   23     -0.73      0.00
    2   10   22     -0.48      0.00
    2   10   21      0.53      0.00
    2   10   20      0.00      0.00
    2   10   19     -0.40      0.00
    2   10   18     -0.03      0.00
    2   10   17     -0.45      0.00
    2   10   16      0.86      0.00
    2   10   15      0.55      0.00
    2   10   14     -0.16      0.00
    2   10   13     -0.09      0.00
    2   10   12     -1.94      0.00
    2   10   11     -1.19      0.00
    2   10   10      0.29      0.00
    2   10    9     -1.64      0.00
    2   10    8      1.95      0.00
    2   10    7      0.06      0.00
    2   10    6      3.54      0.00
    2   10    5      0.21      0.00
    2   10    4      2.64      0.00
    2   10    3     -0.43      0.00
    2   10    2     -0.09      0.00
    2   10    1      0.37      0.00
    2   10    0     -5.74      0.00
    2    9   27      0.33      0.00
    2    9   26      0.12      0.00
    2    9   25      0.38      0.00
    2    9   24     -0.50      0.00
    2    9   23      0.51      0.00
    2    9   22      0.31      0.00
    2    9   21     -0.11      0.00
    2    9   20      1.98      0.00
    2    9   19      0.37      0.00
    2    9   18      0.51      0.00
    2    9   17     -0.89      0.00
    2    9   16      0.22      0.00
    2    9   15     -1.92      0.00
    2    9   14     -0.84      0.00
    2    9   13      1.20      0.00
    2    9   12     -1.55      0.00
    2    9   11      1.48      0.00
    2    9   10     -0.94      0.00
    2    9    9      0.05      0.00
    2    9    8      0.95      0.00
    2    9    7     -4.26      0.00
    2    9    6      1.54      0.00
    2    9    5     -5.51      0.00
    2    9    4     -0.85      0.00
    2    9    3     -1.77      0.00
    2    9    2     -3.16      0.00
    2    9    1      1.54      0.00
    2    9    0      0.91      0.00
    2    8   28      0.38      0.00
    2    8   27     -0.50      0.00
    2    8   26     -0.16      0.00
    2    8   25      0.51      0.00
    2    8   24     -0.41      0.00
    2    8   23      0.28      0.00
    2    8   22     -0.50      0.00
    2    8   21      0.18      0.00
    2    8   20     -0.91      0.00
    2    8   19     -0.54      0.00
    2    8   18     -0.38      0.00
    2    8   17     -1.97      0.00
    2    8   16      1.06      0.00
    2    8   15     -0.57      0.00
    2    8   14      0.98      0.00
    2    8   13      0.96      0.00
    2    8   12      0.50      0.00
    2    8   11      1.96      0.00
    2    8   10      0.05      0.00
    2    8    9      1.08      0.00
    2    8    8     -0.80      0.00
    2    8    7     -0.90      0.00
    2    8    6     -0.19      0.00
    2    8    5     -2.16      0.00
    2    8    4      1.38      0.00
    2    8    3     -0.24      0.00
    2    8    2      2.17      0.00
    2    8    1      2.37      0.00
    2    8    0     -1.88      0.00
    2    7   28     -0.29      0.00
    2    7   27     -0.14      0.00
    2    7   26      1.02      0.00
    2    7   25     -0.39      0.00
    2    7   24     -0.36      0.00
    2    7   23     -0.81      0.00
    2    7   22     -0.33      0.00
    2    7   21     -0.26      0.00
    2    7   20      0.38      0.00
    2    7   19      1.32      0.00
    2    7   18      0.10      0.00
    2    7   17      2.31      0.00
    2    7   16      1.80      0.00
    2    7   15     -0.74      0.00
    2    7   14      1.06      0.00
    2    7   13     -1.38      0.00
    2    7   12     -1.55      0.00
    2    7   11     -3.28      0.00
    2    7   10     -2.73      0.00
    2    7    9     -0.86      0.00
    2    7    8      0.38      0.00
    2    7    7      5.43      0.00
    2    7    6      4.15      0.00
    2    7    5      2.22      0.00
    2    7    4      2.18      0.00
    2    7    3      3.68      0.00
    2    7    2      0.40      0.00
    2    7    1     -4.19      0.00
    2    7    0     -2.44      0.00
    2    6   29      0.10      0.00
    2    6   28     -0.18      0.00
    2    6   27     -1.29      0.00
    2    6   26     -1.86      0.00
    2    6   25      0.00      0.00
    2    6   24      0.03      0.00
    2    6   23     -0.43      0.00
    2    6   22      1.10      0.00
    2    6   21      1.24      0.00
    2    6   20      0.52      0.00
    2    6   19      1.00      0.00
    2    6   18     -0.07      0.00
    2    6   17      0.74      0.00
    2    6   16     -1.16      0.00
    2    6   15     -0.59      0.00
    2    6   14      0.08      0.00
    2    6   13     -2.54      0.00
    2    6   12      2.83      0.00
    2    6   11     -2.98      0.00
    2    6   10      2.72      0.00
    2    6    9     -0.13      0.00
    2    6    8     -3.77      0.00
    2    6    7      5.53      0.00
    2    6    6     -9.48      0.00
    2    6    5      3.08      0.00
    2    6    4     -5.48      0.00
    2    6    3     -1.87      0.00
    2    6    2      4.31      0.00
    2    6    1    -10.58      0.00
    2    6    0      7.42      0.00
    2    5   29     -0.44      0.00
    2    5   28     -0.95      0.00
    2    5   27      0.44      0.00
    2    5   26     -0.68      0.00
    2    5   25     -0.58      0.00
    2    5   24     -0.03      0.00
    2    5   23      0.27      0.00
    2    5   22      0.47      0.00
    2    5   21      0.33      0.00
    2    5   20     -0.50      0.00
    2    5   19     -0.41      0.00
    2    5   18     -0.58      0.00
    2    5   17      0.47      0.00
    2    5   16      0.50      0.00
    2    5   15      0.18      0.00
    2    5   14      0.69      0.00
    2    5   13      0.27      0.00
    2    5   12      0.61      0.00
    2    5   11      0.18      0.00
    2    5   10     -1.65      0.00
    2    5    9      0.10      0.00
    2    5    8     -3.05      0.00
    2    5    7      2.65      0.00
    2    5    6     -3.30      0.00
    2    5    5     -1.51      0.00
    2    5    4      1.38      0.00
    2    5    3      0.31      0.00
    2    5    2      7.57      0.00
    2    5    1     -5.32      0.00
    2    5    0     -5.53      0.00
    2    4   29      1.03      0.00
    2    4   28     -0.35      0.00
    2    4   27      0.55      0.00
    2    4   26     -0.23      0.00
    2    4   25      0.70      0.00
    2    4   24      0.00      0.00
    2    4   23     -1.74      0.00
    2    4   22      0.33      0.00
    2    4   21     -1.19      0.00
    2    4   20      0.92      0.00
    2    4   19     -0.30      0.00
    2    4   18      0.68      0.00
    2    4   17      2.15      0.00
    2    4   16      0.02      0.00
    2    4   15      0.43      0.00
    2    4   14     -1.72      0.00
    2    4   13     -3.61      0.00
    2    4   12     -3.68      0.00
    2    4   11     -4.72      0.00
    2    4   10     -5.25      0.00
    2    4    9     -1.31      0.00
    2    4    8      2.77      0.00
    2    4    7     11.98      0.00
    2    4    6      9.93      0.00
    2    4    5     13.11      0.00
    2    4    4      8.80      0.00
    2    4    3      4.85      0.00
    2    4    2      2.85      0.00
    2    4    1    -15.42      0.00
    2    4    0    -12.12      0.00
    2    3   29     -0.46      0.00
    2    3   28     -0.47      0.00
    2    3   27      0.74      0.00
    2    3   26      0.32      0.00
    2    3   25     -0.34      0.00
    2    3   24     -0.77      0.00
    2    3   23      0.64      0.00
    2    3   22      0.13      0.00
    2    3   21      0.35      0.00
    2    3   20      0.20      0.00
    2    3   19     -0.93      0.00
    2    3   18      2.10      0.00
    2    3   17     -1.37      0.00
    2    3   16      2.70      0.00
    2    3   15     -0.09      0.00
    2    3   14     -2.59      0.00
    2    3   13      2.13      0.00
    2    3   12     -5.80      0.00
    2    3   11      3.81      0.00
    2    3   10     -7.86      0.00
    2    3    9      1.37      0.00
    2    3    8      5.44      0.00
    2    3    7     -6.53      0.00
    2    3    6     17.95      0.00
    2    3    5     -8.87      0.00
    2    3    4     21.54      0.00
    2    3    3     -3.35      0.00
    2    3    2      4.05      0.00
    2    3    1      3.13      0.00
    2    3    0    -40.51      0.00
    2    2   30     -0.23      0.00
    2    2   28      0.53      0.00
    2    2   26      1.38      0.00
    2    2   24      0.52      0.00
    2    2   22     -0.32      0.00
    2    2   20      0.45      0.00
    2    2   18      0.56      0.00
    2    2   16      0.49      0.00
    2    2   14     -0.39      0.00
    2    2   12     -3.47      0.00
    2    2   10     -3.77      0.00
    2    2    8      2.81      0.00
    2    2    6     12.60      0.00
    2    2    4      7.49      0.00
    2    2    2     -8.44      0.00
    2    2    0     -4.16      0.00
    3   23    3     -0.74      0.00
    3   23    2     -1.06      0.00
    3   23    1     -0.28      0.00
    3   23    0     -1.91      0.00
    3   22    9     -0.69      0.00
    3   22    8     -0.53      0.00
    3   22    7     -0.15      0.00
    3   22    6     -0.49      0.00
    3   22    5      1.28      0.00
    3   22    4      1.72      0.00
    3   22    3      0.09      0.00
    3   22    2      1.14      0.00
    3   22    1      3.16      0.00
    3   22    0      2.87      0.00
    3   21   12     -1.58      0.00
    3   21   11      1.51      0.00
    3   21   10      0.07      0.00
    3   21    9     -0.44      0.00
    3   21    8      0.82      0.00
    3   21    7      0.08      0.00
    3   21    6     -1.04      0.00
    3   21    5     -1.33      0.00
    3   21    4      0.33      0.00
    3   21    3     -0.46      0.00
    3   21    2     -1.94      0.00
    3   21    1      0.21      0.00
    3   21    0     -1.77      0.00
    3   20   15     -1.08      0.00
    3   20   14     -0.38      0.00
    3   20   13      1.43      0.00
    3   20   12     -0.34      0.00
    3   20   11     -0.38      0.00
    3   20   10      0.31      0.00
    3   20    9      0.31      0.00
    3   20    8      0.19      0.00
    3   20    7      0.28      0.00
    3   20    6      0.21      0.00
    3   20    5     -0.01      0.00
    3   20    4      0.24      0.00
    3   20    3     -0.49      0.00
    3   20    2     -2.15      0.00
    3   20    1     -0.74      0.00
    3   20    0     -0.48      0.00
    3   19   17      0.90      0.00
    3   19   16     -0.64      0.00
    3   19   15      0.63      0.00
    3   19   14     -0.80      0.00
    3   19   13     -1.03      0.00
    3   19   12     -0.31      0.00
    3   19   11     -0.99      0.00
    3   19   10      0.72      0.00
    3   19    9     -1.03      0.00
    3   19    8     -0.75      0.00
    3   19    7      0.38      0.00
    3   19    6     -0.77      0.00
    3   19    5     -0.08      0.00
    3   19    4      0.92      0.00
    3   19    3     -0.82      0.00
    3   19    2     -0.50      0.00
    3   19    1      0.62      0.00
    3   19    0     -0.78      0.00
    3   18   18      0.80      0.00
    3   18   17     -0.54      0.00
    3   18   16      0.37      0.00
    3   18   15     -0.76      0.00
    3   18   14     -0.20      0.00
    3   18   13      0.38      0.00
    3   18   12      1.93      0.00
    3   18   11      0.93      0.00
    3   18   10      0.61      0.00
    3   18    9     -0.17      0.00
    3   18    8      0.17      0.00
    3   18    7     -1.21      0.00
    3   18    6      0.57      0.00
    3   18    5     -0.10      0.00
    3   18    4      1.64      0.00
    3   18    3      0.00      0.00
    3   18    2     -0.43      0.00
    3   18    1      1.94      0.00
    3   18    0     -0.72      0.00
    3   17   20     -1.45      0.00
    3   17   19     -0.60      0.00
    3   17   18     -1.32      0.00
    3   17   17     -2.07      0.00
    3   17   16     -0.13      0.00
    3   17   15     -0.42      0.00
    3   17   14      0.73      0.00
    3   17   13     -0.05      0.00
    3   17   12      0.25      0.00
    3   17   11      1.24      0.00
    3   17   10     -0.12      0.00
    3   17    9      1.58      0.00
    3   17    8     -0.34      0.00
    3   17    7      0.36      0.00
    3   17    6      0.82      0.00
    3   17    5     -1.13      0.00
    3   17    4      0.61      0.00
    3   17    3     -1.13      0.00
    3   17    2     -1.22      0.00
    3   17    1     -0.01      0.00
    3   17    0     -1.56      0.00
    3   16   21      0.88      0.00
    3   16   20     -0.61      0.00
    3   16   19     -0.11      0.00
    3   16   18     -0.41      0.00
    3   16   17     -0.04      0.00
    3   16   16      0.74      0.00
    3   16   15      1.21      0.00
    3   16   14      1.35      0.00
    3   16   13      0.30      0.00
    3   16   12      0.97      0.00
    3   16   11      1.20      0.00
    3   16   10     -0.35      0.00
    3   16    9     -0.66      0.00
    3   16    8     -1.87      0.00
    3   16    7      0.16      0.00
    3   16    6     -1.93      0.00
    3   16    5      0.80      0.00
    3   16    4      1.01      0.00
    3   16    3     -0.58      0.00
    3   16    2      1.41      0.00
    3   16    1      0.78      0.00
    3   16    0      2.65      0.00
    3   15   22     -0.11      0.00
    3   15   21      0.97      0.00
    3   15   20     -0.49      0.00
    3   15   19      1.11      0.00
    3   15   18     -0.50      0.00
    3   15   17      0.34      0.00
    3   15   16      1.12      0.00
    3   15   15      0.43      0.00
    3   15   14      0.94      0.00
    3   15   13     -0.49      0.00
    3   15   12      0.11      0.00
    3   15   11     -0.50      0.00
    3   15   10      0.73      0.00
    3   15    9     -0.67      0.00
    3   15    8     -0.49      0.00
    3   15    7      0.28      0.00
    3   15    6     -0.03      0.00
    3   15    5      1.05      0.00
    3   15    4      0.45      0.00
    3   15    3      0.04      0.00
    3   15    2     -0.25      0.00
    3   15    1     -1.92      0.00
    3   15    0      3.03      0.00
    3   14   23     -1.56      0.00
    3   14   22     -0.53      0.00
    3   14   21      0.64      0.00
    3   14   20     -1.29      0.00
    3   14   19      0.59      0.00
    3   14   18     -0.78      0.00
    3   14   17      1.98      0.00
    3   14   16     -0.64      0.00
    3   14   15      0.99      0.00
    3   14   14     -0.61      0.00
    3   14   13      0.33      0.00
    3   14   12     -1.11      0.00
    3   14   11      0.44      0.00
    3   14   10      2.43      0.00
    3   14    9     -0.96      0.00
    3   14    8     -0.45      0.00
    3   14    7     -0.32      0.00
    3   14    6     -1.99      0.00
    3   14    5     -0.39      0.00
    3   14    4     -0.76      0.00
    3   14    3     -1.52      0.00
    3   14    2     -0.07      0.00
    3   14    1     -0.69      0.00
    3   14    0     -1.06      0.00
    3   13   24     -0.52      0.00
    3   13   23      0.19      0.00
    3   13   22     -0.87      0.00
    3   13   21     -1.19      0.00
    3   13   20      0.81      0.00
    3   13   19      0.22      0.00
    3   13   18      0.33      0.00
    3   13   17      0.42      0.00
    3   13   16      0.46      0.00
    3   13   15      1.51      0.00
    3   13   14     -0.53      0.00
    3   13   13      1.74      0.00
    3   13   12     -0.80      0.00
    3   13   11     -0.18      0.00
    3   13   10     -0.50      0.00
    3   13    9     -1.67      0.00
    3   13    8     -0.58      0.00
    3   13    7     -0.15      0.00
    3   13    6      1.10      0.00
    3   13    5      0.58      0.00
    3   13    4      0.91      0.00
    3   13    3      0.82      0.00
    3   13    2     -1.54      0.00
    3   13    1      1.13      0.00
    3   13    0     -0.10      0.00
    3   12   25      0.96      0.00
    3   12   24      0.85      0.00
    3   12   23     -0.17      0.00
    3   12   22      0.22      0.00
    3   12   21      1.02      0.00
    3   12   20      0.78      0.00
    3   12   19     -0.08      0.00
    3   12   18      1.12      0.00
    3   12   17     -0.01      0.00
    3   12   16      1.33      0.00
    3   12   15     -1.87      0.00
    3   12   14     -0.69      0.00
    3   12   13     -0.49      0.00
    3   12   12     -2.71      0.00
    3   12   11      1.14      0.00
    3   12   10      0.08      0.00
    3   12    9      0.20      0.00
    3   12    8      1.16      0.00
    3   12    7     -1.79      0.00
    3   12    6      2.17      0.00
    3   12    5     -1.08      0.00
    3   12    4      2.25      0.00
    3   12    3     -0.25      0.00
    3   12    2      0.39      0.00
    3   12    1      4.08      0.00
    3   12    0     -3.16      0.00
    3   11   26     -0.77      0.00
    3   11   25      0.25      0.00
    3   11   24     -0.02      0.00
    3   11   23      1.17      0.00
    3   11   22      0.44      0.00
    3   11   21     -0.84      0.00
    3   11   20      0.55      0.00
    3   11   19      0.15      0.00
    3   11   18      0.09      0.00
    3   11   17     -0.98      0.00
    3   11   16     -0.01      0.00
    3   11   15     -1.73      0.00
    3   11   14     -0.10      0.00
    3   11   13      0.48      0.00
    3   11   12      0.54      0.00
    3   11   11      2.00      0.00
    3   11   10      0.27      0.00
    3   11    9      0.01      0.00
    3   11    8      0.12      0.00
    3   11    7     -1.16      0.00
    3   11    6      0.64      0.00
    3   11    5     -2.51      0.00
    3   11    4     -0.53      0.00
    3   11    3     -0.58      0.00
    3   11    2     -2.83      0.00
    3   11    1     -0.22      0.00
    3   11    0      1.19      0.00
    3   10   27     -0.20      0.00
    3   10   26     -0.30      0.00
    3   10   25      0.98      0.00
    3   10   24     -0.27      0.00
    3   10   23      0.04      0.00
    3   10   22     -0.28      0.00
    3   10   21      0.38      0.00
    3   10   20     -1.29      0.00
    3   10   19      0.19      0.00
    3   10   18     -0.51      0.00
    3   10   17      1.12      0.00
    3   10   16      1.47      0.00
    3   10   15      0.44      0.00
    3   10   14      1.87      0.00
    3   10   13     -0.63      0.00
    3   10   12      0.27      0.00
    3   10   11     -0.85      0.00
    3   10   10     -1.13      0.00
    3   10    9     -0.67      0.00
    3   10    8     -0.16      0.00
    3   10    7      1.48      0.00
    3   10    6      0.94      0.00
    3   10    5      1.37      0.00
    3   10    4      1.15      0.00
    3   10    3     -0.86      0.00
    3   10    2      0.51      0.00
    3   10    1     -3.26      0.00
    3   10    0     -5.37      0.00
    3    9   27     -0.10      0.00
    3    9   26     -0.28      0.00
    3    9   25     -0.50      0.00
    3    9   24      0.38      0.00
    3    9   23     -0.29      0.00
    3    9   22      0.49      0.00
    3    9   21      0.73      0.00
    3    9   20      0.15      0.00
    3    9   19      1.74      0.00
    3    9   18     -0.61      0.00
    3    9   17      2.51      0.00
    3    9   16     -0.44      0.00
    3    9   15     -0.61      0.00
    3    9   14      0.56      0.00
    3    9   13     -1.62      0.00
    3    9   12      1.05      0.00
    3    9   11     -1.81      0.00
    3    9   10      1.82      0.00
    3    9    9     -0.93      0.00
    3    9    8     -1.06      0.00
    3    9    7      1.65      0.00
    3    9    6     -1.79      0.00
    3    9    5      1.67      0.00
    3    9    4     -1.43      0.00
    3    9    3      0.56      0.00
    3    9    2     -0.06      0.00
    3    9    1      0.06      0.00
    3    9    0      8.09      0.00
    3    8   28      0.18      0.00
    3    8   27     -0.92      0.00
    3    8   26     -1.55      0.00
    3    8   25     -1.03      0.00
    3    8   24     -0.10      0.00
    3    8   23     -0.18      0.00
    3    8   22      0.46      0.00
    3    8   21      0.49      0.00
    3    8   20     -0.11      0.00
    3    8   19     -0.21      0.00
    3    8   18     -0.13      0.00
    3    8   17      0.51      0.00
    3    8   16     -0.83      0.00
    3    8   15      0.87      0.00
    3    8   14     -0.20      0.00
    3    8   13     -0.38      0.00
    3    8   12      1.59      0.00
    3    8   11     -0.69      0.00
    3    8   10      1.03      0.00
    3    8    9     -0.22      0.00
    3    8    8     -2.39      0.00
    3    8    7      1.30      0.00
    3    8    6     -4.81      0.00
    3    8    5      3.45      0.00
    3    8    4     -0.74      0.00
    3    8    3      0.42      0.00
    3    8    2      3.65      0.00
    3    8    1     -0.99      0.00
    3    8    0      1.60      0.00
    3    7   28     -0.55      0.00
    3    7   27      0.79      0.00
    3    7   26      0.71      0.00
    3    7   25     -0.47      0.00
    3    7   24      0.29      0.00
    3    7   23     -0.21      0.00
    3    7   22     -0.37      0.00
    3    7   21     -0.54      0.00
    3    7   20     -0.35      0.00
    3    7   19     -0.98      0.00
    3    7   18     -0.48      0.00
    3    7   17      0.96      0.00
    3    7   16      0.73      0.00
    3    7   15      1.33      0.00
    3    7   14      0.19      0.00
    3    7   13      0.77      0.00
    3    7   12     -2.73      0.00
    3    7   11     -0.17      0.00
    3    7   10     -1.98      0.00
    3    7    9     -0.63      0.00
    3    7    8      0.32      0.00
    3    7    7      1.59      0.00
    3    7    6      5.36      0.00
    3    7    5      3.32      0.00
    3    7    4      3.33      0.00
    3    7    3      0.97      0.00
    3    7    2     -3.77      0.00
    3    7    1     -0.05      0.00
    3    7    0     -6.69      0.00
    3    6   29      0.51      0.00
    3    6   28      0.11      0.00
    3    6   27      1.08      0.00
    3    6   26     -0.04      0.00
    3    6   25      0.43      0.00
    3    6   24      0.12      0.00
    3    6   23     -0.04      0.00
    3    6   22      0.14      0.00
    3    6   21     -0.67      0.00
    3    6   20      0.84      0.00
    3    6   19     -0.77      0.00
    3    6   18     -0.02      0.00
    3    6   17     -0.45      0.00
    3    6   16     -0.37      0.00
    3    6   15     -0.20      0.00
    3    6   14     -1.23      0.00
    3    6   13      1.16      0.00
    3    6   12     -1.81      0.00
    3    6   11      2.05      0.00
    3    6   10     -1.18      0.00
    3    6    9      1.02      0.00
    3    6    8      1.98      0.00
    3    6    7     -4.09      0.00
    3    6    6      3.61      0.00
    3    6    5     -0.66      0.00
    3    6    4      1.89      0.00
    3    6    3     -2.80      0.00
    3    6    2     -5.44      0.00
    3    6    1      0.23      0.00
    3    6    0     -2.72      0.00
    3    5   29     -1.00      0.00
    3    5   28      0.09      0.00
    3    5   27     -0.03      0.00
    3    5   26      0.60      0.00
    3    5   25      0.01      0.00
    3    5   24     -0.49      0.00
    3    5   23      1.60      0.00
    3    5   22     -0.72      0.00
    3    5   21      0.14      0.00
    3    5   20     -1.14      0.00
    3    5   19     -0.94      0.00
    3    5   18     -0.52      0.00
    3    5   17     -1.99      0.00
    3    5   16      0.78      0.00
    3    5   15     -0.09      0.00
    3    5   14      0.29      0.00
    3    5   13      2.90      0.00
    3    5   12     -2.15      0.00
    3    5   11      3.81      0.00
    3    5   10     -0.69      0.00
    3    5    9      0.02      0.00
    3    5    8     -0.32      0.00
    3    5    7     -9.08      0.00
    3    5    6      5.62      0.00
    3    5    5     -8.16      0.00
    3    5    4      6.36      0.00
    3    5    3     -1.90      0.00
    3    5    2     -3.70      0.00
    3    5    1     11.65      0.00
    3    5    0      1.90      0.00
    3    4   29      0.06      0.00
    3    4   28      0.90      0.00
    3    4   27      0.26      0.00
    3    4   26      1.94      0.00
    3    4   25      0.17      0.00
    3    4   24      0.21      0.00
    3    4   23     -0.72      0.00
    3    4   22     -1.80      0.00
    3    4   21     -0.73      0.00
    3    4   20     -0.70      0.00
    3    4   19      0.13      0.00
    3    4   18     -0.95      0.00
    3    4   17      1.02      0.00
    3    4   16      0.10      0.00
    3    4   15     -0.46      0.00
    3    4   14      0.26      0.00
    3    4   13     -0.92      0.00
    3    4   12     -1.76      0.00
    3    4   11     -1.61      0.00
    3    4   10     -0.03      0.00
    3    4    9      0.23      0.00
    3    4    8      2.64      0.00
    3    4    7      2.26      0.00
    3    4    6      7.64      0.00
    3    4    5      4.23      0.00
    3    4    4     -0.48      0.00
    3    4    3      6.27      0.00
    3    4    2    -11.97      0.00
    3    4    1      1.94      0.00
    3    4    0      4.65      0.00
    3    3   28      0.61      0.00
    3    3   26     -0.21      0.00
    3    3   24      0.08      0.00
    3    3   22      0.45      0.00
    3    3   20     -0.71      0.00
    3    3   18      0.13      0.00
    3    3   16     -0.80      0.00
    3    3   14      2.08      0.00
    3    3   12      4.59      0.00
    3    3   10      7.87      0.00
    3    3    8     -4.67      0.00
    3    3    6    -11.88      0.00
    3    3    4    -11.67      0.00
    3    3    2     -9.91      0.00
    3    3    0     15.82      0.00
    4   23    1     -2.31      0.00
    4   23    0     -3.08      0.00
    4   22    8     -1.18      0.00
    4   22    7     -0.24      0.00
    4   22    6      0.52      0.00
    4   22    5      0.46      0.00
    4   22    4      0.26      0.00
    4   22    3     -0.53      0.00
    4   22    2     -0.04      0.00
    4   22    1     -0.87      0.00
    4   22    0     -0.25      0.00
    4   21   12      0.79      0.00
    4   21   11      0.04      0.00
    4   21   10     -0.10      0.00
    4   21    9     -1.49      0.00
    4   21    8      0.09      0.00
    4   21    7      0.23      0.00
    4   21    6     -0.27      0.00
    4   21    5      0.19      0.00
    4   21    4     -0.18      0.00
    4   21    3      0.35      0.00
    4   21    2      1.03      0.00
    4   21    1      0.65      0.00
    4   21    0     -1.48      0.00
    4   20   14      1.49      0.00
    4   20   13      0.64      0.00
    4   20   12      1.60      0.00
    4   20   11      0.90      0.00
    4   20   10      0.24      0.00
    4   20    9      1.10      0.00
    4   20    8      0.77      0.00
    4   20    7     -0.54      0.00
    4   20    6      0.36      0.00
    4   20    5     -0.26      0.00
    4   20    4     -0.61      0.00
    4   20    3      0.01      0.00
    4   20    2      0.40      0.00
    4   20    1     -0.23      0.00
    4   20    0     -1.66      0.00
    4   19   16      1.05      0.00
    4   19   15     -0.37      0.00
    4   19   14      0.97      0.00
    4   19   13     -1.33      0.00
    4   19   12     -0.75      0.00
    4   19   11     -0.19      0.00
    4   19   10     -1.01      0.00
    4   19    9     -0.91      0.00
    4   19    8     -0.76      0.00
    4   19    7      0.62      0.00
    4   19    6     -0.29      0.00
    4   19    5      0.47      0.00
    4   19    4     -0.01      0.00
    4   19    3     -0.87      0.00
    4   19    2      2.03      0.00
    4   19    1      0.61      0.00
    4   19    0      1.27      0.00
    4   18   18     -0.34      0.00
    4   18   17     -0.34      0.00
    4   18   16      1.20      0.00
    4   18   15     -0.05      0.00
    4   18   14      1.40      0.00
    4   18   13     -1.46      0.00
    4   18   12      0.03      0.00
    4   18   11     -0.48      0.00
    4   18   10      0.47      0.00
    4   18    9     -1.59      0.00
    4   18    8      1.09      0.00
    4   18    7     -0.77      0.00
    4   18    6     -1.11      0.00
    4   18    5      0.64      0.00
    4   18    4      0.23      0.00
    4   18    3      0.58      0.00
    4   18    2      1.58      0.00
    4   18    1     -0.17      0.00
    4   18    0      1.34      0.00
    4   17   20     -1.28      0.00
    4   17   19      0.22      0.00
    4   17   18      0.27      0.00
    4   17   17      1.32      0.00
    4   17   16     -0.24      0.00
    4   17   15      0.05      0.00
    4   17   14     -0.22      0.00
    4   17   13      0.25      0.00
    4   17   12     -1.62      0.00
    4   17   11      0.06      0.00
    4   17   10      0.85      0.00
    4   17    9     -0.31      0.00
    4   17    8      2.51      0.00
    4   17    7      1.22      0.00
    4   17    6      1.79      0.00
    4   17    5      0.31      0.00
    4   17    4     -0.96      0.00
    4   17    3      0.10      0.00
    4   17    2     -0.07      0.00
    4   17    1     -2.32      0.00
    4   17    0     -1.07      0.00
    4   16   21     -1.13      0.00
    4   16   20      0.88      0.00
    4   16   19      0.85      0.00
    4   16   18      0.38      0.00
    4   16   17      1.45      0.00
    4   16   16     -0.77      0.00
    4   16   15      1.25      0.00
    4   16   14     -0.83      0.00
    4   16   13     -0.36      0.00
    4   16   12     -2.31      0.00
    4   16   11     -0.49      0.00
    4   16   10     -0.60      0.00
    4   16    9     -1.23      0.00
    4   16    8     -0.50      0.00
    4   16    7     -0.14      0.00
    4   16    6     -1.88      0.00
    4   16    5     -0.54      0.00
    4   16    4     -0.39      0.00
    4   16    3     -1.55      0.00
    4   16    2      0.73      0.00
    4   16    1     -0.07      0.00
    4   16    0     -0.93      0.00
    4   15   22      0.54      0.00
    4   15   21     -1.52      0.00
    4   15   20      1.19      0.00
    4   15   19     -0.81      0.00
    4   15   18      1.58      0.00
    4   15   17     -0.59      0.00
    4   15   16     -0.03      0.00
    4   15   15     -0.44      0.00
    4   15   14     -1.27      0.00
    4   15   13      0.24      0.00
    4   15   12     -0.43      0.00
    4   15   11      0.06      0.00
    4   15   10     -0.67      0.00
    4   15    9     -0.43      0.00
    4   15    8      2.04      0.00
    4   15    7      0.12      0.00
    4   15    6      1.58      0.00
    4   15    5     -0.61      0.00
    4   15    4      0.34      0.00
    4   15    3      0.99      0.00
    4   15    2      0.39      0.00
    4   15    1      0.95      0.00
    4   15    0     -0.90      0.00
    4   14   23      0.21      0.00
    4   14   22     -0.36      0.00
    4   14   21     -0.12      0.00
    4   14   20     -0.09      0.00
    4   14   19     -0.20      0.00
    4   14   18      0.95      0.00
    4   14   17     -1.22      0.00
    4   14   16     -0.04      0.00
    4   14   15     -2.15      0.00
    4   14   14      0.01      0.00
    4   14   13     -1.50      0.00
    4   14   12     -0.92      0.00
    4   14   11      0.88      0.00
    4   14   10     -0.17      0.00
    4   14    9      1.30      0.00
    4   14    8      1.23      0.00
    4   14    7      0.01      0.00
    4   14    6      1.26      0.00
    4   14    5     -1.31      0.00
    4   14    4      0.76      0.00
    4   14    3     -0.79      0.00
    4   14    2     -0.20      0.00
    4   14    1      1.03      0.00
    4   14    0     -3.39      0.00
    4   13   24     -1.44      0.00
    4   13   23      1.09      0.00
    4   13   22      0.83      0.00
    4   13   21     -0.91      0.00
    4   13   20     -0.31      0.00
    4   13   19     -0.23      0.00
    4   13   18     -0.30      0.00
    4   13   17     -1.19      0.00
    4   13   16     -0.67      0.00
    4   13   15      0.38      0.00
    4   13   14      0.78      0.00
    4   13   13     -0.19      0.00
    4   13   12      1.69      0.00
    4   13   11     -0.15      0.00
    4   13   10     -1.14      0.00
    4   13    9     -0.42      0.00
    4   13    8      0.73      0.00
    4   13    7      2.06      0.00
    4   13    6     -0.88      0.00
    4   13    5     -0.13      0.00
    4   13    4     -0.87      0.00
    4   13    3      1.31      0.00
    4   13    2      0.56      0.00
    4   13    1     -0.62      0.00
    4   13    0      2.01      0.00
    4   12   25      1.14      0.00
    4   12   24      0.05      0.00
    4   12   23      0.22      0.00
    4   12   22      0.37      0.00
    4   12   21      0.71      0.00
    4   12   20     -0.28      0.00
    4   12   19      0.17      0.00
    4   12   18      0.02      0.00
    4   12   17      0.22      0.00
    4   12   16      0.44      0.00
    4   12   15     -0.21      0.00
    4   12   14      1.35      0.00
    4   12   13     -1.13      0.00
    4   12   12      0.12      0.00
    4   12   11     -0.78      0.00
    4   12   10     -0.43      0.00
    4   12    9      0.60      0.00
    4   12    8     -0.90      0.00
    4   12    7      0.61      0.00
    4   12    6     -1.44      0.00
    4   12    5      1.09      0.00
    4   12    4     -0.37      0.00
    4   12    3     -1.83      0.00
    4   12    2      1.25      0.00
    4   12    1     -1.90      0.00
    4   12    0      1.38      0.00
    4   11   26      0.89      0.00
    4   11   25     -1.08      0.00
    4   11   24      0.01      0.00
    4   11   23     -0.30      0.00
    4   11   22      0.54      0.00
    4   11   21     -0.03      0.00
    4   11   20      0.15      0.00
    4   11   19      0.16      0.00
    4   11   18     -0.23      0.00
    4   11   17      0.01      0.00
    4   11   16     -1.70      0.00
    4   11   15      0.38      0.00
    4   11   14     -0.32      0.00
    4   11   13      0.24      0.00
    4   11   12      1.41      0.00
    4   11   11     -0.35      0.00
    4   11   10      2.26      0.00
    4   11    9     -0.13      0.00
    4   11    8      0.53      0.00
    4   11    7      1.22      0.00
    4   11    6     -3.54      0.00
    4   11    5     -0.84      0.00
    4   11    4     -2.21      0.00
    4   11    3     -1.03      0.00
    4   11    2      0.42      0.00
    4   11    1     -2.12      0.00
    4   11    0      3.75      0.00
    4   10   26     -0.36      0.00
    4   10   25     -0.91      0.00
    4   10   24     -0.61      0.00
    4   10   23     -0.21      0.00
    4   10   22     -0.65      0.00
    4   10   21     -1.23      0.00
    4   10   20      0.05      0.00
    4   10   19     -1.02      0.00
    4   10   18      0.15      0.00
    4   10   17     -0.28      0.00
    4   10   16      0.31      0.00
    4   10   15      2.48      0.00
    4   10   14     -0.15      0.00
    4   10   13      1.44      0.00
    4   10   12     -1.57      0.00
    4   10   11     -0.57      0.00
    4   10   10     -1.38      0.00
    4   10    9     -0.39      0.00
    4   10    8     -0.96      0.00
    4   10    7      0.61      0.00
    4   10    6      0.70      0.00
    4   10    5      2.40      0.00
    4   10    4      2.00      0.00
    4   10    3     -0.12      0.00
    4   10    2      1.78      0.00
    4   10    1      0.28      0.00
    4   10    0     -3.20      0.00
    4    9   27      0.92      0.00
    4    9   26      1.10      0.00
    4    9   25      0.63      0.00
    4    9   24     -0.01      0.00
    4    9   23      0.52      0.00
    4    9   22     -0.48      0.00
    4    9   21      0.13      0.00
    4    9   20      0.66      0.00
    4    9   19     -0.77      0.00
    4    9   18      0.35      0.00
    4    9   17     -1.01      0.00
    4    9   16     -0.06      0.00
    4    9   15     -0.91      0.00
    4    9   14     -0.79      0.00
    4    9   13      1.71      0.00
    4    9   12     -2.30      0.00
    4    9   11      1.35      0.00
    4    9   10      0.16      0.00
    4    9    9      1.25      0.00
    4    9    8      2.36      0.00
    4    9    7     -1.14      0.00
    4    9    6      1.90      0.00
    4    9    5     -1.21      0.00
    4    9    4      1.01      0.00
    4    9    3      0.57      0.00
    4    9    2     -1.72      0.00
    4    9    1      5.21      0.00
    4    9    0      0.90      0.00
    4    8   28      0.37      0.00
    4    8   27      0.21      0.00
    4    8   26      0.13      0.00
    4    8   25      0.73      0.00
    4    8   24     -0.05      0.00
    4    8   23      1.57      0.00
    4    8   22      0.07      0.00
    4    8   21     -0.88      0.00
    4    8   20      0.54      0.00
    4    8   19     -0.31      0.00
    4    8   18     -0.20      0.00
    4    8   17     -2.33      0.00
    4    8   16     -0.06      0.00
    4    8   15     -0.95      0.00
    4    8   14     -0.62      0.00
    4    8   13      1.89      0.00
    4    8   12     -0.44      0.00
    4    8   11      3.58      0.00
    4    8   10      0.57      0.00
    4    8    9      1.79      0.00
    4    8    8      0.41      0.00
    4    8    7     -3.53      0.00
    4    8    6     -0.29      0.00
    4    8    5     -5.38      0.00
    4    8    4     -1.03      0.00
    4    8    3     -3.35      0.00
    4    8    2     -2.58      0.00
    4    8    1      0.30      0.00
    4    8    0     -1.39      0.00
    4    7   28      0.22      0.00
    4    7   27     -0.04      0.00
    4    7   26      1.08      0.00
    4    7   25      1.37      0.00
    4    7   24     -0.08      0.00
    4    7   23      0.66      0.00
    4    7   22     -0.73      0.00
    4    7   21     -0.73      0.00
    4    7   20     -0.91      0.00
    4    7   19     -0.89      0.00
    4    7   18     -0.23      0.00
    4    7   17     -0.73      0.00
    4    7   16      0.65      0.00
    4    7   15     -1.16      0.00
    4    7   14      0.50      0.00
    4    7   13      1.09      0.00
    4    7   12     -1.34      0.00
    4    7   11      0.28      0.00
    4    7   10     -0.33      0.00
    4    7    9      0.23      0.00
    4    7    8      0.04      0.00
    4    7    7      0.24      0.00
    4    7    6      0.86      0.00
    4    7    5     -2.40      0.00
    4    7    4      0.17      0.00
    4    7    3      0.97      0.00
    4    7    2     -0.27      0.00
    4    7    1     -0.79      0.00
    4    7    0     -0.87      0.00
    4    6   28      0.37      0.00
    4    6   27      0.29      0.00
    4    6   26      0.41      0.00
    4    6   25     -0.28      0.00
    4    6   24      0.26      0.00
    4    6   23     -0.90      0.00
    4    6   22      0.00      0.00
    4    6   21     -0.66      0.00
    4    6   20      0.53      0.00
    4    6   19      1.11      0.00
    4    6   18     -0.19      0.00
    4    6   17      0.53      0.00
    4    6   16     -0.68      0.00
    4    6   15     -1.08      0.00
    4    6   14      0.36      0.00
    4    6   13     -0.94      0.00
    4    6   12      1.63      0.00
    4    6   11     -0.66      0.00
    4    6   10      3.15      0.00
    4    6    9      0.73      0.00
    4    6    8      0.36      0.00
    4    6    7      2.02      0.00
    4    6    6     -1.96      0.00
    4    6    5      1.37      0.00
    4    6    4     -3.62      0.00
    4    6    3      2.08      0.00
    4    6    2      2.03      0.00
    4    6    1      1.44      0.00
    4    6    0     11.46      0.00
    4    5   29     -0.75      0.00
    4    5   28      0.34      0.00
    4    5   27     -0.71      0.00
    4    5   26     -1.50      0.00
    4    5   25      0.00      0.00
    4    5   24      0.38      0.00
    4    5   23      0.74      0.00
    4    5   22      1.91      0.00
    4    5   21      0.76      0.00
    4    5   20      0.85      0.00
    4    5   19      0.20      0.00
    4    5   18      0.91      0.00
    4    5   17      0.15      0.00
    4    5   16     -1.48      0.00
    4    5   15     -0.63      0.00
    4    5   14      0.53      0.00
    4    5   13      0.15      0.00
    4    5   12      5.31      0.00
    4    5   11     -0.89      0.00
    4    5   10      6.78      0.00
    4    5    9     -0.68      0.00
    4    5    8     -2.74      0.00
    4    5    7     -0.37      0.00
    4    5    6    -14.11      0.00
    4    5    5     -3.51      0.00
    4    5    4     -8.87      0.00
    4    5    3     -0.17      0.00
    4    5    2      8.74      0.00
    4    5    1     -1.96      0.00
    4    5    0     10.57      0.00
    4    4   28     -0.23      0.00
    4    4   26      0.16      0.00
    4    4   24      0.33      0.00
    4    4   22     -0.28      0.00
    4    4   20      0.38      0.00
    4    4   18     -0.29      0.00
    4    4   16     -0.43      0.00
    4    4   14      0.94      0.00
    4    4   12      1.31      0.00
    4    4   10     -0.03      0.00
    4    4    8      0.42      0.00
    4    4    6     -0.78      0.00
    4    4    4     -5.84      0.00
    4    4    2      0.87      0.00
    4    4    0     -3.57      0.00
    5   22    8     -0.37      0.00
    5   22    7     -0.32      0.00
    5   22    6     -1.74      0.00
    5   22    5      0.57      0.00
    5   22    4     -0.99      0.00
    5   22    3     -1.15      0.00
    5   22    2     -0.52      0.00
    5   22    1      0.08      0.00
    5   22    0      1.20      0.00
    5   21   11     -0.38      0.00
    5   21   10     -0.18      0.00
    5   21    9     -0.23      0.00
    5   21    8     -0.02      0.00
    5   21    7      1.06      0.00
    5   21    6     -1.17      0.00
    5   21    5      1.80      0.00
    5   21    4      0.95      0.00
    5   21    3      0.87      0.00
    5   21    2      2.28      0.00
    5   21    1      2.53      0.00
    5   21    0      2.90      0.00
    5   20   14      0.67      0.00
    5   20   13      0.77      0.00
    5   20   12      0.07      0.00
    5   20   11      0.50      0.00
    5   20   10      0.65      0.00
    5   20    9      0.39      0.00
    5   20    8      1.88      0.00
    5   20    7      0.58      0.00
    5   20    6     -0.54      0.00
    5   20    5      0.07      0.00
    5   20    4     -0.57      0.00
    5   20    3      0.35      0.00
    5   20    2     -1.93      0.00
    5   20    1     -1.39      0.00
    5   20    0     -1.37      0.00
    5   19   16     -0.81      0.00
    5   19   15      1.13      0.00
    5   19   14     -0.30      0.00
    5   19   13      1.78      0.00
    5   19   12     -1.94      0.00
    5   19   11      0.38      0.00
    5   19   10      0.62      0.00
    5   19    9      0.39      0.00
    5   19    8      0.08      0.00
    5   19    7      0.95      0.00
    5   19    6     -0.12      0.00
    5   19    5      0.34      0.00
    5   19    4     -0.27      0.00
    5   19    3     -1.20      0.00
    5   19    2     -0.28      0.00
    5   19    1     -0.46      0.00
    5   19    0      0.00      0.00
    5   18   18      0.01      0.00
    5   18   17      1.09      0.00
    5   18   16     -1.30      0.00
    5   18   15      0.10      0.00
    5   18   14     -1.24      0.00
    5   18   13     -0.19      0.00
    5   18   12      0.49      0.00
    5   18   11     -0.49      0.00
    5   18   10     -0.30      0.00
    5   18    9     -1.42      0.00
    5   18    8     -0.37      0.00
    5   18    7     -0.58      0.00
    5   18    6     -1.75      0.00
    5   18    5     -0.44      0.00
    5   18    4      1.16      0.00
    5   18    3      0.10      0.00
    5   18    2      0.30      0.00
    5   18    1      1.29      0.00
    5   18    0      0.41      0.00
    5   17   19     -0.50      0.00
    5   17   18      0.00      0.00
    5   17   17     -0.66      0.00
    5   17   16     -0.83      0.00
    5   17   15      0.15      0.00
    5   17   14     -0.41      0.00
    5   17   13      1.95      0.00
    5   17   12      0.86      0.00
    5   17   11      0.93      0.00
    5   17   10      0.35      0.00
    5   17    9      1.40      0.00
    5   17    8      1.01      0.00
    5   17    7      0.48      0.00
    5   17    6      1.28      0.00
    5   17    5     -0.44      0.00
    5   17    4      0.30      0.00
    5   17    3      0.05      0.00
    5   17    2     -0.72      0.00
    5   17    1      0.00      0.00
    5   17    0     -2.08      0.00
    5   16   21      0.84      0.00
    5   16   20     -0.58      0.00
    5   16   19      0.18      0.00
    5   16   18     -0.15      0.00
    5   16   17     -0.67      0.00
    5   16   16     -0.07      0.00
    5   16   15     -0.52      0.00
    5   16   14      0.78      0.00
    5   16   13     -0.36      0.00
    5   16   12      0.52      0.00
    5   16   11      0.96      0.00
    5   16   10     -1.51      0.00
    5   16    9      0.65      0.00
    5   16    8     -2.73      0.00
    5   16    7      1.21      0.00
    5   16    6     -2.29      0.00
    5   16    5     -0.41      0.00
    5   16    4      0.21      0.00
    5   16    3     -0.79      0.00
    5   16    2     -0.79      0.00
    5   16    1      0.44      0.00
    5   16    0     -0.30      0.00
    5   15   22      1.33      0.00
    5   15   21      0.46      0.00
    5   15   20      0.33      0.00
    5   15   19     -0.25      0.00
    5   15   18     -0.68      0.00
    5   15   17     -1.21      0.00
    5   15   16     -0.21      0.00
    5   15   15      0.34      0.00
    5   15   14      0.95      0.00
    5   15   13      0.52      0.00
    5   15   12      1.66      0.00
    5   15   11     -0.37      0.00
    5   15   10     -0.47      0.00
    5   15    9     -0.53      0.00
    5   15    8     -0.97      0.00
    5   15    7      0.96      0.00
    5   15    6     -2.04      0.00
    5   15    5      1.96      0.00
    5   15    4     -0.05      0.00
    5   15    3      1.75      0.00
    5   15    2      0.69      0.00
    5   15    1      1.38      0.00
    5   15    0      3.59      0.00
    5   14   23     -0.59      0.00
    5   14   22      0.24      0.00
    5   14   21      1.76      0.00
    5   14   20     -0.66      0.00
    5   14   19      0.14      0.00
    5   14   18     -0.36      0.00
    5   14   17      0.56      0.00
    5   14   16      0.22      0.00
    5   14   15     -0.86      0.00
    5   14   14      0.86      0.00
    5   14   13     -0.69      0.00
    5   14   12      0.51      0.00
    5   14   11     -0.03      0.00
    5   14   10      2.11      0.00
    5   14    9     -0.14      0.00
    5   14    8      0.06      0.00
    5   14    7      1.06      0.00
    5   14    6     -0.19      0.00
    5   14    5      1.09      0.00
    5   14    4      0.36      0.00
    5   14    3      0.59      0.00
    5   14    2     -1.24      0.00
    5   14    1     -1.38      0.00
    5   14    0     -1.27      0.00
    5   13   24      0.40      0.00
    5   13   23     -0.34      0.00
    5   13   22     -0.72      0.00
    5   13   21     -0.11      0.00
    5   13   20     -0.09      0.00
    5   13   19      0.97      0.00
    5   13   18     -0.69      0.00
    5   13   17      0.79      0.00
    5   13   16     -1.13      0.00
    5   13   15      2.33      0.00
    5   13   14     -0.31      0.00
    5   13   13      1.55      0.00
    5   13   12      0.49      0.00
    5   13   11     -0.31      0.00
    5   13   10      1.54      0.00
    5   13    9     -2.21      0.00
    5   13    8     -0.04      0.00
    5   13    7     -0.14      0.00
    5   13    6     -1.65      0.00
    5   13    5     -0.48      0.00
    5   13    4     -0.61      0.00
    5   13    3     -1.21      0.00
    5   13    2     -1.20      0.00
    5   13    1     -0.57      0.00
    5   13    0     -1.32      0.00
    5   12   25      0.18      0.00
    5   12   24     -0.07      0.00
    5   12   23     -0.61      0.00
    5   12   22     -0.59      0.00
    5   12   21      0.35      0.00
    5   12   20     -0.02      0.00
    5   12   19     -0.89      0.00
    5   12   18     -0.42      0.00
    5   12   17      0.18      0.00
    5   12   16      0.65      0.00
    5   12   15      0.32      0.00
    5   12   14     -0.90      0.00
    5   12   13      0.96      0.00
    5   12   12     -2.31      0.00
    5   12   11     -0.05      0.00
    5   12   10     -1.13      0.00
    5   12    9     -0.63      0.00
    5   12    8     -1.35      0.00
    5   12    7     -0.12      0.00
    5   12    6      1.09      0.00
    5   12    5      0.10      0.00
    5   12    4      2.43      0.00
    5   12    3      0.57      0.00
    5   12    2      0.32      0.00
    5   12    1      1.33      0.00
    5   12    0     -0.92      0.00
    5   11   25      0.49      0.00
    5   11   24      0.81      0.00
    5   11   23      0.55      0.00
    5   11   22     -0.53      0.00
    5   11   21      0.47      0.00
    5   11   20      0.34      0.00
    5   11   19      0.26      0.00
    5   11   18      0.67      0.00
    5   11   17     -1.07      0.00
    5   11   16      0.15      0.00
    5   11   15     -1.94      0.00
    5   11   14     -1.18      0.00
    5   11   13      0.44      0.00
    5   11   12     -1.14      0.00
    5   11   11      2.74      0.00
    5   11   10      1.06      0.00
    5   11    9      1.27      0.00
    5   11    8      1.45      0.00
    5   11    7      0.76      0.00
    5   11    6      1.51      0.00
    5   11    5     -0.96      0.00
    5   11    4      1.60      0.00
    5   11    3      1.28      0.00
    5   11    2     -0.38      0.00
    5   11    1      2.97      0.00
    5   11    0     -1.08      0.00
    5   10   26     -0.65      0.00
    5   10   25      0.48      0.00
    5   10   24      0.11      0.00
    5   10   23     -0.29      0.00
    5   10   22      0.38      0.00
    5   10   21     -0.93      0.00
    5   10   20     -0.64      0.00
    5   10   19     -0.01      0.00
    5   10   18     -0.92      0.00
    5   10   17     -0.04      0.00
    5   10   16      0.83      0.00
    5   10   15     -0.51      0.00
    5   10   14      0.54      0.00
    5   10   13      0.21      0.00
    5   10   12      0.04      0.00
    5   10   11      0.64      0.00
    5   10   10     -0.73      0.00
    5   10    9     -0.42      0.00
    5   10    8     -1.65      0.00
    5   10    7      1.96      0.00
    5   10    6     -0.22      0.00
    5   10    5     -0.68      0.00
    5   10    4     -0.40      0.00
    5   10    3      1.76      0.00
    5   10    2     -1.07      0.00
    5   10    1     -1.96      0.00
    5   10    0     -3.24      0.00
    5    9   27      0.51      0.00
    5    9   26     -0.35      0.00
    5    9   25      1.11      0.00
    5    9   24      0.39      0.00
    5    9   23     -0.41      0.00
    5    9   22      0.12      0.00
    5    9   21      0.87      0.00
    5    9   20     -0.37      0.00
    5    9   19      0.52      0.00
    5    9   18     -0.36      0.00
    5    9   17      0.95      0.00
    5    9   16      0.11      0.00
    5    9   15     -1.53      0.00
    5    9   14      0.53      0.00
    5    9   13     -1.61      0.00
    5    9   12     -0.09      0.00
    5    9   11     -0.84      0.00
    5    9   10      0.78      0.00
    5    9    9     -0.99      0.00
    5    9    8     -0.63      0.00
    5    9    7      1.29      0.00
    5    9    6     -1.52      0.00
    5    9    5      1.52      0.00
    5    9    4     -2.21      0.00
    5    9    3      1.03      0.00
    5    9    2     -0.50      0.00
    5    9    1     -0.74      0.00
    5    9    0     -0.56      0.00
    5    8   27      0.03      0.00
    5    8   26     -0.56      0.00
    5    8   25     -1.19      0.00
    5    8   24      0.26      0.00
    5    8   23     -0.80      0.00
    5    8   22      0.71      0.00
    5    8   21      0.63      0.00
    5    8   20      0.00      0.00
    5    8   19      1.88      0.00
    5    8   18     -0.91      0.00
    5    8   17      1.77      0.00
    5    8   16     -1.38      0.00
    5    8   15     -0.76      0.00
    5    8   14     -0.19      0.00
    5    8   13     -1.24      0.00
    5    8   12      2.85      0.00
    5    8   11     -1.73      0.00
    5    8   10      2.55      0.00
    5    8    9     -1.73      0.00
    5    8    8     -0.49      0.00
    5    8    7      1.50      0.00
    5    8    6     -3.06      0.00
    5    8    5     -0.55      0.00
    5    8    4     -1.36      0.00
    5    8    3      0.93      0.00
    5    8    2      3.78      0.00
    5    8    1     -1.20      0.00
    5    8    0      4.63      0.00
    5    7   28     -0.29      0.00
    5    7   27     -0.62      0.00
    5    7   26     -1.28      0.00
    5    7   25     -0.13      0.00
    5    7   24     -0.06      0.00
    5    7   23     -0.45      0.00
    5    7   22      0.67      0.00
    5    7   21      0.60      0.00
    5    7   20      0.40      0.00
    5    7   19     -0.31      0.00
    5    7   18      0.45      0.00
    5    7   17      1.18      0.00
    5    7   16      0.05      0.00
    5    7   15      1.09      0.00
    5    7   14      0.15      0.00
    5    7   13     -0.88      0.00
    5    7   12      0.02      0.00
    5    7   11     -2.05      0.00
    5    7   10      0.22      0.00
    5    7    9     -1.84      0.00
    5    7    8     -1.21      0.00
    5    7    7      2.11      0.00
    5    7    6     -1.14      0.00
    5    7    5      3.70      0.00
    5    7    4      0.60      0.00
    5    7    3      0.42      0.00
    5    7    2      4.55      0.00
    5    7    1     -3.70      0.00
    5    7    0     -5.40      0.00
    5    6   28     -1.44      0.00
    5    6   27      0.37      0.00
    5    6   26      0.01      0.00
    5    6   25     -0.92      0.00
    5    6   24     -0.40      0.00
    5    6   23     -0.90      0.00
    5    6   22     -0.69      0.00
    5    6   21     -0.17      0.00
    5    6   20      0.38      0.00
    5    6   19      0.38      0.00
    5    6   18      0.22      0.00
    5    6   17      0.94      0.00
    5    6   16      1.12      0.00
    5    6   15     -0.28      0.00
    5    6   14      0.40      0.00
    5    6   13      0.06      0.00
    5    6   12     -1.42      0.00
    5    6   11     -0.39      0.00
    5    6   10     -3.68      0.00
    5    6    9      0.11      0.00
    5    6    8      0.40      0.00
    5    6    7      1.00      0.00
    5    6    6      3.89      0.00
    5    6    5      1.94      0.00
    5    6    4      1.93      0.00
    5    6    3      1.61      0.00
    5    6    2     -3.37      0.00
    5    6    1      2.34      0.00
    5    6    0     -5.87      0.00
    5    5   28      0.10      0.00
    5    5   26     -1.01      0.00
    5    5   24     -0.21      0.00
    5    5   22      1.25      0.00
    5    5   20      0.71      0.00
    5    5   18      0.05      0.00
    5    5   16      0.27      0.00
    5    5   14     -0.51      0.00
    5    5   12     -1.27      0.00
    5    5   10     -1.12      0.00
    5    5    8     -0.36      0.00
    5    5    6      0.54      0.00
    5    5    4      2.86      0.00
    5    5    2     -1.72      0.00
    5    5    0     -8.87      0.00
    6   22    6      0.26      0.00
    6   22    5     -0.70      0.00
    6   22    4      0.25      0.00
    6   22    3     -1.22      0.00
    6   22    2     -1.67      0.00
    6   22    1     -1.53      0.00
    6   22    0     -1.05      0.00
    6   21   10     -0.07      0.00
    6   21    9     -1.69      0.00
    6   21    8     -1.21      0.00
    6   21    7     -0.73      0.00
    6   21    6      0.49      0.00
    6   21    5     -0.73      0.00
    6   21    4      1.06      0.00
    6   21    3     -1.37      0.00
    6   21    2      0.66      0.00
    6   21    1      0.06      0.00
    6   21    0      0.17      0.00
    6   20   13     -0.71      0.00
    6   20   12      1.20      0.00
    6   20   11     -0.22      0.00
    6   20   10      0.06      0.00
    6   20    9     -0.42      0.00
    6   20    8      0.75      0.00
    6   20    7     -1.00      0.00
    6   20    6      0.75      0.00
    6   20    5     -0.82      0.00
    6   20    4      1.05      0.00
    6   20    3      0.43      0.00
    6   20    2     -0.27      0.00
    6   20    1     -0.15      0.00
    6   20    0     -1.54      0.00
    6   19   15      0.29      0.00
    6   19   14     -0.20      0.00
    6   19   13      1.36      0.00
    6   19   12      0.22      0.00
    6   19   11      1.51      0.00
    6   19   10     -1.06      0.00
    6   19    9      0.27      0.00
    6   19    8     -2.09      0.00
    6   19    7     -0.14      0.00
    6   19    6      0.40      0.00
    6   19    5     -0.58      0.00
    6   19    4     -0.26      0.00
    6   19    3     -2.05      0.00
    6   19    2      0.10      0.00
    6   19    1     -0.02      0.00
    6   19    0      0.08      0.00
    6   18   17     -1.62      0.00
    6   18   16      0.30      0.00
    6   18   15     -0.82      0.00
    6   18   14      0.49      0.00
    6   18   13     -2.35      0.00
    6   18   12     -0.61      0.00
    6   18   11     -0.23      0.00
    6   18   10     -1.34      0.00
    6   18    9     -0.43      0.00
    6   18    8     -1.28      0.00
    6   18    7     -0.30      0.00
    6   18    6     -1.47      0.00
    6   18    5      0.83      0.00
    6   18    4      1.25      0.00
    6   18    3      0.00      0.00
    6   18    2      0.55      0.00
    6   18    1      0.74      0.00
    6   18    0      1.70      0.00
    6   17   19     -0.89      0.00
    6   17   18      0.03      0.00
    6   17   17     -0.36      0.00
    6   17   16      0.54      0.00
    6   17   15     -1.10      0.00
    6   17   14     -0.01      0.00
    6   17   13     -0.91      0.00
    6   17   12      0.45      0.00
    6   17   11      0.25      0.00
    6   17   10      0.61      0.00
    6   17    9     -0.76      0.00
    6   17    8      0.91      0.00
    6   17    7      0.22      0.00
    6   17    6      1.24      0.00
    6   17    5      0.85      0.00
    6   17    4     -0.38      0.00
    6   17    3      0.31      0.00
    6   17    2     -0.36      0.00
    6   17    1     -0.82      0.00
    6   17    0     -0.75      0.00
    6   16   20      0.11      0.00
    6   16   19      0.82      0.00
    6   16   18      0.54      0.00
    6   16   17      0.18      0.00
    6   16   16      0.68      0.00
    6   16   15      0.61      0.00
    6   16   14      1.02      0.00
    6   16   13     -0.65      0.00
    6   16   12     -0.87      0.00
    6   16   11      0.98      0.00
    6   16   10      1.95      0.00
    6   16    9      0.19      0.00
    6   16    8      1.18      0.00
    6   16    7      0.28      0.00
    6   16    6      0.40      0.00
    6   16    5      1.07      0.00
    6   16    4      0.34      0.00
    6   16    3      0.05      0.00
    6   16    2     -0.95      0.00
    6   16    1      0.36      0.00
    6   16    0      0.15      0.00
    6   15   21     -0.74      0.00
    6   15   20      0.21      0.00
    6   15   19     -0.24      0.00
    6   15   18      0.23      0.00
    6   15   17      0.65      0.00
    6   15   16      0.12      0.00
    6   15   15      1.32      0.00
    6   15   14     -1.44      0.00
    6   15   13      0.32      0.00
    6   15   12     -0.87      0.00
    6   15   11      0.17      0.00
    6   15   10     -0.83      0.00
    6   15    9     -1.56      0.00
    6   15    8     -0.28      0.00
    6   15    7     -1.11      0.00
    6   15    6     -0.85      0.00
    6   15    5     -1.16      0.00
    6   15    4     -0.41      0.00
    6   15    3     -1.31      0.00
    6   15    2      0.71      0.00
    6   15    1      1.06      0.00
    6   15    0      0.20      0.00
    6   14   22     -0.19      0.00
    6   14   21     -0.12      0.00
    6   14   20     -0.31      0.00
    6   14   19     -0.85      0.00
    6   14   18      0.33      0.00
    6   14   17     -1.05      0.00
    6   14   16      0.35      0.00
    6   14   15     -1.36      0.00
    6   14   14     -1.18      0.00
    6   14   13     -0.87      0.00
    6   14   12     -1.89      0.00
    6   14   11      0.51      0.00
    6   14   10      0.13      0.00
    6   14    9      0.91      0.00
    6   14    8      0.62      0.00
    6   14    7     -0.28      0.00
    6   14    6      1.76      0.00
    6   14    5     -0.38      0.00
    6   14    4      1.35      0.00
    6   14    3     -0.19      0.00
    6   14    2     -0.97      0.00
    6   14    1     -0.58      0.00
    6   14    0     -0.35      0.00
    6   13   23      0.13      0.00
    6   13   22     -0.22      0.00
    6   13   21     -0.58      0.00
    6   13   20     -0.56      0.00
    6   13   19      0.55      0.00
    6   13   18      0.85      0.00
    6   13   17     -0.18      0.00
    6   13   16      1.09      0.00
    6   13   15      0.28      0.00
    6   13   14      0.16      0.00
    6   13   13      0.12      0.00
    6   13   12      0.17      0.00
    6   13   11      2.05      0.00
    6   13   10     -0.62      0.00
    6   13    9      0.56      0.00
    6   13    8      0.53      0.00
    6   13    7     -0.07      0.00
    6   13    6      0.59      0.00
    6   13    5     -1.93      0.00
    6   13    4      0.34      0.00
    6   13    3     -0.98      0.00
    6   13    2      1.26      0.00
    6   13    1      0.94      0.00
    6   13    0     -0.74      0.00
    6   12   24     -0.25      0.00
    6   12   23     -0.64      0.00
    6   12   22      1.02      0.00
    6   12   21     -0.57      0.00
    6   12   20     -0.64      0.00
    6   12   19     -0.04      0.00
    6   12   18     -0.40      0.00
    6   12   17      0.27      0.00
    6   12   16      0.53      0.00
    6   12   15     -0.16      0.00
    6   12   14      1.04      0.00
    6   12   13     -0.77      0.00
    6   12   12     -0.21      0.00
    6   12   11     -0.82      0.00
    6   12   10     -1.11      0.00
    6   12    9     -0.14      0.00
    6   12    8     -1.87      0.00
    6   12    7      0.19      0.00
    6   12    6     -1.51      0.00
    6   12    5      1.07      0.00
    6   12    4     -0.48      0.00
    6   12    3      0.61      0.00
    6   12    2      0.53      0.00
    6   12    1      0.15      0.00
    6   12    0      5.47      0.00
    6   11   25      0.40      0.00
    6   11   24     -0.02      0.00
    6   11   23      0.22      0.00
    6   11   22      0.75      0.00
    6   11   21      1.35      0.00
    6   11   20      0.48      0.00
    6   11   19      0.72      0.00
    6   11   18      0.61      0.00
    6   11   17      0.29      0.00
    6   11   16     -0.38      0.00
    6   11   15     -1.15      0.00
    6   11   14     -0.24      0.00
    6   11   13     -1.14      0.00
    6   11   12      0.39      0.00
    6   11   11      0.47      0.00
    6   11   10      0.39      0.00
    6   11    9      0.17      0.00
    6   11    8      1.05      0.00
    6   11    7     -0.18      0.00
    6   11    6     -0.95      0.00
    6   11    5      0.70      0.00
    6   11    4     -1.37      0.00
    6   11    3     -0.99      0.00
    6   11    2     -0.20      0.00
    6   11    1     -0.23      0.00
    6   11    0     -1.43      0.00
    6   10   26      0.42      0.00
    6   10   25     -1.45      0.00
    6   10   24      0.36      0.00
    6   10   23     -0.54      0.00
    6   10   22      0.73      0.00
    6   10   21     -0.82      0.00
    6   10   20     -0.17      0.00
    6   10   19      0.55      0.00
    6   10   18     -0.39      0.00
    6   10   17      1.00      0.00
    6   10   16     -0.76      0.00
    6   10   15      1.68      0.00
    6   10   14      0.65      0.00
    6   10   13      0.22      0.00
    6   10   12      1.22      0.00
    6   10   11     -1.72      0.00
    6   10   10      1.42      0.00
    6   10    9     -1.89      0.00
    6   10    8     -0.65      0.00
    6   10    7     -0.63      0.00
    6   10    6     -2.03      0.00
    6   10    5      0.09      0.00
    6   10    4     -0.91      0.00
    6   10    3     -1.36      0.00
    6   10    2     -0.40      0.00
    6   10    1     -0.93      0.00
    6   10    0      1.00      0.00
    6    9   26     -0.09      0.00
    6    9   25     -0.23      0.00
    6    9   24     -0.87      0.00
    6    9   23     -0.70      0.00
    6    9   22     -0.63      0.00
    6    9   21      0.11      0.00
    6    9   20      0.65      0.00
    6    9   19     -0.97      0.00
    6    9   18      1.04      0.00
    6    9   17      0.20      0.00
    6    9   16      1.05      0.00
    6    9   15      0.98      0.00
    6    9   14      0.33      0.00
    6    9   13      0.59      0.00
    6    9   12     -1.57      0.00
    6    9   11     -0.87      0.00
    6    9   10     -1.62      0.00
    6    9    9     -1.05      0.00
    6    9    8      0.56      0.00
    6    9    7     -1.88      0.00
    6    9    6      1.77      0.00
    6    9    5      2.21      0.00
    6    9    4      2.15      0.00
    6    9    3     -1.56      0.00
    6    9    2      0.11      0.00
    6    9    1      2.43      0.00
    6    9    0     -2.30      0.00
    6    8   27     -0.20      0.00
    6    8   26      0.68      0.00
    6    8   25     -1.11      0.00
    6    8   24     -0.62      0.00
    6    8   23      0.72      0.00
    6    8   22     -0.69      0.00
    6    8   21      0.00      0.00
    6    8   20      0.38      0.00
    6    8   19      0.47      0.00
    6    8   18      0.37      0.00
    6    8   17     -0.64      0.00
    6    8   16      0.91      0.00
    6    8   15     -0.29      0.00
    6    8   14      0.15      0.00
    6    8   13      0.62      0.00
    6    8   12     -1.11      0.00
    6    8   11      0.45      0.00
    6    8   10     -0.47      0.00
    6    8    9      0.23      0.00
    6    8    8      1.92      0.00
    6    8    7     -1.54      0.00
    6    8    6      2.64      0.00
    6    8    5     -2.47      0.00
    6    8    4      3.14      0.00
    6    8    3     -0.87      0.00
    6    8    2     -2.25      0.00
    6    8    1      3.42      0.00
    6    8    0      3.66      0.00
    6    7   27     -0.15      0.00
    6    7   26      0.65      0.00
    6    7   25      0.99      0.00
    6    7   24      0.23      0.00
    6    7   23      0.51      0.00
    6    7   22     -0.06      0.00
    6    7   21     -0.36      0.00
    6    7   20     -0.40      0.00
    6    7   19     -0.95      0.00
    6    7   18     -0.35      0.00
    6    7   17     -0.47      0.00
    6    7   16      0.95      0.00
    6    7   15      0.04      0.00
    6    7   14      0.35      0.00
    6    7   13      1.33      0.00
    6    7   12     -1.39      0.00
    6    7   11      1.12      0.00
    6    7   10     -0.46      0.00
    6    7    9      0.50      0.00
    6    7    8      0.59      0.00
    6    7    7     -0.42      0.00
    6    7    6      2.67      0.00
    6    7    5     -0.14      0.00
    6    7    4      2.43      0.00
    6    7    3     -1.73      0.00
    6    7    2     -2.19      0.00
    6    7    1     -1.71      0.00
    6    7    0     -4.74      0.00
    6    6   28     -0.31      0.00
    6    6   26      1.48      0.00
    6    6   24     -0.36      0.00
    6    6   22     -1.40      0.00
    6    6   20     -0.73      0.00
    6    6   18     -0.70      0.00
    6    6   16      1.24      0.00
    6    6   14      1.02      0.00
    6    6   12     -2.32      0.00
    6    6   10     -1.65      0.00
    6    6    8     -0.71      0.00
    6    6    6      1.53      0.00
    6    6    4     -0.65      0.00
    6    6    2     -6.87      0.00
    6    6    0      6.23      0.00
    7   22    4     -0.82      0.00
    7   22    3      0.60      0.00
    7   22    2     -0.32      0.00
    7   22    1      0.21      0.00
    7   22    0     -0.57      0.00
    7   21    9      0.46      0.00
    7   21    8     -0.93      0.00
    7   21    7     -0.02      0.00
    7   21    6     -1.30      0.00
    7   21    5      0.42      0.00
    7   21    4      0.08      0.00
    7   21    3     -0.92      0.00
    7   21    2      0.22      0.00
    7   21    1      0.15      0.00
    7   21    0      0.75      0.00
    7   20   12     -0.65      0.00
    7   20   11     -0.32      0.00
    7   20   10     -0.25      0.00
    7   20    9      0.12      0.00
    7   20    8      2.40      0.00
    7   20    7      1.67      0.00
    7   20    6      0.53      0.00
    7   20    5      1.14      0.00
    7   20    4      0.57      0.00
    7   20    3      1.90      0.00
    7   20    2      0.88      0.00
    7   20    1      0.09      0.00
    7   20    0     -0.53      0.00
    7   19   15      0.23      0.00
    7   19   14      0.86      0.00
    7   19   13      0.23      0.00
    7   19   12     -0.65      0.00
    7   19   11      0.24      0.00
    7   19   10      0.96      0.00
    7   19    9      0.82      0.00
    7   19    8      0.64      0.00
    7   19    7      0.54      0.00
    7   19    6     -0.85      0.00
    7   19    5      0.03      0.00
    7   19    4     -1.41      0.00
    7   19    3     -0.34      0.00
    7   19    2     -1.35      0.00
    7   19    1     -0.54      0.00
    7   19    0     -1.00      0.00
    7   18   17      0.81      0.00
    7   18   16      0.42      0.00
    7   18   15      1.04      0.00
    7   18   14      0.34      0.00
    7   18   13      0.48      0.00
    7   18   12      0.01      0.00
    7   18   11      0.61      0.00
    7   18   10      0.90      0.00
    7   18    9     -0.56      0.00
    7   18    8      1.82      0.00
    7   18    7      0.75      0.00
    7   18    6     -0.96      0.00
    7   18    5      0.58      0.00
    7   18    4     -0.53      0.00
    7   18    3      1.20      0.00
    7   18    2      0.21      0.00
    7   18    1      1.31      0.00
    7   18    0      0.32      0.00
    7   17   18     -0.72      0.00
    7   17   17      0.33      0.00
    7   17   16     -0.53      0.00
    7   17   15      0.22      0.00
    7   17   14     -0.71      0.00
    7   17   13     -0.08      0.00
    7   17   12      0.05      0.00
    7   17   11     -1.59      0.00
    7   17   10      0.11      0.00
    7   17    9      0.07      0.00
    7   17    8      0.91      0.00
    7   17    7     -0.27      0.00
    7   17    6      0.00      0.00
    7   17    5     -1.15      0.00
    7   17    4      0.16      0.00
    7   17    3      0.28      0.00
    7   17    2     -0.07      0.00
    7   17    1     -0.11      0.00
    7   17    0     -1.28      0.00
    7   16   20     -1.03      0.00
    7   16   19     -0.01      0.00
    7   16   18      0.35      0.00
    7   16   17     -0.29      0.00
    7   16   16      0.22      0.00
    7   16   15      0.27      0.00
    7   16   14     -0.09      0.00
    7   16   13      0.47      0.00
    7   16   12      0.37      0.00
    7   16   11      0.35      0.00
    7   16   10      0.39      0.00
    7   16    9     -0.22      0.00
    7   16    8      0.57      0.00
    7   16    7      0.24      0.00
    7   16    6      0.26      0.00
    7   16    5     -1.13      0.00
    7   16    4     -0.20      0.00
    7   16    3     -0.09      0.00
    7   16    2     -0.05      0.00
    7   16    1     -0.30      0.00
    7   16    0     -0.54      0.00
    7   15   21     -0.30      0.00
    7   15   20     -0.04      0.00
    7   15   19      1.12      0.00
    7   15   18      0.16      0.00
    7   15   17      0.00      0.00
    7   15   16      0.17      0.00
    7   15   15      1.12      0.00
    7   15   14      0.86      0.00
    7   15   13      0.62      0.00
    7   15   12      0.11      0.00
    7   15   11     -0.48      0.00
    7   15   10     -2.24      0.00
    7   15    9      0.38      0.00
    7   15    8     -1.37      0.00
    7   15    7     -0.49      0.00
    7   15    6     -1.45      0.00
    7   15    5     -1.54      0.00
    7   15    4      0.47      0.00
    7   15    3     -1.60      0.00
    7   15    2      1.15      0.00
    7   15    1     -0.19      0.00
    7   15    0      0.98      0.00
    7   14   22      1.35      0.00
    7   14   21      0.83      0.00
    7   14   20     -0.35      0.00
    7   14   19     -0.50      0.00
    7   14   18      0.02      0.00
    7   14   17      0.04      0.00
    7   14   16     -0.49      0.00
    7   14   15     -0.92      0.00
    7   14   14     -0.09      0.00
    7   14   13     -1.03      0.00
    7   14   12      0.22      0.00
    7   14   11     -0.99      0.00
    7   14   10     -0.02      0.00
    7   14    9     -0.66      0.00
    7   14    8      0.20      0.00
    7   14    7      1.78      0.00
    7   14    6     -0.11      0.00
    7   14    5      1.59      0.00
    7   14    4      0.08      0.00
    7   14    3      1.76      0.00
    7   14    2      0.08      0.00
    7   14    1     -1.27      0.00
    7   14    0      0.82      0.00
    7   13   23      0.36      0.00
    7   13   22     -0.77      0.00
    7   13   21     -0.31      0.00
    7   13   20      0.44      0.00
    7   13   19      1.37      0.00
    7   13   18      0.43      0.00
    7   13   17     -0.35      0.00
    7   13   16     -0.88      0.00
    7   13   15      0.67      0.00
    7   13   14      0.65      0.00
    7   13   13      0.27      0.00
    7   13   12      1.25      0.00
    7   13   11      0.29      0.00
    7   13   10      1.72      0.00
    7   13    9     -0.29      0.00
    7   13    8      1.63      0.00
    7   13    7     -0.14      0.00
    7   13    6      0.21      0.00
    7   13    5      0.26      0.00
    7   13    4      0.29      0.00
    7   13    3     -0.09      0.00
    7   13    2     -0.62      0.00
    7   13    1      0.54      0.00
    7   13    0     -3.86      0.00
    7   12   24      0.02      0.00
    7   12   23     -0.70      0.00
    7   12   22      0.16      0.00
    7   12   21      0.07      0.00
    7   12   20      0.16      0.00
    7   12   19     -0.28      0.00
    7   12   18     -0.17      0.00
    7   12   17      1.00      0.00
    7   12   16     -0.40      0.00
    7   12   15      1.91      0.00
    7   12   14      0.34      0.00
    7   12   13      0.88      0.00
    7   12   12      0.57      0.00
    7   12   11     -2.05      0.00
    7   12   10      1.00      0.00
    7   12    9     -2.54      0.00
    7   12    8     -0.07      0.00
    7   12    7      0.29      0.00
    7   12    6     -1.43      0.00
    7   12    5     -0.43      0.00
    7   12    4     -0.63      0.00
    7   12    3     -0.33      0.00
    7   12    2     -0.72      0.00
    7   12    1      0.53      0.00
    7   12    0      0.56      0.00
    7   11   25      0.12      0.00
    7   11   24     -0.30      0.00
    7   11   23      0.87      0.00
    7   11   22     -1.54      0.00
    7   11   21      0.27      0.00
    7   11   20      0.35      0.00
    7   11   19     -0.11      0.00
    7   11   18      0.35      0.00
    7   11   17     -1.40      0.00
    7   11   16      0.19      0.00
    7   11   15     -0.58      0.00
    7   11   14     -1.10      0.00
    7   11   13     -0.10      0.00
    7   11   12     -1.66      0.00
    7   11   11     -0.15      0.00
    7   11   10     -0.50      0.00
    7   11    9     -0.10      0.00
    7   11    8      0.72      0.00
    7   11    7      0.03      0.00
    7   11    6      1.70      0.00
    7   11    5     -0.20      0.00
    7   11    4      2.56      0.00
    7   11    3     -0.40      0.00
    7   11    2     -0.23      0.00
    7   11    1      0.06      0.00
    7   11    0     -3.37      0.00
    7   10   25      0.01      0.00
    7   10   24      0.05      0.00
    7   10   23      0.40      0.00
    7   10   22     -0.38      0.00
    7   10   21     -0.53      0.00
    7   10   20     -0.37      0.00
    7   10   19     -0.53      0.00
    7   10   18     -0.05      0.00
    7   10   17     -0.95      0.00
    7   10   16      0.66      0.00
    7   10   15     -0.38      0.00
    7   10   14      0.19      0.00
    7   10   13      0.99      0.00
    7   10   12      0.23      0.00
    7   10   11      0.83      0.00
    7   10   10      0.95      0.00
    7   10    9      0.29      0.00
    7   10    8      0.81      0.00
    7   10    7      2.15      0.00
    7   10    6      0.62      0.00
    7   10    5     -2.16      0.00
    7   10    4      1.09      0.00
    7   10    3      0.12      0.00
    7   10    2      0.53      0.00
    7   10    1     -0.27      0.00
    7   10    0      1.45      0.00
    7    9   26     -0.45      0.00
    7    9   25      1.00      0.00
    7    9   24      0.52      0.00
    7    9   23     -0.32      0.00
    7    9   22     -0.13      0.00
    7    9   21     -0.70      0.00
    7    9   20     -0.59      0.00
    7    9   19     -0.58      0.00
    7    9   18     -0.68      0.00
    7    9   17     -0.38      0.00
    7    9   16      1.06      0.00
    7    9   15     -0.10      0.00
    7    9   14      1.32      0.00
    7    9   13      0.31      0.00
    7    9   12     -0.66      0.00
    7    9   11      0.84      0.00
    7    9   10      0.98      0.00
    7    9    9      0.66      0.00
    7    9    8     -1.34      0.00
    7    9    7      0.64      0.00
    7    9    6     -0.39      0.00
    7    9    5      0.72      0.00
    7    9    4     -0.11      0.00
    7    9    3      0.42      0.00
    7    9    2      0.59      0.00
    7    9    1     -0.71      0.00
    7    9    0     -0.24      0.00
    7    8   26     -0.03      0.00
    7    8   25      0.16      0.00
    7    8   24      0.13      0.00
    7    8   23      0.38      0.00
    7    8   22      0.58      0.00
    7    8   21      0.55      0.00
    7    8   20      0.50      0.00
    7    8   19      0.63      0.00
    7    8   18      0.02      0.00
    7    8   17      0.09      0.00
    7    8   16     -0.74      0.00
    7    8   15     -1.41      0.00
    7    8   14     -0.54      0.00
    7    8   13     -0.19      0.00
    7    8   12      0.64      0.00
    7    8   11      0.06      0.00
    7    8   10      0.84      0.00
    7    8    9     -0.30      0.00
    7    8    8      0.56      0.00
    7    8    7      1.29      0.00
    7    8    6     -2.30      0.00
    7    8    5     -1.50      0.00
    7    8    4     -2.95      0.00
    7    8    3      0.29      0.00
    7    8    2     -0.58      0.00
    7    8    1     -0.32      0.00
    7    8    0      3.01      0.00
    7    7   26     -0.64      0.00
    7    7   24      1.29      0.00
    7    7   22      1.11      0.00
    7    7   20     -0.72      0.00
    7    7   18     -1.74      0.00
    7    7   16     -2.07      0.00
    7    7   14     -0.45      0.00
    7    7   12      1.16      0.00
    7    7   10      3.65      0.00
    7    7    8     -1.65      0.00
    7    7    6     -3.09      0.00
    7    7    4     -1.78      0.00
    7    7    2      5.62      0.00
    7    7    0     -2.90      0.00
    8   21    8     -1.23      0.00
    8   21    7     -0.01      0.00
    8   21    6     -1.24      0.00
    8   21    5      0.32      0.00
    8   21    4     -0.54      0.00
    8   21    3     -0.59      0.00
    8   21    2     -0.52      0.00
    8   21    1      0.09      0.00
    8   21    0      0.81      0.00
    8   20   11     -0.68      0.00
    8   20   10      0.80      0.00
    8   20    9     -0.41      0.00
    8   20    8      0.71      0.00
    8   20    7     -0.20      0.00
    8   20    6     -0.01      0.00
    8   20    5      0.06      0.00
    8   20    4      0.01      0.00
    8   20    3      0.59      0.00
    8   20    2      0.42      0.00
    8   20    1     -0.78      0.00
    8   20    0     -0.24      0.00
    8   19   14      0.04      0.00
    8   19   13      0.47      0.00
    8   19   12      1.72      0.00
    8   19   11     -0.16      0.00
    8   19   10      0.40      0.00
    8   19    9     -0.06      0.00
    8   19    8     -1.56      0.00
    8   19    7     -0.04      0.00
    8   19    6      0.41      0.00
    8   19    5     -0.53      0.00
    8   19    4     -0.08      0.00
    8   19    3     -0.30      0.00
    8   19    2      0.02      0.00
    8   19    1      1.05      0.00
    8   19    0      0.91      0.00
    8   18   16      0.10      0.00
    8   18   15      1.25      0.00
    8   18   14      0.47      0.00
    8   18   13      1.50      0.00
    8   18   12     -0.47      0.00
    8   18   11     -0.14      0.00
    8   18   10     -1.07      0.00
    8   18    9     -0.92      0.00
    8   18    8     -1.11      0.00
    8   18    7     -1.29      0.00
    8   18    6     -0.73      0.00
    8   18    5      0.23      0.00
    8   18    4      0.35      0.00
    8   18    3     -0.54      0.00
    8   18    2      0.38      0.00
    8   18    1      0.41      0.00
    8   18    0      0.15      0.00
    8   17   18     -0.33      0.00
    8   17   17      0.18      0.00
    8   17   16     -1.09      0.00
    8   17   15     -1.24      0.00
    8   17   14     -0.75      0.00
    8   17   13     -1.45      0.00
    8   17   12      0.17      0.00
    8   17   11     -0.47      0.00
    8   17   10     -1.66      0.00
    8   17    9     -0.09      0.00
    8   17    8     -1.20      0.00
    8   17    7      0.58      0.00
    8   17    6      1.41      0.00
    8   17    5      0.17      0.00
    8   17    4      1.47      0.00
    8   17    3     -0.80      0.00
    8   17    2      0.50      0.00
    8   17    1     -1.38      0.00
    8   17    0     -0.26      0.00
    8   16   19      0.05      0.00
    8   16   18      0.28      0.00
    8   16   17     -0.74      0.00
    8   16   16     -0.84      0.00
    8   16   15      0.02      0.00
    8   16   14      0.30      0.00
    8   16   13     -0.39      0.00
    8   16   12      0.14      0.00
    8   16   11      0.23      0.00
    8   16   10      1.27      0.00
    8   16    9     -0.74      0.00
    8   16    8      0.37      0.00
    8   16    7     -0.24      0.00
    8   16    6      0.31      0.00
    8   16    5      0.90      0.00
    8   16    4      0.29      0.00
    8   16    3      0.16      0.00
    8   16    2     -0.09      0.00
    8   16    1     -0.75      0.00
    8   16    0     -0.57      0.00
    8   15   20      0.41      0.00
    8   15   19      0.49      0.00
    8   15   18      0.42      0.00
    8   15   17      0.18      0.00
    8   15   16     -0.29      0.00
    8   15   15      1.14      0.00
    8   15   14      0.20      0.00
    8   15   13      0.89      0.00
    8   15   12      1.08      0.00
    8   15   11      1.19      0.00
    8   15   10      0.59      0.00
    8   15    9     -0.04      0.00
    8   15    8      0.16      0.00
    8   15    7      0.13      0.00
    8   15    6      0.05      0.00
    8   15    5     -0.10      0.00
    8   15    4      0.20      0.00
    8   15    3     -0.20      0.00
    8   15    2      0.48      0.00
    8   15    1      1.26      0.00
    8   15    0      0.78      0.00
    8   14   21      0.79      0.00
    8   14   20      0.57      0.00
    8   14   19     -0.90      0.00
    8   14   18      0.27      0.00
    8   14   17      0.18      0.00
    8   14   16     -0.16      0.00
    8   14   15      0.28      0.00
    8   14   14     -0.99      0.00
    8   14   13      0.01      0.00
    8   14   12     -0.71      0.00
    8   14   11     -1.11      0.00
    8   14   10      0.41      0.00
    8   14    9     -0.36      0.00
    8   14    8     -0.15      0.00
    8   14    7      1.40      0.00
    8   14    6     -0.29      0.00
    8   14    5      1.23      0.00
    8   14    4      0.10      0.00
    8   14    3      0.98      0.00
    8   14    2     -0.59      0.00
    8   14    1      0.05      0.00
    8   14    0      0.03      0.00
    8   13   22     -0.29      0.00
    8   13   21     -0.22      0.00
    8   13   20     -0.96      0.00
    8   13   19     -0.45      0.00
    8   13   18     -0.81      0.00
    8   13   17     -2.08      0.00
    8   13   16     -0.09      0.00
    8   13   15     -1.20      0.00
    8   13   14     -1.03      0.00
    8   13   13     -0.52      0.00
    8   13   12      0.10      0.00
    8   13   11      0.60      0.00
    8   13   10      0.42      0.00
    8   13    9      0.10      0.00
    8   13    8     -0.25      0.00
    8   13    7      0.08      0.00
    8   13    6      0.41      0.00
    8   13    5     -0.78      0.00
    8   13    4     -0.12      0.00
    8   13    3      0.36      0.00
    8   13    2     -0.62      0.00
    8   13    1      0.10      0.00
    8   13    0     -1.69      0.00
    8   12   23     -0.80      0.00
    8   12   22      0.41      0.00
    8   12   21     -0.06      0.00
    8   12   20     -0.62      0.00
    8   12   19     -0.35      0.00
    8   12   18      0.12      0.00
    8   12   17      0.51      0.00
    8   12   16      0.76      0.00
    8   12   15      0.36      0.00
    8   12   14      0.97      0.00
    8   12   13      0.76      0.00
    8   12   12      0.05      0.00
    8   12   11      0.12      0.00
    8   12   10      0.34      0.00
    8   12    9      0.48      0.00
    8   12    8     -0.44      0.00
    8   12    7     -0.16      0.00
    8   12    6     -0.55      0.00
    8   12    5     -1.27      0.00
    8   12    4     -0.46      0.00
    8   12    3     -1.19      0.00
    8   12    2      0.48      0.00
    8   12    1      0.48      0.00
    8   12    0      2.79      0.00
    8   11   24      0.00      0.00
    8   11   23     -0.35      0.00
    8   11   22      0.78      0.00
    8   11   21      0.80      0.00
    8   11   20     -0.56      0.00
    8   11   19      0.54      0.00
    8   11   18     -0.76      0.00
    8   11   17      0.17      0.00
    8   11   16     -0.04      0.00
    8   11   15     -1.10      0.00
    8   11   14      0.08      0.00
    8   11   13     -1.01      0.00
    8   11   12     -0.20      0.00
    8   11   11      0.24      0.00
    8   11   10     -0.15      0.00
    8   11    9     -0.01      0.00
    8   11    8     -0.38      0.00
    8   11    7      0.57      0.00
    8   11    6      0.59      0.00
    8   11    5      0.61      0.00
    8   11    4      0.45      0.00
    8   11    3      0.39      0.00
    8   11    2      1.20      0.00
    8   11    1     -1.93      0.00
    8   11    0      1.55      0.00
    8   10   25      0.26      0.00
    8   10   24      0.71      0.00
    8   10   23      0.32      0.00
    8   10   22      1.41      0.00
    8   10   21      0.24      0.00
    8   10   20      0.45      0.00
    8   10   19      0.01      0.00
    8   10   18      0.17      0.00
    8   10   17     -0.14      0.00
    8   10   16     -1.49      0.00
    8   10   15     -0.82      0.00
    8   10   14     -0.86      0.00
    8   10   13      0.03      0.00
    8   10   12      0.22      0.00
    8   10   11      1.10      0.00
    8   10   10      0.52      0.00
    8   10    9      0.95      0.00
    8   10    8      1.15      0.00
    8   10    7      0.37      0.00
    8   10    6     -0.29      0.00
    8   10    5      0.05      0.00
    8   10    4     -0.38      0.00
    8   10    3     -0.46      0.00
    8   10    2      0.67      0.00
    8   10    1     -0.09      0.00
    8   10    0     -1.26      0.00
    8    9   25      0.02      0.00
    8    9   24      0.81      0.00
    8    9   23     -0.95      0.00
    8    9   22      0.70      0.00
    8    9   21      0.04      0.00
    8    9   20     -0.60      0.00
    8    9   19      0.13      0.00
    8    9   18     -1.06      0.00
    8    9   17      0.88      0.00
    8    9   16     -1.23      0.00
    8    9   15      0.57      0.00
    8    9   14      0.39      0.00
    8    9   13      0.28      0.00
    8    9   12      0.48      0.00
    8    9   11     -0.34      0.00
    8    9   10      0.99      0.00
    8    9    9     -1.04      0.00
    8    9    8     -1.91      0.00
    8    9    7     -0.28      0.00
    8    9    6     -1.72      0.00
    8    9    5      1.05      0.00
    8    9    4     -1.23      0.00
    8    9    3     -0.04      0.00
    8    9    2      0.38      0.00
    8    9    1      0.69      0.00
    8    9    0     -0.66      0.00
    8    8   26     -0.55      0.00
    8    8   24     -1.27      0.00
    8    8   22     -0.30      0.00
    8    8   20      1.30      0.00
    8    8   18      1.60      0.00
    8    8   16     -0.16      0.00
    8    8   14     -1.55      0.00
    8    8   12     -1.38      0.00
    8    8   10     -2.25      0.00
    8    8    8      1.77      0.00
    8    8    6      0.83      0.00
    8    8    4      1.35      0.00
    8    8    2     -1.47      0.00
    8    8    0     -2.24      0.00
    9   21    6     -0.21      0.00
    9   21    5      0.43      0.00
    9   21    4      0.59      0.00
    9   21    3     -0.25      0.00
    9   21    2     -1.15      0.00
    9   21    1      1.86      0.00
    9   21    0      0.04      0.00
    9   20   10     -1.58      0.00
    9   20    9     -1.00      0.00
    9   20    8      0.19      0.00
    9   20    7     -0.73      0.00
    9   20    6      0.88      0.00
    9   20    5     -0.33      0.00
    9   20    4      0.40      0.00
    9   20    3     -0.95      0.00
    9   20    2     -0.43      0.00
    9   20    1     -1.20      0.00
    9   20    0     -2.02      0.00
    9   19   13     -2.73      0.00
    9   19   12     -0.01      0.00
    9   19   11      0.20      0.00
    9   19   10      0.30      0.00
    9   19    9      1.39      0.00
    9   19    8      0.66      0.00
    9   19    7     -0.16      0.00
    9   19    6      0.58      0.00
    9   19    5     -0.35      0.00
    9   19    4      1.30      0.00
    9   19    3     -0.47      0.00
    9   19    2      0.08      0.00
    9   19    1      0.78      0.00
    9   19    0      0.59      0.00
    9   18   15      0.73      0.00
    9   18   14     -0.39      0.00
    9   18   13      0.10      0.00
    9   18   12     -0.23      0.00
    9   18   11      0.93      0.00
    9   18   10      0.13      0.00
    9   18    9     -1.18      0.00
    9   18    8      0.38      0.00
    9   18    7     -0.87      0.00
    9   18    6     -0.68      0.00
    9   18    5     -0.59      0.00
    9   18    4     -0.93      0.00
    9   18    3     -0.66      0.00
    9   18    2     -0.37      0.00
    9   18    1      0.17      0.00
    9   18    0     -0.25      0.00
    9   17   17      0.35      0.00
    9   17   16      0.16      0.00
    9   17   15      0.36      0.00
    9   17   14     -0.01      0.00
    9   17   13     -0.20      0.00
    9   17   12      0.08      0.00
    9   17   11      0.19      0.00
    9   17   10      0.43      0.00
    9   17    9      1.98      0.00
    9   17    8      1.24      0.00
    9   17    7      0.68      0.00
    9   17    6     -0.49      0.00
    9   17    5      0.16      0.00
    9   17    4      0.20      0.00
    9   17    3      0.21      0.00
    9   17    2     -0.30      0.00
    9   17    1     -0.59      0.00
    9   17    0      1.64      0.00
    9   16   18     -0.26      0.00
    9   16   17     -0.10      0.00
    9   16   16      0.93      0.00
    9   16   15     -0.36      0.00
    9   16   14     -0.91      0.00
    9   16   13     -0.42      0.00
    9   16   12      0.61      0.00
    9   16   11      0.19      0.00
    9   16   10      1.01      0.00
    9   16    9      0.33      0.00
    9   16    8     -0.17      0.00
    9   16    7      0.68      0.00
    9   16    6     -0.36      0.00
    9   16    5      0.26      0.00
    9   16    4     -0.96      0.00
    9   16    3      0.49      0.00
    9   16    2      0.03      0.00
    9   16    1      0.88      0.00
    9   16    0      0.40      0.00
    9   15   20     -0.65      0.00
    9   15   19      0.95      0.00
    9   15   18     -0.55      0.00
    9   15   17     -1.70      0.00
    9   15   16      0.25      0.00
    9   15   15      0.08      0.00
    9   15   14      0.34      0.00
    9   15   13      0.36      0.00
    9   15   12      0.00      0.00
    9   15   11      0.01      0.00
    9   15   10     -0.50      0.00
    9   15    9      0.97      0.00
    9   15    8     -0.19      0.00
    9   15    7     -1.56      0.00
    9   15    6     -1.51      0.00
    9   15    5     -0.49      0.00
    9   15    4     -0.94      0.00
    9   15    3     -0.16      0.00
    9   15    2     -0.98      0.00
    9   15    1      1.49      0.00
    9   15    0      1.22      0.00
    9   14   21      1.28      0.00
    9   14   20     -0.02      0.00
    9   14   19     -0.13      0.00
    9   14   18      0.79      0.00
    9   14   17      1.51      0.00
    9   14   16      1.31      0.00
    9   14   15     -0.31      0.00
    9   14   14     -0.29      0.00
    9   14   13     -0.95      0.00
    9   14   12     -0.85      0.00
    9   14   11     -0.47      0.00
    9   14   10     -1.87      0.00
    9   14    9      0.29      0.00
    9   14    8     -0.68      0.00
    9   14    7      0.28      0.00
    9   14    6      0.69      0.00
    9   14    5      0.00      0.00
    9   14    4      0.12      0.00
    9   14    3     -1.17      0.00
    9   14    2     -0.07      0.00
    9   14    1     -0.37      0.00
    9   14    0     -0.54      0.00
    9   13   22     -0.04      0.00
    9   13   21     -0.42      0.00
    9   13   20     -0.61      0.00
    9   13   19      1.01      0.00
    9   13   18     -0.37      0.00
    9   13   17     -1.45      0.00
    9   13   16     -0.46      0.00
    9   13   15     -0.90      0.00
    9   13   14      0.36      0.00
    9   13   13     -1.28      0.00
    9   13   12      0.68      0.00
    9   13   11      0.64      0.00
    9   13   10      0.47      0.00
    9   13    9      0.16      0.00
    9   13    8      0.28      0.00
    9   13    7     -1.10      0.00
    9   13    6     -0.20      0.00
    9   13    5      0.72      0.00
    9   13    4      0.65      0.00
    9   13    3      0.20      0.00
    9   13    2     -0.10      0.00
    9   13    1     -1.31      0.00
    9   13    0      0.08      0.00
    9   12   23     -0.71      0.00
    9   12   22     -0.01      0.00
    9   12   21     -0.19      0.00
    9   12   20      0.56      0.00
    9   12   19     -0.53      0.00
    9   12   18      0.85      0.00
    9   12   17      0.62      0.00
    9   12   16      0.08      0.00
    9   12   15      0.82      0.00
    9   12   14     -0.03      0.00
    9   12   13      1.07      0.00
    9   12   12      0.30      0.00
    9   12   11      1.37      0.00
    9   12   10     -0.50      0.00
    9   12    9      0.67      0.00
    9   12    8      0.39      0.00
    9   12    7     -0.74      0.00
    9   12    6      0.12      0.00
    9   12    5     -0.83      0.00
    9   12    4      0.37      0.00
    9   12    3     -1.66      0.00
    9   12    2      0.57      0.00
    9   12    1      2.19      0.00
    9   12    0     -0.24      0.00
    9   11   24      0.12      0.00
    9   11   23      0.13      0.00
    9   11   22     -0.66      0.00
    9   11   21      0.36      0.00
    9   11   20      0.45      0.00
    9   11   19      1.35      0.00
    9   11   18      0.62      0.00
    9   11   17      0.89      0.00
    9   11   16      0.54      0.00
    9   11   15      1.30      0.00
    9   11   14     -0.16      0.00
    9   11   13     -0.17      0.00
    9   11   12     -0.61      0.00
    9   11   11     -0.92      0.00
    9   11   10     -0.24      0.00
    9   11    9     -1.13      0.00
    9   11    8     -1.09      0.00
    9   11    7      0.39      0.00
    9   11    6     -1.02      0.00
    9   11    5      1.29      0.00
    9   11    4      1.22      0.00
    9   11    3      1.02      0.00
    9   11    2     -0.10      0.00
    9   11    1     -0.66      0.00
    9   11    0      1.15      0.00
    9   10   24     -1.10      0.00
    9   10   23      0.23      0.00
    9   10   22     -1.20      0.00
    9   10   21     -0.03      0.00
    9   10   20      0.64      0.00
    9   10   19     -0.80      0.00
    9   10   18      1.16      0.00
    9   10   17     -0.92      0.00
    9   10   16      0.98      0.00
    9   10   15     -0.40      0.00
    9   10   14     -1.75      0.00
    9   10   13      0.37      0.00
    9   10   12     -1.26      0.00
    9   10   11      0.43      0.00
    9   10   10     -2.95      0.00
    9   10    9      0.12      0.00
    9   10    8     -0.42      0.00
    9   10    7      0.47      0.00
    9   10    6     -0.05      0.00
    9   10    5     -0.41      0.00
    9   10    4      0.98      0.00
    9   10    3     -0.54      0.00
    9   10    2     -0.54      0.00
    9   10    1      1.16      0.00
    9   10    0     -2.90      0.00
    9    9   24      0.24      0.00
    9    9   22     -1.32      0.00
    9    9   20     -1.23      0.00
    9    9   18     -0.42      0.00
    9    9   16      1.73      0.00
    9    9   14      1.98      0.00
    9    9   12     -0.12      0.00
    9    9   10      1.67      0.00
    9    9    8     -2.24      0.00
    9    9    6     -1.97      0.00
    9    9    4     -0.51      0.00
    9    9    2     -1.34      0.00
    9    9    0      2.55      0.00
   10   21    3      0.78      0.00
   10   21    2      0.84      0.00
   10   21    1      1.23      0.00
   10   21    0      0.22      0.00
   10   20    8      0.40      0.00
   10   20    7      0.84      0.00
   10   20    6     -0.03      0.00
   10   20    5      0.51      0.00
   10   20    4     -0.16      0.00
   10   20    3      0.99      0.00
   10   20    2      0.45      0.00
   10   20    1     -2.43      0.00
   10   20    0     -0.16      0.00
   10   19   12      1.13      0.00
   10   19   11      0.21      0.00
   10   19   10      0.81      0.00
   10   19    9      0.95      0.00
   10   19    8      0.09      0.00
   10   19    7      1.42      0.00
   10   19    6     -0.22      0.00
   10   19    5      0.01      0.00
   10   19    4     -0.87      0.00
   10   19    3      0.13      0.00
   10   19    2      1.05      0.00
   10   19    1     -1.05      0.00
   10   19    0      2.10      0.00
   10   18   14      0.23      0.00
   10   18   13      1.37      0.00
   10   18   12      0.16      0.00
   10   18   11     -0.71      0.00
   10   18   10      0.21      0.00
   10   18    9      0.06      0.00
   10   18    8     -0.04      0.00
   10   18    7     -0.02      0.00
   10   18    6      0.11      0.00
   10   18    5      0.64      0.00
   10   18    4     -0.42      0.00
   10   18    3      0.98      0.00
   10   18    2      0.28      0.00
   10   18    1      0.39      0.00
   10   18    0     -0.66      0.00
   10   17   16      0.16      0.00
   10   17   15      0.16      0.00
   10   17   14     -0.27      0.00
   10   17   13      0.66      0.00
   10   17   12     -0.30      0.00
   10   17   11     -0.36      0.00
   10   17   10     -1.91      0.00
   10   17    9     -0.76      0.00
   10   17    8     -0.01      0.00
   10   17    7     -0.08      0.00
   10   17    6      0.99      0.00
   10   17    5      0.85      0.00
   10   17    4     -0.22      0.00
   10   17    3      0.29      0.00
   10   17    2     -0.44      0.00
   10   17    1     -0.66      0.00
   10   17    0     -1.54      0.00
   10   16   17      0.31      0.00
   10   16   16     -0.34      0.00
   10   16   15     -0.31      0.00
   10   16   14     -0.23      0.00
   10   16   13     -1.59      0.00
   10   16   12     -0.30      0.00
   10   16   11     -0.92      0.00
   10   16   10     -0.72      0.00
   10   16    9     -0.17      0.00
   10   16    8     -0.61      0.00
   10   16    7     -0.06      0.00
   10   16    6      1.32      0.00
   10   16    5      0.13      0.00
   10   16    4      0.81      0.00
   10   16    3      0.28      0.00
   10   16    2      0.63      0.00
   10   16    1     -0.25      0.00
   10   16    0     -2.35      0.00
   10   15   19      0.44      0.00
   10   15   18      0.30      0.00
   10   15   17     -0.91      0.00
   10   15   16     -0.82      0.00
   10   15   15      0.97      0.00
   10   15   14      0.26      0.00
   10   15   13      0.83      0.00
   10   15   12      0.99      0.00
   10   15   11      1.04      0.00
   10   15   10      0.13      0.00
   10   15    9     -0.95      0.00
   10   15    8      0.45      0.00
   10   15    7     -1.22      0.00
   10   15    6      0.12      0.00
   10   15    5     -0.54      0.00
   10   15    4     -0.49      0.00
   10   15    3      0.32      0.00
   10   15    2     -0.38      0.00
   10   15    1      0.06      0.00
   10   15    0     -0.98      0.00
   10   14   20      1.07      0.00
   10   14   19     -0.50      0.00
   10   14   18      1.13      0.00
   10   14   17      1.32      0.00
   10   14   16      0.40      0.00
   10   14   15      1.45      0.00
   10   14   14     -0.52      0.00
   10   14   13      0.73      0.00
   10   14   12     -0.51      0.00
   10   14   11     -0.56      0.00
   10   14   10     -0.85      0.00
   10   14    9      0.35      0.00
   10   14    8      0.11      0.00
   10   14    7      1.13      0.00
   10   14    6      1.16      0.00
   10   14    5     -1.13      0.00
   10   14    4      0.85      0.00
   10   14    3     -0.74      0.00
   10   14    2      0.70      0.00
   10   14    1     -1.07      0.00
   10   14    0     -1.08      0.00
   10   13   21      0.02      0.00
   10   13   20     -0.07      0.00
   10   13   19     -0.08      0.00
   10   13   18      0.51      0.00
   10   13   17     -0.66      0.00
   10   13   16      0.63      0.00
   10   13   15      0.79      0.00
   10   13   14     -0.26      0.00
   10   13   13      0.24      0.00
   10   13   12      0.75      0.00
   10   13   11     -0.51      0.00
   10   13   10      1.16      0.00
   10   13    9     -0.97      0.00
   10   13    8      0.03      0.00
   10   13    7      1.28      0.00
   10   13    6     -0.06      0.00
   10   13    5      1.04      0.00
   10   13    4      0.55      0.00
   10   13    3      1.68      0.00
   10   13    2      1.41      0.00
   10   13    1     -1.59      0.00
   10   13    0      1.33      0.00
   10   12   22     -0.51      0.00
   10   12   21     -0.57      0.00
   10   12   20     -0.43      0.00
   10   12   19     -1.09      0.00
   10   12   18     -0.07      0.00
   10   12   17     -0.86      0.00
   10   12   16      0.10      0.00
   10   12   15      0.03      0.00
   10   12   14     -0.54      0.00
   10   12   13      1.09      0.00
   10   12   12     -0.37      0.00
   10   12   11     -0.09      0.00
   10   12   10     -0.42      0.00
   10   12    9      0.84      0.00
   10   12    8     -0.78      0.00
   10   12    7      0.04      0.00
   10   12    6     -0.90      0.00
   10   12    5     -1.27      0.00
   10   12    4     -1.12      0.00
   10   12    3     -0.28      0.00
   10   12    2      0.11      0.00
   10   12    1      2.24      0.00
   10   12    0     -0.66      0.00
   10   11   23     -0.10      0.00
   10   11   22      0.20      0.00
   10   11   21      0.77      0.00
   10   11   20     -0.59      0.00
   10   11   19      0.65      0.00
   10   11   18     -0.40      0.00
   10   11   17      0.68      0.00
   10   11   16     -0.16      0.00
   10   11   15      0.48      0.00
   10   11   14      0.36      0.00
   10   11   13     -0.26      0.00
   10   11   12     -0.68      0.00
   10   11   11     -1.11      0.00
   10   11   10      1.22      0.00
   10   11    9     -1.02      0.00
   10   11    8      0.19      0.00
   10   11    7      0.91      0.00
   10   11    6     -0.04      0.00
   10   11    5      0.42      0.00
   10   11    4     -1.79      0.00
   10   11    3      0.56      0.00
   10   11    2     -1.71      0.00
   10   11    1     -1.24      0.00
   10   11    0     -0.55      0.00
   10   10   24      0.26      0.00
   10   10   22      0.47      0.00
   10   10   20     -0.48      0.00
   10   10   18     -0.55      0.00
   10   10   16     -0.73      0.00
   10   10   14     -0.26      0.00
   10   10   12      0.50      0.00
   10   10   10      0.32      0.00
   10   10    8      1.40      0.00
   10   10    6      1.14      0.00
   10   10    4      0.00      0.00
   10   10    2      0.66      0.00
   10   10    0     -2.64      0.00
   11   20    6      0.94      0.00
   11   20    5      1.50      0.00
   11   20    4      0.21      0.00
   11   20    3      0.06      0.00
   11   20    2     -0.85      0.00
   11   20    1     -0.14      0.00
   11   20    0     -1.06      0.00
   11   19   10     -0.64      0.00
   11   19    9      0.17      0.00
   11   19    8     -0.95      0.00
   11   19    7     -1.41      0.00
   11   19    6     -1.29      0.00
   11   19    5     -0.60      0.00
   11   19    4     -0.16      0.00
   11   19    3     -1.13      0.00
   11   19    2     -0.09      0.00
   11   19    1      0.43      0.00
   11   19    0     -0.23      0.00
   11   18   13     -1.68      0.00
   11   18   12      0.70      0.00
   11   18   11      0.30      0.00
   11   18   10      0.13      0.00
   11   18    9      0.13      0.00
   11   18    8     -0.44      0.00
   11   18    7     -0.63      0.00
   11   18    6      0.26      0.00
   11   18    5     -0.29      0.00
   11   18    4      0.27      0.00
   11   18    3      0.24      0.00
   11   18    2     -0.23      0.00
   11   18    1      2.52      0.00
   11   18    0     -0.49      0.00
   11   17   15      0.96      0.00
   11   17   14      0.38      0.00
   11   17   13      0.80      0.00
   11   17   12     -0.40      0.00
   11   17   11     -0.06      0.00
   11   17   10     -0.39      0.00
   11   17    9      0.14      0.00
   11   17    8      0.68      0.00
   11   17    7     -0.69      0.00
   11   17    6     -0.29      0.00
   11   17    5     -0.56      0.00
   11   17    4      0.22      0.00
   11   17    3      0.35      0.00
   11   17    2     -0.47      0.00
   11   17    1      0.28      0.00
   11   17    0     -0.15      0.00
   11   16   16      0.43      0.00
   11   16   15     -0.48      0.00
   11   16   14     -0.60      0.00
   11   16   13     -1.34      0.00
   11   16   12      0.91      0.00
   11   16   11     -0.78      0.00
   11   16   10      0.88      0.00
   11   16    9      0.96      0.00
   11   16    8     -0.72      0.00
   11   16    7      0.78      0.00
   11   16    6     -0.87      0.00
   11   16    5     -0.87      0.00
   11   16    4     -0.37      0.00
   11   16    3     -1.62      0.00
   11   16    2      0.69      0.00
   11   16    1     -1.46      0.00
   11   16    0      2.31      0.00
   11   15   18     -0.01      0.00
   11   15   17     -1.61      0.00
   11   15   16     -0.09      0.00
   11   15   15      0.58      0.00
   11   15   14      0.73      0.00
   11   15   13      1.67      0.00
   11   15   12      0.88      0.00
   11   15   11      0.68      0.00
   11   15   10      1.27      0.00
   11   15    9      1.36      0.00
   11   15    8      0.48      0.00
   11   15    7     -0.27      0.00
   11   15    6     -1.13      0.00
   11   15    5      0.70      0.00
   11   15    4     -0.16      0.00
   11   15    3      0.61      0.00
   11   15    2      1.08      0.00
   11   15    1      0.52      0.00
   11   15    0      1.88      0.00
   11   14   19      0.05      0.00
   11   14   18     -0.52      0.00
   11   14   17      0.53      0.00
   11   14   16     -0.50      0.00
   11   14   15     -0.42      0.00
   11   14   14     -0.91      0.00
   11   14   13     -0.22      0.00
   11   14   12     -0.86      0.00
   11   14   11     -0.95      0.00
   11   14   10     -1.11      0.00
   11   14    9      1.11      0.00
   11   14    8     -0.60      0.00
   11   14    7      0.83      0.00
   11   14    6     -0.21      0.00
   11   14    5      0.49      0.00
   11   14    4     -0.50      0.00
   11   14    3     -0.67      0.00
   11   14    2     -0.09      0.00
   11   14    1      1.30      0.00
   11   14    0      0.48      0.00
   11   13   20     -0.09      0.00
   11   13   19      0.72      0.00
   11   13   18     -0.35      0.00
   11   13   17     -0.35      0.00
   11   13   16     -1.14      0.00
   11   13   15     -0.70      0.00
   11   13   14     -0.38      0.00
   11   13   13     -1.39      0.00
   11   13   12     -0.31      0.00
   11   13   11     -0.87      0.00
   11   13   10      0.08      0.00
   11   13    9     -0.89      0.00
   11   13    8      0.16      0.00
   11   13    7     -1.09      0.00
   11   13    6      0.15      0.00
   11   13    5      1.23      0.00
   11   13    4     -0.08      0.00
   11   13    3      0.33      0.00
   11   13    2     -0.20      0.00
   11   13    1     -0.90      0.00
   11   13    0     -1.39      0.00
   11   12   21     -0.04      0.00
   11   12   20     -0.95      0.00
   11   12   19     -0.44      0.00
   11   12   18     -1.25      0.00
   11   12   17     -0.50      0.00
   11   12   16     -1.22      0.00
   11   12   15     -0.51      0.00
   11   12   14      0.97      0.00
   11   12   13      0.04      0.00
   11   12   12      2.01      0.00
   11   12   11      0.55      0.00
   11   12   10      0.90      0.00
   11   12    9      0.87      0.00
   11   12    8      0.44      0.00
   11   12    7     -0.66      0.00
   11   12    6     -0.40      0.00
   11   12    5     -0.48      0.00
   11   12    4     -0.58      0.00
   11   12    3     -0.82      0.00
   11   12    2     -0.79      0.00
   11   12    1      1.59      0.00
   11   12    0     -0.08      0.00
   11   11   22      0.01      0.00
   11   11   20      0.69      0.00
   11   11   18      0.27      0.00
   11   11   16     -0.82      0.00
   11   11   14     -0.34      0.00
   11   11   12     -0.45      0.00
   11   11   10      0.23      0.00
   11   11    8      0.91      0.00
   11   11    6      1.12      0.00
   11   11    4      0.99      0.00
   11   11    2     -0.98      0.00
   11   11    0     -1.09      0.00
   12   20    2     -0.82      0.00
   12   20    1      0.30      0.00
   12   20    0     -1.33      0.00
   12   19    8     -0.37      0.00
   12   19    7      0.43      0.00
   12   19    6     -0.06      0.00
   12   19    5     -0.54      0.00
   12   19    4     -0.39      0.00
   12   19    3      0.22      0.00
   12   19    2      0.91      0.00
   12   19    1      0.02      0.00
   12   19    0      1.89      0.00
   12   18   11     -0.83      0.00
   12   18   10      0.91      0.00
   12   18    9      0.95      0.00
   12   18    8      0.16      0.00
   12   18    7     -0.10      0.00
   12   18    6     -0.72      0.00
   12   18    5      0.19      0.00
   12   18    4     -1.14      0.00
   12   18    3     -0.68      0.00
   12   18    2     -0.14      0.00
   12   18    1     -0.87      0.00
   12   18    0      0.43      0.00
   12   17   13      1.73      0.00
   12   17   12      0.25      0.00
   12   17   11      0.55      0.00
   12   17   10     -0.31      0.00
   12   17    9     -0.10      0.00
   12   17    8      0.96      0.00
   12   17    7     -0.13      0.00
   12   17    6      2.38      0.00
   12   17    5      1.29      0.00
   12   17    4      0.25      0.00
   12   17    3      0.28      0.00
   12   17    2      0.12      0.00
   12   17    1     -0.53      0.00
   12   17    0     -1.32      0.00
   12   16   15     -0.40      0.00
   12   16   14     -0.55      0.00
   12   16   13     -1.70      0.00
   12   16   12      0.43      0.00
   12   16   11     -1.17      0.00
   12   16   10     -0.45      0.00
   12   16    9     -0.60      0.00
   12   16    8     -0.63      0.00
   12   16    7     -0.75      0.00
   12   16    6      0.02      0.00
   12   16    5      0.55      0.00
   12   16    4     -0.34      0.00
   12   16    3     -1.27      0.00
   12   16    2      1.06      0.00
   12   16    1     -0.99      0.00
   12   16    0      0.77      0.00
   12   15   17     -0.20      0.00
   12   15   16     -0.34      0.00
   12   15   15      0.14      0.00
   12   15   14     -0.24      0.00
   12   15   13     -0.07      0.00
   12   15   12      0.66      0.00
   12   15   11      0.91      0.00
   12   15   10     -0.36      0.00
   12   15    9     -0.51      0.00
   12   15    8     -0.42      0.00
   12   15    7     -2.14      0.00
   12   15    6      1.24      0.00
   12   15    5      0.60      0.00
   12   15    4      0.15      0.00
   12   15    3      0.88      0.00
   12   15    2      0.43      0.00
   12   15    1      1.07      0.00
   12   15    0     -0.67      0.00
   12   14   18     -0.26      0.00
   12   14   17      0.45      0.00
   12   14   16     -0.22      0.00
   12   14   15      0.56      0.00
   12   14   14     -0.31      0.00
   12   14   13      0.01      0.00
   12   14   12      0.70      0.00
   12   14   11      0.28      0.00
   12   14   10     -0.57      0.00
   12   14    9      0.57      0.00
   12   14    8      0.02      0.00
   12   14    7      0.86      0.00
   12   14    6      0.67      0.00
   12   14    5      0.20      0.00
   12   14    4     -1.08      0.00
   12   14    3      0.71      0.00
   12   14    2     -2.10      0.00
   12   14    1      1.53      0.00
   12   14    0     -1.75      0.00
   12   13   19     -0.46      0.00
   12   13   18      0.76      0.00
   12   13   17     -0.03      0.00
   12   13   16      1.29      0.00
   12   13   15      0.18      0.00
   12   13   14     -1.01      0.00
   12   13   13     -0.53      0.00
   12   13   12     -0.16      0.00
   12   13   11     -0.45      0.00
   12   13   10     -0.45      0.00
   12   13    9     -0.77      0.00
   12   13    8     -0.19      0.00
   12   13    7     -1.12      0.00
   12   13    6      0.91      0.00
   12   13    5     -0.36      0.00
   12   13    4     -0.07      0.00
   12   13    3     -0.54      0.00
   12   13    2     -0.92      0.00
   12   13    1     -1.52      0.00
   12   13    0     -1.71      0.00
   12   12   20     -0.26      0.00
   12   12   18      0.88      0.00
   12   12   16      2.29      0.00
   12   12   14      1.54      0.00
   12   12   12      2.45      0.00
   12   12   10      1.20      0.00
   12   12    8     -0.01      0.00
   12   12    6     -0.44      0.00
   12   12    4      0.49      0.00
   12   12    2      1.80      0.00
   12   12    0      3.42      0.00
   13   19    5      0.73      0.00
   13   19    4      0.02      0.00
   13   19    3      0.73      0.00
   13   19    2      0.85      0.00
   13   19    1     -0.55      0.00
   13   19    0      0.05      0.00
   13   18    9     -0.44      0.00
   13   18    8     -0.94      0.00
   13   18    7     -0.83      0.00
   13   18    6     -1.85      0.00
   13   18    5     -0.02      0.00
   13   18    4     -0.90      0.00
   13   18    3     -0.87      0.00
   13   18    2      0.05      0.00
   13   18    1     -0.55      0.00
   13   18    0      0.09      0.00
   13   17   12     -0.64      0.00
   13   17   11      0.39      0.00
   13   17   10     -1.02      0.00
   13   17    9      0.55      0.00
   13   17    8      0.80      0.00
   13   17    7      0.14      0.00
   13   17    6      2.10      0.00
   13   17    5     -0.06      0.00
   13   17    4      0.63      0.00
   13   17    3      2.34      0.00
   13   17    2     -0.40      0.00
   13   17    1      0.84      0.00
   13   17    0     -1.92      0.00
   13   16   14     -0.83      0.00
   13   16   13     -0.66      0.00
   13   16   12     -0.08      0.00
   13   16   11     -0.75      0.00
   13   16   10     -0.18      0.00
   13   16    9      0.28      0.00
   13   16    8      0.43      0.00
   13   16    7      0.72      0.00
   13   16    6     -0.53      0.00
   13   16    5     -0.25      0.00
   13   16    4     -0.32      0.00
   13   16    3      0.01      0.00
   13   16    2     -0.62      0.00
   13   16    1      0.89      0.00
   13   16    0      0.83      0.00
   13   15   13      0.21      0.00
   13   15   12     -0.02      0.00
   13   15   11     -0.30      0.00
   13   15   10      0.15      0.00
   13   15    9      0.36      0.00
   13   15    8      0.41      0.00
   13   15    7     -1.02      0.00
   13   15    6     -0.86      0.00
   13   15    5     -1.45      0.00
   13   15    4     -0.87      0.00
   13   15    3     -0.25      0.00
   13   15    2     -0.22      0.00
   13   15    1     -1.69      0.00
   13   15    0     -1.01      0.00
   13   15   14     -0.06      0.00
   13   15   15     -0.06      0.00
   13   15   16      0.63      0.00
   13   14   12     -0.57      0.00
   13   14   11      0.09      0.00
   13   14   10     -0.06      0.00
   13   14    9      1.45      0.00
   13   14    8      0.94      0.00
   13   14    7      1.41      0.00
   13   14    6     -0.24      0.00
   13   14    5      0.96      0.00
   13   14    4     -0.17      0.00
   13   14    3      0.28      0.00
   13   14    2     -0.90      0.00
   13   14    1      0.83      0.00
   13   14    0     -1.31      0.00
   13   14   13      0.71      0.00
   13   14   14      0.91      0.00
   13   14   15      0.48      0.00
   13   14   16      0.55      0.00
   13   14   17      0.05      0.00
   13   13    8     -0.24      0.00
   13   13    6     -0.28      0.00
   13   13    4      0.50      0.00
   13   13    2      2.65      0.00
   13   13    0     -0.06      0.00
   13   13   10     -0.93      0.00
   13   13   12     -1.41      0.00
   13   13   14     -1.07      0.00
   13   13   16     -0.22      0.00
   13   13   18      0.18      0.00
   14   18    6     -1.35      0.00
   14   18    5     -0.31      0.00
   14   18    4      0.36      0.00
   14   18    3     -0.68      0.00
   14   18    2      1.44      0.00
   14   18    1      1.48      0.00
   14   18    0      1.87      0.00
   14   17   10     -0.28      0.00
   14   17    9      0.65      0.00
   14   17    8      0.21      0.00
   14   17    7     -0.48      0.00
   14   17    6      0.74      0.00
   14   17    5      0.61      0.00
   14   17    4     -0.51      0.00
   14   17    3      0.06      0.00
   14   17    2     -1.15      0.00
   14   17    1     -0.67      0.00
   14   17    0     -2.50      0.00
   14   16   10      0.00      0.00
   14   16    9      0.30      0.00
   14   16    8     -0.20      0.00
   14   16    7      0.26      0.00
   14   16    6      0.18      0.00
   14   16    5      0.59      0.00
   14   16    4     -0.26      0.00
   14   16    3     -1.11      0.00
   14   16    2      0.71      0.00
   14   16    1      0.93      0.00
   14   16    0     -1.33      0.00
   14   16   11     -0.02      0.00
   14   16   12      0.25      0.00
   14   15    8     -1.16      0.00
   14   15    7     -1.72      0.00
   14   15    6     -1.03      0.00
   14   15    5      0.01      0.00
   14   15    4      0.62      0.00
   14   15    3     -0.95      0.00
   14   15    2      3.56      0.00
   14   15    1     -1.33      0.00
   14   15    0      3.61      0.00
   14   15    9     -0.14      0.00
   14   15   10      0.99      0.00
   14   15   11     -0.25      0.00
   14   15   12      1.79      0.00
   14   15   13     -0.41      0.00
   14   15   14      0.79      0.00
   14   14    8     -0.90      0.00
   14   14    6      1.58      0.00
   14   14    4      0.15      0.00
   14   14    2      0.44      0.00
   14   14    0     -0.85      0.00
   14   14   10     -1.06      0.00
   14   14   12      0.19      0.00
   14   14   14      0.27      0.00
   14   14   16     -0.98      0.00
   15   17    7     -0.58      0.00
   15   17    6     -0.14      0.00
   15   17    5      0.65      0.00
   15   17    4     -1.14      0.00
   15   17    3      0.78      0.00
   15   17    2     -0.31      0.00
   15   17    1     -1.70      0.00
   15   17    0     -0.02      0.00
   15   16    8      0.09      0.00
   15   16    7      0.00      0.00
   15   16    6      1.66      0.00
   15   16    5      0.05      0.00
   15   16    4     -0.47      0.00
   15   16    3     -0.03      0.00
   15   16    2     -1.27      0.00
   15   16    1      0.91      0.00
   15   16    0     -0.26      0.00
   15   16    9      0.33      0.00
   15   16   10     -0.63      0.00
   15   15    6     -0.41      0.00
   15   15    4      0.19      0.00
   15   15    2      1.88      0.00
   15   15    0      4.17      0.00
   15   15    8      0.82      0.00
   15   15   10      0.81      0.00
   15   15   12      1.30      0.00
   16   17    1     -0.12      0.00
   16   17    0     -0.10      0.00
   16   16    4     -0.78      0.00
   16   16    2     -1.49      0.00
   16   16    0     -4.27      0.00
   16   16    6      1.19      0.00
    1    1    0    -73.58      0.00
    0    1    1     -1.64      0.00
    0    0    0      0.00      0.00
# SQUEEZE RESULTS (Version = 300517)
# Note: Data are Listed for all Voids in the P1 Unit Cell
# i.e. Centre of Gravity, Solvent Accessible Volume,
# Recovered number of Electrons in the Void and
# Details about the Squeezed Material
loop_
  _platon_squeeze_void_nr
  _platon_squeeze_void_average_x
  _platon_squeeze_void_average_y
  _platon_squeeze_void_average_z
  _platon_squeeze_void_volume
  _platon_squeeze_void_count_electrons
  _platon_squeeze_void_content
   1  0.000  0.000  0.293        23         0 ' '
   2  0.000  0.000  0.707        23         0 ' '
   3  0.000  0.500  0.493       942        44 ' '
   4  0.500  1.000  0.482       943        44 ' '
   5  0.500  0.500  0.207        23         0 ' '
   6  0.500  0.500  0.793        23         0 ' '
# Missing Reflections Below sin(th)/lambda = 0.25
loop_
  _platon_missing_refln_index_h
  _platon_missing_refln_index_k
  _platon_missing_refln_index_l
  _platon_missing_refln_theta
    1    1    0     1.626
    0    1    1     1.453
_platon_squeeze_void_probe_radius                  1.20
_platon_squeeze_details
)
TITL P17_024Ttg in P4/mnc [(Zr)3/4(O)1/2(OH)1/2(ndc)1/2(dobdc)1/8(H2O)7/8](dobd
CELL   17.4390   17.4390   22.5920     90.00     90.00     90.00
SPGR P4/mnc
# Solvent Accessible Volume =      1984
# Electrons Found in S.A.V. =        87
# Note: Atoms in Void are Labelled as Cxxx and Qxxx for all Others
Q101 0.417 0.391 0.496 !       5.34 eA-3
Q102 0.511 0.580 0.453 !       1.55 eA-3
Q103 0.017 0.872 0.064 !       1.53 eA-3
Q104 0.939 0.658 0.084 !       1.51 eA-3
Q105 0.567 0.426 0.652 !       1.18 eA-3
Q106 0.255 0.716 0.040 !       1.08 eA-3
Q107 0.552 0.250 0.501 !       1.02 eA-3
Q108 0.374 0.281 0.506 !       0.93 eA-3
Q109 0.285 0.795 0.284 !       0.92 eA-3
Q110 0.952 0.707 0.038 !       0.88 eA-3
Q111 0.613 0.327 0.587 !       0.85 eA-3
Q112 0.091 0.746 0.095 !       0.83 eA-3
Q113 0.594 0.767 0.360 !       0.81 eA-3
Q114 0.889 0.264 0.961 !       0.78 eA-3
Q115 0.874 0.152 0.914 !       0.78 eA-3
Q116 0.183 0.269 0.817 !       0.77 eA-3
Q117 0.550 0.732 0.354 !       0.71 eA-3
Q118 0.376 0.719 0.495 !       0.71 eA-3
Q119 0.923 0.234 0.000 !       0.71 eA-3
Q120 0.045 0.702 0.118 !       0.71 eA-3
Q121 0.543 0.782 0.433 !       0.71 eA-3
Q122 0.763 0.188 0.500 !       0.67 eA-3
Q123 0.137 0.750 0.047 !       0.67 eA-3
Q124 0.350 0.534 0.131 !       0.66 eA-3
Q125 0.373 0.526 0.149 !       0.66 eA-3
Q126 0.132 0.192 0.807 !       0.63 eA-3
Q127 0.702 0.813 0.441 !       0.59 eA-3
Q128 0.498 0.780 0.461 !       0.55 eA-3
Q129 0.019 0.671 0.197 !       0.54 eA-3
Q130 0.994 0.938 0.000 !       0.54 eA-3
Q131 0.008 0.982 0.121 !       0.53 eA-3
C132 0.599 0.092 0.615 !       0.53 eA-3
Q133 0.733 0.639 0.210 !       0.53 eA-3
Q134 0.612 0.500 0.001 !       0.52 eA-3
Q135 0.742 0.966 0.658 !       0.51 eA-3
Q136 0.273 0.827 0.483 !       0.51 eA-3
)
;
_shelx_fab_checksum              54362
loop_
_space_group_symop_operation_xyz
'x, y, z'
'-x, -y, z'
'-y, x, z'
'y, -x, z'
'-x+1/2, y+1/2, -z+1/2'
'x+1/2, -y+1/2, -z+1/2'
'y+1/2, x+1/2, -z+1/2'
'-y+1/2, -x+1/2, -z+1/2'
'-x, -y, -z'
'x, y, -z'
'y, -x, -z'
'-y, x, -z'
'x-1/2, -y-1/2, z-1/2'
'-x-1/2, y-1/2, z-1/2'
'-y-1/2, -x-1/2, z-1/2'
'y-1/2, x-1/2, z-1/2'
loop_
_atom_site_label
_atom_site_type_symbol
_atom_site_fract_x
_atom_site_fract_y
_atom_site_fract_z
_atom_site_U_iso_or_equiv
_atom_site_adp_type
_atom_site_occupancy
_atom_site_site_symmetry_order
_atom_site_calc_flag
_atom_site_refinement_flags_posn
_atom_site_refinement_flags_adp
_atom_site_refinement_flags_occupancy
_atom_site_disorder_assembly
_atom_site_disorder_group
Zr1 Zr 1.0000 0.0000 -0.10842(2) 0.0157(2) Uani 1 4 d S T P . .
Zr2 Zr 0.88410(3) 0.08445(3) 0.0000 0.0242(2) Uani 1 2 d S T P . .
O1M O 0.98433(19) 0.1001(3) -0.05226(15) 0.0728(15) Uani 1 1 d . . . . .
O1 O 1.06207(16) 0.08838(15) -0.15761(11) 0.0303(6) Uani 1 1 d . . . . .
O2 O 1.1166(2) 0.1625(2) -0.08869(12) 0.0511(10) Uani 1 1 d . . . . .
C1 C 1.1043(3) 0.1424(3) -0.14154(16) 0.0393(10) Uani 1 1 d . . . . .
C2 C 1.1961(4) 0.2409(4) -0.17568(18) 0.078(2) Uani 1 1 d . . . . .
H2 H 1.2069 0.2513 -0.1357 0.094 Uiso 1 1 calc R U . . .
C3 C 1.1424(4) 0.1876(4) -0.18917(18) 0.0662(18) Uani 1 1 d . . . . .
C4 C 1.1245(4) 0.1713(4) -0.2493(2) 0.089(3) Uani 1 1 d . . . . .
H4 H 1.0871 0.1344 -0.2585 0.107 Uiso 1 1 calc R U . . .
C5 C 1.1618(4) 0.2093(4) -0.2933(2) 0.095(3) Uani 1 1 d . . . . .
H5 H 1.1491 0.1990 -0.3329 0.114 Uiso 1 1 calc R U . . .
C6 C 1.2194(4) 0.2643(4) -0.28041(18) 0.080(2) Uani 1 1 d . . . . .
O1S O 0.8611(6) 0.2053(5) 0.0000 0.048(3) Uani 0.75 2 d S T P A 1
H1S H 0.8453 0.2184 0.0331 0.072 Uiso 0.25 1 calc DR U P A 1
O11 O 0.8710(10) 0.3051(8) 0.0907(5) 0.060(4) Uani 0.25 1 d D . P B 1
O12 O 0.9568(7) 0.2332(8) 0.1393(6) 0.054(4) Uani 0.25 1 d D . P B 1
C11 C 0.9072(8) 0.2872(7) 0.1395(5) 0.080(9) Uani 0.25 1 d D . P B 1
C12 C 0.8776(8) 0.3187(8) 0.1952(5) 0.041(4) Uani 0.25 1 d D . P B 1
C13 C 0.9029(6) 0.2922(7) 0.2494(6) 0.050(4) Uani 0.25 1 d D . P B 1
O13 O 0.9604(7) 0.2364(8) 0.2534(6) 0.062(4) Uani 0.25 1 d D . P B 1
C14 C 0.8755(10) 0.3220(11) 0.3022(6) 0.053(5) Uani 0.25 1 d D . P B 1
H14 H 0.8964 0.3037 0.3378 0.064 Uiso 0.25 1 calc R U P B 1
O21 O 0.8806(11) 0.2137(9) 0.0000 0.015(4) Uani 0.25 2 d DS TU P A 2
O22 O 0.9324(9) 0.2592(10) 0.0893(7) 0.039(5) Uani 0.125 1 d D U P A 2
O23 O 0.642(3) 0.526(3) 0.1172(15) 0.19(3) Uani 0.125 1 d D U P A 2
O24 O 0.5883(17) 0.4859(19) 0.0265(16) 0.121(15) Uani 0.125 1 d D U P A 2
O25 O 0.8785(12) 0.3653(15) 0.1411(10) 0.17(2) Uani 0.125 1 d D U P A 2
O26 O 0.6418(14) 0.3763(18) -0.0278(12) 0.175(19) Uani 0.125 1 d D U P A 2
C21 C 0.8178(6) 0.3173(6) 0.0511(5) 0.028(5) Uani 0.125 1 d D U P A 2
C22 C 0.8188(8) 0.3683(8) 0.0987(6) 0.056(9) Uani 0.125 1 d D U P A 2
C23 C 0.7603(9) 0.4218(9) 0.1037(7) 0.059(9) Uani 0.125 1 d D U P A 2
H23 H 0.7601 0.4565 0.1355 0.071 Uiso 0.125 1 calc R U P A 2
C24 C 0.7024(9) 0.4246(8) 0.0623(8) 0.073(10) Uani 0.125 1 d D U P A 2
C25 C 0.7013(9) 0.3738(10) 0.0149(8) 0.117(14) Uani 0.125 1 d D U P A 2
C26 C 0.7600(9) 0.3199(10) 0.0098(7) 0.081(11) Uani 0.125 1 d D U P A 2
C27 C 0.8788(7) 0.2616(6) 0.0464(4) 0.013(4) Uani 0.125 1 d D U P A 2
C28 C 0.6418(10) 0.4807(11) 0.0688(10) 0.098(13) Uani 0.125 1 d D U P A 2
O2S O 0.7571(2) 0.0621(3) 0.0000 0.0553(13) Uani 1 2 d S T P A .
loop_
_atom_site_aniso_label
_atom_site_aniso_U_11
_atom_site_aniso_U_22
_atom_site_aniso_U_33
_atom_site_aniso_U_23
_atom_site_aniso_U_13
_atom_site_aniso_U_12
Zr1 0.0199(3) 0.0199(3) 0.0072(3) 0.000 0.000 0.000
Zr2 0.0277(3) 0.0335(3) 0.0112(3) 0.000 0.000 0.01084(19)
O1M 0.0337(17) 0.140(4) 0.045(2) -0.064(2) 0.0106(14) -0.0176(19)
O1 0.0394(15) 0.0351(14) 0.0164(12) 0.0042(10) 0.0026(11) -0.0112(12)
O2 0.078(3) 0.059(2) 0.0162(13) 0.0022(13) 0.0018(14) -0.0409(18)
C1 0.058(3) 0.045(2) 0.0155(16) 0.0049(15) 0.0043(16) -0.025(2)
C2 0.120(5) 0.101(4) 0.0136(18) 0.009(2) -0.001(2) -0.080(4)
C3 0.095(4) 0.086(4) 0.0182(19) 0.008(2) 0.001(2) -0.060(3)
C4 0.120(5) 0.121(5) 0.025(2) 0.002(3) 0.006(3) -0.096(5)
C5 0.133(6) 0.138(6) 0.0137(19) 0.008(3) 0.002(3) -0.100(5)
C6 0.116(5) 0.109(5) 0.0167(19) 0.007(2) 0.002(2) -0.087(4)
O1S 0.056(6) 0.048(5) 0.040(4) 0.000 0.000 0.016(4)
O11 0.109(13) 0.043(7) 0.029(6) -0.021(5) -0.008(7) 0.025(8)
O12 0.042(7) 0.067(9) 0.053(8) -0.043(7) -0.003(6) 0.021(6)
C11 0.18(3) 0.026(9) 0.030(9) -0.008(7) -0.025(13) 0.025(13)
C12 0.063(12) 0.031(8) 0.029(8) -0.011(6) 0.006(7) 0.016(8)
C13 0.041(9) 0.047(10) 0.060(11) -0.004(9) -0.003(9) 0.005(8)
O13 0.048(8) 0.091(11) 0.048(8) 0.004(8) 0.007(6) 0.028(7)
C14 0.052(11) 0.083(15) 0.025(8) 0.007(8) -0.012(7) 0.020(11)
O21 0.017(6) 0.011(5) 0.018(5) 0.000 0.000 0.003(4)
O22 0.048(9) 0.039(8) 0.031(8) -0.025(7) -0.003(7) 0.010(7)
O23 0.19(4) 0.25(5) 0.12(4) -0.09(3) -0.06(3) 0.18(4)
O24 0.09(2) 0.08(2) 0.19(3) -0.07(2) -0.05(2) 0.036(17)
O25 0.08(3) 0.21(5) 0.23(5) 0.01(4) -0.07(3) -0.02(3)
O26 0.17(3) 0.20(3) 0.15(3) -0.07(3) -0.04(2) 0.07(3)
C21 0.030(6) 0.024(6) 0.030(6) 0.000(5) 0.001(5) 0.004(5)
C22 0.065(18) 0.042(16) 0.059(18) -0.026(14) 0.018(15) 0.019(15)
C23 0.057(19) 0.034(16) 0.09(2) -0.010(16) 0.011(16) 0.010(14)
C24 0.10(2) 0.051(18) 0.07(2) -0.015(16) -0.012(18) 0.018(16)
C25 0.11(2) 0.13(2) 0.11(3) -0.04(2) 0.00(2) 0.06(2)
C26 0.10(2) 0.057(17) 0.09(2) -0.030(19) -0.001(19) 0.038(16)
C27 0.016(6) 0.012(5) 0.011(5) -0.003(4) 0.001(4) 0.007(4)
C28 0.11(2) 0.07(2) 0.11(3) -0.02(2) -0.03(2) 0.04(2)
O2S 0.026(2) 0.095(4) 0.044(3) 0.000 0.000 0.012(2)
loop_
_atom_type_symbol
_atom_type_description
_atom_type_scat_dispersion_real
_atom_type_scat_dispersion_imag
_atom_type_scat_source
C C 0.0030 0.0016 'International Tables Vol C Tables 4.2.6.8 and 6.1.1.4'
H H 0.0000 0.0000 'International Tables Vol C Tables 4.2.6.8 and 6.1.1.4'
O O 0.0105 0.0059 'International Tables Vol C Tables 4.2.6.8 and 6.1.1.4'
Zr Zr -3.5084 0.5477 'International Tables Vol C Tables 4.2.6.8 and 6.1.1.4'
loop_
_geom_angle_atom_site_label_1
_geom_angle_atom_site_label_2
_geom_angle_atom_site_label_3
_geom_angle
_geom_angle_site_symmetry_1
_geom_angle_site_symmetry_3
O1M Zr1 O1M 70.11(12) . 4_665
O1M Zr1 O1M 70.11(12) . 3_645
O1M Zr1 O1M 108.6(2) 4_665 3_645
O1M Zr1 O1M 108.6(2) . 2_755
O1M Zr1 O1M 70.11(12) 4_665 2_755
O1M Zr1 O1M 70.11(12) 3_645 2_755
O1M Zr1 O1 78.05(14) . .
O1M Zr1 O1 79.08(13) 4_665 .
O1M Zr1 O1 141.46(12) 3_645 .
O1M Zr1 O1 143.11(11) 2_755 .
O1M Zr1 O1 143.11(11) . 2_755
O1M Zr1 O1 141.46(12) 4_665 2_755
O1M Zr1 O1 79.08(13) 3_645 2_755
O1M Zr1 O1 78.05(14) 2_755 2_755
O1 Zr1 O1 118.92(14) . 2_755
O1M Zr1 O1 79.08(13) . 3_645
O1M Zr1 O1 143.11(11) 4_665 3_645
O1M Zr1 O1 78.05(14) 3_645 3_645
O1M Zr1 O1 141.46(12) 2_755 3_645
O1 Zr1 O1 75.04(6) . 3_645
O1 Zr1 O1 75.04(6) 2_755 3_645
O1M Zr1 O1 141.46(12) . 4_665
O1M Zr1 O1 78.05(14) 4_665 4_665
O1M Zr1 O1 143.11(11) 3_645 4_665
O1M Zr1 O1 79.08(13) 2_755 4_665
O1 Zr1 O1 75.04(6) . 4_665
O1 Zr1 O1 75.04(6) 2_755 4_665
O1 Zr1 O1 118.92(14) 3_645 4_665
O1M Zr1 Zr2 35.05(10) . 11_665
O1M Zr1 Zr2 35.09(9) 4_665 11_665
O1M Zr1 Zr2 90.12(12) 3_645 11_665
O1M Zr1 Zr2 90.14(11) 2_755 11_665
O1 Zr1 Zr2 74.95(7) . 11_665
O1 Zr1 Zr2 166.11(7) 2_755 11_665
O1 Zr1 Zr2 111.49(7) 3_645 11_665
O1 Zr1 Zr2 110.17(7) 4_665 11_665
O1M Zr1 Zr2 90.12(12) . 9_755
O1M Zr1 Zr2 35.05(10) 4_665 9_755
O1M Zr1 Zr2 90.14(11) 3_645 9_755
O1M Zr1 Zr2 35.09(9) 2_755 9_755
O1 Zr1 Zr2 111.49(7) . 9_755
O1 Zr1 Zr2 110.17(7) 2_755 9_755
O1 Zr1 Zr2 166.11(7) 3_645 9_755
O1 Zr1 Zr2 74.95(7) 4_665 9_755
Zr2 Zr1 Zr2 60.685(13) 11_665 9_755
O1M Zr1 Zr2 90.14(11) . 3_645
O1M Zr1 Zr2 90.12(12) 4_665 3_645
O1M Zr1 Zr2 35.09(9) 3_645 3_645
O1M Zr1 Zr2 35.05(10) 2_755 3_645
O1 Zr1 Zr2 166.11(7) . 3_645
O1 Zr1 Zr2 74.95(7) 2_755 3_645
O1 Zr1 Zr2 110.17(7) 3_645 3_645
O1 Zr1 Zr2 111.49(7) 4_665 3_645
Zr2 Zr1 Zr2 91.19(2) 11_665 3_645
Zr2 Zr1 Zr2 60.685(13) 9_755 3_645
O1M Zr2 O1M 67.48(18) 3_645 12_645
O1M Zr2 O1M 72.0(2) 3_645 .
O1M Zr2 O1M 107.9(3) 12_645 .
O1M Zr2 O1M 107.9(3) 3_645 10
O1M Zr2 O1M 72.0(2) 12_645 10
O1M Zr2 O1M 67.44(18) . 10
O1M Zr2 O1S 146.22(9) 3_645 .
O1M Zr2 O1S 146.22(9) 12_645 .
O1M Zr2 O1S 91.6(3) . .
O1M Zr2 O1S 91.6(3) 10 .
O1M Zr2 O2 75.82(14) 3_645 3_645
O1M Zr2 O2 138.72(13) 12_645 3_645
O1M Zr2 O2 76.65(14) . 3_645
O1M Zr2 O2 139.90(13) 10 3_645
O1S Zr2 O2 71.67(13) . 3_645
O1M Zr2 O2 138.72(13) 3_645 12_645
O1M Zr2 O2 75.82(14) 12_645 12_645
O1M Zr2 O2 139.90(13) . 12_645
O1M Zr2 O2 76.65(14) 10 12_645
O1S Zr2 O2 71.67(13) . 12_645
O2 Zr2 O2 127.51(16) 3_645 12_645
O1M Zr2 O2S 89.14(17) 3_645 .
O1M Zr2 O2S 89.14(17) 12_645 .
O1M Zr2 O2S 146.27(9) . .
O1M Zr2 O2S 146.27(9) 10 .
O1S Zr2 O2S 89.2(3) . .
O2 Zr2 O2S 71.64(11) 3_645 .
O2 Zr2 O2S 71.64(11) 12_645 .
O1M Zr2 O21 145.55(12) 3_645 .
O1M Zr2 O21 145.55(12) 12_645 .
O1M Zr2 O21 83.9(4) . .
O1M Zr2 O21 83.9(4) 10 .
O2 Zr2 O21 74.9(2) 3_645 .
O2 Zr2 O21 74.9(2) 12_645 .
O2S Zr2 O21 98.4(5) . .
O1M Zr2 Zr1 88.18(12) 3_645 9_755
O1M Zr2 Zr1 36.00(10) 12_645 9_755
O1M Zr2 Zr1 88.16(12) . 9_755
O1M Zr2 Zr1 36.01(10) 10 9_755
O1S Zr2 Zr1 121.41(16) . 9_755
O2 Zr2 Zr1 160.63(8) 3_645 9_755
O2 Zr2 Zr1 71.83(8) 12_645 9_755
O2S Zr2 Zr1 119.71(9) . 9_755
O21 Zr2 Zr1 115.9(3) . 9_755
O1M Zr2 Zr2 89.97(13) 3_645 11_665
O1M Zr2 Zr2 89.97(13) 12_645 11_665
O1M Zr2 Zr2 33.72(9) . 11_665
O1M Zr2 Zr2 33.72(9) 10 11_665
O1S Zr2 Zr2 91.8(3) . 11_665
O2 Zr2 Zr2 108.71(10) 3_645 11_665
O2 Zr2 Zr2 108.71(10) 12_645 11_665
O2S Zr2 Zr2 178.92(15) . 11_665
O21 Zr2 Zr2 82.6(5) . 11_665
Zr1 Zr2 Zr2 59.658(6) 9_755 11_665
O1M Zr2 Zr2 33.74(9) 3_645 3_645
O1M Zr2 Zr2 33.74(9) 12_645 3_645
O1M Zr2 Zr2 89.96(13) . 3_645
O1M Zr2 Zr2 89.97(13) 10 3_645
O1S Zr2 Zr2 178.2(3) . 3_645
O2 Zr2 Zr2 107.72(9) 3_645 3_645
O2 Zr2 Zr2 107.72(9) 12_645 3_645
O2S Zr2 Zr2 88.92(15) . 3_645
O21 Zr2 Zr2 172.6(5) . 3_645
Zr1 Zr2 Zr2 59.657(6) 9_755 3_645
Zr2 Zr2 Zr2 90.0 11_665 3_645
Zr2 O1M Zr2 112.54(15) 11_665 .
Zr2 O1M Zr1 108.95(18) 11_665 .
Zr2 O1M Zr1 108.90(17) . .
C1 O1 Zr1 132.5(2) . .
C1 O2 Zr2 134.8(3) . 11_665
O1 C1 O2 125.8(4) . .
O1 C1 C3 116.8(3) . .
O2 C1 C3 117.4(4) . .
C3 C2 C6 121.6(4) . 8_664
C2 C3 C4 120.2(4) . .
C2 C3 C1 120.6(4) . .
C4 C3 C1 119.1(4) . .
C5 C4 C3 119.8(4) . .
C4 C5 C6 121.2(4) . .
C2 C6 C5 122.8(4) 8_664 .
C2 C6 C6 119.1(5) 8_664 8_664
C5 C6 C6 118.1(5) . 8_664
O12 C11 O11 120.0(12) . .
O12 C11 C12 121.1(12) . .
O11 C11 C12 117.6(12) . .
C13 C12 C14 115.0(10) . 7_545
C13 C12 C11 121.6(12) . .
C14 C12 C11 123.4(13) 7_545 .
C12 C13 C14 121.9(10) . .
C12 C13 O13 121.2(12) . .
C14 C13 O13 116.8(13) . .
C13 C14 C12 123.0(12) . 7_545
C27 O21 C27 103.0(12) 10 .
C27 O21 Zr2 128.5(6) 10 .
C27 O21 Zr2 128.5(6) . .
O24 O24 C28 135.5(17) 10 .
C25 O26 O26 74(2) 10 10
C25 O26 C25 27.2(19) 10 .
O26 O26 C25 47.1(7) 10 .
C25 O26 C24 60.4(15) 10 10
O26 O26 C24 120.0(12) 10 10
C25 O26 C24 82.0(10) . 10
C26 C21 C22 120.7(6) . .
C26 C21 C27 120.9(7) . .
C22 C21 C27 118.4(6) . .
C26 C21 C26 11.0(7) . 10
C22 C21 C26 127.7(6) . 10
C27 C21 C26 113.2(8) . 10
C23 C22 C21 118.8(6) . .
C23 C22 O25 120.8(8) . .
C21 C22 O25 120.4(8) . .
C24 C23 C22 120.6(7) . .
C23 C24 C25 120.7(6) . .
C23 C24 C28 119.3(7) . .
C25 C24 C28 119.9(7) . .
C23 C24 O26 144.8(11) . 10
C25 C24 O26 42.4(10) . 10
C28 C24 O26 85.5(8) . 10
C23 C24 C25 126.6(5) . 10
C25 C24 C25 12.7(6) . 10
C28 C24 C25 112.9(7) . 10
O26 C24 C25 45.8(9) 10 10
C25 C25 O26 106(2) 10 10
C25 C25 C24 140.4(6) 10 .
O26 C25 C24 77(2) 10 .
C25 C25 C26 85.3(5) 10 .
O26 C25 C26 139.1(10) 10 .
C24 C25 C26 118.8(6) . .
C25 C25 O26 47.1(7) 10 .
O26 C25 O26 59(3) 10 .
C24 C25 O26 121.0(8) . .
C26 C25 O26 120.2(8) . .
C25 C25 C26 68.1(12) 10 10
O26 C25 C26 141.6(12) 10 10
C24 C25 C26 132.6(9) . 10
C26 C25 C26 17.2(12) . 10
O26 C25 C26 105.4(11) . 10
C25 C25 C24 26.9(5) 10 10
O26 C25 C24 103.5(18) 10 10
C24 C25 C24 113.5(10) . 10
C26 C25 C24 103.0(7) . 10
O26 C25 C24 52.2(10) . 10
C26 C25 C24 86.9(14) 10 10
C26 C26 C21 132.7(6) 10 .
C26 C26 C25 94.7(5) 10 .
C21 C26 C25 120.4(7) . .
C26 C26 C25 68.1(12) 10 10
C21 C26 C25 140.9(10) . 10
C25 C26 C25 26.6(13) . 10
C26 C26 C21 36.2(5) 10 10
C21 C26 C21 96.5(8) . 10
C25 C26 C21 121.2(7) . 10
C25 C26 C21 96.9(14) 10 10
O21 C27 O22 121.8(8) . .
O21 C27 C21 119.5(8) . .
O22 C27 C21 118.6(7) . .
O24 C28 O23 122.6(9) . .
O24 C28 C24 118.8(8) . .
O23 C28 C24 118.6(8) . .
loop_
_geom_bond_atom_site_label_1
_geom_bond_atom_site_label_2
_geom_bond_distance
_geom_bond_site_symmetry_2
Zr1 O1M 2.175(3) .
Zr1 O1M 2.175(3) 4_665
Zr1 O1M 2.175(3) 3_645
Zr1 O1M 2.175(3) 2_755
Zr1 O1 2.187(3) .
Zr1 O1 2.187(3) 2_755
Zr1 O1 2.187(3) 3_645
Zr1 O1 2.187(3) 4_665
Zr1 Zr2 3.5006(7) 11_665
Zr1 Zr2 3.5006(7) 9_755
Zr1 Zr2 3.5006(7) 3_645
Zr2 O1M 2.126(3) 3_645
Zr2 O1M 2.126(3) 12_645
Zr2 O1M 2.127(3) .
Zr2 O1M 2.127(3) 10
Zr2 O1S 2.145(9) .
Zr2 O2 2.234(3) 3_645
Zr2 O2 2.234(3) 12_645
Zr2 O2S 2.249(4) .
Zr2 O21 2.256(16) .
Zr2 Zr1 3.5006(7) 9_755
Zr2 Zr2 3.5367(8) 11_665
Zr2 Zr2 3.5368(8) 3_645
O1M Zr2 2.126(3) 11_665
O1 C1 1.249(5) .
O2 C1 1.263(5) .
O2 Zr2 2.234(3) 11_665
C1 C3 1.490(6) .
C2 C3 1.354(7) .
C2 C6 1.393(6) 8_664
C3 C4 1.421(7) .
C4 C5 1.360(6) .
C5 C6 1.419(7) .
C6 C2 1.393(6) 8_664
C6 C6 1.432(9) 8_664
O11 C11 1.308(14) .
O12 C11 1.278(14) .
C11 C12 1.467(9) .
C12 C13 1.381(9) .
C12 C14 1.389(9) 7_545
C13 C14 1.385(9) .
C13 O13 1.400(9) .
C14 C12 1.389(9) 7_545
O21 C27 1.340(8) 10
O21 C27 1.340(8) .
O22 C27 1.348(8) .
O23 C28 1.345(9) .
O24 O24 1.20(7) 10
O24 C28 1.338(9) .
O25 C22 1.415(8) .
O26 C25 1.078(11) 10
O26 O26 1.26(5) 10
O26 C25 1.417(8) .
O26 C24 1.56(4) 10
C21 C26 1.373(8) .
C21 C22 1.396(8) .
C21 C27 1.444(7) .
C21 C26 1.71(2) 10
C22 C23 1.388(8) .
C23 C24 1.377(8) .
C24 C25 1.390(8) .
C24 C28 1.447(7) .
C24 O26 1.56(4) 10
C24 C25 1.96(3) 10
C25 C25 0.67(4) 10
C25 O26 1.078(11) 10
C25 C26 1.395(8) .
C25 C26 1.498(13) 10
C25 C24 1.96(3) 10
C26 C26 0.44(3) 10
C26 C25 1.498(13) 10
C26 C21 1.71(2) 10
loop_
_geom_hbond_atom_site_label_D
_geom_hbond_atom_site_label_H
_geom_hbond_atom_site_label_A
_geom_hbond_distance_DH
_geom_hbond_distance_HA
_geom_hbond_distance_DA
_geom_hbond_angle_DHA
O1S H1S O11 0.83 2.04 2.695(12) 134.8
