#------------------------------------------------------------------------------
#$Date: 2019-06-14 11:53:21 +0300 (Fri, 14 Jun 2019) $
#$Revision: 215968 $
#$URL: file:///home/coder/svn-repositories/cod/cif/1/55/14/1551430.cif $
#------------------------------------------------------------------------------
#
# This file is available in the Crystallography Open Database (COD),
# http://www.crystallography.net/
#
# All data on this site have been placed in the public domain by the
# contributors.
#
data_1551430
loop_
_publ_author_name
'Ren-Wu Huang'
'Yong-Sheng Wei'
'Xi-Yan Dong'
'Xiao-Hui Wu'
'Chen-Xia Du'
'Shuang-Quan Zang'
'Thomas C. W. Mak'
_publ_section_title
;
 Hypersensitive dual-function luminescence switching of a
 silver-chalcogenolate cluster-based metal-organic framework
;
_journal_name_full               'Nature Chemistry'
_journal_page_first              689
_journal_page_last               697
_journal_paper_doi               10.1038/nchem.2718
_journal_volume                  9
_journal_year                    2017
_chemical_absolute_configuration ad
_chemical_formula_moiety         'C80 H104 Ag12 F12 N8 O8 S8'
_chemical_formula_sum            'C80 H104 Ag12 F12 N8 O8 S8'
_chemical_formula_weight         3084.63
_space_group_crystal_system      tetragonal
_space_group_IT_number           121
_space_group_name_Hall           'I -4 2'
_space_group_name_H-M_alt        'I -4 2 m'
_atom_sites_solution_hydrogens   geom
_atom_sites_solution_primary     direct
_cell_angle_alpha                90
_cell_angle_beta                 90
_cell_angle_gamma                90
_cell_formula_units_Z            2
_cell_length_a                   17.34149(13)
_cell_length_b                   17.34149(13)
_cell_length_c                   20.1671(4)
_cell_measurement_reflns_used    4427
_cell_measurement_temperature    290.00(10)
_cell_measurement_theta_max      71.7250
_cell_measurement_theta_min      3.6020
_cell_volume                     6064.80(14)
_computing_cell_refinement       'CrysAlisPro 1.171.39.7b (Rigaku OD, 2015)'
_computing_data_collection       'CrysAlisPro 1.171.39.7b (Rigaku OD, 2015)'
_computing_data_reduction        'CrysAlisPro 1.171.39.7b (Rigaku OD, 2015)'
_computing_molecular_graphics    'Olex2 (Dolomanov et al., 2009)'
_computing_publication_material  'Olex2 (Dolomanov et al., 2009)'
_computing_structure_refinement  'ShelXL (Sheldrick, 2015)'
_computing_structure_solution    'ShelXS (Sheldrick, 2008)'
_diffrn_ambient_environment      vacuum
_diffrn_ambient_temperature      290.00(10)
_diffrn_detector                 'CCD plate'
_diffrn_measured_fraction_theta_full 0.997
_diffrn_measured_fraction_theta_max 0.984
_diffrn_measurement_details
;
List of Runs (angles in degrees, time in seconds):

  # Type    Start    End  Width  t~exp~   \w     \q     \k     \f   Frames
--------------------------------------------------------------------------
  1  \w      1.00  52.00   0.50    3.00    --   45.50  37.00 -60.00  102
  2  \w     85.00 131.00   0.50    3.00    --   45.50  37.00 -60.00   92
  3  \w     88.00 133.00   0.50    3.00    --   45.50  82.00 -90.00   90
  4  \w     88.00 157.00   0.50    9.00    --  100.10  82.00 -60.00  138
  5  \w    114.00 187.00   0.50    9.00    --  100.10  82.00  60.00  146
  6  \w     11.00 134.00   0.50    9.00    --  100.10 -61.00 120.00  246
;
_diffrn_measurement_device       'four-circle diffractometer'
_diffrn_measurement_device_type  'XtaLAB Pro: Kappa single'
_diffrn_measurement_method       '\w scans'
_diffrn_orient_matrix_type
'CrysAlisPro convention (1999,Acta A55,543-557)'
_diffrn_orient_matrix_UB_11      0.0118940000
_diffrn_orient_matrix_UB_12      0.0706183000
_diffrn_orient_matrix_UB_13      0.0451010000
_diffrn_orient_matrix_UB_21      0.0171696000
_diffrn_orient_matrix_UB_22      -0.0538312000
_diffrn_orient_matrix_UB_23      0.0589306000
_diffrn_orient_matrix_UB_31      0.0864249000
_diffrn_orient_matrix_UB_32      0.0009441000
_diffrn_orient_matrix_UB_33      -0.0179779000
_diffrn_radiation_monochromator  graphite
_diffrn_radiation_probe          x-ray
_diffrn_radiation_type           CuK\a
_diffrn_radiation_wavelength     1.54184
_diffrn_reflns_av_R_equivalents  0.0333
_diffrn_reflns_av_unetI/netI     0.0363
_diffrn_reflns_Laue_measured_fraction_full 0.997
_diffrn_reflns_Laue_measured_fraction_max 0.984
_diffrn_reflns_limit_h_max       16
_diffrn_reflns_limit_h_min       -13
_diffrn_reflns_limit_k_max       18
_diffrn_reflns_limit_k_min       -21
_diffrn_reflns_limit_l_max       18
_diffrn_reflns_limit_l_min       -24
_diffrn_reflns_number            7799
_diffrn_reflns_point_group_measured_fraction_full 0.973
_diffrn_reflns_point_group_measured_fraction_max 0.945
_diffrn_reflns_theta_full        66.750
_diffrn_reflns_theta_max         72.695
_diffrn_reflns_theta_min         3.361
_diffrn_source                   MM007HF-DW
_diffrn_source_type              'Microfocus Rotating Anode X-ray Source'
_exptl_absorpt_coefficient_mu    16.990
_exptl_absorpt_correction_T_max  0.420
_exptl_absorpt_correction_T_min  0.145
_exptl_absorpt_correction_type   analytical
_exptl_absorpt_process_details
;
CrysAlisPro 1.171.39.7b (Rigaku Oxford Diffraction, 2015)
Analytical numeric absorption correction using a multifaceted crystal
			model based on expressions derived by R.C. Clark & J.S. Reid.
(Clark, R. C. & Reid, J. S. (1995). Acta Cryst. A51, 887-897)
Empirical absorption correction using spherical harmonics,
 implemented in SCALE3 ABSPACK scaling algorithm.
;
_exptl_crystal_colour            colourless
_exptl_crystal_colour_primary    colourless
_exptl_crystal_density_diffrn    1.689
_exptl_crystal_description       block
_exptl_crystal_F_000             3008
_exptl_crystal_size_max          0.182
_exptl_crystal_size_mid          0.131
_exptl_crystal_size_min          0.061
_refine_diff_density_max         0.669
_refine_diff_density_min         -0.448
_refine_diff_density_rms         0.074
_refine_ls_abs_structure_details
;
 Flack x determined using 1105 quotients [(I+)-(I-)]/[(I+)+(I-)]
 (Parsons and Flack (2004), Acta Cryst. A60, s61).
;
_refine_ls_abs_structure_Flack   -0.021(9)
_refine_ls_extinction_coef       .
_refine_ls_extinction_method     none
_refine_ls_goodness_of_fit_ref   1.062
_refine_ls_hydrogen_treatment    constr
_refine_ls_matrix_type           full
_refine_ls_number_parameters     192
_refine_ls_number_reflns         2994
_refine_ls_number_restraints     51
_refine_ls_restrained_S_all      1.087
_refine_ls_R_factor_all          0.0349
_refine_ls_R_factor_gt           0.0319
_refine_ls_shift/su_max          0.001
_refine_ls_shift/su_mean         0.000
_refine_ls_structure_factor_coef Fsqd
_refine_ls_weighting_details
;
 w=1/[\s^2^(Fo^2^)+(0.0492P)^2^]
 where P=(Fo^2^+2Fc^2^)/3
;
_refine_ls_weighting_scheme      calc
_refine_ls_wR_factor_gt          0.0812
_refine_ls_wR_factor_ref         0.0831
_reflns_Friedel_coverage         0.748
_reflns_Friedel_fraction_full    0.943
_reflns_Friedel_fraction_max     0.898
_reflns_number_gt                2736
_reflns_number_total             2994
_reflns_threshold_expression     'I > 2\s(I)'
_cod_data_source_file            nchem.2718-s7.cif
_cod_data_source_block           ag12bpy_vacuum_290k
_cod_original_cell_volume        6064.78(14)
_cod_database_code               1551430
_chemical_oxdiff_formula         'C80 H104 O8 N8 S8 Ag12'
_chemical_oxdiff_usercomment     st
_shelx_space_group_comment
;
The symmetry employed for this shelxl refinement is uniquely defined
by the following loop, which should always be used as a source of
symmetry information in preference to the above space-group names.
They are only intended as comments.
;
_reflns_odcompleteness_completeness 99.75
_reflns_odcompleteness_iscentric 1
_reflns_odcompleteness_theta     66.97
_olex2_refinement_description
;
1. Fixed Uiso
 At 1.2 times of:
  All C(H) groups
 At 1.5 times of:
  All C(H,H,H) groups
2. Restrained distances
 C4-C5 \\sim C6-C4 \\sim C7-C4
 with sigma of 0.01
 F2-C9 \\sim F1B-C9 \\sim F2B-C9 \\sim F1-C9
 with sigma of 0.01
3. Uiso/Uaniso restraints and constraints
O1 \\sim C8: within 2A with sigma of 0.005 and sigma for terminal atoms of 0.01
Uanis(F1B) \\sim Ueq, Uanis(F1) \\sim Ueq, Uanis(F2B) \\sim Ueq, Uanis(F2)
\\sim Ueq, Uanis(C5) \\sim Ueq, Uanis(C7) \\sim Ueq: with sigma of 0.01 and
sigma for terminal atoms of 0.02
4. Others
 Fixed Sof: Ag3(0.25) H3A(0.5) H3B(0.5) H3C(0.5) C7(0.5) H7A(0.5) H7B(0.5)
 H7C(0.5) H6A(0.5) H6B(0.5) H6C(0.5) F1(0.225) F2(0.45) F1B(0.275) F2B(0.55)
 C5(0.5) H5A(0.5) H5B(0.5) H5C(0.5)
5.a Aromatic/amide H refined with riding coordinates:
 C10(H10), C11(H11), C13(H13), C14(H14)
5.b Idealised Me refined as rotating group:
 C2(H2A,H2B,H2C), C3(H3A,H3B,H3C), C7(H7A,H7B,H7C), C6(H6A,H6B,H6C), C5(H5A,
 H5B,H5C)
Comments: The trifluoroacetate anion was highly disordered due 
to symmetry and rotation.The F1 and F2 were split over two parts with
fixed occupancies (0.45:0.55). Restraints such as 
"ISOR", "SIMU" and "SADI" were applied for the ADPs and geometry,
respectively. In addition, one t-butyl mercaptan was also found to 
be disordered, the symmetry for C5 and C7 was suppressed for chemical 
reasonability, and the ADPs were restrained using "ISOR 0.01 0.02". 
The C-C distances were also restrained to be similar using "SADI".
;
_shelx_res_file
;
TITL Ag12bpy_vacuum_290K in I-42m #121
REM reset to I-42m #121
CELL 1.54184 17.341489 17.341489 20.167052 90 90 90
ZERR 2 0.000131 0.000131 0.000361 0 0 0
LATT -2
SYMM +Y,-X,-Z
SYMM -X,-Y,+Z
SYMM -Y,+X,-Z
SYMM +X,-Y,-Z
SYMM -X,+Y,-Z
SYMM -Y,-X,+Z
SYMM +Y,+X,+Z
SFAC C H Ag F N O S
UNIT 160 208 24 24 16 16 16
SADI 0.01 C4 C5 C6 C4 C7 C4
SADI 0.01 F2 C9 F1B C9 F2B C9 F1 C9
SIMU 0.005 0.01 2 O1 C8
ISOR 0.01 0.02 F1B F1 F2B F2 C5 C7

L.S. 20
PLAN  5
TEMP 17
BOND $H
MORE -1
CONF
fmap 2
acta 133.5
OMIT -5 5 8
OMIT -9 9 6
OMIT -4 5 9
REM <olex2.extras>
REM <HklSrc "%.\\Ag12bpy_vacuum_290K.hkl">
REM </olex2.extras>

WGHT    0.049200
FVAR       0.58507
AG1   3    0.500000    0.500000    0.790555    10.25000    0.03852    0.03852 =
         0.08659    0.00000    0.00000   -0.00356
AG2   3    0.472808    0.661510    0.831753    11.00000    0.06028    0.03931 =
         0.10581    0.00416    0.01014    0.00245
AG3   3    0.416473    0.500000    1.000000    10.25000    0.05271    0.07091 =
         0.09637    0.03127    0.00000    0.00000
S1    7    0.401697    0.401697    0.796344    10.50000    0.04268    0.04268 =
         0.08547   -0.00667   -0.00667   -0.00506
C1    1    0.375177    0.375177    0.710356    10.50000    0.06994    0.06994 =
         0.09144   -0.01421   -0.01421   -0.00710
C2    1    0.391735    0.290141    0.701132    11.00000    0.16722    0.07713 =
         0.13174   -0.03901   -0.03785   -0.00189
AFIX 137
H2A   2    0.444505    0.279814    0.712450    11.00000   -1.50000
H2B   2    0.382803    0.276119    0.655727    11.00000   -1.50000
H2C   2    0.358398    0.260565    0.729371    11.00000   -1.50000
AFIX   0
C3    1    0.421994    0.421994    0.660850    10.50000    0.13564    0.13564 =
         0.08388   -0.01137   -0.01137   -0.03947
PART -1
AFIX 137
H3A   2    0.431116    0.472617    0.678444    10.50000   -1.50000
H3B   2    0.393979    0.426090    0.619944    10.50000   -1.50000
H3C   2    0.470425    0.396812    0.652925    10.50000   -1.50000
AFIX   0
PART 0
S2    7    0.398929    0.601071    0.925187    10.50000    0.05565    0.05565 =
         0.06749    0.00422   -0.00422    0.00229
C4    1    0.331039    0.668961    0.965907    10.50000    0.06954    0.06954 =
         0.07057    0.00014   -0.00014    0.01250
PART -1
C7    1    0.370418    0.711816    1.021059    10.50000    0.12900    0.12933 =
         0.08945   -0.05280   -0.00211    0.02715
AFIX 137
H7A   2    0.389294    0.675695    1.053273    10.50000   -1.50000
H7B   2    0.334345    0.746219    1.041763    10.50000   -1.50000
H7C   2    0.412785    0.740927    1.003391    10.50000   -1.50000
AFIX   0
PART 0
C6    1    0.287441    0.712559    0.913679    10.50000    0.09520    0.09520 =
         0.10708    0.00342   -0.00342    0.04319
PART -1
AFIX 137
H6A   2    0.323218    0.736114    0.883525    10.50000   -1.50000
H6B   2    0.256592    0.751767    0.934310    10.50000   -1.50000
H6C   2    0.254627    0.677682    0.889796    10.50000   -1.50000
AFIX   0
PART 0
O1    6    0.396745    0.693044    0.733526    11.00000    0.11761    0.10882 =
         0.14275    0.02523   -0.04179   -0.02608
C8    1    0.340607    0.659393    0.709930    10.50000    0.09179    0.09179 =
         0.12200    0.02879   -0.02879   -0.01496
C9    1    0.309804    0.690196    0.647998    10.50000    0.10849    0.10849 =
         0.10783    0.01049   -0.01049    0.00259
N1    5    0.485860    0.796594    0.832735    11.00000    0.06553    0.03997 =
         0.10833    0.01540   -0.00170   -0.00097
C10   1    0.427479    0.841979    0.815858    11.00000    0.05672    0.04321 =
         0.11767    0.01249   -0.00324   -0.00256
AFIX  43
H10   2    0.382353    0.818743    0.800969    11.00000   -1.20000
AFIX   0
C11   1    0.429411    0.921251    0.818970    11.00000    0.05418    0.04148 =
         0.11706    0.00684   -0.00400    0.00253
AFIX  43
H11   2    0.386263    0.950186    0.807528    11.00000   -1.20000
AFIX   0
C12   1    0.497015    0.957445    0.839529    11.00000    0.06582    0.03990 =
         0.09155    0.00402    0.00272    0.00401
C13   1    0.558803    0.910363    0.856257    11.00000    0.05971    0.05083 =
         0.11446    0.00031   -0.02656   -0.00585
AFIX  43
H13   2    0.605281    0.931746    0.870088    11.00000   -1.20000
AFIX   0
C14   1    0.550214    0.831017    0.852045    11.00000    0.06408    0.04751 =
         0.11282    0.01235   -0.01048    0.00345
AFIX  43
H14   2    0.592058    0.800203    0.863438    11.00000   -1.20000
AFIX   0
PART 1
F1    4    0.347525    0.652475    0.601676    10.22500    0.18781    0.18781 =
         0.14047    0.00163   -0.00163   -0.01632
F2    4    0.333706    0.757875    0.631566    10.45000    0.23186    0.09147 =
         0.19696    0.06569   -0.04721   -0.00751
PART 0
PART 2
F1B   4    0.256647    0.743353    0.656248    10.27500    0.15611    0.15611 =
         0.19011    0.04761   -0.04761    0.06015
F2B   4    0.360534    0.719495    0.607613    10.55000    0.23359    0.18578 =
         0.14341    0.07770    0.00328   -0.02363
PART 0
PART -1
C5    1    0.267921    0.619724    0.995290    10.50000    0.08419    0.11738 =
         0.09075    0.00501    0.02581    0.01311
AFIX 137
H5A   2    0.236510    0.599143    0.960315    10.50000   -1.50000
H5B   2    0.236631    0.650580    1.024239    10.50000   -1.50000
H5C   2    0.290477    0.578133    1.020003    10.50000   -1.50000
AFIX   0
HKLF 4

REM  Ag12bpy_vacuum_290K in I-42m #121
REM R1 =  0.0319 for    2736 Fo > 4sig(Fo)  and  0.0349 for all    2994 data
REM    192 parameters refined using     51 restraints

END

WGHT      0.0492      0.0000

REM Highest difference peak  0.669,  deepest hole -0.448,  1-sigma level  0.074
Q1    1   0.5000  0.5000  0.8426  10.25000  0.05    0.67
Q2    1   0.5000  0.5000  0.5000  10.12500  0.05    0.60
Q3    1   0.5392  1.0000  1.0000  10.50000  0.05    0.51
Q4    1   0.5000  0.5000  0.7395  10.25000  0.05    0.44
Q5    1   0.4744  0.6572  0.7776  11.00000  0.05    0.43
;
_shelx_res_checksum              38350
_shelx_hkl_file
;
   0   0   2 183095. 5991.11   1
   0   0   4 18304.0 652.317   1
   0   0   6 332091. 10882.3   1
   0   0   8 29245.4 1044.31   1
   0   0  10 716.016 85.9597   1
   0   0  12 28517.6 1051.64   1
   0   0 -14 745.515 63.9190   6
   0   0  14 603.953 91.7115   1
   0   0 -16 1112.84 80.6712   6
   0   0  16 1184.96 126.693   1
   0   0 -18 2784.64 141.152   6
   0   0  18 2767.25 203.246   1
   0   0 -20 8.46204 22.9091   6
   0   0 -22 237.844 31.4770   6
   0  -1  -1 125173. 4054.54   3
   1   0   1 123523. 4055.08   1
   1   0   3 51137.0 1666.15   1
   0  -1   3 48868.6 1659.66   1
   1   0   5 97783.6 3200.71   1
   0  -1   5 94856.0 3199.23   1
  -1   0   7 3598.88 198.742   1
   0  -1   7 3945.87 206.588   1
   0   1   7 3761.50 193.454   1
   1   0   7 3915.53 196.050   1
  -1   0   9 12945.2 504.999   1
   1   0   9 12661.8 497.650   1
   0   1   9 11743.1 491.787   1
   0  -1   9 12123.7 499.143   1
   1   0  11 15055.6 590.257   1
   0  -1  11 14266.9 586.783   1
   0   1  11 14995.4 589.753   1
  -1   0  11 14252.6 589.472   1
  -1   0 -13 4699.30 200.257   6
   0   1  13 4967.73 268.261   1
   1   0 -13 4749.48 203.869   6
   0  -1  13 4981.88 267.337   1
   0  -1 -13 4912.63 201.893   6
  -1   0  13 4651.88 265.302   1
   1   0  13 4463.35 256.759   1
   0   1 -13 4579.49 202.930   6
   1   0 -15 79.9295 36.6442   6
   0  -1  15 53.8785 45.1700   1
  -1   0 -15 40.0612 29.2854   6
   1   0  15 43.6028 46.6382   1
   0   1  15 80.5278 52.2471   1
   0   1 -15 6.69880 32.9674   6
  -1   0  15 9.08366 42.6108   1
   0  -1 -15 34.1652 29.3357   6
   0  -1 -17 259.240 42.1779   6
   1   0  17 334.600 77.1529   1
   1   0 -17 197.992 43.6992   6
  -1   0  17 312.100 77.6219   1
   0   1  17 190.314 64.3894   1
   0  -1  17 249.042 69.3193   1
   0   1 -17 256.008 46.5839   6
  -1   0 -17 255.915 41.8909   6
   0  -1 -19 668.638 57.8926   6
   1   0 -19 642.441 61.7507   6
   0   1 -19 692.953 61.8430   6
  -1   0 -19 570.265 55.5444   6
   0  -1 -21 632.564 51.7917   6
   1   0 -21 603.771 54.1375   6
  -1   0 -21 639.037 50.9290   6
   0   1 -21 598.715 54.4165   6
   1   0 -23 137.917 24.1155   6
   1   1 -22 198.504 31.8580   6
   1   1 -20 3.04242 29.0607   6
  -1  -1 -20-4.95562 21.1052   6
  -1  -1 -18 1019.37 72.4672   6
   1   1 -18 1123.19 83.1958   6
   1  -1  18 1021.11 119.412   1
  -1   1  18 922.038 119.833   1
   1   1 -16 182.196 42.9398   6
  -1  -1 -16 184.853 36.6731   6
   1  -1  16 239.372 67.8309   1
  -1   1  16 133.617 61.9715   1
  -1  -1 -14 1456.81 91.4472   6
  -1   1  14 1718.42 151.207   1
   1  -1  14 1729.03 146.776   1
   1   1 -14 1855.48 105.313   6
  -1   1  12 2683.66 181.925   1
   1  -1  12 2494.11 173.306   1
   1   1 -12 2559.48 129.427   6
  -1   1  10 15369.2 593.337   1
   1  -1  10 14371.0 584.900   1
   1  -1   8 6462.07 294.450   1
  -1   1   8 6141.01 287.977   1
   1  -1   6 19435.3 706.111   1
   1  -1   4 22060.3 761.719   1
   1  -1   2 7656.54 266.803   1
   1  -1   0 166567. 5345.29   2
   1  -1   0 159917. 5350.47   3
  -1  -1   2 5765.86 211.987   1
   1   1   6 11544.5 443.343   1
   1   1   8 5361.99 255.115   1
  -1  -1   8 5700.12 271.697   1
  -1  -1  10 15363.4 608.863   1
   1   1  10 15247.7 598.560   1
   1   1  12 2382.82 163.688   1
  -1  -1  12 2098.49 159.250   1
  -1   1 -14 1737.32 103.062   6
   1  -1 -14 1896.12 106.272   6
   1   1  14 1791.75 151.107   1
  -1  -1  14 1765.63 149.394   1
   1   1  16 253.581 66.0991   1
  -1  -1  16 162.339 62.0531   1
   1  -1 -16 169.275 41.3837   6
  -1   1 -16 220.415 41.3376   6
   1  -1 -18 965.932 73.6451   6
  -1   1 -18 875.652 72.4739   6
   1   1  18 951.502 113.696   1
  -1  -1  18 982.553 119.099   1
  -1   1 -20 19.4023 25.1672   6
   1  -1 -20-11.3512 25.7670   6
   1  -1 -22 178.115 28.9804   6
   2   0   2 15607.8 515.706   3
  -2   0   2 15793.1 550.281   1
   2   0   2 15564.2 522.972   1
   0  -2  -2 15451.5 523.513   3
  -2   0   4 1382.05 97.5207   1
   0  -2   4 1446.02 84.3366   1
   2   0   4 1417.28 86.3920   1
  -2   0   6 39946.3 1444.75   1
   2   0   6 44614.3 1443.71   1
   0  -2   6 41277.1 1437.07   1
   0  -2   8 5142.31 253.844   1
   2   0   8 4979.99 241.993   1
   0  -2  10 2001.29 151.055   1
   2   0  10 2251.28 147.905   1
   0   2  10 2059.93 149.490   1
   2   0  12 1669.80 133.673   1
   0   2  12 1808.61 144.114   1
   0  -2  12 1717.36 142.759   1
  -2   0  12 1831.57 147.437   1
   2   0 -12 1668.19 96.2046   6
   0   2 -12 1503.84 94.9164   6
   2   0 -14 1854.93 107.990   6
   2   0  14 1894.17 152.736   1
  -2   0 -14 1694.59 99.0637   6
   0  -2 -14 1712.06 100.042   6
  -2   0  14 2246.53 171.259   1
   0   2 -14 1793.51 107.910   6
   0   2  14 1872.39 156.541   1
   0  -2  14 1974.28 159.960   1
  -2   0  16 9.77395 51.2385   1
   2   0  16-8.89877 44.7459   1
  -2   0 -16 33.2183 30.5351   6
   0   2 -16-3.61174 33.8712   6
   0  -2  16-9.55328 50.0817   1
   2   0 -16 6.97386 31.8729   6
   0  -2 -16 15.2797 26.0316   6
   0   2  16 37.9081 45.5345   1
  -2   0  18 482.337 89.3941   1
  -2   0 -18 533.271 51.8554   6
   0  -2  18 762.723 104.338   1
   0  -2 -18 539.560 53.0756   6
   2   0 -18 547.504 58.9333   6
   0   2 -18 608.365 63.0616   6
   2   0  18 493.228 81.2961   1
   0   2  18 677.246 97.1285   1
   0   2 -20 33.4809 29.6044   6
   2   0 -20 15.0550 27.5324   6
   0  -2 -20 25.3432 22.5602   6
   0   2 -22 40.6713 22.0415   6
   2   0 -22 53.1577 23.5019   6
   2   1 -23 45.3677 18.8043   6
   2   1 -21 73.2326 30.0482   6
   1   2 -21 68.0557 28.7751   6
   2   1 -19 627.569 62.8023   6
   1   2 -19 589.929 60.1003   6
  -2  -1 -17 109.087 29.9050   6
   2   1 -17 74.9473 36.7777   6
   1  -2  17 57.3108 52.1186   1
   2  -1  17 9.18631 45.2689   1
  -1   2  17 158.244 59.6388   1
  -2   1  17 90.9990 58.1362   1
  -1  -2 -17 90.2076 29.2543   6
   1   2 -17 135.508 40.0106   6
  -1  -2 -15 1594.95 93.1012   6
   2   1 -15 1734.88 104.952   6
   1  -2  15 1759.53 153.671   1
   1   2 -15 1706.57 106.587   6
   2  -1  15 1850.30 155.658   1
  -2  -1 -15 1391.13 89.3942   6
  -2   1  15 2101.08 167.442   1
  -1   2  15 1717.50 156.201   1
  -1  -2 -13 1661.37 92.7405   6
   1  -2  13 1592.84 143.326   1
  -2   1  13 2110.89 162.109   1
   2  -1  13 1695.15 142.914   1
   2   1 -13 1630.14 100.698   6
   1   2 -13 1802.16 104.442   6
  -1   2  13 1757.81 150.394   1
  -2   1  11 3132.50 202.465   1
   2  -1  11 3348.12 200.684   1
  -1   2  11 3185.43 203.340   1
   1  -2  11 3459.22 207.648   1
   1  -2   9 15198.9 585.214   1
   2  -1   9 14709.3 571.595   1
  -1   2   9 13686.1 568.687   1
   2  -1   7 9434.33 374.190   1
   1  -2   7 8650.60 368.761   1
   2  -1   5 17208.4 614.121   1
   1  -2   5 17420.4 617.166   1
   2  -1   3 7775.17 276.560   1
   1  -2   3 7691.53 280.545   1
  -1  -2  -1 20190.1 682.909   2
  -2  -1  -1 19996.9 675.199   2
   1  -2  -1 17943.9 589.574   3
  -2  -1   1 17362.4 583.166   1
   1  -2  -1 17191.1 585.907   2
  -2  -1   3 7700.78 280.901   1
  -1  -2   3 6942.54 269.693   1
  -2  -1   5 15638.9 575.900   1
   2   1   5 15092.0 555.128   1
   2   1   7 6864.27 285.795   1
  -2  -1   7 6064.53 297.180   1
  -1  -2   9 15156.0 572.925   1
   2   1   9 13784.6 544.490   1
   1   2   9 13256.7 543.756   1
   1   2  11 3951.77 225.120   1
   2   1  11 3857.45 219.479   1
  -1  -2  11 4119.45 234.708   1
  -1   2 -13 1526.07 95.1408   6
   1  -2 -13 1449.77 90.6441   6
   2   1  13 1859.11 143.706   1
   1   2  13 1564.68 137.595   1
  -2  -1  13 1873.31 153.472   1
  -1  -2  13 1636.67 143.921   1
  -2   1 -13 1546.53 92.0300   6
   2  -1 -13 1441.71 92.3580   6
  -2   1 -15 1521.04 97.7401   6
   1  -2 -15 1658.87 100.502   6
   2   1  15 1628.70 144.050   1
  -1   2 -15 1756.83 106.369   6
   2  -1 -15 1681.55 103.797   6
  -2  -1  15 1774.65 158.578   1
   1   2  15 1858.38 157.766   1
  -1  -2  15 1711.73 154.658   1
   2   1  17 98.5162 50.7254   1
  -1   2 -17 137.561 40.7089   6
  -2  -1  17 100.075 51.5585   1
  -1  -2  17 138.457 56.9345   1
  -2   1 -17 89.4116 33.5530   6
   1  -2 -17 174.481 39.1278   6
   2  -1 -17 116.708 37.4430   6
   1   2  17 148.320 58.4528   1
   2  -1 -19 451.035 51.7646   6
  -2   1 -19 382.575 46.5194   6
   1  -2 -19 539.636 53.7236   6
  -1   2 -19 521.120 54.8094   6
   1  -2 -21 89.3266 26.1278   6
  -1   2 -21 91.0575 28.6472   6
   2  -1 -21 87.2545 29.3717   6
   2  -1 -23 38.9050 17.2952   6
   2   2 -22 159.247 30.8894   6
   2   2 -20 322.956 46.0486   6
  -2   2  18 345.622 73.8903   1
   2   2 -18 334.705 50.8355   6
  -2   2  16 40.8209 47.9388   1
   2  -2  16 139.500 64.7433   1
   2   2 -16 105.637 41.7636   6
   2  -2  14 6309.98 335.609   1
   2   2 -14 6660.02 272.924   6
  -2   2  14 6809.19 350.160   1
   2  -2  12 8525.36 402.271   1
  -2   2  12 9160.57 415.617   1
   2   2 -12 8651.13 336.305   6
   2  -2  10 15218.0 609.825   1
   2  -2   8 14384.4 556.900   1
   2  -2   6 15005.0 549.970   1
   2  -2   4 14405.4 505.523   1
  -2  -2  -2 15339.3 505.855   3
   2  -2   0 4067.43 150.059   2
   2  -2   0 4214.74 159.475   3
  -2  -2   2 17035.5 580.152   1
  -2  -2   4 9723.61 365.932   1
  -2  -2   6 11763.3 460.217   1
   2   2   8 12704.7 497.373   1
   2   2  10 15663.5 609.962   1
   2   2  12 6737.97 328.456   1
  -2  -2  12 6224.87 330.934   1
   2  -2 -12 6942.04 268.006   6
   2  -2 -14 6133.61 254.603   6
  -2  -2  14 6888.81 341.530   1
  -2   2 -14 5934.83 255.249   6
   2   2  14 6786.91 329.694   1
  -2   2 -16 113.754 38.3242   6
  -2  -2  16 138.583 64.9587   1
   2  -2 -16 166.863 40.9397   6
   2   2  16 114.391 51.5498   1
  -2   2 -18 267.313 43.5159   6
   2   2  18 228.809 63.7245   1
   2  -2 -18 226.302 41.6970   6
  -2  -2  18 210.777 60.0272   1
   2  -2 -20 334.430 44.1189   6
  -2   2 -20 324.350 41.8809   6
   2  -2 -22 179.253 28.6147   6
   0  -3  -1 10177.2 348.203   3
  -3   0   1 9786.93 352.918   1
   3   0   3 62229.2 2066.26   3
  -3   0   3 65522.0 2116.07   1
   3   0   3 63369.7 2073.92   1
   0  -3  -3 63381.8 2077.54   3
   0  -3   5 20273.1 699.509   1
  -3   0   5 19349.1 716.467   1
   3   0   5 19350.2 692.072   1
   3   0   7 316.022 56.4048   1
   0  -3   7 346.305 56.2669   1
  -3   0   7 328.217 60.1196   1
   0  -3   9 7755.26 355.896   1
  -3   0   9 7530.86 353.341   1
   3   0   9 8100.93 345.948   1
   0  -3  11 114.931 51.9197   1
  -3   0  11 203.874 61.2048   1
   0   3  11 172.801 55.9564   1
   3   0  11 178.715 51.2770   1
   3   0  13 235.201 61.5618   1
   0  -3 -13 205.600 36.3368   6
   0   3  13 299.083 73.0077   1
   0   3 -13 248.088 45.4934   6
   0  -3  13 293.406 71.3897   1
   3   0 -13 207.078 42.2582   6
   0  -3  15 555.452 90.2740   1
   0   3 -15 546.042 62.0721   6
   0  -3 -15 492.293 51.8934   6
   3   0  15 645.988 91.7026   1
   0   3  15 460.550 90.9958   1
   3   0 -15 491.797 58.8940   6
   3   0 -17 81.6545 37.9329   6
   0  -3 -17 128.758 33.0815   6
  -3   0  17 134.194 59.3784   1
   0   3 -17 71.8004 40.1628   6
   0   3  17 136.753 60.6861   1
   3   0 -19 663.970 62.3014   6
   0  -3 -19 623.306 54.9460   6
   0   3 -19 679.950 64.9661   6
   3   0 -21-7.97323 23.9711   6
   0   3 -21-2.66069 24.3197   6
   3   0 -23 6.87867 16.7217   6
   3   1 -22 51.9783 24.4818   6
   1   3 -22 76.0686 25.6718   6
   1   3 -20 161.555 38.7468   6
   3   1 -20 199.868 40.3043   6
   3   1 -18 231.470 42.0686   6
  -3   1  18 228.185 68.1990   1
  -1   3  18 118.603 58.0336   1
   1   3 -18 177.479 44.3027   6
   3   1 -16 390.958 55.8743   6
   3  -1  16 458.892 82.0306   1
   1   3 -16 441.078 59.2686   6
  -3   1  16 552.433 94.0810   1
  -1   3  16 631.208 99.5356   1
   3  -1  14 2599.23 183.050   1
   1  -3  14 2399.57 186.247   1
  -1   3  14 2870.80 205.072   1
   3   1 -14 2343.01 130.505   6
   1   3 -14 2607.08 137.510   6
   3   1 -12 3127.06 152.192   6
   3  -1  12 3311.16 203.886   1
   1   3 -12 3422.39 159.457   6
   1  -3  12 3162.90 211.784   1
  -1   3  12 3327.03 214.009   1
   3  -1  10 11829.4 462.585   1
  -1   3  10 10158.8 457.396   1
  -3   1  10 10406.0 463.157   1
   1  -3  10 10632.7 468.093   1
   1  -3   8 5904.17 275.482   1
   3  -1   8 5858.50 271.235   1
  -3   1   8 5706.69 279.737   1
  -3   1   6 651.089 75.4712   1
   1  -3   6 761.874 71.3124   1
   3  -1   6 764.579 65.4960   1
   3  -1   4 17701.6 607.396   1
  -1  -3  -2 14859.0 498.805   3
   3  -1   2 15122.0 504.319   3
  -1  -3  -2 14317.4 504.146   2
  -1  -3   0 12659.3 432.346   2
   1  -3   0 12673.7 434.222   2
   1  -3  -2 15387.0 534.169   3
  -3  -1   2 15700.8 536.607   1
   3   1   4 19420.3 670.148   1
  -3  -1   4 18954.4 686.106   1
   3   1   6 978.292 81.4374   1
  -3  -1   6 1339.38 108.762   1
   3   1   8 6056.18 261.680   1
  -3  -1   8 5886.11 280.429   1
   3   1  10 12640.4 502.441   1
  -1  -3  10 12944.5 532.518   1
  -3  -1  10 12441.2 521.101   1
   1   3  10 11673.2 504.739   1
   3   1  12 3558.66 207.656   1
  -1  -3  12 3702.42 226.958   1
   3  -1 -12 3318.75 157.094   6
   1  -3 -12 3244.48 153.188   6
   1   3  12 3712.09 217.763   1
  -1   3 -12 3555.74 164.979   6
  -1  -3  14 2469.07 188.393   1
   1  -3 -14 2511.24 127.242   6
   3  -1 -14 2378.15 129.192   6
  -1   3 -14 2533.51 134.853   6
   1   3  14 2702.76 189.420   1
   3   1  14 2544.39 177.178   1
  -3   1 -14 2282.99 124.399   6
   1   3  16 358.209 79.1795   1
   3  -1 -16 307.496 49.7750   6
  -3   1 -16 346.244 45.5300   6
   3   1  16 305.485 69.7485   1
  -3  -1  16 281.972 78.3291   1
  -1   3 -16 314.771 51.4499   6
  -1  -3  16 218.408 67.5097   1
   1  -3 -16 434.895 51.0983   6
   1  -3 -18 188.224 37.3752   6
   1   3  18 202.483 60.6711   1
  -1   3 -18 225.884 42.6132   6
  -3   1 -18 251.083 38.7190   6
   3  -1 -18 211.830 42.9640   6
  -3  -1  18 205.600 63.2384   1
  -1   3 -20 186.588 37.4133   6
   3  -1 -20 156.079 35.6349   6
   1  -3 -20 168.852 32.8786   6
   3  -1 -22 38.6252 22.7566   6
   3  -1 -24 20.8356 12.0227   6
   3   2 -23 29.7427 17.9050   6
   3   2 -21 226.483 38.7308   6
   2   3 -21 214.324 38.1308   6
   2   3 -19 284.778 47.2299   6
   3   2 -19 275.236 45.4184   6
   2   3 -17 1193.48 91.4554   6
  -2   3  17 1557.54 152.269   1
   3   2 -17 1202.68 90.0294   6
  -3   2  17 1226.72 137.288   1
   2   3 -15 5451.43 234.625   6
   3  -2  15 5687.85 301.816   1
  -3   2  15 5001.38 304.745   1
  -2   3  15 5891.96 322.344   1
   3   2 -15 5105.35 230.345   6
   2   3 -13 1774.06 109.177   6
   3  -2  13 1754.00 147.660   1
  -2   3  13 2042.56 165.621   1
   2  -3  13 1699.48 153.660   1
   2  -3  11 11306.2 484.611   1
   3  -2  11 10922.2 470.194   1
  -2   3  11 10253.3 474.707   1
   3  -2   9 32890.6 1170.79   1
   2  -3   9 32400.5 1173.66   1
  -3   2   9 33121.9 1186.16   1
   2  -3   7 16509.7 608.718   1
   3  -2   7 16172.6 600.548   1
   3  -2   5 471.427 45.4931   1
  -2  -3  -3 58289.0 1917.31   3
   3  -2   3 59324.9 1942.10   3
  -3  -2  -1 4883.71 172.959   2
   3  -2   1 5311.96 193.068   3
  -2  -3  -1 4788.28 180.057   2
   3  -2   1 4950.08 178.348   2
   2  -3   1 5001.86 194.079   3
   2  -3   1 5106.30 185.287   2
   3  -2  -1 3492.17 143.702   3
   2  -3  -1 3277.46 134.583   2
  -3  -2   3 58858.1 1954.94   1
  -3  -2   5 108.026 38.4650   1
  -2  -3   5 160.738 38.6475   1
  -2  -3   7 14236.8 561.276   1
   3   2   7 14891.0 548.480   1
  -3  -2   7 14453.8 567.574   1
  -3  -2   9 33968.9 1195.92   1
   3   2   9 33562.2 1165.92   1
   2   3   9 31355.6 1166.47   1
   2   3  11 9705.43 420.577   1
   3   2  11 10024.3 417.268   1
  -3  -2  11 8811.51 427.018   1
   3   2  13 1663.83 140.041   1
   3  -2 -13 1637.53 100.162   6
  -3   2 -13 1649.38 100.457   6
   2   3  13 1716.96 144.319   1
   2  -3 -13 1839.76 102.293   6
  -2   3 -13 1733.17 105.298   6
  -2  -3  13 1717.62 155.976   1
   3   2  15 5215.52 275.912   1
   3  -2 -15 4992.99 214.868   6
   2  -3 -15 4824.79 211.238   6
  -2   3 -15 4904.08 216.930   6
  -3   2 -15 4266.93 206.482   6
   2   3  15 5358.69 286.127   1
  -2  -3  15 4937.15 290.693   1
  -2   3 -17 1331.39 92.1387   6
  -2  -3  17 1222.08 134.812   1
  -3   2 -17 1265.38 86.8810   6
   2   3  17 1337.96 132.946   1
  -3  -2  17 1475.23 148.311   1
   3  -2 -17 1306.31 90.0771   6
   2  -3 -17 1211.87 86.3383   6
   3  -2 -19 239.440 40.7669   6
  -3   2 -19 167.977 33.3777   6
   2  -3 -19 214.565 38.8774   6
  -2   3 -19 244.696 40.7315   6
   3  -2 -21 231.507 36.9333   6
   2  -3 -21 204.107 32.8384   6
   3  -2 -23 9.36110 14.7251   6
   3   3 -22 64.6725 25.4856   6
   3   3 -20 364.244 46.9814   6
  -3   3  18 2202.47 183.659   1
   3   3 -18 2256.21 126.070   6
   3   3 -16 189.972 45.9977   6
  -3   3  16 219.865 75.8542   1
   3   3 -12 23265.4 813.160   6
   3  -3  10 15816.8 632.458   1
   3  -3   2 5189.52 203.669   3
  -3  -3  -2 4925.50 181.801   2
   3  -3   2 4844.92 185.592   2
   3  -3   0 2039.84 88.4741   2
  -3  -3   0 1882.50 81.6463   2
   3  -3   0 2068.95 99.3050   3
  -3  -3   4 40138.0 1358.30   1
  -3  -3   6 64683.6 2184.55   1
  -3  -3   8 7512.14 344.390   1
   3   3  10 17976.8 704.461   1
  -3  -3  10 19452.0 749.222   1
  -3  -3  12 24351.1 932.814   1
   3  -3 -12 24251.0 837.690   6
   3   3  12 24999.0 910.704   1
  -3   3 -12 23543.6 843.418   6
  -3   3 -14 4985.77 228.495   6
   3  -3 -14 5511.67 228.532   6
   3   3  14 5428.16 287.758   1
   3   3  16 143.566 57.7823   1
   3  -3 -16 299.487 48.2252   6
  -3   3 -16 174.623 42.6513   6
   3  -3 -18 2351.30 124.146   6
  -3   3 -18 2084.75 118.687   6
   3  -3 -20 412.269 46.5238   6
   3  -3 -22 65.6086 21.8006   6
  -4   0   0 224.130 16.3196   1
  -4   0   2 885.910 64.5353   1
   0  -4  -2 776.947 50.0654   3
   4   0   4 163.340 18.0077   3
   0  -4  -4 174.851 25.6370   3
   4   0   4 212.016 23.8521   1
  -4   0   4 231.187 53.2524   1
   4   0   6 9488.59 338.590   3
   4   0   6 10009.8 370.697   1
  -4   0   6 10406.1 409.720   1
   0  -4   8 843.240 90.8708   1
  -4   0   8 829.166 95.8157   1
   0  -4  10 48.3794 48.6332   1
  -4   0  10 99.3461 52.6039   1
   4   0  10 90.7494 42.1552   1
   0   4  12 170.318 60.5899   1
   0   4 -12 47.2543 35.4004   6
  -4   0  12 52.2646 49.2234   1
   4   0  12 34.8531 38.0293   1
   0  -4  12 83.9555 57.8967   1
   4   0  14 163.337 54.1835   1
   4   0 -14 51.1980 34.4674   6
   0   4 -14 112.731 43.2459   6
   0   4  14 125.890 61.8379   1
   0  -4 -14 95.3224 30.7081   6
  -4   0  14 96.4722 59.9210   1
   0   4  16 364.301 79.4456   1
   0   4 -16 406.432 59.5080   6
   0  -4 -16 294.201 42.4628   6
   4   0 -16 338.821 52.6955   6
  -4   0  16 344.892 85.5838   1
   0   4 -18 560.234 61.8552   6
   0  -4 -18 511.672 49.6804   6
   0   4  18 500.130 85.5221   1
   4   0 -18 545.292 57.0516   6
   4   0 -20 62.7050 30.5812   6
   0   4 -20 62.3694 32.9215   6
   4   0 -22-6.52070 20.3840   6
   4   0 -24 1.15236 11.8993   6
   4   1 -23 8.53925 17.7281   6
   4   1 -21 42.4612 28.7989   6
   1   4 -21 21.6752 25.7430   6
   4   1 -19 672.119 63.1144   6
   1   4 -19 707.420 69.0237   6
   4   1 -17 179.778 43.8079   6
   1   4 -17 101.479 33.1444   5
   1   4 -17 94.0688 36.9571   6
  -1   4  17 124.848 60.8553   1
   4  -1  15 266.195 65.0538   1
  -1   4  15 184.588 63.9867   1
  -4   1  15 165.865 64.6754   1
   1   4 -15 228.037 48.3969   6
   4   1 -15 213.180 44.9312   6
   4  -1  13 1059.93 109.237   1
  -4   1  13 860.730 111.244   1
  -1   4  13 845.395 110.987   1
   1   4 -13 813.936 76.3138   6
  -4   1  11 2113.20 163.316   1
   4   1 -11 2021.65 110.250   6
   1   4 -11 1965.65 116.524   6
   4  -1  11 2229.38 153.898   1
   1  -4  11 2316.24 176.671   1
  -1   4  11 2355.45 171.296   1
   4  -1   9 9626.63 403.097   1
  -4   1   9 9615.37 425.298   1
   1  -4   9 9617.52 418.313   1
  -4   1   7 5657.89 258.716   1
   4  -1   7 5312.93 225.156   1
   4  -1   5 7574.18 281.158   1
   4  -1   5 7492.01 280.659   3
  -1  -4  -3 2717.14 112.094   3
   4  -1   3 2713.59 115.846   3
   1  -4   1 1428.66 73.8957   2
   4  -1   1 1462.89 57.7558   2
  -1  -4  -1 1438.43 71.8615   2
  -4  -1   1 680.934 37.3593   1
   1  -4  -1 756.331 51.0643   3
   4   1   3 2582.47 107.895   1
   1  -4  -3 2935.38 124.155   3
  -4  -1   3 2757.54 132.128   1
  -4  -1   5 6840.27 302.955   1
   4   1   5 7315.77 285.080   1
   4   1   7 6730.49 285.897   1
  -4  -1   7 6605.26 312.261   1
  -4  -1   9 9974.52 437.986   1
  -1  -4   9 9409.38 437.667   1
   4   1   9 10679.6 418.649   1
   4   1  11 1999.79 142.657   1
   4  -1 -11 2021.89 109.400   6
  -4  -1  11 2121.49 160.832   1
   1   4  11 2027.83 154.689   1
  -1  -4  11 2057.65 172.604   1
  -1  -4  13 828.040 109.757   1
   1  -4 -13 792.776 64.4192   6
  -1   4 -13 955.332 78.7474   6
  -4  -1  13 1023.98 115.638   1
   1   4  13 886.270 107.166   1
   4   1  13 722.403 90.5130   1
   4  -1 -13 777.599 67.5526   6
  -1   4 -15 332.772 54.1447   6
   1  -4 -15 335.213 45.5204   6
   4  -1 -15 377.383 51.4367   6
   1   4  15 276.465 70.6939   1
  -4  -1  15 150.718 64.8739   1
  -1   4 -17 89.4060 39.0861   6
   4  -1 -17 142.944 39.8557   6
   1   4  17 133.997 56.9086   1
   1  -4 -17 132.327 34.6837   6
   1  -4 -19 523.839 50.8314   6
  -1   4 -19 574.807 59.7936   6
   4  -1 -19 525.586 57.3594   6
   4  -1 -21 20.4341 23.8120   6
   4  -1 -23 21.2796 17.2614   6
   4   2 -22 37.5179 23.8539   6
   2   4 -20 210.999 41.8993   6
   4   2 -20 198.102 37.3058   6
   4   2 -18 158.896 40.9314   6
   2   4 -18 183.063 42.9087   6
   2   4 -16 136.833 43.2926   6
   2   4 -16 86.7466 37.0619   5
  -2   4  16 43.5932 53.6809   1
  -2   4  14 3038.81 218.914   1
  -4   2  14 3186.86 221.471   1
   2   4 -14 2647.68 147.274   6
  -2   4  12 13332.9 553.863   1
  -4   2  12 13771.0 559.493   1
   4   2 -12 12035.0 456.186   6
   4  -2  12 11680.9 520.746   1
   4  -2  10 7530.82 347.904   1
  -4   2  10 7862.75 369.593   1
   4  -2   8 4123.14 204.536   1
  -4   2   8 4446.45 237.221   1
   4  -2   6 20195.0 725.149   3
  -2  -4  -4 28512.2 960.121   3
   4  -2   4 29891.2 989.327   3
  -2  -4  -2 7166.06 266.105   2
   4  -2   2 7501.56 275.818   3
  -2  -4  -2 7298.92 259.653   3
   4  -2   2 7323.81 256.361   2
   4  -2   0 6201.26 221.439   2
   4  -2   0 6490.03 241.318   3
  -2  -4   0 5962.43 225.964   2
   2  -4   0 5966.67 228.479   2
  -4  -2   2 7543.19 273.527   1
   2  -4  -2 7588.81 282.819   2
   2  -4  -2 7502.37 286.072   3
  -4  -2   4 27015.8 935.299   1
  -4  -2   6 20280.6 757.394   1
  -2  -4   6 21317.9 754.967   1
   4   2   6 20718.5 737.678   1
   4   2   8 4479.24 217.490   1
  -2  -4   8 3899.06 228.125   1
  -4  -2  10 7129.55 355.544   1
   4   2  10 7544.09 332.197   1
   4   2  12 10929.2 439.014   1
  -4   2 -12 8817.42 373.588   6
  -2   4 -12 10265.5 386.313   6
   2  -4 -12 10034.5 370.091   4
   4  -2 -12 9956.70 375.222   6
  -4  -2  12 11160.7 466.858   1
   2   4  12 10402.0 449.947   1
   2  -4 -12 9674.58 371.732   6
   4   2  14 2074.38 156.151   1
  -2  -4  14 2356.10 187.513   1
   2   4  14 2155.43 169.802   1
  -4   2 -14 1942.42 116.822   6
   2  -4 -14 2266.70 120.919   6
  -4  -2  14 2620.93 195.591   1
   4  -2 -14 2259.99 123.612   6
  -2   4 -14 2228.70 128.983   6
   2   4  16 138.387 57.2723   1
  -2   4 -16 89.4489 41.6479   6
   4  -2 -16 89.6796 39.1548   6
   2  -4 -16 53.1943 33.6960   6
  -4  -2  16 41.7708 49.0193   1
  -4   2 -16 58.0345 32.1535   6
   2  -4 -18 156.056 37.1426   6
   4  -2 -18 147.003 38.3307   6
  -2   4 -18 213.349 42.0438   6
   2  -4 -20 159.928 32.4478   6
   4  -2 -20 208.150 38.3627   6
  -2   4 -20 170.453 30.8517   5
   4  -2 -22 12.2280 19.5875   6
   4   3 -23 34.7798 19.3690   6
   4   3 -21 36.9900 27.4373   6
   3   4 -21 18.5783 25.8202   6
   3   4 -19 41.0764 31.5058   6
   4   3 -19 16.7631 30.2517   6
   3   4 -17 1673.56 109.430   6
  -3   4  17 1644.53 164.603   1
   3   4 -15 3492.67 178.021   5
  -3   4  15 3716.07 254.247   1
   4   3 -13 2238.55 120.976   6
   3   4 -13 1885.19 116.473   6
   3   4 -13 1950.61 126.960   5
  -4   3  13 2189.32 182.385   1
  -4   3  11 6875.67 338.688   1
   4   3 -11 6066.14 253.861   6
   3   4 -11 6209.39 256.372   6
   4  -3   5 5343.84 242.122   3
   3  -4   3 24746.5 684.538   3
  -3  -4  -3 25201.8 629.493   3
   4  -3   3 26032.4 679.717   3
   4  -3   1 15370.5 536.518   3
  -3  -4  -1 14768.9 515.913   2
   3  -4   1 16082.9 541.612   3
   3  -4   1 15130.1 522.530   2
   4  -3   1 14690.2 515.744   2
  -4  -3  -1 14966.8 507.586   2
   4  -3  -1 15301.3 539.562   3
   3  -4  -1 14876.7 525.570   2
  -4  -3   5 4921.16 221.756   1
  -3  -4   7 18378.5 676.732   1
  -4  -3   7 17383.6 674.627   1
  -4  -3   9 17436.3 687.673   1
  -3  -4   9 16667.4 678.073   1
   4   3   9 17358.1 651.402   1
  -4  -3  11 5787.44 313.674   1
   4   3  11 5947.65 286.911   1
   3   4  11 6333.89 297.153   1
  -3  -4  11 6330.15 329.374   1
   3  -4 -11 5717.35 236.562   6
   4  -3 -11 5570.53 236.664   6
  -3   4 -11 5685.77 245.257   6
   4  -3 -13 1991.92 112.907   6
   4   3  13 1899.72 148.670   1
   3  -4 -13 2040.77 112.893   6
  -4  -3  13 2204.41 177.950   1
  -3   4 -13 1905.52 117.515   6
  -4   3 -13 1807.95 113.245   6
  -3  -4  13 1691.98 164.323   1
   3   4  13 1850.05 152.548   1
   3   4  15 3642.15 228.460   1
   3  -4 -15 3671.46 170.914   6
  -3   4 -15 3637.50 176.830   6
   4  -3 -15 3688.05 173.165   6
  -4   3 -15 3167.44 167.163   6
  -4  -3  15 3725.73 250.188   1
  -4  -3  17 1914.04 173.474   1
  -3   4 -17 1852.25 113.200   6
   3  -4 -17 1716.48 107.886   6
   4  -3 -17 2024.38 115.071   6
   3  -4 -19 2.97655 25.3612   6
   4  -3 -19 40.4080 27.6601   6
   3  -4 -21 71.3223 25.6811   6
   4  -3 -21 54.5371 26.7394   6
   4  -3 -23 32.8086 15.8636   6
   4   4 -22 119.080 27.1925   6
   4   4 -20 225.241 39.0002   6
   4   4 -16 762.248 71.5890   6
   4   4 -14 3506.28 187.401   5
  -4   4  14 3824.90 259.315   1
   4   4 -14 3658.61 175.857   6
  -4   4  12 12187.9 441.301   1
   4   4 -12 11337.3 310.598   6
   4  -4   6 21525.5 804.446   3
   4  -4   4 35287.7 1229.43   3
  -4  -4  -2 23922.2 809.416   2
   4  -4   2 25208.4 847.025   3
   4  -4   2 23543.3 816.234   2
   4  -4   0 1744.00 87.0810   2
  -4  -4   0 1671.10 79.0132   2
   4  -4   0 1698.40 98.4673   3
  -4  -4   6 27504.3 978.307   1
  -4  -4   8 13314.9 541.999   1
   4   4  10 7622.53 343.553   1
  -4  -4  10 7520.47 375.902   1
  -4  -4  12 10696.2 485.517   1
  -4   4 -12 10027.8 394.262   6
   4  -4 -12 10040.7 385.248   6
   4   4  12 10153.4 443.005   1
  -4   4 -14 2694.70 148.059   6
  -4  -4  14 3006.01 219.291   1
   4  -4 -14 2881.68 146.869   6
   4  -4 -16 499.817 57.3644   6
   4  -4 -18 990.825 76.0151   6
   4  -4 -20 322.022 41.5831   6
   4  -4 -22 140.911 25.4366   6
  -5   0   1 3980.02 153.241   1
   0  -5  -1 3839.29 161.174   2
   0  -5  -1 3809.61 162.334   3
   0  -5  -3 32185.7 1080.38   3
   0  -5  -3 32161.3 1086.06   2
  -5   0   3 31527.4 1103.50   1
  -5   0   5 18813.1 667.774   1
   5   0   5 17234.3 598.949   1
   5   0   7 3795.49 178.506   1
  -5   0   7 4394.59 226.167   1
  -5   0   9 3554.36 218.154   1
   5   0   9 3877.15 199.036   1
  -5   0  11 290.751 68.6283   1
   5   0 -11 219.564 38.8492   6
   5   0  11 158.576 46.5872   1
   0   5 -11 218.018 45.2415   6
   0   5 -13 251.872 51.6377   6
   0   5  13 294.728 73.0639   1
  -5   0  13 247.947 70.5032   1
   0   5 -15 3236.70 169.015   6
   0   5  15 3301.94 231.180   1
  -5   0  15 2892.83 221.568   1
  -5   0  17 86.7540 54.5684   1
   5   0 -17 72.0587 33.4297   6
   0   5 -17 64.9797 39.3144   6
   0   5  17 40.9227 44.2771   1
   0   5 -19 558.708 54.3150   5
   5   0 -19 619.626 61.4555   6
   5   0 -21 99.1126 29.3654   6
   5   0 -23 88.9915 21.9823   6
   5   1 -24 13.2594 11.8788   6
   5   1 -22 16.9522 21.5471   6
   5   1 -20 14.7551 28.8603   6
   1   5 -20 3.12147 29.2733   6
   1   5 -18 437.333 59.2034   6
   5   1 -18 418.905 53.9992   6
   1   5 -18 415.074 48.7211   5
   1   5 -16 846.331 78.1110   6
  -5   1  16 662.757 108.582   1
  -1   5  16 728.770 112.361   1
  -5   1  14 786.497 110.547   1
   1   5 -14 735.128 74.1495   6
  -1   5  14 675.420 103.795   1
  -1   5  12 351.337 80.6589   1
  -5   1  12 206.360 67.1740   1
   5   1 -12 228.946 41.6004   6
   5  -1  12 250.588 58.6879   1
   5  -1  10 3016.23 181.377   1
  -5   1  10 3384.04 209.615   1
  -5   1   8 476.454 78.3417   1
   5  -1   8 576.516 60.4661   1
  -5   1   6 9000.29 369.294   1
   5  -1   6 8279.34 313.701   3
   5  -1   4 5011.97 199.559   3
  -1  -5  -4 5168.40 197.443   3
  -1  -5  -2 20861.8 686.051   2
   5  -1   2 19150.9 654.315   2
   1  -5   2 20575.4 688.016   2
  -1  -5  -2 21330.4 682.794   3
   1  -5   0 19716.1 675.949   3
   1  -5   0 18551.4 667.258   2
  -1  -5   0 19989.6 668.201   2
  -5  -1   2 22565.0 762.079   1
   1  -5  -2 22226.6 773.054   3
   5   1   4 4092.57 154.059   1
   1  -5  -4 4390.98 181.230   3
  -5  -1   4 4439.81 197.245   1
  -5  -1   6 8413.57 354.942   1
   5   1   6 7795.50 307.773   1
  -5  -1   8 659.990 90.0083   1
   5   1   8 726.953 72.2733   1
   5   1  10 2628.06 161.416   1
  -5  -1  10 3044.54 194.951   1
   1   5  12 147.921 59.4293   1
   1  -5 -12 186.385 35.9545   6
  -1   5 -12 205.722 46.5278   6
  -5  -1  12 186.644 64.8412   1
  -1   5 -14 523.274 66.1865   6
   5  -1 -14 497.486 58.2104   6
   1  -5 -14 488.091 51.0114   6
   1   5  14 452.245 85.3278   1
  -5  -1  14 496.973 91.6684   1
   1  -5 -16 561.945 57.8435   6
  -1   5 -16 702.370 72.0438   6
   1   5  16 646.753 102.785   1
  -5  -1  16 810.855 114.920   1
   5  -1 -16 668.840 65.6158   6
   1  -5 -18 332.434 40.2942   6
  -1   5 -18 340.633 52.1588   6
   5  -1 -18 351.952 50.0433   6
  -1   5 -20 32.3134 24.8755   5
   5  -1 -20 20.0900 27.2619   6
   5  -1 -22 4.09655 19.7995   6
   5   2 -23 1.61103 16.2889   6
   5   2 -21 25.5853 24.5947   6
   2   5 -21 15.7338 25.8001   6
   5   2 -19 192.618 39.7374   6
   2   5 -19 156.483 41.4809   6
   2   5 -17 336.295 54.4012   6
  -5   2  17 254.264 71.1097   1
   2   5 -17 301.884 45.8712   5
  -2   5  17 197.707 67.7857   1
   2   5 -15 107.117 38.5271   5
  -2   5  15 123.439 63.4669   1
   5   2 -15 122.181 39.6889   6
  -5   2  15 99.9772 68.0127   1
  -5   2  13 309.845 75.3226   1
  -2   5  13 300.099 77.7722   1
   5   2 -13 152.564 40.6173   6
   2   5 -11 1545.87 101.970   6
  -5   2  11 1698.36 152.263   1
   5   2 -11 1533.45 94.2975   6
  -5   2   9 1146.35 118.302   1
  -5   2   7 405.831 71.1586   1
   5  -2   7 335.199 49.4028   3
   5  -2   5 7115.95 284.674   3
  -2  -5  -3 1620.29 78.9327   3
   5  -2   3 1578.79 71.1757   2
   5  -2   3 1539.49 90.4208   3
  -2  -5  -3 1741.86 87.6617   2
   5  -2   1 1309.42 61.0666   2
   2  -5   1 1270.31 74.3358   2
   5  -2   1 1349.51 81.4420   3
  -2  -5  -1 1281.35 71.3971   2
  -2  -5   1 859.671 56.3923   2
   2  -5  -1 1006.05 68.5144   3
   2  -5  -1 867.020 60.0889   2
  -5  -2   3 2653.13 121.909   1
   5   2   3 2465.11 103.833   1
   2  -5  -3 2573.52 126.816   3
  -5  -2   5 7723.94 320.712   1
   5   2   5 7845.15 299.875   1
  -5  -2   7 455.367 68.5877   1
   5   2   7 650.216 63.7605   1
   5   2   9 739.639 75.1855   1
  -5  -2   9 883.975 105.077   1
   5   2  11 1364.98 114.412   1
  -5  -2  11 1598.82 142.798   1
   2  -5 -11 1539.14 91.2789   6
   2   5  11 1672.46 140.140   1
  -2   5 -11 1529.87 103.003   6
   2  -5 -13 95.7948 32.1607   4
   5  -2 -13 71.9540 37.2916   6
   2  -5 -13 85.7927 34.9221   6
  -5  -2  13 201.661 65.3242   1
  -2   5 -13 119.929 44.5396   6
   2   5  13 71.1280 51.1533   1
   2  -5 -15 42.8078 31.4708   6
  -2   5 -15 54.0560 40.2073   6
   5  -2 -15 32.6233 35.0540   6
  -5  -2  15 31.2861 52.4478   1
   2   5  15-9.41250 44.1458   1
  -2   5 -17 302.071 50.8942   6
   2  -5 -17 259.778 42.8832   6
   5  -2 -17 324.281 49.6961   6
   2   5  17 184.064 63.2209   1
   2  -5 -19 185.756 34.6091   6
   5  -2 -19 116.936 36.0337   6
   5  -2 -21 62.8038 26.3547   6
  -2   5 -21 30.3961 20.0900   5
   5  -2 -23-4.46614 15.2139   6
   5   3 -22 84.5743 24.9997   6
   3   5 -20 54.1819 29.6577   6
   3   5 -18 187.315 38.9308   5
  -3   5  16 137.805 66.0205   1
  -5   3  16 115.441 56.8561   1
   3   5 -16 126.930 41.0779   5
   5   3 -16 54.6482 34.7300   6
   5   3 -14 1291.27 91.5434   6
   3   5 -14 1449.41 105.488   5
  -5   3  14 1333.93 148.706   1
   3   5 -14 1262.32 96.2080   6
  -3   5  14 1695.35 161.989   1
   3   5 -12 6251.20 262.915   6
   3   5 -12 5697.61 272.940   5
   5   3 -12 6205.30 255.836   6
   3   5 -10 2359.87 129.651   6
  -5   3  10 2314.10 177.095   1
   5  -3   8 1901.39 147.502   3
   5  -3   6 9515.04 394.966   3
   5  -3   4 3610.45 149.827   2
   3  -5   4 3768.49 186.658   3
  -3  -5  -4 3574.92 139.438   3
   5  -3   4 4090.18 183.434   3
   3  -5   2 12040.9 462.015   3
  -3  -5  -2 12512.3 433.924   2
   5  -3   2 12469.4 452.462   3
   3  -5   2 12516.5 441.008   2
   5  -3   2 11739.4 423.687   2
  -3  -5   0 651.748 47.9240   2
  -5  -3   0 647.106 37.0078   2
   3  -5   0 737.276 53.5351   2
   5  -3   0 627.638 58.4477   3
   3  -5  -2 12941.3 462.783   2
   3  -5  -2 12499.5 470.289   3
  -5  -3   4 5003.98 213.714   1
  -5  -3   6 10707.5 419.189   1
   5   3   6 10084.1 395.761   1
   5   3   8 2788.59 152.361   1
  -5  -3   8 2335.36 166.312   1
   5   3  10 2647.89 159.375   1
   5  -3 -10 2385.03 126.639   6
  -5  -3  10 2862.20 198.062   1
   5  -3 -12 5843.63 251.688   6
  -5  -3  12 6514.80 338.800   1
  -3   5 -12 6050.12 263.806   6
   3  -5 -12 6430.67 253.833   4
   3  -5 -12 5959.08 249.541   6
   3   5  12 5840.03 310.775   1
   5  -3 -14 1086.97 85.2207   6
  -3   5 -14 1207.41 93.4789   6
   3   5  14 1358.25 131.290   1
   3  -5 -14 1195.46 85.5328   6
  -5  -3  14 1073.81 128.267   1
   5  -3 -16 124.230 39.9569   6
   3  -5 -16 89.6837 34.4779   6
  -5  -3  16 107.582 64.8852   1
   3  -5 -18 256.853 40.8470   6
   5  -3 -18 285.885 46.3920   6
   3  -5 -20 12.3990 23.4101   6
   5  -3 -20 32.8049 25.4850   6
   5  -3 -22 89.7992 23.9601   6
  -5   4  17 1704.10 166.720   1
   5   4 -17 1597.55 104.572   6
   4   5 -17 1620.27 102.504   5
   4   5 -17 1612.84 107.188   6
   4   5 -15 454.769 62.5417   6
   5   4 -15 537.261 61.8833   6
   4   5 -15 584.166 71.4627   5
  -5   4  15 521.070 105.983   1
   5   4 -13 3824.26 170.651   6
   4   5 -13 3800.70 172.839   6
   4   5 -13 3328.97 185.688   5
  -5   4  13 3812.11 257.847   1
  -4   5  13 3841.73 254.679   1
   5   4 -11 4226.45 173.252   6
  -5   4  11 4691.49 271.705   1
   4   5 -11 4377.26 178.888   6
   5  -4   9 240.739 70.2245   3
   4  -5   7 41398.7 1017.05   3
   5  -4   7 17339.4 910.485   3
   5  -4   5 19272.0 727.724   3
   4  -5   5 19343.1 731.388   3
   4  -5   3 21123.1 733.236   3
   5  -4   3 19419.9 683.752   2
   5  -4   3 20054.7 724.079   3
   4  -5   3 19988.3 693.410   2
  -4  -5  -3 19668.0 667.972   3
   4  -5   1 29742.1 1008.61   3
  -5  -4  -1 28388.7 964.200   2
  -4  -5  -1 29139.7 974.757   2
   5  -4   1 29307.7 976.888   2
   4  -5   1 28779.7 982.931   2
   5  -4   1 27963.8 1003.41   3
  -4  -5   1 26920.5 925.074   2
   5  -4  -1 27464.5 953.999   3
   4  -5  -1 27694.2 937.331   2
  -5  -4   7 50627.3 1749.67   1
   5   4   9 670.867 74.1504   1
  -5  -4   9 590.266 85.7541   1
   5  -4 -11 5098.46 211.892   4
   5  -4 -11 4332.32 202.898   6
  -5  -4  11 5066.45 291.666   1
   4  -5 -11 4468.51 203.219   6
   4  -5 -11 4904.24 209.430   4
   4   5  11 4531.91 248.661   1
  -5  -4  13 3926.09 251.688   1
   5  -4 -13 3556.64 171.820   6
   4   5  13 3676.34 222.325   1
   4  -5 -13 3418.53 170.123   6
   5  -4 -15 572.052 63.3000   6
   4  -5 -15 559.683 61.1171   6
   5  -4 -17 1484.12 98.3984   6
   4  -5 -17 1527.48 97.5859   6
   5  -4 -19 536.218 55.4845   6
   4  -5 -19 553.304 54.5931   6
   4  -5 -21 153.653 27.7592   6
   5  -4 -21 190.940 31.4580   6
  -4   5 -21 175.526 28.3783   5
   5  -4 -23 40.5943 14.1311   6
   5   5 -20 247.272 39.1491   6
   5   5 -18 243.744 43.0196   6
  -5   5  16 2210.46 195.658   1
   5   5 -16 2054.55 127.269   5
   5   5 -16 2123.51 124.771   6
   5   5 -14 2954.68 153.784   6
  -5   5  14 3154.18 235.328   1
   5   5 -14 2642.45 166.285   5
  -5   5  12 2651.78 199.759   1
   5   5 -12 2457.05 120.717   6
   5  -5  10 10701.1 521.506   3
   5   5 -10 9526.97 439.867   5
   5   5 -10 10824.1 399.387   6
   5  -5   8 11700.9 546.975   3
   5  -5   6 3293.67 214.527   3
   5  -5   4 36585.2 1235.27   3
   5  -5   4 33460.8 1170.99   2
  -5  -5  -2 41764.7 1389.06   2
   5  -5   2 41174.2 1400.23   2
   5  -5   2 41964.5 1438.38   3
   5  -5   0 8925.73 336.625   2
   5  -5   0 8795.19 358.663   3
  -5  -5   0 8927.67 324.110   2
   5  -5  -2 34265.9 1192.45   3
   5  -5 -10 12238.6 451.429   6
   5  -5 -10 12327.6 461.241   4
   5  -5 -12 2700.31 142.767   6
   5  -5 -12 2772.55 144.984   4
   5  -5 -14 2177.13 124.217   6
   5  -5 -16 2126.93 122.413   6
   5  -5 -18 254.632 43.2744   6
   5  -5 -20 258.233 38.2016   6
   5  -5 -22 390.005 34.5936   6
   0  -6   0 50883.0 1590.93   3
   0  -6   0 44276.1 1581.89   2
   0  -6  -2 31316.4 1063.25   2
  -6   0   2 30305.0 1055.62   1
   0  -6  -2 32044.4 1063.96   3
  -6   0   4 4002.54 197.202   1
   0  -6  -4 3907.87 170.305   3
  -6   0   6 36785.5 1305.55   1
  -6   0   8 5177.84 273.238   1
  -6   0  10 2227.45 169.977   1
   6   0 -10 2066.78 111.632   6
   0   6 -12 2817.54 160.466   6
   6   0 -12 3108.01 149.142   6
  -6   0  12 3028.61 210.288   1
   0   6  14 1399.49 147.626   1
  -6   0  14 1544.30 152.027   1
   0   6 -14 1430.59 106.171   6
   6   0 -14 1515.97 99.1651   6
   0   6 -16 2298.99 135.764   6
   0   6  16 1965.66 179.924   1
  -6   0  16 2239.86 192.245   1
   0   6 -18 1999.92 119.431   6
   0   6 -18 1761.84 105.910   5
   6   0 -20-8.49190 28.7764   6
   0   6 -20 29.6567 23.1792   5
   6   0 -22 15.8799 19.8597   6
   6   1 -23 78.8510 20.3351   6
   6   1 -21 225.848 37.1332   6
   1   6 -19 479.030 49.5087   5
   1   6 -19 482.391 57.9263   6
  -6   1  17 547.857 98.7754   1
   1   6 -17 447.470 55.7709   5
   1   6 -17 495.081 64.0357   6
  -1   6  17 556.567 95.8923   1
  -6   1  15 2667.23 207.670   1
  -1   6  15 2233.66 194.300   1
   6   1 -15 2306.98 133.239   6
   1   6 -15 2560.79 144.758   6
   6   1 -13 953.362 78.0812   6
  -1   6  13 1095.49 131.624   1
   1   6 -11 1199.71 94.7779   6
   6   1 -11 1190.40 81.4221   6
  -6   1  11 1294.11 133.071   1
  -6   1   9 9885.46 444.262   1
  -6   1   7 8557.70 382.087   1
  -6   1   5 28179.9 1037.26   1
  -1  -6  -5 29374.9 986.175   3
  -1  -6  -3 70360.8 2380.99   2
  -1  -6  -3 72111.4 2373.72   3
  -6   1   3 72542.5 2407.71   1
   1  -6   1 19264.3 731.414   3
   1  -6   1 21551.4 725.252   2
  -1  -6  -1 21329.3 722.343   2
  -1  -6  -1 20723.8 719.659   3
   1  -6  -1 20767.6 716.528   3
  -1  -6   1 19977.5 707.943   2
   1  -6  -3 70101.3 2364.39   3
  -6  -1   3 71974.8 2361.12   1
  -6  -1   5 29389.8 1037.81   1
  -6  -1   7 9952.94 431.084   1
  -6  -1   9 9179.14 417.039   1
   6  -1 -11 1129.55 79.6836   6
   1  -6 -11 1122.35 73.9349   6
  -1   6 -11 1206.47 92.0977   6
  -6  -1  11 1086.05 119.197   1
   1  -6 -11 1037.58 74.4890   4
   1  -6 -13 1019.24 70.3982   6
   1   6  13 1047.23 122.789   1
  -6  -1  13 977.094 120.041   1
  -1   6 -13 737.572 78.6682   6
   6  -1 -13 857.916 73.6728   6
   1  -6 -15 2230.05 121.935   6
   1   6  15 2572.25 197.257   1
  -1   6 -15 2561.57 144.825   6
  -6  -1  15 2518.95 199.890   1
  -1   6 -17 597.632 67.2149   6
   6  -1 -17 428.483 56.2236   6
   1   6  17 406.205 83.0300   1
   1  -6 -17 393.932 46.3596   6
  -6  -1  17 410.592 88.1819   1
   6  -1 -19 459.822 52.6430   6
  -1   6 -19 473.617 51.2632   5
   6  -1 -21 222.140 32.9187   6
  -1   6 -21 233.247 30.7240   5
   6  -1 -23 52.8231 17.5571   6
   6   2 -22 29.8792 22.5143   6
   2   6 -20 29.7978 30.1437   6
   6   2 -18 268.967 47.8049   6
   2   6 -18 359.698 52.6896   6
   2   6 -18 328.530 44.6159   5
   6   2 -16 885.078 77.3183   6
   2   6 -16 937.161 79.5880   5
  -2   6  16 886.835 124.020   1
  -6   2  16 972.984 125.442   1
   6   2 -14 110.368 37.4892   6
  -6   2  14 43.9608 50.3465   1
   2   6 -14 144.957 45.4987   5
  -2   6  14 156.514 66.3965   1
   2   6 -14 92.8439 44.1618   6
  -6   2  12 140.122 64.7455   1
   6   2 -12 72.9148 37.3651   6
   2   6 -12 74.7377 44.9036   6
  -6   2  10 1668.87 148.339   1
   6   2 -10 1405.29 87.7432   6
   2   6 -10 1380.64 97.6703   6
  -6   2   8 7113.41 343.816   1
  -6   2   6 5865.10 277.016   1
   6  -2   6 5271.11 232.367   3
   6  -2   4 16168.9 556.092   2
   6  -2   4 16361.0 588.225   3
  -2  -6  -4 16671.5 568.287   3
   6  -2   2 34779.3 1151.31   2
   2  -6   2 34985.9 1184.91   2
  -2  -6  -2 34264.8 1171.81   3
  -2  -6  -2 35286.7 1180.35   2
   2  -6   0 23958.2 745.993   2
   2  -6   0 23275.2 756.323   3
  -2  -6   0 23157.6 738.316   2
   2  -6  -2 36155.0 1232.35   3
   2  -6  -2 36019.6 1228.56   2
  -6  -2   4 16189.4 587.153   1
   2  -6  -4 16376.1 591.037   3
  -6  -2   6 6105.83 279.574   1
  -6  -2   8 8241.72 379.085   1
   6  -2 -10 1384.20 88.3677   6
  -2   6 -10 1368.21 92.8267   6
  -6  -2  10 1477.79 137.639   1
  -6  -2  12 142.690 62.4419   1
   2   6  12 107.831 55.9128   1
   2  -6 -12 95.5709 34.5106   6
   2  -6 -12 164.773 36.5944   4
  -2   6 -12 192.031 52.5356   6
   2   6  14 96.1547 54.3516   1
  -2   6 -14 84.4976 44.3104   6
  -6  -2  14 20.6560 48.4954   1
   2  -6 -14 99.0038 33.6464   6
  -6  -2  16 950.555 124.577   1
   6  -2 -16 887.311 76.1574   6
   2  -6 -16 846.790 69.7552   6
   2   6  16 733.439 104.915   1
   2  -6 -18 385.012 45.7621   6
   6  -2 -18 530.631 56.2926   6
  -2   6 -20-2.54339 24.8731   5
   6  -2 -20-8.20249 25.4797   6
   6  -2 -22 46.9219 21.6996   6
   6   3 -23 31.6325 16.4771   6
   6   3 -19 107.148 36.7095   6
   3   6 -19 130.995 29.3388   5
   6   3 -17 496.135 56.4650   6
  -6   3  17 499.795 94.5510   1
  -3   6  17 451.728 88.4990   1
   3   6 -17 517.039 58.7802   5
  -6   3  15 266.956 80.4053   1
   6   3 -15 271.375 48.3977   6
   3   6 -15 272.982 54.9243   5
  -3   6  15 436.969 92.3564   1
   3   6 -15 347.784 56.7949   6
  -6   3  13 43.8374 56.3497   1
  -3   6  13 79.0237 61.5558   1
   3   6 -13 88.0493 44.1933   5
   3   6 -13 106.072 43.9054   6
   6   3 -13 69.7666 36.1127   6
   6   3 -11 485.928 55.6216   6
   3   6 -11 561.581 65.4154   6
   3   6 -11 563.666 71.7539   5
  -6   3  11 555.261 95.7152   1
  -6   3   9 497.702 81.5879   1
   6  -3   7 8395.10 365.319   3
   6  -3   5 3198.28 166.025   3
   6  -3   5 2953.24 133.204   2
  -3  -6  -3 24079.6 867.733   2
   6  -3   3 24816.3 850.222   2
   3  -6   3 25525.4 877.282   2
  -3  -6  -3 25872.2 855.311   3
   6  -3   3 25502.3 888.956   3
   3  -6   3 25920.1 904.022   3
   3  -6   1 164.961 39.5383   3
   6  -3   1 157.055 36.0594   3
   3  -6   1 192.479 33.3736   2
  -6  -3  -1 150.893 14.0653   2
  -3  -6  -1 242.508 31.4011   2
   3  -6  -1 221.747 36.0819   2
  -3  -6   1 236.197 34.2226   2
   3  -6  -1 210.122 39.3829   3
   3  -6  -3 21979.2 781.880   3
  -6  -3   5 2922.38 154.283   1
  -6  -3   7 7974.88 353.695   1
  -6  -3   9 213.669 64.2763   1
  -6  -3  11 611.633 102.170   1
   3  -6 -11 657.090 62.0645   4
   3  -6 -11 561.360 57.4823   6
  -6  -3  13 41.2069 51.8367   1
   3   6  13 17.7200 44.5935   1
   6  -3 -13 51.4202 38.5589   6
   3  -6 -13 104.490 36.5709   4
   3  -6 -13 69.4007 35.7012   6
   6  -3 -15 225.457 46.6488   6
  -6  -3  15 161.601 69.8745   1
   3  -6 -15 150.303 41.7120   6
   3  -6 -17 371.158 48.3696   6
   6  -3 -17 475.614 57.1295   6
   3  -6 -19 132.927 33.2172   6
   6  -3 -19 137.686 33.3196   6
  -3   6 -21 227.515 31.3911   5
   3  -6 -21 266.948 31.7917   6
   6  -3 -21 246.964 33.4698   6
   6  -3 -23 1.29176 13.7452   6
   6   4 -20 104.378 31.9898   6
   4   6 -18 127.745 32.7035   5
   4   6 -18 144.130 39.8030   6
   6   4 -18 168.333 38.1433   6
  -6   4  16 1031.68 132.462   1
   6   4 -16 817.615 76.4709   6
   4   6 -16 963.233 81.5130   6
   4   6 -16 1017.41 84.2949   5
  -6   4  14 2119.29 188.139   1
   4   6 -14 1821.11 118.237   6
   4   6 -14 1991.50 133.449   5
   6   4 -14 1795.82 113.638   6
   4   6 -12 517.649 74.0097   5
  -6   4  12 593.182 102.716   1
   6   4 -12 449.184 55.6481   6
   6   4 -12 309.252 62.1222   5
   4   6 -12 462.960 61.6577   6
  -4   6  12 412.883 95.7561   1
  -6   4  10 3592.66 234.219   1
   4   6 -10 3268.14 190.597   5
   4  -6  10 2981.26 232.577   3
   4   6 -10 3563.84 169.853   6
   6   4 -10 3219.16 157.785   6
   6   4 -10 3378.68 197.787   5
   4  -6   8 13633.5 574.609   3
   6  -4   8 12253.2 560.902   3
   6  -4   6 542.298 80.2909   3
   4  -6   6 565.159 85.6214   3
   6  -4   6 616.646 54.9756   2
   4  -6   4 8826.10 351.069   2
   6  -4   4 9324.25 380.794   3
   6  -4   4 8759.07 334.064   2
   4  -6   4 9681.40 398.438   3
   6  -4   2 42266.1 1445.15   3
  -4  -6  -2 42648.5 1412.23   2
   6  -4   2 41580.4 1405.18   2
   4  -6   2 40045.2 1417.51   2
   4  -6   2 44690.1 1459.84   3
   4  -6   0 34664.8 1226.29   3
   4  -6   0 35700.4 1208.36   2
  -6  -4   0 35198.3 1177.89   2
  -4  -6   0 35999.3 1197.75   2
   6  -4   0 35475.3 1227.61   3
   4  -6  -2 34547.4 1198.07   3
  -6  -4   8 14768.4 594.559   1
   6  -4 -10 3478.73 167.588   4
   4  -6 -10 3271.25 154.102   6
   4  -6 -10 3421.88 164.367   4
  -6  -4  10 3369.61 226.253   1
   4  -6 -12 628.970 64.4785   4
  -6  -4  12 807.182 116.834   1
   4  -6 -12 527.946 59.0585   6
   4   6  12 746.180 91.1495   1
   6  -4 -12 540.726 61.8093   6
   4  -6 -14 1699.10 106.649   6
   6  -4 -14 1661.15 107.949   6
   6  -4 -16 907.202 77.9606   6
   4  -6 -16 995.521 78.8881   6
   4  -6 -18 188.424 37.6425   6
   6  -4 -18 202.953 42.1926   6
   6  -4 -20 92.3936 28.3844   6
   4  -6 -20 94.2224 28.7493   6
  -4   6 -22 289.472 27.8742   5
   6  -4 -22 282.875 31.1659   6
   6   5 -21 514.653 46.9535   6
   6   5 -19 256.243 41.8221   6
   5   6 -19 224.436 40.2240   6
   5   6 -17 958.314 74.5736   5
   5   6 -17 801.870 73.6867   6
   6   5 -17 800.911 72.7960   6
   5   6 -15 179.217 46.9813   6
  -6   5  15 240.469 75.9975   1
   6   5 -15 215.964 46.2903   6
   5   6 -15 237.595 53.3487   5
   6   5 -15 299.856 54.3180   5
  -5   6  15 210.734 72.7404   1
   5   6 -13 1774.92 129.298   5
   6   5 -13 1879.73 107.108   6
  -5   6  13 1928.63 179.238   1
   5   6 -13 1909.78 112.529   6
   6   5 -11 1884.36 109.243   6
   5   6 -11 1928.15 114.632   6
  -6   5  11 2063.10 179.918   1
   5   6 -11 1836.00 140.440   5
   6   5  -9 2880.17 141.885   6
   6   5  -9 2775.88 172.230   5
   5  -6   9 2632.65 222.982   3
   5   6  -9 2490.14 135.589   6
   5   6  -9 2925.62 172.086   5
   5  -6   7 16086.5 663.254   3
   6  -5   7 17742.6 565.363   2
   6  -5   5 13374.8 552.447   3
   5  -6   5 13262.2 559.002   3
   6  -5   5 13006.2 482.710   2
   5  -6   5 12838.7 490.668   2
   5  -6   3 48116.3 1610.03   3
   5  -6   3 44601.6 1547.04   2
   6  -5   3 44781.4 1539.94   2
   6  -5   3 48001.4 1595.48   3
   5  -6   1 17292.5 631.161   3
  -6  -5  -1 16380.6 574.746   2
   6  -5   1 16402.1 627.436   3
   6  -5   1 16673.5 593.234   2
   5  -6   1 16292.8 598.086   2
  -5  -6  -1 17230.4 587.897   2
  -5  -6   1 14298.4 537.087   2
   6  -5  -1 14996.8 575.556   3
   5  -6  -1 15306.3 574.976   3
   5  -6  -1 15754.6 556.284   2
  -6  -5   1 15563.3 531.622   2
   5  -6  -9 2652.19 130.571   6
   5  -6  -9 2881.60 145.213   4
   6  -5  -9 2708.46 143.848   4
   6  -5 -11 2108.19 120.272   4
   5  -6 -11 1889.29 115.330   4
   5  -6 -11 1671.61 107.214   6
   6  -5 -11 1756.23 111.072   6
   6  -5 -13 2055.17 119.696   6
   5  -6 -13 1775.90 113.651   6
   5  -6 -15 300.818 50.4437   6
   6  -5 -15 379.194 54.6854   6
   5  -6 -17 729.071 67.2081   6
   6  -5 -17 766.709 69.4221   6
   5  -6 -19 316.037 42.2806   6
   6  -5 -19 279.622 41.9083   6
   6  -5 -21 550.004 45.7641   6
   5  -6 -21 551.922 44.1218   6
  -5   6 -21 562.320 44.3814   5
   6   6 -20 93.8605 28.0583   6
   6   6 -18 19.3335 26.1762   6
   6   6 -16 2174.11 124.089   6
   6   6 -16 2082.48 126.551   5
   6   6 -14-28.4797 43.0734   5
   6   6 -14-34.8051 39.9432   6
  -6   6  14-12.2606 51.4263   1
  -6   6  12 46.7933 53.5057   1
   6   6 -12 164.368 47.5460   6
   6   6 -12 13.8825 41.8618   5
   6   6 -10 1259.51 93.0470   6
   6   6 -10 1208.23 121.727   5
   6  -6   8 19753.5 609.560   2
   6   6  -8 21567.9 612.748   5
   6  -6   6 2723.31 233.727   3
   6  -6   6 4021.75 187.423   2
   6  -6   4 11594.3 483.858   3
   6  -6   4 10246.5 403.922   2
   6  -6   2 38851.9 1350.63   3
   6  -6   2 37920.0 1302.82   2
  -6  -6  -2 37965.2 1283.57   2
   6  -6   0 51070.4 1749.26   3
   6  -6   0 49931.2 1715.37   2
  -6  -6   0 51195.3 1695.75   2
  -6  -6   2 36960.3 1254.44   2
   6  -6  -8 19181.7 669.648   6
   6  -6 -10 1467.04 102.910   4
   6  -6 -10 1577.91 96.9413   6
   6  -6 -12 116.655 41.1312   4
   6  -6 -12 102.982 39.5571   6
   6  -6 -14-27.6888 38.2457   6
   6  -6 -16 1962.32 115.833   6
   6  -6 -18-3.13221 26.6792   6
   6  -6 -20 68.4294 25.7423   6
   6  -6 -22 282.138 27.2367   6
  -6   6 -22 286.274 25.5916   5
   0  -7  -1 8974.68 348.298   2
   0  -7  -1 9065.29 351.019   3
   0  -7  -3 48871.4 1651.64   2
   0  -7  -3 49779.7 1647.56   3
  -7   0   3 47897.2 1645.73   1
   0  -7  -5 22248.4 784.001   3
  -7   0   5 22575.8 821.949   1
  -7   0   7 1995.60 151.753   1
   0   7  -9 6385.95 264.037   6
  -7   0   9 6458.93 327.417   1
   7   0 -11 314.721 46.4405   6
  -7   0  11 391.487 78.8834   1
   7   0 -13 688.501 65.2293   6
   0   7  13 521.840 97.9598   1
   0   7  15 1727.81 172.611   1
   0   7 -15 1865.30 122.868   6
   7   0 -15 1652.52 108.876   6
  -7   0  15 1813.55 172.154   1
   0   7 -17 68.3340 35.8528   5
   7   0 -17 79.2882 36.7133   6
   0   7 -19 488.905 51.8039   5
   7   0 -21 216.414 34.9438   6
   0   7 -21 280.651 31.5531   5
   7   0 -23 2.73706 13.6123   6
   1   7 -20 63.7361 25.6850   5
   7   1 -18 345.567 49.8093   6
   1   7 -18 388.643 50.6265   5
   7   1 -16 1555.08 105.610   6
  -7   1  16 1585.38 160.594   1
  -1   7  16 1590.73 162.338   1
   1   7 -16 1775.42 109.015   5
   7   1 -14 518.744 60.9331   6
  -7   1  14 420.878 91.0104   1
  -1   7  14 478.945 94.0333   1
   1   7 -12 730.466 80.8172   6
   7   1 -12 841.838 70.4972   6
  -7   1  12 746.304 109.525   1
  -7   1  10 2383.43 181.103   1
   1   7 -10 2519.34 137.597   6
   7   1 -10 2311.90 123.378   6
  -7   1   8 11286.8 486.649   1
  -7   1   6 15349.6 606.370   1
  -7   1   4 22091.0 798.060   1
  -1  -7  -4 21317.5 751.220   3
  -7   1   2 30468.0 1101.11   1
   1  -7   2 32470.8 1108.31   2
  -1  -7  -2 32660.2 1099.75   3
  -1  -7  -2 33026.6 1103.83   2
   1  -7   0 49383.5 1606.73   3
  -1  -7   0 45666.5 1589.56   2
  -1  -7   2 31279.8 1108.01   2
  -7  -1   2 32374.7 1078.10   1
   1  -7  -2 33165.8 1115.50   3
   1  -7  -4 23304.5 808.939   3
  -7  -1   4 22557.6 807.935   1
  -7  -1   6 14771.5 574.332   1
  -7  -1   8 11403.4 497.500   1
   1  -7 -10 2646.79 127.545   4
  -7  -1  10 2325.21 181.683   1
   7  -1 -10 2431.26 129.698   6
  -1   7 -12 771.957 82.1824   6
   7  -1 -12 818.909 69.7532   6
   1  -7 -12 616.789 59.1120   4
   1  -7 -12 647.778 58.4075   6
  -7  -1  12 748.891 105.130   1
  -7  -1  14 415.590 90.1491   1
  -1   7 -14 480.463 67.9384   6
   1   7  14 519.560 95.9026   1
   1  -7 -14 342.569 46.4910   6
   7  -1 -14 423.247 58.0419   6
   1   7  16 1512.95 149.853   1
  -7  -1  16 1416.82 149.265   1
  -1   7 -18 451.165 54.1968   5
   7  -1 -20 40.1656 28.6666   6
  -1   7 -20 47.5893 25.7702   5
   7  -1 -22 12.6708 19.7269   6
   7   2 -21 100.840 26.8501   6
   7   2 -19 183.780 39.1690   6
   2   7 -19 197.317 34.2998   5
   7   2 -17 944.712 76.3491   6
   2   7 -17 990.720 79.3872   5
   7   2 -15 179.008 42.0788   6
  -2   7  15 210.482 72.8029   1
   2   7 -15 139.600 50.4967   6
  -7   2  15 286.118 76.7901   1
   2   7 -15 216.434 48.7399   5
  -7   2  13 904.375 122.507   1
  -2   7  13 837.745 119.522   1
   7   2 -13 885.282 75.6001   6
   2   7 -13 908.408 85.3883   6
   2   7 -13 860.753 83.2818   5
   7   2 -11 343.356 47.2829   6
   2   7 -11 271.702 56.6685   6
  -7   2  11 346.151 79.4197   1
  -7   2   9 843.796 104.714   1
   2   7  -9 640.125 63.3438   6
  -7   2   7 17196.6 676.579   1
  -7   2   5 20162.1 754.826   1
  -2  -7  -5 20059.0 696.770   3
  -2  -7  -3 41626.4 1316.02   3
   2  -7   3 35410.1 1340.27   3
  -2  -7  -3 38327.8 1322.91   2
   2  -7   3 38700.2 1330.56   2
  -2  -7  -1 40630.7 1295.48   2
  -2  -7  -1 38571.8 1288.81   3
   2  -7   1 38917.8 1297.08   2
   2  -7  -1 42184.8 1433.38   2
  -2  -7   1 40724.0 1425.07   2
   2  -7  -1 43992.5 1445.05   3
   2  -7  -3 36753.2 1266.29   2
   2  -7  -3 36938.3 1268.05   3
  -7  -2   5 22142.8 794.464   1
  -7  -2   7 16925.4 655.303   1
   2  -7  -9 563.000 53.1721   4
  -7  -2   9 656.980 92.2559   1
   7  -2  -9 621.884 58.9345   6
   2  -7 -11 225.013 39.4047   6
   2  -7 -11 187.327 39.2776   4
   7  -2 -11 177.795 40.8449   6
  -7  -2  11 219.359 68.8588   1
   2  -7 -13 950.149 75.0066   4
   2  -7 -13 1060.77 76.3822   6
  -7  -2  13 1114.04 129.806   1
   7  -2 -13 863.626 77.2196   6
   2   7  13 975.278 119.944   1
  -7  -2  15 235.938 75.7460   1
   2   7  15 211.391 67.9337   1
   2  -7 -15 207.576 41.0251   6
   2  -7 -17 945.177 69.8883   6
   7  -2 -19 221.268 40.3345   6
  -2   7 -19 219.577 39.2668   5
  -2   7 -21 155.535 27.6213   5
   7  -2 -21 118.566 27.5048   6
   7  -2 -23 18.9702 13.6010   6
   7   3 -22 24.8092 20.4533   6
   3   7 -20 28.7355 20.1144   5
   7   3 -20 63.8614 28.8872   6
   3   7 -18 162.198 37.9057   5
   7   3 -18 161.365 40.7185   6
   3   7 -18 134.553 40.1214   6
   7   3 -16 501.454 55.7306   6
  -3   7  16 309.079 81.9207   1
   3   7 -16 436.012 59.8467   6
   3   7 -16 388.636 57.0036   5
  -7   3  16 389.132 82.7327   1
   3   7 -14 171.491 53.0893   5
   7   3 -14 187.318 44.6447   6
   3   7 -14 116.543 45.5275   6
  -7   3  14 90.5623 61.8716   1
  -3   7  14 214.235 79.0778   1
   3   7 -12 819.426 87.1513   5
  -7   3  12 1000.74 124.219   1
   3   7 -12 912.876 83.8983   6
   7   3 -12 823.026 71.0760   6
   7   3 -10 582.639 72.6140   5
   7   3 -10 447.182 52.7917   6
  -7   3  10 747.781 103.190   1
   3   7 -10 560.449 75.0382   5
   3   7 -10 553.388 64.2919   6
   3   7  -8 4193.11 205.298   5
  -7   3   8 4514.91 253.086   1
   7  -3   6 280.312 50.4286   3
   3  -7   4 13455.7 490.864   2
   7  -3   4 12464.0 494.680   3
  -3  -7  -4 12873.3 457.750   3
   3  -7   4 12630.0 514.760   3
   3  -7   2 14709.5 535.711   2
   3  -7   2 14115.0 555.659   3
  -3  -7  -2 14406.4 518.384   3
  -3  -7  -2 14864.7 529.754   2
  -3  -7   0 7491.46 299.819   2
   3  -7   0 7973.92 311.244   2
  -3  -7   2 13157.7 505.294   2
   3  -7  -2 14550.2 519.827   2
   3  -7  -2 14024.8 524.725   3
   3  -7  -4 13173.2 503.296   3
  -7  -3   6 296.936 52.4521   1
  -7  -3   8 5024.42 267.168   1
   7  -3 -10 458.661 55.4590   6
   3  -7 -10 504.181 50.0289   6
   3  -7 -10 490.702 56.5254   4
  -7  -3  10 516.034 94.2647   1
   7  -3 -12 1166.07 89.7764   6
   3   7  12 1200.45 129.632   1
   3  -7 -12 1377.26 92.3442   4
   3  -7 -12 1135.71 85.2191   6
  -7  -3  12 1244.79 141.513   1
   3  -7 -14 188.012 39.5831   4
   3  -7 -14 139.362 39.1569   6
   3   7  14 207.835 62.8929   1
  -7  -3  14 182.826 69.7320   1
   7  -3 -16 396.372 56.8372   6
   3  -7 -16 450.050 53.0053   6
   3  -7 -18 168.591 35.2922   6
   7  -3 -18 160.524 40.3371   6
   3  -7 -20 18.2804 19.8740   6
   7  -3 -20 20.4543 25.2978   6
  -3   7 -20 22.5043 23.1628   5
  -3   7 -22 67.6994 16.2594   5
   7  -3 -22 18.1921 16.9619   6
   7   4 -21 169.724 31.0492   6
   4   7 -19 81.2330 26.5049   5
   7   4 -19 103.089 31.9473   6
   4   7 -19 115.088 35.4975   6
   7   4 -17 497.056 56.8520   6
   4   7 -17 470.739 59.8633   6
   4   7 -17 477.236 57.7513   5
   4   7 -15 53.3096 38.3354   6
   7   4 -15 94.2093 42.4134   6
   4   7 -15 108.985 45.3635   5
  -7   4  15 185.987 69.0096   1
   4   7 -13 574.318 75.7912   5
   7   4 -13 415.460 64.9263   5
   4   7 -13 491.596 64.3572   6
   7   4 -13 427.103 54.9259   6
  -7   4  13 329.266 84.5979   1
   7   4 -11 674.793 64.5555   6
   4   7 -11 638.073 84.1804   5
   4  -7  11 626.307 110.103   3
  -7   4  11 671.672 107.045   1
   4   7 -11 653.581 73.0915   6
   7   4 -11 593.268 79.2468   5
   4  -7   9 1153.43 138.589   3
   7   4  -9 1288.41 86.0813   6
   4   7  -9 1174.29 85.3245   6
   4   7  -9 1237.02 105.072   5
  -7   4   9 1236.97 128.458   1
   7   4  -9 1189.57 101.952   5
   4  -7   7 6134.10 333.882   3
   7  -4   7 6457.23 318.411   3
   4  -7   5 6755.11 285.997   2
   7  -4   5 6617.55 309.403   3
   4  -7   5 6018.35 322.986   3
   7  -4   3 31342.2 1099.28   2
  -4  -7  -3 32199.5 1096.77   3
  -4  -7  -3 33851.8 1118.64   2
   7  -4   3 32927.5 1152.80   3
   4  -7   3 32659.1 1126.78   2
   4  -7   3 33399.8 1167.48   3
  -4  -7  -1 938.963 68.8281   2
   4  -7   1 904.137 73.8086   2
   4  -7   1 862.447 85.9723   3
   4  -7  -1 579.154 60.3495   2
  -7  -4   1 533.124 38.0670   2
  -4  -7   1 613.607 55.2568   2
   4  -7  -3 30497.9 1078.17   3
   4  -7  -9 1131.75 83.8023   4
   7  -4  -9 1043.06 77.1003   6
   4  -7  -9 1137.17 72.7276   6
   4  -7 -11 798.127 71.2758   4
   4  -7 -11 682.012 64.8917   6
   4  -7 -13 278.923 51.1234   6
   4  -7 -13 441.036 56.8184   4
   7  -4 -15 11.6841 34.6761   6
   4  -7 -15 73.3669 35.0664   6
   7  -4 -17 494.720 57.3112   6
   4  -7 -17 451.994 52.7604   6
   7  -4 -19 63.8085 30.3760   6
   4  -7 -19 99.1458 28.5552   6
   7  -4 -21 213.513 31.1562   6
  -4   7 -21 235.155 32.3213   5
   4  -7 -21 261.502 28.4485   6
   7   5 -20 22.0917 23.8770   6
   5   7 -18-5.78479 26.2625   5
   7   5 -18 3.16093 27.5287   6
   5   7 -18 9.71966 28.4201   6
   7   5 -16 973.800 79.1608   6
   5   7 -16 1003.71 82.6894   6
   5   7 -16 1156.82 88.3724   5
   7   5 -14 73.8169 40.6726   5
   5   7 -14 53.1842 38.1770   6
  -5   7  14 111.515 59.5655   1
   7   5 -14 92.5113 37.4687   6
   5   7 -14 43.5501 44.6222   5
  -7   5  14-23.5551 55.2592   1
   5   7 -12 891.690 96.0057   5
   5   7 -12 689.566 74.7636   6
   7   5 -12 654.982 65.8812   6
  -5   7  12 708.449 114.840   1
  -7   5  12 819.466 119.198   1
   5   7 -10 90.7224 40.6045   6
   5  -7  10 248.959 96.0114   3
   7   5 -10 181.905 43.2424   6
  -7   5  10 155.841 69.0654   1
   5   7 -10 149.292 62.2179   5
   7   5 -10 183.928 63.7957   5
   5   7  -8 7650.56 305.599   6
   5  -7   8 7596.88 348.571   2
   5  -7   8 8284.52 438.956   3
   7   5  -8 8219.33 339.389   5
   5   7  -8 7868.31 336.624   5
   5  -7   6 146.811 62.3242   3
   7  -5   6 103.920 52.5660   3
   5  -7   6 125.192 37.3099   2
   5  -7   4 899.176 106.578   3
   7  -5   4 704.885 86.2551   3
   7  -5   4 724.277 62.4585   2
   5  -7   4 675.530 66.9196   2
   5  -7   2 25154.5 896.250   3
   7  -5   2 23834.1 833.448   2
  -5  -7  -2 24438.2 835.726   2
   5  -7   2 22879.0 845.544   2
   7  -5   2 23826.8 882.585   3
   5  -7   0 16384.1 599.033   2
   5  -7   0 16143.5 624.073   3
  -5  -7   0 16264.1 582.561   2
  -7  -5   2 23766.9 809.431   2
  -5  -7   2 23331.5 827.544   2
   7  -5  -8 8029.63 304.659   6
   5  -7  -8 8200.94 318.861   4
   5  -7  -8 7522.34 296.771   6
   7  -5 -10 144.757 42.5914   4
   5  -7 -10 180.436 38.1342   6
   5  -7 -10 155.219 43.4836   4
   5  -7 -12 647.295 67.5811   6
   5  -7 -12 665.621 70.0604   4
   7  -5 -14 100.454 37.0360   6
   5  -7 -14 42.8173 34.2189   6
   7  -5 -16 1047.21 83.7009   6
   5  -7 -16 1010.15 78.9352   6
   7  -5 -18 54.0707 28.7237   6
   5  -7 -18 36.2629 28.3761   6
   5  -7 -20 40.3558 22.6465   6
   7  -5 -20 48.9204 24.0981   6
  -5   7 -22 172.669 21.0491   5
   7  -5 -22 170.254 23.3584   6
  -7   5 -22 175.621 20.1633   5
   6   7 -19 118.513 31.1269   6
   7   6 -19 220.705 35.8616   6
   6   7 -17 316.136 44.4347   5
   6   7 -17 332.565 48.4543   6
   7   6 -17 250.666 45.6479   6
   7   6 -15 550.642 66.7198   5
   6   7 -15 520.371 70.0746   5
  -7   6  15 676.201 109.461   1
   7   6 -15 515.171 59.2741   6
   6   7 -15 566.890 63.2901   6
  -6   7  15 646.078 105.396   1
   6   7 -13 441.666 73.2680   5
  -7   6  13 488.694 98.4230   1
   6   7 -13 508.506 62.8514   6
   7   6 -13 511.078 60.5535   6
  -6   7  13 404.550 93.5472   1
  -7   6  11 1242.27 143.055   1
   6   7 -11 1502.77 130.035   5
   6   7 -11 1452.67 104.279   6
   7   6 -11 1544.38 101.035   6
   6  -7   9 3219.59 195.008   2
   6   7  -9 3152.29 157.689   6
   7   6  -9 3555.31 202.346   5
   6   7  -9 3077.68 188.413   5
   6  -7   9 3259.83 280.832   3
   7   6  -9 3090.43 155.883   6
   6  -7   7 4492.35 217.706   2
   6   7  -7 4474.09 201.616   5
   7   6  -7 4712.65 207.365   5
   6  -7   5 2691.61 210.411   3
   7  -6   5 2512.36 201.181   3
   7  -6   5 2823.44 150.600   2
   6  -7   5 2901.15 158.397   2
   6  -7   3 35995.9 1249.80   3
   6  -7   3 32573.8 1171.02   2
   7  -6   3 33186.0 1166.18   2
   7  -6   3 35169.5 1239.38   3
   6  -7   1 845.735 93.9454   3
   7  -6   1 772.039 68.0331   2
   6  -7   1 802.511 71.6264   2
  -6  -7  -1 718.685 59.7203   2
   7  -6   1 817.234 90.7090   3
  -7  -6   1 1114.94 70.8369   2
  -6  -7   1 1192.19 79.2813   2
   6  -7  -1 1207.63 105.629   3
  -6  -7   3 35937.4 1222.90   2
  -7  -6   3 35148.9 1212.32   2
   6  -7  -7 4428.00 211.745   4
   7  -6  -7 4803.70 196.307   6
   6  -7  -7 4736.17 194.194   6
   7  -6  -7 4867.52 218.631   4
   6  -7  -9 2843.98 155.839   4
   6  -7  -9 3052.81 145.058   6
   7  -6 -11 1330.99 100.498   4
   6  -7 -11 1395.27 95.7246   6
   6  -7 -11 1368.25 101.102   4
   7  -6 -11 1385.05 97.6547   6
   7  -6 -13 494.142 61.7539   6
   6  -7 -13 478.288 61.7566   6
   6  -7 -15 646.599 66.1814   6
   7  -6 -15 642.028 67.5783   6
   6  -7 -17 390.474 50.8672   6
   7  -6 -17 425.796 53.3035   6
   7  -6 -19 140.387 31.9820   6
   6  -7 -19 136.114 31.6067   6
   7  -6 -21 281.339 31.7982   6
   6  -7 -21 319.680 31.3695   6
   7   7 -18 344.959 43.0331   6
   7   7 -16 1887.26 114.256   6
   7   7 -16 2010.13 121.458   5
   7   7 -14 2553.49 140.449   6
   7   7 -14 2355.66 155.049   5
  -7   7  14 2631.26 215.699   1
  -7   7  12 556.568 101.225   1
   7   7 -12 499.216 63.0486   6
   7   7 -12 356.182 76.1760   5
   7   7 -10 5946.29 253.182   6
   7   7 -10 5666.20 300.476   5
   7   7  -8 13742.1 467.639   5
   7  -7   8 6693.11 517.145   3
   7   7  -6 149.851 40.9715   5
   7  -7   6 117.903 57.9930   3
   7  -7   4 5671.20 257.986   2
   7  -7   4 5377.10 322.125   3
   7  -7   2 40415.3 1405.26   2
   7  -7   2 41141.0 1470.84   3
   7  -7   0 10315.2 449.718   3
  -7  -7   2 38351.2 1308.64   2
  -7  -7   4 6253.54 274.747   2
   7  -7  -4 6385.15 243.060   6
   7  -7  -6 175.116 44.6294   4
   7  -7  -8 12896.5 492.877   4
   7  -7 -10 6201.15 271.297   4
   7  -7 -10 6042.92 258.102   6
   7  -7 -12 383.716 58.4080   4
   7  -7 -12 371.411 58.2781   6
   7  -7 -14 2580.56 143.752   6
   7  -7 -16 2116.67 120.886   6
   7  -7 -18 307.710 43.6639   6
   7  -7 -20 104.363 25.3443   6
   0  -8   0 2691.98 148.638   3
   0  -8   0 2937.37 148.955   2
   0  -8  -2 914.641 72.4453   3
   0  -8  -2 321.246 51.8333   2
  -8   0   4 5872.21 260.084   1
   0  -8  -4 6415.97 262.798   3
  -8   0   6 1276.97 111.261   1
  -8   0   8 81.2028 51.8540   1
   8   0 -10 4086.17 187.081   6
   0  -8 -10 4060.22 179.828   4
  -8   0  10 4307.64 254.762   1
   0   8 -10 4203.27 198.962   6
  -8   0  12 906.911 115.661   1
   0   8 -12 906.038 90.8018   6
   8   0 -12 1045.99 79.9415   6
   8   0 -14 1761.85 112.192   6
   0   8  14 1686.02 167.068   1
  -8   0  14 1785.24 164.691   1
   0   8 -16-7.77527 32.3522   5
   8   0 -16-3.74858 34.2627   6
   0   8  16 21.8703 45.8598   1
  -8   0  16 10.4234 45.0592   1
   0   8 -18 89.5385 35.3550   5
   8   0 -18 46.1936 34.6636   6
   8   0 -20 43.6035 25.7236   6
   0   8 -20 74.2647 26.6493   5
   1   8 -21 45.5406 17.7951   5
   8   1 -21 2.13829 21.5223   6
   1   8 -19 179.168 34.9769   5
   8   1 -19 168.014 37.3871   6
   8   1 -17 692.332 67.2814   6
   1   8 -17 870.919 74.2779   5
   1   8 -15 1161.94 93.1721   5
  -8   1  15 1135.48 130.981   1
   8   1 -15 1056.81 83.7809   6
  -1   8  15 1321.52 146.755   1
  -8   1  13 1159.93 130.821   1
   1   8 -13 1085.39 98.1962   6
   8   1 -13 1047.50 82.9272   6
   1   8 -11 446.321 65.4172   6
  -8   1  11 357.660 76.7565   1
   8   1 -11 335.638 49.6698   6
   1   8  -9 3901.31 180.693   6
   8   1  -9 3901.74 172.678   6
  -1  -8  -9 3550.09 161.033   4
  -8   1   9 3857.63 233.684   1
  -8   1   7 17102.5 677.173   1
   1  -8   5 14926.0 555.935   2
  -1  -8  -5 14199.9 524.349   3
  -8   1   5 13985.5 568.337   1
  -8   1   3 1584.96 106.382   1
  -1  -8  -3 1933.93 116.816   2
  -1  -8  -3 1930.66 109.269   3
   1  -8   3 1946.57 120.847   2
  -1  -8  -1 19004.5 656.305   2
   1  -8   1 18787.9 668.842   3
  -1  -8  -1 18956.2 655.807   3
  -1  -8   1 18125.8 670.753   2
   1  -8  -1 19197.7 682.493   3
  -1  -8   3 1478.95 105.489   2
   1  -8  -3 1751.12 108.534   3
  -8  -1   5 14240.3 545.483   1
   1  -8  -5 14748.5 544.692   3
  -8  -1   7 16278.7 639.599   1
  -8  -1   9 3889.19 238.342   1
   1  -8  -9 3809.53 170.977   4
   8  -1  -9 3883.19 178.939   6
   1  -8 -11 473.652 55.6660   4
  -8  -1  11 529.010 89.8937   1
   8  -1 -11 443.312 56.0012   6
  -8  -1  13 862.484 119.058   1
   8  -1 -13 1056.33 83.6902   6
   1  -8 -13 926.575 74.7871   4
   1   8  15 1209.15 137.986   1
  -8  -1  15 1143.56 137.981   1
   8  -1 -15 1286.32 93.8951   6
   8  -1 -17 829.286 72.0167   6
  -1   8 -19 178.434 36.3631   5
  -1   8 -21 16.8484 17.6732   5
   8  -1 -23 33.5310 13.4888   6
   8   2 -22 14.7818 16.8789   6
   2   8 -20 87.5424 23.8335   5
   8   2 -20 68.7281 28.4886   6
   8   2 -18 122.548 38.0139   6
   2   8 -18 123.416 34.4544   5
  -8   2  16 1375.17 145.753   1
   2   8 -16 1587.59 107.482   6
  -2   8  16 1474.28 160.170   1
   8   2 -16 1505.32 98.9349   6
   2   8 -16 1591.19 106.628   5
   2   8 -14 1309.81 105.290   6
  -8   2  14 1256.99 141.264   1
   8   2 -14 1226.34 91.8299   6
  -2   8  14 1475.89 159.116   1
   2   8 -14 1366.36 103.358   5
   2   8 -12 4240.08 206.825   6
   8   2 -12 3551.04 177.422   6
  -8   2  12 3721.05 251.427   1
   2   8 -12 4023.10 199.864   5
  -8   2  10 5421.93 291.259   1
   8   2 -10 4813.02 210.941   6
   2   8 -10 4711.08 221.833   6
   2   8 -10 4955.65 236.504   5
   2   8  -8 7560.07 300.336   6
  -8   2   8 7716.42 368.081   1
  -8   2   6 5093.22 263.649   1
  -2  -8  -4 34303.9 1136.44   3
  -8   2   4 32357.7 1177.57   1
   2  -8   4 33126.8 1166.59   2
   2  -8   4 32146.1 1182.18   3
  -2  -8  -2 13063.3 488.599   2
  -2  -8  -2 13243.4 482.407   3
   2  -8   2 12615.1 492.608   2
   2  -8   0 863.781 79.2584   3
   2  -8   0 871.297 74.7012   2
  -2  -8   0 873.916 71.1985   2
   2  -8  -2 14148.5 524.423   3
  -2  -8   2 13505.4 511.533   2
   2  -8  -2 13444.2 517.353   2
   2  -8  -4 34920.4 1216.94   3
  -8  -2   6 4924.65 237.715   1
   2  -8  -8 7377.39 287.703   4
   8  -2  -8 7521.25 295.069   6
  -8  -2   8 6914.81 344.862   1
  -8  -2  10 4182.73 260.867   1
   2  -8 -10 4071.06 180.414   6
   8  -2 -10 4304.86 194.448   6
   2  -8 -10 4120.12 188.545   4
  -8  -2  12 3680.85 248.355   1
   8  -2 -12 3881.00 183.566   6
   2  -8 -12 4066.97 181.762   4
   2  -8 -12 3535.75 172.887   6
   8  -2 -14 1579.16 105.045   6
   2   8  14 1352.10 143.504   1
   2  -8 -14 1342.27 91.9331   4
   2  -8 -14 1413.69 92.1170   6
  -8  -2  14 1275.00 141.537   1
  -8  -2  16 1488.93 149.882   1
   2  -8 -16 1418.54 89.8331   6
   8  -2 -16 1459.71 100.182   6
  -2   8 -20 95.2672 28.4575   5
   8  -2 -22 6.32296 16.5020   6
  -2   8 -22 28.8296 13.8599   5
   8   3 -21 38.9595 20.9923   6
   8   3 -19 45.9045 27.7612   6
   3   8 -19 33.1584 24.3957   5
   8   3 -17 710.818 67.5144   6
   3   8 -17 864.099 75.8060   6
   3   8 -17 781.916 70.2981   5
   3   8 -15 568.028 68.2831   5
  -3   8  15 603.790 106.719   1
   8   3 -15 583.779 63.1268   6
   3   8 -15 531.237 65.5983   6
  -8   3  15 496.160 92.9574   1
   3   8 -13 1641.01 116.612   6
   8   3 -13 1507.54 101.496   6
  -8   3  13 1702.28 163.585   1
   3   8 -13 1629.24 119.324   5
   3  -8  13 1481.16 148.765   3
   8   3 -11 875.399 73.3963   6
   3   8 -11 986.187 88.4043   6
  -8   3  11 756.560 110.564   1
   3   8 -11 1047.33 97.3732   5
   8   3  -9 5963.36 246.017   6
   8   3  -9 6083.48 263.502   5
  -8   3   9 5670.37 314.116   1
   3   8  -9 6250.85 254.508   6
   3   8  -9 5550.83 269.069   5
   3  -8   7 14567.6 607.559   3
  -8   3   7 14564.7 591.008   1
   3   8  -7 14161.0 531.211   5
   3  -8   5 3358.43 208.611   3
   3  -8   5 3620.05 190.445   2
  -3  -8  -3 4943.76 221.684   2
   3  -8   3 4608.73 246.336   3
   3  -8   3 4810.00 226.626   2
  -3  -8  -3 4992.82 208.878   3
  -3  -8  -1 9676.31 377.417   3
  -3  -8  -1 10120.2 385.452   2
   3  -8   1 9866.10 391.505   2
   3  -8  -1 9553.37 388.975   3
   3  -8  -1 9345.80 376.114   2
  -3  -8   1 9323.08 368.773   2
  -3  -8   3 3716.54 187.670   2
   3  -8  -3 4050.57 201.960   3
   3  -8  -7 14469.6 524.669   4
  -8  -3   7 14771.2 577.536   1
  -8  -3   9 5719.29 310.833   1
   3  -8  -9 5768.97 239.673   6
   3  -8  -9 6120.80 253.985   4
   8  -3 -11 1299.59 94.8715   6
   3  -8 -11 1396.56 90.0802   6
   3  -8 -11 1297.73 92.8831   4
  -8  -3  11 1127.53 135.700   1
   3  -8 -13 1347.50 92.9248   6
   3  -8 -13 1318.55 94.4415   4
   3   8  13 1088.00 126.870   1
   8  -3 -13 1367.87 98.2632   6
  -8  -3  13 1219.94 140.200   1
   8  -3 -15 449.414 57.7696   6
   3  -8 -15 444.085 54.7105   6
   3  -8 -17 668.555 59.9121   6
   8  -3 -19 28.5439 27.1047   6
  -3   8 -19 2.88680 27.9091   5
  -3   8 -21 50.3317 21.2396   5
   8  -3 -21-3.89839 19.5046   6
   8   4 -22-8.73548 16.3718   6
   4   8 -20 7.22385 16.0676   5
   8   4 -20 2.39157 23.2538   6
   4   8 -18 125.097 32.9637   5
   8   4 -18 183.030 38.3787   6
   4   8 -16 128.751 40.8863   6
   4   8 -16 94.7079 37.3416   5
   8   4 -16 136.997 37.2170   6
  -8   4  14 167.447 66.7789   1
   8   4 -14 322.996 49.0608   6
   4   8 -14 268.577 54.6305   6
   4   8 -14 266.803 58.5902   5
   4   8 -12 3686.84 195.457   5
   4   8 -12 3304.43 175.895   6
  -8   4  12 3402.76 238.999   1
   8   4 -12 3367.00 184.043   5
   8   4 -12 2996.52 157.317   6
   8   4 -10 492.230 76.9540   5
  -8   4  10 652.122 102.018   1
   4   8 -10 528.036 64.3582   6
   4  -8  10 637.948 115.597   3
   8   4 -10 528.390 56.9677   6
   4   8 -10 594.418 82.4673   5
   4   8  -8 944.492 73.7374   6
   4  -8   8 1152.00 108.766   2
  -8   4   8 1145.63 119.850   1
   4  -8   8 1071.83 133.426   3
   8   4  -8 943.248 84.9936   5
   4  -8   6 2028.40 164.633   3
   4  -8   6 1799.42 126.525   2
   4   8  -6 1706.03 103.520   5
   8  -4   6 1575.61 132.875   3
   4  -8   4 1679.39 139.539   3
   8  -4   4 1794.58 132.264   3
   4  -8   4 1651.96 116.286   2
  -4  -8  -2 6483.85 268.209   3
  -4  -8  -2 6713.30 281.159   2
   4  -8   2 6635.94 289.199   2
   4  -8   0 179.995 38.5882   2
  -4  -8   0 194.515 35.6177   2
   4  -8  -2 6854.07 299.438   2
  -4  -8   2 6869.70 288.529   2
   4  -8  -2 6923.87 311.526   3
   4  -8  -8 816.644 70.1847   4
   8  -4  -8 888.677 70.3456   6
   4  -8  -8 916.834 62.9641   6
   4  -8 -10 485.796 53.4448   6
   8  -4 -10 525.503 63.0175   6
   4  -8 -10 525.003 61.1009   4
   8  -4 -12 3568.27 177.824   6
   4  -8 -12 3237.64 171.386   4
   4  -8 -12 3644.39 174.878   6
   4  -8 -14 388.568 53.4355   6
   4  -8 -14 348.599 52.4319   4
   4  -8 -16 137.990 36.4465   6
   8  -4 -18 162.271 39.7117   6
   4  -8 -18 117.446 30.9182   6
   8  -4 -20-6.92734 19.9643   6
  -4   8 -20 4.66732 23.7222   5
   4  -8 -20 10.8797 16.8980   6
  -4   8 -22 10.7775 12.1250   5
   8  -4 -22 34.4333 15.2278   6
   8   5 -21 35.7675 19.4302   6
   5   8 -19 15.4045 19.1741   5
   8   5 -19 21.2462 25.0665   6
   5   8 -17 511.069 56.3847   5
   5   8 -17 479.968 55.4341   6
   8   5 -17 523.288 56.5425   6
  -8   5  15 11.0730 50.6234   1
   5   8 -15 60.1197 36.4183   6
   8   5 -15 43.1564 31.8021   6
   5   8 -15 56.2653 42.0248   5
  -5   8  15 36.7164 51.3458   1
   8   5 -13 826.849 74.9790   6
   5   8 -13 867.878 83.1763   6
  -8   5  13 767.135 117.318   1
   8   5 -13 754.051 87.1770   5
   5   8 -13 990.192 99.0708   5
  -5   8  13 882.069 128.981   1
   5  -8  11 1322.40 163.644   3
   5   8 -11 1593.62 130.738   5
   5  -8  11 1166.87 129.653   2
   8   5 -11 1441.35 95.7412   6
   5   8 -11 1589.38 109.391   6
   8   5 -11 1116.74 116.342   5
  -8   5  11 1466.95 152.006   1
   8   5  -9 741.176 86.8314   5
  -8   5   9 587.277 98.8489   1
   5   8  -9 759.847 87.6265   5
   5  -8   9 849.191 137.655   3
   5  -8   9 787.263 95.6874   2
   5   8  -9 601.605 63.0184   6
   5  -8   7 5886.27 347.789   3
   5  -8   7 5494.04 276.106   2
   8   5  -7 5752.95 252.875   5
   5   8  -5 30.5510 25.2375   5
   5  -8   5 10.3072 49.5301   3
   5  -8   5 44.3504 30.2155   2
   8   5  -5 37.0265 27.8434   5
   8  -5   5-8.91089 39.6476   3
   5  -8   3 984.434 108.344   3
   5  -8   3 873.075 81.7649   2
   8  -5   3 1045.58 105.201   3
   5  -8   1 3888.91 217.257   3
  -5  -8  -1 3917.85 182.386   2
   5  -8   1 3659.18 191.126   2
   5  -8  -1 3799.22 195.387   2
  -5  -8   1 3831.36 181.664   2
  -5  -8   3 863.490 76.6223   2
   5  -8  -3 952.132 92.9969   3
   5  -8  -5 91.2524 34.2826   4
   5  -8  -5 189.573 27.3160   6
   8  -5  -7 5104.42 238.692   4
   8  -5  -7 5390.60 220.591   6
   5  -8  -7 5423.92 214.356   6
   5  -8  -9 863.043 75.9301   4
   8  -5  -9 804.885 70.1432   6
   8  -5  -9 631.894 71.4388   4
   5  -8  -9 683.433 60.2440   6
   8  -5 -11 1350.14 99.1803   6
   5  -8 -11 1324.24 92.7963   6
   5  -8 -11 1432.41 102.863   4
   5  -8 -13 909.073 81.0951   4
   5  -8 -13 885.883 79.8586   6
   5  -8 -15 33.8418 35.2788   6
   8  -5 -17 487.623 54.1994   6
   5  -8 -17 419.859 50.8599   6
   5  -8 -19 23.6448 23.2696   6
   8  -5 -19 26.5527 25.0683   6
   8  -5 -21 35.7849 19.8602   6
  -5   8 -21 46.9346 19.6165   5
   8   6 -20 43.0393 23.4822   6
   8   6 -18 88.2427 32.8643   6
   6   8 -18 114.235 28.8735   5
   6   8 -16 492.804 60.2452   5
   6   8 -16 565.557 58.6860   6
   8   6 -16 520.221 58.2936   6
   8   6 -16 420.165 53.2495   5
   6   8 -14 596.172 75.5971   5
   8   6 -14 394.983 63.9816   5
   6   8 -14 464.414 59.1898   6
   8   6 -14 484.462 59.4438   6
  -8   6  14 598.361 99.6181   1
  -6   8  14 552.663 103.449   1
   6   8 -12 2180.85 121.223   6
   8   6 -12 1991.59 108.726   6
  -8   6  12 2258.61 188.517   1
   6   8 -12 2189.32 145.605   5
  -6   8  12 2158.17 191.619   1
   8   6 -10 1678.93 150.847   5
   6   8 -10 1600.18 106.416   6
   6  -8  10 1742.97 204.659   3
  -8   6  10 1634.95 162.248   1
   6   8 -10 1681.51 136.369   5
   8   6 -10 1507.30 102.689   6
   6   8  -8 2215.34 145.742   5
   6  -8   8 2162.78 227.542   3
   8   6  -8 2495.13 157.297   5
   6  -8   8 2138.61 156.171   2
   6  -8   6 1296.97 159.162   3
   8   6  -6 1328.28 93.9329   5
   6  -8   6 1261.04 107.394   2
   8  -6   6 1257.96 147.962   3
   6  -8   4 928.952 86.8120   2
   8   6  -4 971.726 69.2021   5
   8  -6   4 883.790 112.285   3
   6  -8   4 1193.78 133.015   3
   6   8  -4 1033.82 70.3209   5
   6  -8   2 13792.8 529.995   2
  -6  -8  -2 13765.5 510.461   2
   8  -6   2 13173.6 573.383   3
   6  -8   2 14150.8 584.293   3
   6  -8   0 348.954 54.1762   2
   6  -8   0 325.427 65.2946   3
  -6  -8   0 299.378 42.7880   2
  -6  -8   2 13219.3 500.019   2
   8   6   4 1218.73 73.1574   5
   8  -6  -4 1333.17 74.3774   6
   6  -8  -4 1304.23 93.3853   4
  -6  -8   4 1219.39 95.7409   2
   6  -8  -6 1253.70 93.2930   4
   6  -8  -6 1291.59 76.3221   6
   8  -6  -6 1334.63 80.7654   6
   8  -6  -6 1262.98 99.2211   4
   8  -6  -8 2525.90 130.740   6
   8  -6  -8 2559.40 147.502   4
   6  -8  -8 2510.80 125.949   6
   6  -8 -10 1497.47 107.805   4
   6  -8 -10 1661.28 100.929   6
   8  -6 -10 1378.77 99.7093   6
   6  -8 -12 1833.55 118.263   6
   6  -8 -12 1935.06 124.070   4
   8  -6 -14 381.476 57.4775   6
   6  -8 -14 456.154 58.2375   6
   6  -8 -16 561.779 60.2103   6
   8  -6 -16 582.042 62.4147   6
   8  -6 -18 85.3386 31.5754   6
   6  -8 -18 78.1169 30.2319   6
   6  -8 -20 25.1441 19.3095   6
   8  -6 -20 20.2104 20.2272   6
   7   8 -17 686.385 58.3671   5
   8   7 -17 644.751 57.8976   6
   7   8 -17 540.576 55.9634   6
   8   7 -17 510.000 50.9102   5
   7   8 -15 56.3889 38.1735   5
   8   7 -15 13.8756 34.9808   5
   7   8 -15 7.25281 30.9023   6
   8   7 -15 45.8706 33.5128   6
   8   7 -13 4411.71 192.454   6
   7   8 -13 4217.38 193.731   6
  -8   7  13 4579.08 284.123   1
  -7   8  13 4599.37 288.555   1
   7   8 -13 4482.35 225.917   5
   7   8 -11 8585.05 331.545   6
   8   7 -11 8873.31 333.288   6
  -8   7  11 7677.21 415.535   1
   7   8 -11 7992.89 375.565   5
   8   7  -9 71.3318 62.6467   5
   7   8  -9 64.8397 57.3635   5
   7  -8   9 209.753 89.4605   3
   7  -8   7 10214.0 634.061   3
   7   8  -7 15415.3 528.636   5
   8   7  -7 16181.7 537.070   5
   7  -8   5 9569.05 527.999   3
   7  -8   5 11279.6 448.878   2
   8   7  -5 11126.8 409.880   5
   8  -7   5 9057.89 516.923   3
   7  -8   3 7316.41 375.940   3
   7  -8   3 6576.73 295.117   2
   7   8  -3 6103.03 250.657   5
   8  -7   3 6797.77 364.677   3
   7  -8   1 19478.3 738.290   2
   8   7  -1 19947.3 689.204   5
   7  -8   1 20234.5 795.851   3
   7   8  -1 19998.4 686.820   5
   8  -7   1 19528.5 790.613   3
   8   7   1 20155.6 687.247   5
   8  -7  -1 19500.1 682.772   6
   7  -8  -1 19719.6 682.981   6
   7   8   1 20211.1 686.032   5
  -7  -8   1 19907.1 712.453   2
   7  -8  -1 19911.1 776.881   3
   7  -8  -3 7201.21 279.710   6
   8  -7  -3 7671.20 327.837   4
  -7  -8   3 7343.16 313.675   2
   8   7   3 7651.06 283.056   5
   7   8   3 7494.75 279.946   5
   7  -8  -3 8263.91 327.707   4
   8  -7  -3 7188.55 279.741   6
   8  -7  -5 11678.0 453.716   4
  -7  -8   5 10904.9 457.986   2
   8  -7  -5 11337.6 414.395   6
   7  -8  -5 11671.1 453.591   4
   7  -8  -7 17098.0 596.871   4
   8  -7  -7 16176.1 566.727   6
   8  -7  -7 16698.1 598.589   4
   7  -8  -9 63.2062 33.2650   6
   8  -7  -9 148.626 48.3041   4
   8  -7 -11 8647.64 354.185   4
   7  -8 -11 8386.04 351.958   4
   7  -8 -11 8587.02 346.359   6
   8  -7 -13 4623.10 221.195   6
   7  -8 -13 4791.17 220.442   6
   8  -7 -15 19.3844 33.0245   6
   7  -8 -15-34.4524 37.0051   6
   8  -7 -17 538.541 57.7169   6
   7  -8 -17 556.381 56.7199   6
   8  -7 -19 729.537 56.5093   6
   7  -8 -19 716.312 55.3222   6
   8  -7 -21 60.1056 16.7179   6
  -7   8 -21 85.3050 18.3305   5
  -8   7 -21 69.3201 17.2322   5
   7  -8 -21 74.7889 15.5291   6
   8   8 -16 1178.00 84.2426   5
   8   8 -16 1121.41 80.6486   6
   8   8 -14 3546.95 173.020   6
   8   8 -14 3575.99 196.201   5
   8   8 -12 2052.85 122.099   6
  -8   8  12 1759.62 175.092   1
   8   8 -12 1767.15 146.882   5
   8   8 -10 12406.0 528.417   5
   8   8  -8 13617.4 541.965   5
   8  -8   6 18.4827 43.7702   3
   8   8  -6 563.223 64.0580   5
   8  -8   4 10092.9 531.854   3
   8   8  -2 32748.2 1127.10   5
   8  -8   2 35314.2 1275.15   3
   8   8   0 816.919 58.8944   5
   8  -8  -2 37439.3 1309.31   4
   8  -8  -2 36198.6 1242.65   6
   8   8   2 37475.6 1245.08   5
   8  -8  -4 11920.4 488.214   4
   8   8   4 12518.7 440.832   5
   8  -8  -4 11923.0 440.089   6
   8  -8  -6 414.937 46.8480   6
  -8  -8   6 383.606 61.8679   2
   8  -8  -6 489.223 71.1914   4
   8  -8  -8 13984.8 541.231   4
   8  -8 -10 11215.5 432.359   6
   8  -8 -12 1985.93 126.672   6
   8  -8 -14 3979.46 191.242   6
   8  -8 -16 1236.85 87.0980   6
   8  -8 -18 368.907 41.6943   6
   8  -8 -20 132.358 23.7123   6
   0  -9   1 796.838 81.3767   3
   0  -9  -1 880.252 78.4142   2
   0  -9  -1 807.234 76.4337   3
   0  -9   1 675.803 70.6638   2
   0  -9  -3 5766.98 254.696   3
   0  -9  -3 5564.61 259.306   2
   0  -9  -5 597.710 63.3768   3
  -9   0   7 6839.24 336.156   1
   0  -9  -7 7420.76 281.021   4
   9   0  -9 11518.6 436.220   6
   0  -9  -9 11933.8 430.572   4
  -9   0   9 11278.1 509.510   1
   0  -9 -11 185.673 40.3977   4
  -9   0  11 74.6855 53.8418   1
   9   0 -11 166.476 44.5034   6
   9   0 -13 147.170 45.1556   6
  -9   0  13 187.670 62.3565   1
  -9   0  15 3847.48 262.963   1
   9   0 -15 4722.33 212.517   6
   0   9  15 4371.59 285.357   1
   0   9 -15 4664.92 214.057   5
   9   0 -17 708.890 67.0650   6
   0   9 -17 687.124 67.1650   5
   9   0 -19 130.543 35.4391   6
   0   9 -19 129.032 33.7964   5
   0   9 -21-1.64112 16.0491   5
   9   0 -21-1.92010 20.3316   6
   9   1 -22 40.3708 17.4173   6
   1   9 -20 313.413 36.9071   5
   9   1 -20 342.735 40.1429   6
   1   9 -18 419.927 50.5712   5
   9   1 -18 464.817 52.6645   6
   9   1 -16 687.027 68.2081   6
   1   9 -16 790.693 73.5705   5
   9   1 -14 5006.20 224.779   6
  -9   1  14 4340.38 281.965   1
  -1   9  14 4950.36 313.475   1
   1   9 -14 5343.44 235.049   5
   9   1 -12 4566.68 204.659   6
  -9   1  12 4108.52 264.229   1
   9   1 -10 8718.86 341.825   6
  -1  -9 -10 8749.58 333.356   4
  -9   1  10 8802.64 418.914   1
  -1  -9  -8 3152.70 143.557   4
   9   1  -8 3127.25 150.816   6
  -9   1   8 3035.61 200.378   1
   1  -9   6 6911.42 308.123   2
  -9   1   6 5679.04 296.727   1
   1  -9   4 21364.3 790.573   2
  -1  -9  -4 21447.3 766.447   3
  -1  -9  -2 6525.49 278.316   3
  -1  -9  -2 6433.83 280.137   2
   1  -9   2 6167.47 293.051   3
   1  -9   2 6230.34 281.570   2
  -1  -9   0 2494.54 147.710   2
  -1  -9   0 2953.76 158.760   3
   1  -9   0 2840.82 161.516   3
   1  -9  -2 5545.59 256.040   3
  -1  -9   2 5600.83 253.523   2
  -1  -9   4 21931.3 803.025   2
   1  -9  -4 21652.8 794.307   3
   1  -9  -6 6905.18 268.813   4
  -9  -1   8 2892.35 189.416   1
   1  -9  -8 3011.13 143.535   4
   9  -1  -8 3008.24 150.111   6
   9  -1 -10 8179.13 326.975   6
   1  -9 -10 8072.55 319.901   4
  -9  -1  10 8183.32 401.807   1
   1  -9 -12 3863.43 181.312   4
   9  -1 -12 3967.39 188.527   6
  -9  -1  12 3751.78 248.173   1
  -9  -1  14 4616.67 292.834   1
   9  -1 -14 5342.22 230.595   6
   1   9  14 4895.15 305.919   1
   9  -1 -16 459.141 59.3613   6
  -1   9 -18 388.431 50.5269   5
   9  -1 -18 370.788 47.4305   6
   9  -1 -20 320.110 38.9261   6
  -1   9 -20 275.738 36.5010   5
   2   9 -21 12.9115 13.9526   5
   9   2 -21 5.62895 18.2463   6
   2   9 -19 66.6517 25.6955   5
   9   2 -19 35.5216 27.5308   6
   9   2 -17 898.702 72.5049   6
   2   9 -17 855.184 75.0763   5
   9   2 -15 2319.85 129.581   6
  -2   9  15 2055.23 193.002   1
  -9   2  15 2127.53 180.980   1
   2   9 -15 2375.75 138.392   5
   9   2 -13 893.126 77.6024   6
  -9   2  13 735.082 109.412   1
   2   9 -11 1563.34 111.719   6
   9   2 -11 1537.61 98.2853   6
  -9   2   9 9830.26 455.826   1
  -2  -9  -9 10170.5 371.391   4
   2   9  -9 9802.52 406.453   5
   9   2  -9 10113.0 382.190   6
   2  -9   7 15857.1 625.524   2
  -9   2   7 14970.2 621.579   1
  -2  -9  -7 16122.1 546.600   4
   2   9  -7 14591.4 567.160   5
   2  -9   5 12654.2 546.344   3
  -2  -9  -5 13045.9 489.153   3
   2  -9   5 13907.2 532.843   2
  -2  -9  -3 4427.35 201.360   3
   2  -9   3 4667.89 221.913   2
  -2  -9  -1 15155.3 558.942   3
  -2  -9  -1 14683.1 558.512   2
   2  -9   1 15172.4 567.258   2
   2  -9   1 14499.8 578.003   3
   2  -9  -1 15992.2 587.885   2
   2  -9  -1 15282.3 592.685   3
  -2  -9   1 15088.9 574.327   2
   2  -9  -3 3762.90 201.996   2
  -2  -9   3 4041.01 204.254   2
   2  -9  -3 4245.40 209.938   3
  -2  -9   5 13199.1 526.165   2
   2  -9  -7 15657.9 562.824   6
   9  -2  -7 16769.5 584.923   6
   2  -9  -7 16443.8 579.055   4
   2  -9  -9 10494.1 395.724   4
   2  -9  -9 10577.9 385.218   6
  -9  -2   9 9697.46 457.944   1
   9  -2  -9 10430.2 402.182   6
  -9  -2  11 1685.80 162.257   1
   2  -9 -11 2068.01 113.645   6
   9  -2 -11 2030.94 122.064   6
   2  -9 -11 1875.42 116.430   4
   2   9  13 839.587 120.406   1
   9  -2 -13 959.364 84.1412   6
   2  -9 -13 880.957 72.8851   6
  -9  -2  13 1089.28 127.846   1
   2  -9 -13 926.557 77.1912   4
   9  -2 -15 2342.21 138.846   6
   2  -9 -15 2533.99 129.859   4
   9  -2 -17 918.107 76.8838   6
  -2   9 -19 137.640 33.3777   5
   9  -2 -19 82.1602 32.1698   6
  -2   9 -21 22.5492 17.8336   5
   9   3 -22 1.30173 12.9477   6
   9   3 -20 42.7728 23.8664   6
   3   9 -20 31.7118 19.4951   5
   9   3 -18 153.173 38.5023   6
   3   9 -18 263.937 40.7325   5
   3   9 -16 36.3552 34.6816   5
   9   3 -16 27.6656 31.6253   6
   9   3 -14 795.337 70.8571   6
   3   9 -14 772.905 80.8833   5
   3   9 -14 798.589 80.6207   6
  -9   3  14 722.742 106.413   1
  -3   9  14 634.305 112.648   1
  -9   3  12 5947.26 330.684   1
   3   9 -12 5806.10 270.158   6
   9   3 -12 6050.23 252.921   6
   3   9 -12 6425.24 282.503   5
   3   9 -10 2905.93 154.558   6
  -9   3  10 2721.66 199.052   1
   9   3 -10 2718.45 141.488   6
   3  -9  10 2777.48 229.090   3
   3   9  -8 217.328 51.9674   5
   3  -9   8 228.240 62.1797   2
   3  -9   8 162.075 60.5114   3
   9   3  -8 289.560 46.6717   5
   3  -9   6 5350.21 306.215   3
   9   3  -6 5441.10 233.839   5
   3   9  -6 5981.87 244.926   5
  -9   3   6 5562.25 288.299   1
   3  -9   6 6235.31 291.168   2
   3  -9   4 7761.81 377.014   3
   3  -9   4 8401.47 354.792   2
   3  -9   2 543.941 65.2205   2
  -3  -9  -2 480.821 52.9032   3
  -3  -9  -2 500.368 59.6794   2
  -3  -9   0 6763.15 279.053   2
   3  -9   0 5936.90 292.655   3
   3  -9   0 6209.81 282.030   2
  -3  -9   2 546.848 62.4174   2
   3  -9  -2 525.154 67.9412   3
   3  -9  -2 606.120 69.1890   2
  -3  -9   4 7881.83 340.920   2
   3  -9  -4 7836.76 347.435   3
   3  -9  -6 6156.62 250.227   4
   9  -3  -6 6124.22 247.066   6
   3  -9  -6 6092.60 233.799   6
   3  -9  -8 421.209 51.7778   4
   9  -3  -8 371.589 50.7254   6
   3  -9  -8 320.753 38.4157   6
   3  -9 -10 2259.53 127.601   4
   3  -9 -10 2025.43 114.278   6
   9  -3 -10 2125.46 128.250   6
   3  -9 -12 5796.97 252.627   6
   3  -9 -12 6035.12 259.006   4
   9  -3 -12 5973.42 261.050   6
   3  -9 -14 828.147 71.4538   6
   3  -9 -14 795.871 71.5740   4
   9  -3 -14 697.898 74.8589   6
   9  -3 -16 11.2825 33.6979   6
   3  -9 -16 31.3689 28.1102   6
  -3   9 -20 99.0870 25.7416   5
   9  -3 -22-5.16564 13.2673   6
   9   4 -21 18.3427 16.4114   6
   9   4 -19 160.315 32.3622   6
   4   9 -19 95.0954 25.5339   5
   4   9 -17 510.170 55.9178   5
   9   4 -17 426.819 50.3606   6
   4   9 -15 296.802 55.5035   5
   9   4 -15 328.229 48.7315   6
   4   9 -15 301.293 51.4631   6
   4   9 -13 1645.00 115.837   6
   9   4 -13 1576.27 102.027   6
   4  -9  13 1616.81 165.686   2
   4   9 -13 1562.15 121.819   5
  -9   4  13 1414.69 148.084   1
   4   9 -11 2964.38 164.217   6
   4  -9  11 2798.01 212.527   2
   9   4 -11 2884.08 150.316   6
  -9   4  11 3268.98 223.358   1
   4  -9  11 2893.19 241.247   3
   9   4 -11 3123.30 177.056   5
   4   9 -11 3190.38 186.992   5
   4   9  -9 4838.53 217.015   6
  -9   4   9 4738.07 279.025   1
   4  -9   9 4730.80 275.160   2
   4  -9   9 5070.36 327.830   3
   9   4  -9 5030.10 240.070   5
   4  -9   7 3352.75 242.781   3
  -9   4   7 3314.66 212.231   1
   9   4  -7 3417.06 171.196   5
   4   9  -7 3651.38 177.568   5
   4  -9   7 3234.47 206.507   2
   4  -9   5 1308.71 134.731   3
   9   4  -5 1159.14 78.6724   5
   4   9  -5 1202.57 80.4553   5
   4  -9   5 1168.51 104.126   2
   4  -9   3 660.648 88.4210   3
   4  -9   3 628.877 71.6187   2
  -4  -9  -3 575.439 64.2175   2
  -4  -9  -1 3853.42 189.875   3
  -4  -9  -1 4196.52 199.484   2
   4  -9   1 4196.83 209.271   2
   4  -9  -1 4370.15 214.196   2
  -4  -9   1 3811.45 195.432   2
   4  -9  -1 4345.18 227.016   3
   4  -9  -3 728.458 83.6492   3
  -4  -9   3 859.922 80.1569   2
   9  -4  -5 1151.48 71.2741   6
   4  -9  -5 1057.68 64.0693   6
  -4  -9   5 1017.05 95.9146   2
   4  -9  -5 1067.55 79.4300   4
   9  -4  -5 1224.56 94.4444   4
   9  -4  -7 3546.04 160.186   6
   4  -9  -7 3181.93 161.448   4
   4  -9  -7 3237.80 145.351   6
   4  -9  -9 4516.39 201.436   6
   9  -4  -9 4943.95 219.033   6
   4  -9  -9 5001.17 220.572   4
   9  -4 -11 2912.00 159.354   6
   4  -9 -11 3096.64 160.238   4
   4  -9 -11 2973.43 152.926   6
   9  -4 -13 1466.71 108.150   6
   4  -9 -13 1571.35 107.067   4
   4  -9 -13 1451.64 101.538   6
   4  -9 -15 197.850 40.8725   6
   9  -4 -15 238.210 46.8767   6
   4  -9 -17 450.918 49.8640   6
  -4   9 -19 119.836 32.7732   5
   4  -9 -19 111.781 24.6003   6
  -4   9 -21 43.5350 17.8212   5
   9  -4 -21-3.28917 17.4248   6
   9   5 -20 70.5622 22.9886   6
   5   9 -20 65.6145 17.7663   5
   5   9 -18 24.0690 23.4915   5
   9   5 -18 58.0728 28.2862   6
   9   5 -16 430.430 52.8365   6
   5   9 -16 441.607 56.6208   5
   5   9 -14 587.720 72.6127   5
   5   9 -14 632.529 69.3689   6
  -5   9  14 746.012 114.366   1
   9   5 -14 472.214 56.9786   6
  -9   5  14 525.279 93.9520   1
   5  -9  12 3493.71 245.007   2
   9   5 -12 3848.32 178.014   6
  -9   5  12 3364.39 242.430   1
   9   5 -12 3113.87 195.482   5
   5   9 -12 3883.93 210.641   5
   5   9 -12 4002.31 195.259   6
   5   9 -10 1695.65 113.216   6
   5  -9  10 2185.23 215.371   3
   9   5 -10 1970.38 150.442   5
  -9   5  10 1896.86 166.822   1
   5   9 -10 1929.36 142.777   5
   5  -9  10 1895.54 162.792   2
   5  -9   8 2761.86 235.919   3
   5   9  -8 2614.85 134.738   6
  -9   5   8 2569.73 190.241   1
   9   5  -8 2673.71 162.382   5
   5  -9   8 3057.75 192.431   2
   5   9  -6 6568.33 277.342   5
   9   5  -6 6723.56 281.033   5
   5  -9   6 6945.91 384.598   3
   5  -9   6 6850.58 319.105   2
   9   5  -4 4899.04 205.289   5
   5  -9   4 4612.86 238.826   2
   5   9  -4 4748.25 202.036   5
   5  -9   2 4432.82 249.170   3
  -5  -9  -2 4128.96 200.457   2
   5  -9   2 4343.96 216.131   2
   9   5  -2 3897.00 171.443   5
   5  -9   0 11556.4 465.000   2
  -5  -9   0 11441.0 449.166   2
   9   5   2 3772.89 158.725   5
   5  -9  -2 3658.30 151.644   6
  -5  -9   2 3648.34 187.230   2
   5  -9  -2 3568.50 210.947   3
  -5  -9   4 5190.92 247.893   2
   9  -5  -4 5061.34 236.999   4
   9  -5  -4 4869.83 201.980   6
   5  -9  -4 5186.14 224.768   4
   5  -9  -4 4963.74 198.234   6
   9  -5  -6 6575.88 260.308   6
   5  -9  -6 6478.65 252.687   6
   5  -9  -6 6378.99 273.548   4
   9  -5  -6 6682.86 288.737   4
   9  -5  -8 2182.82 123.210   6
   5  -9  -8 2291.76 116.843   6
   5  -9  -8 2166.39 130.820   4
   9  -5 -10 1737.24 114.006   6
   5  -9 -10 1538.11 110.803   4
   5  -9 -10 1687.25 104.641   6
   9  -5 -12 3718.35 186.079   6
   5  -9 -12 3641.67 183.440   6
   5  -9 -12 3679.37 186.700   4
   5  -9 -14 697.770 70.3160   6
   9  -5 -14 661.635 68.0670   6
   5  -9 -14 709.813 69.9800   4
   5  -9 -16 467.582 54.8199   6
   9  -5 -18 58.3052 31.2065   6
   5  -9 -18 38.0681 25.8414   6
  -5   9 -20 97.3139 26.0928   5
   9  -5 -20 81.3919 24.2511   6
   5  -9 -20 80.2611 19.8429   6
   9   6 -19 54.4470 23.2414   6
   6   9 -19 54.3609 19.2687   5
   6   9 -17 445.754 51.0173   5
   9   6 -17 423.582 49.2215   6
   6   9 -15 85.3179 41.3990   5
   6   9 -15 37.3180 33.9899   6
   9   6 -15 112.394 35.6308   6
   9   6 -15 100.094 36.4521   5
   6   9 -13 349.194 63.7505   5
   6   9 -13 305.845 56.7578   6
   9   6 -13 290.466 48.2093   6
  -9   6  13 288.433 73.1364   1
  -6   9  13 350.503 85.5263   1
   9   6 -13 151.605 51.6464   5
   6   9 -11 2180.96 129.799   6
   9   6 -11 2153.66 124.343   6
  -9   6  11 2193.87 184.149   1
   9   6 -11 1701.86 150.753   5
   6   9 -11 2367.53 163.993   5
   6   9  -9 1544.85 101.608   6
   6  -9   9 2104.04 225.773   3
  -9   6   9 1644.01 155.547   1
   9   6  -9 1900.44 147.491   5
   6   9  -9 1658.26 130.488   5
   6  -9   9 1704.37 147.551   2
   6  -9   7 2953.33 252.113   3
   9   6  -7 2587.18 152.052   5
   6   9  -5 219.164 41.6152   5
   9  -6   5 259.363 74.6257   3
   6  -9   5 319.675 86.2442   3
   6  -9   5 258.341 53.0873   2
   9   6  -5 278.280 46.1202   5
   6   9  -3 220.637 33.9079   5
   6  -9   3 111.140 39.6262   2
   6  -9   3 113.398 55.2901   3
   9   6  -3 91.1876 29.9116   5
  -6  -9  -1 4087.84 198.049   2
   6  -9   1 4389.81 219.349   2
   6   9  -1 4051.63 168.591   5
   9  -6   1 3899.36 165.195   6
   6  -9   1 4134.51 248.160   3
   6  -9  -1 3631.84 193.158   4
   9  -6  -1 3836.48 157.714   6
  -6  -9   1 3749.77 189.061   2
   9   6   1 3681.41 160.527   5
   6   9   1 3742.71 156.286   5
  -6  -9   3 106.714 37.0710   2
   9  -6  -3 139.525 47.3756   4
   9  -6  -3 167.907 29.5765   6
   6  -9  -3 206.809 29.8898   6
   6  -9  -3 181.486 45.2979   4
   9   6   3 156.485 31.1284   5
  -6  -9   5 219.062 51.4335   2
   9  -6  -5 181.465 51.7131   4
   9  -6  -5 218.937 36.1775   6
   6  -9  -5 206.694 33.6506   6
   6  -9  -5 183.991 47.2858   4
   6  -9  -7 1916.25 124.675   4
   6  -9  -7 1941.28 106.555   6
   9  -6  -7 2035.21 111.851   6
   9  -6  -7 1920.60 129.412   4
   6  -9  -9 1724.70 103.607   6
   6  -9  -9 1534.44 113.623   4
   9  -6  -9 1755.48 110.193   6
   6  -9 -11 2414.57 135.323   6
   6  -9 -11 2273.26 139.592   4
   9  -6 -11 2331.06 140.227   6
   6  -9 -13 235.694 49.1078   4
   6  -9 -13 353.815 55.9417   6
   6  -9 -15 67.0940 33.6889   6
   9  -6 -17 401.194 49.8101   6
   6  -9 -17 384.515 47.8363   6
   9  -6 -19 80.9826 25.9354   6
   6  -9 -19 88.4736 24.2872   6
  -6   9 -21-5.33032 14.1817   5
   9  -6 -21 24.1018 13.8287   6
   9   7 -18 111.740 28.9811   6
   7   9 -18 101.625 25.1739   5
   9   7 -16 359.831 46.5571   6
   9   7 -16 383.815 47.3031   5
   7   9 -16 476.680 56.5980   5
   7   9 -14 1210.19 88.4397   6
   9   7 -14 1093.33 82.1723   6
   9   7 -14 941.246 93.0756   5
   7   9 -14 1295.63 105.071   5
   7   9 -12 1657.12 102.878   6
   9   7 -12 1768.70 100.659   6
  -9   7  12 1721.07 158.184   1
  -7   9  12 1618.96 163.548   1
   7   9 -12 2046.24 139.212   5
  -9   7  10 2807.07 217.113   1
   9   7 -10 2831.15 203.461   5
   7   9 -10 3163.05 195.283   5
   7  -9   8 3589.27 318.559   3
   9   7  -8 4156.73 222.189   5
   7   9  -8 3688.74 206.216   5
   7  -9   6 1271.96 175.385   3
   7  -9   6 1405.32 124.090   2
   9   7  -6 1488.11 108.638   5
   9  -7   6 1352.14 171.131   3
   7  -9   4 2972.21 177.350   2
   9   7  -4 2557.58 136.461   5
   7   9  -4 2599.81 133.464   5
   9  -7   4 2588.26 225.657   3
   7  -9   4 2689.79 226.646   3
   7  -9   2 8788.74 368.983   2
   7   9  -2 8348.57 309.813   5
   7  -9   2 9443.01 437.332   3
   9  -7   0 631.711 50.6565   6
   7  -9   0 501.547 74.6582   4
   9   7   0 665.018 54.5757   5
   7   9   0 688.799 52.6572   5
   7  -9   0 702.390 102.035   3
   7   9   2 9287.07 335.068   5
   9  -7  -2 8996.67 335.790   6
   7  -9  -2 8977.86 334.994   6
   9   7   2 9535.96 340.700   5
   7  -9  -2 8769.09 384.713   4
  -7  -9   2 8373.29 364.957   2
   9  -7  -2 9028.70 390.048   4
   7  -9  -4 2738.51 166.479   4
   9  -7  -4 2506.86 164.862   4
   9   7   4 3002.47 137.305   5
   9  -7  -4 2839.46 134.559   6
   7   9   4 2897.08 130.138   5
  -7  -9   4 2975.38 170.882   2
   7  -9  -6 1074.37 97.8713   4
  -7  -9   6 1118.03 110.703   2
   9  -7  -6 1276.92 82.1991   6
   7  -9  -6 1122.89 76.6752   6
   9  -7  -6 1233.87 107.790   4
   7  -9  -8 4155.23 189.005   6
   9  -7  -8 4214.97 194.070   6
   7  -9  -8 4041.93 209.118   4
   9  -7  -8 4377.86 217.865   4
   7  -9 -10 3535.82 189.055   4
   7  -9 -10 3823.35 181.680   6
   9  -7 -10 3692.62 186.278   6
   7  -9 -12 1959.84 124.728   4
   7  -9 -12 1721.34 118.941   6
   7  -9 -14 1264.40 93.2077   6
   9  -7 -16 339.883 48.9532   6
   7  -9 -16 358.599 49.1887   6
   9  -7 -18 160.648 32.5180   6
   7  -9 -18 142.527 31.5096   6
  -7   9 -20 44.7636 20.6282   5
   7  -9 -20 52.5577 16.4188   6
   9  -7 -20 47.0626 18.9369   6
   9   8 -17 203.586 31.8043   5
   8   9 -17 167.292 31.5733   5
   9   8 -15 257.509 41.4599   6
   9   8 -15 217.940 44.1999   5
   8   9 -15 219.910 47.0654   5
   8   9 -13 2134.93 119.864   6
   8   9 -13 2367.40 149.204   5
  -9   8  11 2053.23 181.974   1
   9   8 -11 1970.35 163.628   5
   8   9 -11 2563.96 174.811   5
  -8   9  11 2148.59 194.707   1
   9   8  -9 841.973 106.437   5
   8   9  -9 1002.01 106.558   5
   9   8  -7 7932.69 330.502   5
   8   9  -7 7293.29 319.281   5
   8  -9   5 4297.19 330.324   3
   9   8  -5 4609.47 206.294   5
   8   9  -5 4412.74 200.444   5
   8  -9   3 255.575 85.8959   3
   9  -8   3 258.163 79.9773   3
   9   8  -3 223.013 39.8420   5
   8   9  -3 270.491 41.4479   5
   8   9  -1 8743.96 336.048   5
   8  -9   1 8696.82 453.805   3
   9   8  -1 8962.67 339.209   5
   9  -8   1 9107.92 335.152   6
   8  -9  -1 9046.39 344.453   6
   9  -8  -1 9773.76 348.812   6
   9   8   1 9441.51 349.836   5
   8   9   1 9476.44 347.144   5
   8  -9  -3 425.512 46.4712   6
   9  -8  -3 439.407 76.3058   4
   8  -9  -3 557.640 82.8442   4
   9   8   3 512.174 50.4364   5
   8   9   3 516.869 47.2663   5
   9  -8  -3 474.557 47.3032   6
   9  -8  -5 4854.15 251.401   4
   9  -8  -5 5069.24 208.848   6
   8  -9  -5 5040.17 250.390   4
   8  -9  -5 4585.97 204.704   6
   9  -8  -7 7396.64 304.829   6
   9  -8  -7 8092.28 344.163   4
   8  -9  -7 7706.04 337.604   4
   9  -8  -9 1213.54 102.723   4
   8  -9  -9 1120.91 101.278   4
   8  -9  -9 1113.24 87.6281   6
   9  -8  -9 920.469 80.7688   6
   8  -9 -11 2487.27 144.690   6
   9  -8 -13 2242.28 135.996   6
   8  -9 -13 2481.13 141.576   6
   8  -9 -15 268.850 46.2937   6
   9  -8 -15 238.267 47.4794   6
   9  -8 -17 206.591 38.3329   6
   8  -9 -17 197.911 36.4768   6
   9  -8 -19 333.003 35.3423   6
   8  -9 -19 266.922 32.8415   6
   9   9 -16 8.85099 23.7616   5
   9   9 -14 680.122 72.5512   5
   9   9 -12 950.108 99.6617   5
   9   9 -10 2283.45 168.824   5
  -9   9  10 1847.97 178.139   1
   9   9  -8 2029.70 145.072   5
   9  -9   6 42.7509 63.4032   3
   9  -9   4 1769.68 215.911   3
   9   9  -4 2357.20 127.905   5
   9   9  -2 2286.37 121.761   5
   9  -9   0 6685.59 262.070   6
   9   9   0 6510.91 262.658   5
   9  -9  -2 2352.06 120.368   6
   9   9   2 2416.09 121.299   5
   9  -9  -2 2278.89 173.688   4
   9  -9  -4 2107.18 114.925   6
   9  -9  -4 2056.83 157.371   4
   9   9   4 2098.08 112.464   5
   9  -9  -6 552.208 58.2883   6
   9  -9  -6 485.599 80.1614   4
   9  -9  -8 1773.67 132.119   4
   9  -9 -10 2506.51 156.325   4
   9  -9 -12 1010.37 89.8912   6
   9  -9 -14 802.174 73.8117   6
   9  -9 -16 54.6029 30.2248   6
   9  -9 -18 141.734 27.9388   6
  -9   9 -20 9.58276 12.0500   5
   0 -10   0 4308.75 218.004   2
   0 -10   0 4365.61 225.721   3
   0 -10  -2 172.175 43.8764   3
   0 -10   2 105.807 46.7917   3
   0 -10  -2 188.191 43.8288   2
   0 -10  -4 13991.9 498.859   4
   0 -10  -4 13886.1 538.438   3
   0 -10  -6 6072.18 243.779   4
   0 -10   8 203.078 62.9551   2
  10   0  -8 144.378 37.6807   6
   0 -10  -8 176.156 35.9333   4
   0 -10 -10 6743.06 273.098   4
  10   0 -10 6518.98 275.750   6
   0 -10 -12 1459.46 97.9046   4
  10   0 -12 1597.79 106.291   6
  10   0 -14 5840.88 248.092   6
   0  10  14 5359.12 333.246   1
   0  10 -14 5529.77 252.461   5
   0  10 -16 38.9556 36.8047   5
  10   0 -16 72.0081 34.4396   6
   0  10 -18 149.705 37.4121   5
  10   0 -18 129.443 33.9476   6
   0  10 -20 226.783 31.3547   5
  10   0 -20 168.361 30.9265   6
  10   0 -22 26.8203 13.0256   6
   1  10 -21-4.11257 13.6370   5
  10   1 -21-11.3993 17.2450   6
   1  10 -19 197.437 34.6945   5
  10   1 -19 241.943 37.4799   6
  10   1 -17 799.303 67.5113   6
   1  10 -17 816.925 71.8195   5
  10   1 -15 4210.14 196.676   6
   1  10 -15 4258.46 207.078   5
  10   1 -13 914.248 79.3866   6
  10   1 -11 2141.15 124.507   6
  -1 -10 -11 2185.40 118.690   4
   1  10 -11 2200.50 141.040   5
   1 -10   9 11197.2 517.507   2
  -1 -10  -9 11479.8 419.702   4
  10   1  -9 11240.3 424.658   6
   1  10  -9 10940.5 446.590   5
   1 -10   7 7344.19 362.526   2
   1  10  -7 7124.79 304.675   5
  -1 -10  -7 7522.22 286.878   4
  -1 -10  -5 4166.61 174.384   4
   1 -10   5 4421.52 232.278   2
   1  10  -5 3917.73 180.811   5
  -1 -10  -5 3826.87 195.972   3
  -1 -10  -3 5123.14 233.567   3
   1 -10   3 4795.93 257.233   3
  -1 -10  -3 4649.96 196.324   4
  -1 -10  -3 4985.89 240.998   2
   1 -10   3 4940.08 245.563   2
   1 -10   1 3466.17 206.225   3
  -1 -10  -1 4190.80 206.132   3
  -1 -10  -1 3719.86 198.420   2
   1 -10  -1 4277.45 222.738   3
  -1 -10   1 3968.03 216.642   3
  -1 -10   1 4296.27 213.541   2
   1 -10  -3 4028.34 219.786   2
  -1 -10   3 4531.66 227.253   2
   1 -10  -3 4445.96 223.157   3
   1 -10  -5 4381.29 188.568   4
   1 -10  -5 4386.09 223.818   3
  -1 -10   5 4516.68 241.170   2
  10  -1  -7 6814.06 276.737   6
   1 -10  -7 6615.84 269.625   4
  10  -1  -9 11970.7 455.657   6
   1 -10  -9 12081.2 450.835   4
   1 -10 -11 2032.71 120.523   4
  10  -1 -11 2103.67 125.399   6
   1 -10 -13 797.885 71.8859   4
  10  -1 -13 1008.34 83.1930   6
  10  -1 -15 4393.98 204.460   6
  -1  10 -15 4461.75 209.592   5
  10  -1 -17 856.463 72.6518   6
  -1  10 -17 941.625 77.6571   5
  -1  10 -19 164.235 34.2757   5
  10  -1 -19 275.321 37.5400   6
  -1  10 -21 2.96487 14.2480   5
  10  -1 -21 17.9491 17.2806   6
   2  10 -20 130.400 23.7181   5
  10   2 -20 126.159 26.5471   6
   2  10 -18 40.9188 26.7364   5
  10   2 -18 25.5580 26.4853   6
   2  10 -16 86.4806 38.2237   5
  10   2 -16 169.953 38.7711   6
   2 -10  14 1980.92 189.637   2
  10   2 -14 1912.31 114.702   6
  -2  10  14 1978.76 188.069   1
   2  10 -14 2113.28 128.909   5
   2 -10  12 2333.68 201.378   2
  10   2 -12 2048.59 122.811   6
   2 -10  12 2233.57 197.518   3
   2 -10  10 5575.54 312.623   2
   2 -10  10 4702.91 312.263   3
  -2 -10 -10 4951.79 213.446   4
  10   2 -10 5107.20 223.501   6
   2  10 -10 5379.60 256.178   5
   2  10  -8 223.250 54.5774   5
   2 -10   8 240.821 65.0160   2
  -2 -10  -8 275.940 38.1396   4
  -2 -10  -6 2554.15 119.764   4
  10   2  -6 2288.09 123.727   5
   2 -10   6 2189.20 180.552   3
   2  10  -6 2438.48 132.581   5
   2 -10   6 2629.28 175.867   2
  -2 -10  -4 12886.2 450.627   4
   2  10  -4 12140.5 455.281   5
   2 -10   4 13117.8 516.398   2
  -2 -10  -4 12179.4 479.663   3
  -2 -10  -2 4816.02 225.838   3
   2 -10   2 4570.89 247.224   3
  -2 -10  -2 4534.06 227.105   2
   2 -10   2 4493.14 231.954   2
   2 -10   0 997.025 100.352   3
  -2 -10   0 1112.69 93.5477   2
   2 -10   0 957.904 92.0956   2
  -2 -10   0 1082.14 93.8198   3
   2 -10  -2 4288.01 224.775   3
   2 -10  -2 4221.01 185.261   4
   2 -10  -2 4630.24 230.001   2
  -2 -10   2 4235.23 217.364   2
  -2 -10   4 14090.2 555.433   2
   2 -10  -4 13865.8 552.372   3
  -2 -10   6 2922.96 195.559   2
   2 -10  -6 3228.25 152.636   4
  10  -2  -6 3290.66 155.308   6
   2 -10  -6 3114.73 136.242   6
  10  -2  -8 566.413 61.9258   6
   2 -10  -8 487.150 47.5802   6
   2 -10  -8 518.842 58.4765   4
  10  -2 -10 5512.35 244.804   6
   2 -10 -10 5401.51 229.652   6
   2 -10 -10 5650.68 243.182   4
   2 -10 -12 2416.66 132.346   6
   2 -10 -12 2459.71 137.879   4
  10  -2 -12 2465.48 142.275   6
  10  -2 -14 2300.48 132.367   6
   2  10  14 2006.11 182.191   1
   2 -10 -14 2348.38 129.031   4
  10  -2 -16 121.182 39.8347   6
  -2  10 -18 49.4010 31.4169   5
  10  -2 -18 38.2307 28.6280   6
  -2  10 -20 119.474 25.7662   5
  10  -2 -20 93.5749 25.0203   6
  10   3 -21-11.7379 15.8390   6
   3  10 -21-2.19603 10.4896   5
  10   3 -19 66.3188 27.2901   6
   3  10 -19 67.4879 24.0360   5
   3  10 -17 39.6497 33.0974   5
  10   3 -17 70.4269 30.3423   6
   3  10 -15 563.577 65.3476   5
  10   3 -15 485.218 55.2807   6
   3  10 -13 369.912 62.8424   5
   3 -10  13 162.619 66.2597   2
   3 -10  13 263.414 75.5864   3
  10   3 -13 330.412 50.1026   6
   3 -10  11 262.606 79.1566   2
   3 -10  11 331.721 92.8406   3
  10   3 -11 327.247 49.3475   6
   3 -10   9 4802.43 288.726   2
   3 -10   9 4670.81 313.409   3
  10   3  -9 4885.04 230.295   5
   3  10  -9 5046.42 241.560   5
   3 -10   7 2767.58 218.214   3
  10   3  -7 3172.80 155.720   5
  -3 -10  -7 2960.67 136.532   4
   3  10  -7 2741.29 156.260   5
   3 -10   7 3041.54 202.683   2
  -3 -10  -5 2184.03 108.851   4
   3 -10   5 2048.82 171.751   3
  10   3  -5 2236.56 117.817   5
   3  10  -5 2130.55 118.667   5
   3 -10   5 2384.29 160.604   2
  -3 -10  -3 1928.25 119.604   3
  10   3  -3 1974.39 104.315   5
  -3 -10  -3 1988.57 132.878   2
   3 -10   3 2024.39 139.898   2
  -3 -10  -1 1558.00 112.827   3
   3 -10   1 1630.85 133.300   3
  -3 -10  -1 1613.03 115.829   2
   3 -10   1 1808.03 127.719   2
  10   3  -1 1625.79 90.3140   5
   3 -10  -1 1843.00 136.070   3
   3 -10  -1 1748.14 101.815   4
   3 -10  -1 1758.74 128.718   2
  10   3   1 1695.49 93.9208   5
  -3 -10   1 1802.60 122.024   2
   3 -10  -3 1726.33 86.9891   6
   3 -10  -3 1880.19 106.735   4
  -3 -10   3 1981.88 134.168   2
   3 -10  -3 1816.13 136.601   3
  -3 -10   5 2220.10 158.185   2
   3 -10  -5 2284.29 107.730   6
  10  -3  -5 2427.17 121.191   6
  -3 -10   7 3094.24 202.962   2
   3 -10  -7 2972.35 152.866   4
   3 -10  -7 3033.03 138.312   6
  10  -3  -7 3185.47 155.538   6
   3 -10  -9 4979.03 230.808   4
   3 -10  -9 5231.86 219.534   6
  10  -3  -9 5527.40 239.727   6
  10  -3 -11 330.248 55.8307   6
   3 -10 -11 249.559 46.3102   6
   3 -10 -11 296.017 53.8304   4
  10  -3 -13 365.411 58.1990   6
   3 -10 -13 287.936 47.1006   6
   3 -10 -13 343.685 52.9081   4
   3 -10 -15 567.287 55.4363   6
  10  -3 -15 508.419 59.3766   6
   3 -10 -15 430.640 52.8781   4
  10  -3 -17 105.769 36.1775   6
  -3  10 -19 73.9367 27.4585   5
  10  -3 -19 46.1689 25.9278   6
  -3  10 -21 1.44940 15.5715   5
  10   4 -20 125.745 25.8577   6
   4  10 -20 97.9929 20.0537   5
   4  10 -18-13.2031 25.0721   5
  10   4 -18-5.23335 24.3862   6
   4  10 -16 366.984 52.6821   5
  10   4 -16 323.162 47.0876   6
  10   4 -14 1088.00 83.1687   6
   4  10 -14 1248.89 99.6663   5
   4 -10  12 1645.43 168.960   2
  10   4 -12 1783.48 108.566   6
   4  10 -12 1837.01 133.983   5
   4 -10  12 1790.65 179.058   3
  10   4 -10 3592.28 199.270   5
   4 -10  10 3956.29 251.554   2
   4 -10   8 6340.87 372.176   3
  10   4  -8 6036.29 273.093   5
   4  10  -8 6121.97 274.062   5
   4 -10   8 5687.64 316.987   2
   4  10  -6 298.558 50.1077   5
   4 -10   6 526.346 77.5947   2
   4 -10   6 292.028 78.2461   3
  -4 -10  -6 430.364 42.6379   4
  10   4  -6 401.008 53.9320   5
  10   4  -4 11047.9 408.863   5
   4 -10   4 11379.1 504.369   3
   4 -10   4 10707.3 459.097   2
   4  10  -4 10788.9 404.007   5
  10   4  -2 12136.3 442.509   5
  -4 -10  -2 12208.4 468.976   3
  -4 -10  -2 13057.9 489.688   2
   4 -10   2 12167.1 498.993   2
   4  10  -2 11883.7 435.453   5
   4 -10   0 755.058 83.5398   2
   4 -10   0 606.598 83.4029   3
  10   4   0 778.327 58.1711   5
   4 -10   0 852.327 72.4679   4
  -4 -10   0 692.108 73.7887   3
  -4 -10   0 802.357 78.9161   2
   4 -10  -2 11782.6 447.152   4
  -4 -10   2 11660.4 471.703   2
   4 -10  -2 12207.5 499.943   3
   4 -10  -4 10530.9 381.839   6
   4 -10  -4 10684.8 407.748   4
  10  -4  -4 10650.3 390.728   6
  -4 -10   4 10594.7 444.647   2
  -4 -10   6 802.130 95.9170   2
   4 -10  -6 836.001 59.7867   6
  10  -4  -6 786.802 67.4062   6
  10  -4  -8 5731.10 245.929   6
   4 -10  -8 5552.99 246.574   4
   4 -10  -8 5453.06 228.013   6
  10  -4 -10 3533.48 183.840   6
   4 -10 -10 3645.73 185.318   4
   4 -10 -10 3643.15 172.355   6
  10  -4 -12 2204.40 133.562   6
   4 -10 -12 2157.50 134.618   4
   4 -10 -12 2280.92 131.643   6
  10  -4 -14 1416.59 102.403   6
   4 -10 -14 1432.06 97.5416   6
   4 -10 -14 1474.28 99.3547   4
  10  -4 -16 294.225 48.2792   6
   4 -10 -16 342.573 44.1328   6
  -4  10 -18-5.80125 25.2621   5
  10  -4 -18-2.80704 25.9926   6
  -4  10 -20 115.473 25.5603   5
  10   5 -19 284.193 35.5191   6
   5  10 -19 338.444 33.6130   5
   5  10 -17 467.025 50.4287   5
  10   5 -17 401.876 47.3690   6
   5  10 -15 123.436 41.2400   5
  10   5 -15 66.0077 31.2701   6
  10   5 -13 2179.05 122.675   6
  -5  10  13 1786.85 186.925   1
  10   5 -13 2051.22 133.632   5
   5  10 -13 2452.52 147.560   5
   5 -10  11 3738.89 289.253   3
  10   5 -11 4131.28 222.062   5
   5  10 -11 4085.31 225.139   5
   5 -10  11 3642.57 254.316   2
   5 -10   9 3253.52 269.214   3
  10   5  -9 3121.90 190.580   5
   5 -10   9 3028.37 214.504   2
   5 -10   7 7168.82 407.096   3
  10   5  -7 6723.95 294.009   5
   5  10  -7 6556.17 284.313   5
   5 -10   7 6009.87 323.434   2
   5 -10   5 12668.7 562.570   3
   5  10  -5 10752.5 427.003   5
  -5 -10  -5 12012.0 414.940   4
  10   5  -5 11488.3 435.680   5
   5 -10   5 10659.0 477.162   2
  10   5  -3 1069.78 73.7299   5
   5 -10   3 1017.55 120.844   3
   5 -10   3 911.147 95.5590   2
   5  10  -3 837.187 63.5769   5
   5 -10   1 12345.4 481.762   4
   5 -10   1 12908.0 508.093   2
  10  -5   1 12080.9 437.690   6
  -5 -10  -1 13318.9 492.923   2
  10   5  -1 12703.7 448.211   5
   5  10  -1 12546.3 440.221   5
  10  -5  -1 13789.4 499.525   6
   5 -10  -1 14759.9 539.039   4
  -5 -10   1 14558.6 551.870   2
   5  10   1 14261.9 496.641   5
   5 -10  -1 14120.0 566.931   2
   5 -10  -1 13655.4 585.363   3
   5 -10  -3 1046.05 66.3438   6
  10  -5  -3 1097.49 100.895   4
   5 -10  -3 949.146 104.369   3
   5 -10  -3 1131.16 89.0893   4
  10  -5  -3 1069.32 69.1411   6
  -5 -10   3 1073.05 96.8801   2
   5 -10  -5 11162.3 406.566   6
   5 -10  -5 11160.5 434.508   4
  10  -5  -5 11336.7 414.678   6
  -5 -10   5 10907.2 472.382   2
  -5 -10   7 6677.47 339.440   2
  10  -5  -7 6875.95 275.697   6
   5 -10  -7 6387.70 261.296   6
   5 -10  -9 3015.88 170.562   4
   5 -10  -9 3320.79 158.286   6
  10  -5  -9 3375.54 171.546   6
  10  -5 -11 4222.99 210.628   6
   5 -10 -11 4357.47 211.366   4
   5 -10 -11 4296.51 201.756   6
  10  -5 -13 2723.51 146.445   6
   5 -10 -13 2390.81 141.807   4
   5 -10 -13 2557.77 142.520   6
  10  -5 -15 30.6747 34.6101   6
   5 -10 -15 52.3677 31.0899   6
   5 -10 -17 524.678 49.7521   6
  10  -5 -17 450.735 50.8904   6
  -5  10 -19 279.068 37.0242   5
  -5  10 -21 2.49436 11.8411   5
  10  -5 -21 2.54418 12.3687   6
  10   6 -18-15.5202 20.9213   6
   6  10 -18 11.1152 19.7770   5
   6  10 -16 372.853 51.4537   5
  10   6 -16 306.730 43.2658   6
   6  10 -14 221.997 51.9217   5
  10   6 -14 236.442 41.1007   6
  10   6 -14 246.847 48.3688   5
  10   6 -12 1083.55 111.091   5
   6  10 -12 1729.79 126.732   5
   6 -10  10 992.106 160.425   3
   6  10 -10 1258.39 114.954   5
  10   6 -10 1219.54 125.362   5
   6 -10   8 1961.76 215.372   3
  10   6  -8 1964.48 143.990   5
   6 -10   8 1819.88 151.161   2
   6 -10   6 1151.53 155.868   3
  10   6  -6 1130.95 92.7690   5
   6 -10   6 1211.08 116.893   2
   6  10  -6 901.424 81.5704   5
   6 -10   4 7216.33 377.702   3
   6 -10   4 5751.19 300.710   2
  10   6  -4 6681.10 265.952   5
   6  10  -4 5970.56 253.727   5
  10  -6   2 5566.21 222.614   6
  -6 -10  -2 6306.55 267.326   2
   6 -10   2 5825.14 283.513   2
  10   6  -2 5325.91 228.885   5
   6  10  -2 5404.36 223.906   5
   6 -10   2 5633.12 320.222   3
   6 -10   0 3192.24 186.633   2
   6 -10   0 2226.71 158.517   4
  10  -6   0 2839.56 129.634   6
  -6 -10   0 2974.22 164.644   2
  10   6   0 2637.25 132.556   5
   6  10   0 3033.13 129.822   5
   6 -10   0 2551.60 192.588   3
   6 -10  -2 5474.58 217.260   6
  10  -6  -2 5280.26 217.957   6
   6 -10  -2 5597.40 261.605   4
  10   6   2 5631.19 224.473   5
   6  10   2 5703.53 215.439   5
  -6 -10   2 5359.70 258.951   2
  10  -6  -4 5669.56 282.226   4
   6 -10  -4 6070.79 273.306   4
   6 -10  -4 5933.14 237.250   6
  10  -6  -4 6138.26 242.826   6
  -6 -10   4 6074.09 292.047   2
  10  -6  -6 896.902 94.0543   4
   6 -10  -6 1052.68 91.2396   4
  -6 -10   6 927.631 104.159   2
  10  -6  -6 832.886 70.8288   6
   6 -10  -6 891.685 68.8332   6
  -6 -10   8 1633.62 154.476   2
  10  -6  -8 1724.05 112.521   6
   6 -10  -8 1915.22 107.685   6
   6 -10 -10 1180.89 89.6825   6
   6 -10 -10 1262.70 100.710   4
  10  -6 -10 1171.43 95.3249   6
   6 -10 -12 1835.18 122.784   4
  10  -6 -12 1827.34 121.710   6
   6 -10 -12 1930.58 120.873   6
  10  -6 -14 313.018 53.7458   6
   6 -10 -14 434.327 56.3092   6
   6 -10 -16 325.408 44.9779   6
   6 -10 -18 17.2746 22.1891   6
  -6  10 -20 73.8467 19.4474   5
  10  -6 -20 53.8292 18.5987   6
   7  10 -19 42.3323 15.6788   5
  10   7 -17 93.0412 28.0894   6
   7  10 -17 101.040 29.7979   5
  10   7 -15 110.687 32.2664   6
  10   7 -15 52.1035 31.5886   5
   7  10 -15 107.948 37.3668   5
   7  10 -13 142.885 52.3552   5
  10   7 -13 126.461 44.4081   5
   7  10 -11 510.942 78.9340   5
  10   7 -11 221.072 64.5965   5
   7 -10   9 1158.11 178.671   3
   7  10  -9 1029.93 106.415   5
  10   7  -9 1119.67 123.417   5
   7 -10   7 1623.82 203.146   3
  10   7  -7 1734.49 131.403   5
   7  10  -7 1612.62 117.395   5
   7 -10   5 950.639 104.927   2
   7 -10   5 1027.80 151.453   3
  10   7  -5 907.925 84.0746   5
   7  10  -5 960.748 78.9219   5
   7 -10   3 136.915 50.1927   2
   7 -10   3 206.695 70.6545   3
  10   7  -3 173.324 39.9138   5
   7  10  -3 237.877 38.9638   5
   7 -10   1 200.276 53.4020   2
  10  -7   1 274.782 38.6304   6
   7 -10   1 242.077 72.5274   3
  10   7  -1 228.318 39.5730   5
   7  10  -1 296.344 38.3034   5
   7 -10  -1 348.317 74.8862   3
  10  -7  -1 231.497 35.8174   6
   7 -10  -1 181.776 59.1129   4
  10   7   1 218.453 38.7572   5
   7  10   1 227.397 35.2087   5
  -7 -10   3 116.843 38.2202   2
  10  -7  -3 189.192 61.6366   4
  10  -7  -3 186.745 34.7129   6
   7 -10  -3 168.370 55.7927   4
  10   7   3 188.081 38.3607   5
   7  10   3 222.949 32.5642   5
   7 -10  -5 896.066 93.0308   4
  -7 -10   5 788.464 93.4365   2
  10  -7  -5 994.407 104.362   4
  10  -7  -5 805.881 67.1861   6
   7 -10  -5 899.197 66.6847   6
  -7 -10   7 1612.11 144.431   2
  10  -7  -7 1571.42 126.451   4
   7 -10  -7 1652.01 101.861   6
   7 -10  -7 1706.94 122.543   4
  10  -7  -7 1653.70 105.333   6
  10  -7  -9 1371.16 101.174   6
  -7 -10   9 1244.35 139.982   2
   7 -10  -9 1372.43 95.4230   6
  10  -7 -11 551.491 67.0049   6
   7 -10 -11 509.551 65.9931   6
   7 -10 -11 563.132 69.6082   4
  -7 -10  11 557.803 98.5572   2
  10  -7 -13 261.758 52.0868   6
   7 -10 -13 251.809 50.2701   4
   7 -10 -13 213.903 47.8038   6
   7 -10 -15 93.7398 35.6096   6
   7 -10 -17 79.5121 28.6315   6
  10  -7 -17 120.308 33.9745   6
  -7  10 -19 37.5199 21.0377   5
   7 -10 -19 31.1356 16.0410   6
  10  -7 -19 52.5695 21.4192   6
   8  10 -18 77.9157 19.6740   5
  10   8 -16 29.8172 24.4478   5
   8  10 -16-20.8742 26.8953   5
  10   8 -14 279.529 52.8413   5
   8  10 -14 441.948 62.0231   5
  10   8 -12 333.955 65.1848   5
   8  10 -12 819.010 91.1423   5
   8  10 -10 1269.31 120.033   5
  10   8 -10 1139.65 125.920   5
   8 -10   8 842.724 161.611   3
  10   8  -8 1057.54 108.732   5
   8 -10   6 287.962 108.685   3
  10   8  -6 209.196 55.9531   5
   8  10  -6 267.333 51.3492   5
   8  10  -4 1637.14 103.289   5
   8 -10   4 1794.03 197.226   3
   8 -10   2 1211.70 150.275   3
  10  -8   2 1360.35 82.6334   6
  10   8  -2 1038.68 80.8784   5
   8  10  -2 1051.29 76.2628   5
  10  -8   0 2146.79 106.515   6
   8 -10   0 2090.48 103.327   6
  10   8   0 2006.67 106.560   5
   8  10   0 2090.07 104.625   5
  10  -8  -2 1258.05 80.1254   6
   8 -10  -2 1045.44 74.2078   6
  10  -8  -2 1122.09 119.378   4
  10   8   2 1229.53 80.7496   5
   8 -10  -2 972.090 112.885   4
   8  10   2 1162.19 74.9457   5
  10  -8  -4 1765.85 144.192   4
   8 -10  -4 1559.31 135.896   4
   8  10   4 1686.38 94.9193   5
  10  -8  -4 1781.60 101.955   6
  10  -8  -6 265.338 65.9108   4
   8 -10  -6 278.065 63.1752   4
  10  -8  -6 305.543 48.4363   6
  10  -8  -8 1099.55 103.649   4
   8 -10  -8 1000.27 79.1022   6
   8 -10  -8 876.395 91.8477   4
  10  -8  -8 918.091 80.6259   6
   8 -10 -10 1447.06 100.898   6
  10  -8 -10 1325.94 100.249   6
   8 -10 -12 847.916 80.0241   6
  10  -8 -12 687.435 74.6534   6
   8 -10 -12 741.201 74.9093   4
   8 -10 -14 380.271 54.3201   6
   8 -10 -16 26.1756 27.9474   6
  10  -8 -16-18.2171 30.3667   6
   8 -10 -18 31.0638 20.1310   6
  10  -8 -18 95.4778 25.0370   6
  -8  10 -20 9.44658 11.3509   5
  10   9 -17 109.413 22.1340   5
   9  10 -17 139.898 25.8330   5
  10   9 -15 308.129 45.9105   5
   9  10 -15 280.056 44.5976   5
  10   9 -13 32.4186 37.5905   5
   9  10 -13 30.7989 38.0692   5
  10   9 -11 674.145 93.0837   5
   9  10 -11 728.645 95.7887   5
  10   9  -9 255.269 69.9769   5
   9  10  -9 371.983 73.7495   5
   9 -10   7 2360.61 273.493   3
  10   9  -7 3029.06 176.111   5
   9 -10   5 2299.03 263.357   3
   9  10  -5 3388.16 169.206   5
   9 -10   3 921.675 152.219   3
  10   9  -3 762.183 70.9783   5
   9  10  -3 918.923 74.2161   5
  10  -9   1 3041.41 148.889   6
   9 -10   1 3135.00 147.367   6
  10   9  -1 3061.94 150.413   5
   9  10  -1 3032.86 148.769   5
  10  -9  -1 3345.20 152.015   6
   9 -10  -1 3201.18 148.467   6
  10   9   1 3271.82 151.114   5
   9  10   1 3249.82 148.893   5
  10   9   3 1001.72 74.2734   5
  10  -9  -3 1047.39 76.8510   6
   9 -10  -3 890.431 71.0715   6
  10  -9  -3 964.528 120.503   4
   9 -10  -3 725.839 104.534   4
   9  10   3 1047.89 73.3071   5
  10  -9  -5 3325.98 214.343   4
   9 -10  -5 3571.27 213.602   4
  10  -9  -5 3635.21 169.938   6
   9 -10  -5 3393.92 165.648   6
   9 -10  -7 3261.61 192.682   4
  10  -9  -7 3023.23 159.404   6
  10  -9  -7 3233.91 196.568   4
  10  -9  -9 357.083 68.6211   4
  10  -9  -9 251.589 51.9611   6
   9 -10  -9 447.324 71.3018   4
   9 -10 -11 904.666 83.1098   6
   9 -10 -13 40.5471 37.3270   6
  10  -9 -15 344.112 45.9092   6
   9 -10 -15 315.749 45.5181   6
   9 -10 -17 127.595 29.3896   6
  10  -9 -17 154.838 30.1246   6
   9 -10 -19 18.5634 12.7840   6
  10  -9 -19 2.68011 13.1846   6
  10  10 -16 540.390 45.9920   5
  10  10 -14 940.504 79.1911   5
  10  10 -12 62.9257 46.5028   5
  10  10 -10 4752.78 256.365   5
  10  10  -8 3314.43 194.074   5
  10  10  -4 7557.10 313.778   5
  10 -10   2 7895.37 307.017   6
  10  10  -2 7355.03 305.667   5
  10 -10   0 14916.0 531.934   6
  10  10   0 14183.0 528.399   5
  10 -10  -2 8547.92 316.491   6
  10  10   2 8511.78 314.303   5
  10 -10  -4 5980.82 349.878   4
  10 -10  -4 8021.18 301.527   6
  10 -10  -6 163.059 42.9063   6
  10 -10  -6 75.8633 57.5163   4
  10 -10  -8 4384.48 235.226   4
  10 -10  -8 4075.21 199.972   6
  10 -10 -12 16.8733 37.5317   6
  10 -10 -14 874.432 72.0194   6
  10 -10 -16 634.689 53.3021   6
  10 -10 -18 24.1612 16.3959   6
   0 -11  -1 4565.50 242.469   3
   0 -11   1 4818.12 252.386   3
   0 -11  -1 4406.04 193.537   4
   0 -11  -1 4655.52 240.718   2
   0 -11   1 4724.19 242.679   2
   0 -11  -3-13.4691 32.3625   2
   0 -11  -3 12.1872 29.2836   3
   0 -11   3 49.0102 44.5046   3
   0 -11  -3 44.2187 29.0002   4
   0 -11  -5 6760.97 266.879   4
   0 -11   5 5804.19 333.253   3
   0  11  -5 6746.09 273.061   5
   0 -11  -5 6678.76 303.315   3
   0 -11  -7 3044.31 146.895   4
   0  11  -7 2932.63 160.174   5
   0 -11   7 2647.29 200.931   2
   0 -11   9 3164.88 228.139   2
  11   0  -9 3006.41 157.481   6
   0 -11  -9 3292.13 158.450   4
   0  11  -9 3008.82 172.958   5
   0  11 -11 255.235 61.2428   5
   0 -11  11 310.659 86.7417   2
  11   0 -11 238.877 49.3200   6
   0 -11 -11 189.053 43.5234   4
   0  11 -13 220.123 54.6880   5
   0 -11  13 317.194 87.9175   2
  11   0 -13 249.964 46.6769   6
   0 -11 -13 170.650 38.8330   4
  11   0 -15 931.214 78.1680   6
   0  11 -17 144.374 38.3942   5
  11   0 -17 226.811 38.0012   6
  11   0 -19 376.415 42.1885   6
   0  11 -19 549.927 46.9006   5
   0  11 -21 63.1754 14.8301   5
  11   0 -21 39.0402 15.5877   6
   1  11 -20 112.434 22.5634   5
  11   1 -20 95.6190 22.6528   6
   1  11 -18 83.3667 30.2075   5
  11   1 -18 46.5645 27.3349   6
   1  11 -16 56.7102 35.9231   5
  11   1 -16 35.9304 29.6934   6
  11   1 -14 2292.09 129.547   6
   1  11 -12 288.206 62.6126   5
   1 -11  12 271.143 86.0253   2
   1 -11  12 188.171 78.2614   3
  11   1 -12 240.430 46.0382   6
  -1 -11 -12 277.526 44.9275   4
   1 -11  10 3141.65 244.214   2
   1 -11  10 3068.37 251.956   3
  -1 -11 -10 3550.04 166.693   4
  11   1 -10 3567.05 172.319   6
   1  11 -10 3627.00 195.530   5
   1  11  -8 558.408 72.0853   5
  -1 -11  -8 701.082 62.9675   4
   1 -11   8 512.036 102.647   3
   1 -11   8 661.613 102.550   2
   1  11  -6 383.135 53.2176   5
   1 -11   6 306.745 71.4425   2
  -1 -11  -6 321.462 46.1693   4
   1 -11   4 5414.97 300.185   3
  -1 -11  -4 5391.46 226.105   4
  11   1  -4 5483.33 228.809   5
   1 -11   4 5738.93 286.714   2
   1  11  -4 5698.91 230.825   5
  -1 -11  -4 5419.75 259.244   3
  -1 -11  -2 4624.29 236.128   3
   1 -11   2 4788.27 260.435   3
  -1 -11  -2 4540.85 240.015   2
  -1 -11  -2 4629.82 196.525   4
  11   1  -2 4719.66 199.775   5
   1 -11   0 15739.1 617.254   3
  -1 -11   0 15524.0 603.078   3
   1 -11   0 14679.1 544.358   4
  -1 -11   0 15549.1 598.466   2
   1 -11  -2 4670.54 242.801   3
   1 -11  -2 4521.52 197.784   4
  -1 -11   2 4468.98 240.501   2
  -1 -11   2 5032.42 258.718   3
   1 -11  -4 5129.95 218.718   4
   1 -11  -4 5050.62 200.143   6
  -1  11  -4 5372.69 220.074   5
  -1 -11   4 5254.65 271.281   2
   1 -11  -4 5415.04 264.517   3
  -1 -11   6 482.356 81.4052   2
   1 -11  -6 508.828 55.2230   4
  11  -1  -8 449.171 57.2129   6
   1 -11  -8 537.244 59.8857   4
  11  -1 -10 3789.58 181.905   6
   1 -11 -10 3502.73 176.928   4
  -1 -11  12 246.083 84.0446   2
  11  -1 -12 195.531 47.7689   6
   1 -11 -12 261.864 48.0216   4
   1 -11 -14 2146.64 121.983   4
  11  -1 -14 2343.78 129.892   6
  -1  11 -16 82.0209 35.9374   5
  11  -1 -16 92.6668 36.6297   6
  -1  11 -18 54.8971 30.4654   5
  11  -1 -18 21.1955 25.4844   6
  -1  11 -20 87.5402 23.0823   5
  11  -1 -20 70.5975 21.6514   6
  11   2 -21 54.1262 15.1614   6
   2  11 -19 341.758 37.5137   5
  11   2 -19 310.312 36.8301   6
   2  11 -17 51.0368 29.9620   5
  11   2 -17 54.3885 27.7234   6
   2  11 -15 271.134 52.8650   5
  11   2 -15 331.710 48.7583   6
   2 -11  13 697.319 116.414   2
   2 -11  13 712.160 109.714   3
  11   2 -13 589.186 62.5416   6
   2 -11  11 2518.60 226.129   3
   2 -11  11 2575.92 217.088   2
  11   2 -11 2653.40 142.207   6
   2  11 -11 2922.26 172.235   5
   2  11  -9 742.231 84.5967   5
   2 -11   9 862.652 117.406   2
  -2 -11  -9 746.550 65.2795   4
   2 -11   9 723.518 119.873   3
   2  11  -7 541.326 67.3041   5
   2 -11   7 661.969 107.138   3
   2 -11   7 503.586 88.0496   2
  -2 -11  -7 527.039 53.5762   4
  11   2  -7 539.902 60.0023   5
  -2 -11  -5 8857.62 343.782   4
  11   2  -5 9254.48 352.612   5
   2  11  -5 9077.94 355.197   5
   2 -11   5 9557.59 419.354   2
  -2 -11  -3 2014.63 132.401   3
  -2 -11  -3 1994.78 142.530   2
  -2 -11  -3 2081.45 108.311   4
   2 -11   3 1925.32 114.020   4
  11   2  -3 1935.81 109.183   5
   2 -11   3 2061.76 152.398   2
   2  11  -3 2187.95 108.440   5
   2 -11   3 1900.82 157.525   3
   2 -11   1 4250.66 242.094   3
  -2 -11  -1 4327.02 220.135   3
  -2 -11  -1 3918.87 216.645   2
   2 -11   1 3767.77 180.690   4
   2 -11   1 4088.88 225.400   2
  11   2  -1 4227.60 180.649   5
   2 -11  -1 4835.02 255.424   3
   2 -11  -1 4770.74 205.733   4
  -2 -11   1 4705.79 250.228   3
  -2 -11   1 4677.74 242.405   2
   2 -11  -1 4609.70 248.220   2
   2 -11  -3 2217.84 102.569   6
   2 -11  -3 2114.53 117.996   4
  -2 -11   3 2177.62 152.954   2
   2 -11  -3 2352.08 158.313   3
   2 -11  -5 8600.96 313.738   6
   2 -11  -5 8238.20 330.994   4
  -2 -11   5 8623.93 393.073   2
  -2 -11   7 289.872 72.0232   2
  11  -2  -7 279.136 48.7654   6
   2 -11  -7 305.520 36.9891   6
   2 -11  -7 302.778 48.5428   4
   2 -11  -9 690.108 68.7170   4
  -2 -11   9 711.544 111.184   2
  11  -2  -9 744.070 75.0657   6
   2 -11  -9 658.790 58.5985   6
  -2 -11  11 2773.54 233.152   2
   2 -11 -11 3207.08 167.787   4
  11  -2 -11 3219.21 166.890   6
   2 -11 -13 729.603 69.8794   4
  11  -2 -13 621.686 67.1169   6
  11  -2 -15 235.655 45.8481   6
   2 -11 -15 227.711 39.0146   4
  -2  11 -17 42.6242 30.9571   5
  11  -2 -17 24.5533 28.4394   6
  -2  11 -19 334.344 41.2947   5
  11  -2 -19 356.705 38.7939   6
  -2  11 -21 50.4007 14.3104   5
  11  -2 -21 72.3892 16.8486   6
  11   3 -20 1.54256 15.5132   6
   3  11 -20 7.31642 14.7958   5
   3  11 -18 321.774 40.1819   5
  11   3 -18 218.258 35.5256   6
   3  11 -16 171.392 41.2300   5
  11   3 -16 176.276 35.0752   6
   3  11 -14 100.666 43.0427   5
  11   3 -14 106.069 33.6312   6
  11   3 -12 741.600 66.9374   6
   3 -11  12 517.514 107.403   2
   3 -11  12 719.942 116.989   3
   3 -11  10 1613.36 185.200   3
   3 -11  10 1469.62 161.488   2
   3  11 -10 1744.76 131.304   5
   3 -11   8 1156.58 131.460   2
  -3 -11  -8 1142.98 76.6852   4
   3 -11   8 1054.49 145.815   3
  11   3  -8 1140.30 93.8432   5
   3  11  -8 1065.78 96.9785   5
   3 -11   6 2328.28 196.602   3
  -3 -11  -6 2331.95 118.444   4
  11   3  -6 2240.53 129.646   5
   3  11  -6 2275.61 131.868   5
   3 -11   6 2402.19 175.675   2
   3 -11   4 4908.24 299.557   3
   3 -11   4 5460.53 241.753   4
  11   3  -4 5315.39 232.410   5
   3 -11   4 6052.99 294.333   2
   3  11  -4 5608.34 230.469   5
  -3 -11  -4 5692.52 226.484   4
   3 -11   2 3875.65 242.144   3
  -3 -11  -2 4147.62 210.233   3
   3 -11   2 4240.19 232.674   2
   3 -11   2 3838.70 186.329   4
  -3 -11  -2 3716.50 212.744   2
  11   3  -2 4175.23 179.959   5
   3  11  -2 4073.44 170.539   5
   3 -11   0 8324.80 398.465   3
  -3 -11   0 8761.41 379.247   3
   3 -11   0 8357.30 340.068   4
   3 -11   0 8808.72 391.464   2
  -3 -11   0 8938.44 379.979   2
  11   3   0 8855.30 333.302   5
   3 -11  -2 3414.81 166.611   4
   3 -11  -2 3781.29 213.328   2
  -3 -11   2 3415.55 195.926   2
   3 -11  -2 3442.40 211.972   3
  11  -3  -4 5330.28 223.860   6
   3 -11  -4 5538.17 233.348   4
   3 -11  -4 5314.94 211.356   6
  -3 -11   4 5191.86 272.373   2
   3 -11  -4 5512.68 280.696   3
   3 -11  -6 2625.59 122.581   6
   3 -11  -6 2415.49 137.768   4
  11  -3  -6 2790.46 140.941   6
  -3 -11   6 2472.08 184.207   2
  -3 -11   8 1171.57 129.588   2
   3 -11  -8 1027.00 87.5602   4
  11  -3  -8 1239.66 95.3223   6
   3 -11  -8 1169.93 76.9796   6
  -3 -11  10 1479.47 161.751   2
  11  -3 -10 1699.12 117.475   6
   3 -11 -10 1724.16 104.460   6
   3 -11 -10 1923.14 120.864   4
  11  -3 -12 759.804 75.2778   6
   3 -11 -12 828.503 71.7830   6
  -3 -11  12 661.786 114.232   2
   3 -11 -12 674.492 72.1779   4
  11  -3 -14 119.732 39.4273   6
   3 -11 -14 108.856 32.2850   6
   3 -11 -14 114.876 37.6288   4
  11  -3 -16 235.479 42.2734   6
  -3  11 -18 318.520 43.2492   5
  11  -3 -18 312.289 40.7115   6
  -3  11 -20 10.4200 16.9866   5
  11  -3 -20 9.93984 16.9324   6
  11   4 -19 308.762 32.7788   6
   4  11 -19 289.504 33.0566   5
   4  11 -17 202.447 36.8329   5
  11   4 -17 150.831 32.9771   6
   4  11 -15 136.371 38.8006   5
  11   4 -15 138.570 35.2294   6
  11   4 -13 2245.53 124.417   6
   4  11 -13 2274.92 141.752   5
   4 -11  11 1049.74 136.959   2
   4 -11  11 1386.36 168.273   3
   4  11  -9 254.255 60.7370   5
   4 -11   9 129.658 74.3595   3
  11   4  -9 222.123 60.1636   5
   4 -11   9 287.079 75.9629   2
  -4 -11  -7 8700.60 327.017   4
  11   4  -7 8805.81 358.194   5
   4 -11   7 8200.92 450.856   3
   4  11  -7 8252.81 349.439   5
   4 -11   7 8771.68 419.490   2
  -4 -11  -5 11810.8 425.052   4
   4 -11   5 12286.4 553.073   3
  11   4  -5 11340.3 440.819   5
   4 -11   5 11467.6 501.467   2
   4  11  -5 11406.4 436.281   5
   4 -11   3 3005.88 216.616   3
   4 -11   3 3172.58 168.192   4
   4 -11   3 3394.28 204.345   2
  11   4  -3 3217.46 152.488   5
   4  11  -3 2905.36 142.235   5
   4 -11   1 11814.0 529.905   3
  -4 -11  -1 12374.7 492.077   3
   4 -11   1 12269.8 474.005   4
  -4 -11  -1 12807.4 506.266   2
   4 -11   1 12834.0 520.988   2
  11   4  -1 12545.1 455.678   5
   4  11  -1 12308.0 443.545   5
  -4 -11   1 12456.2 513.834   3
   4 -11  -1 12412.3 480.566   4
   4 -11  -1 12889.5 528.260   2
  11   4   1 13048.6 466.402   5
  -4 -11   1 12540.0 514.604   2
   4 -11  -1 12897.5 540.923   3
  11  -4  -3 3751.26 159.875   6
   4 -11  -3 3424.35 150.382   6
   4 -11  -3 3420.51 172.656   4
  -4 -11   3 3509.30 202.505   2
   4 -11  -3 3058.75 207.822   3
   4 -11  -5 11902.4 425.802   6
   4 -11  -5 11507.5 448.653   4
  11  -4  -5 11521.7 437.870   6
  -4 -11   5 12277.8 508.597   2
  -4 -11   7 7115.67 370.345   2
  11  -4  -7 7706.30 305.775   6
   4 -11  -7 7354.69 286.748   6
   4 -11  -7 7001.57 303.895   4
  -4 -11   9 142.162 65.0756   2
  11  -4  -9 173.652 51.6544   6
   4 -11  -9 168.386 42.2630   6
   4 -11  -9 159.966 49.1565   4
   4 -11 -11 1320.08 94.7019   6
   4 -11 -11 1435.23 104.589   4
  -4 -11  11 1139.39 145.885   2
  11  -4 -11 1368.23 104.356   6
  11  -4 -13 2169.22 130.871   6
   4 -11 -13 2139.29 124.838   6
   4 -11 -13 2223.50 130.899   4
  11  -4 -15 154.883 42.5097   6
   4 -11 -15 90.2507 30.4763   6
  11  -4 -17 244.277 38.2465   6
  -4  11 -19 315.045 37.0687   5
  11  -4 -19 263.324 33.1190   6
  11   5 -18 109.556 25.2330   6
   5  11 -18 65.7520 23.0337   5
  11   5 -16 927.487 69.2247   6
   5  11 -16 1020.43 76.9716   5
  11   5 -14 803.416 69.2612   6
   5  11 -14 1004.79 86.6583   5
   5  11 -12 578.342 78.2819   5
  11   5 -12 520.750 69.8125   5
   5 -11  10 5644.29 371.827   3
  11   5 -10 5249.22 265.760   5
   5 -11  10 4597.26 294.165   2
   5 -11   8 5062.61 346.339   3
  11   5  -8 4676.32 240.659   5
   5  11  -8 4417.87 225.370   5
   5 -11   8 4713.06 275.115   2
   5 -11   6 744.870 99.8533   2
   5 -11   6 1124.20 147.739   3
  -5 -11  -6 919.589 66.2974   4
  11   5  -6 982.070 88.6338   5
   5  11  -6 837.038 77.1757   5
   5 -11   4 17095.6 697.928   3
   5 -11   4 15963.5 639.380   2
  11   5  -4 15601.1 571.995   5
   5  11  -4 15137.2 563.345   5
   5 -11   2 14861.6 647.149   3
   5 -11   2 14896.8 581.687   4
  -5 -11  -2 15434.4 597.360   2
   5 -11   2 16488.0 623.130   2
  11   5  -2 14950.8 549.593   5
   5  11  -2 15156.6 540.825   5
   5 -11   0 699.776 88.2235   2
  -5 -11   0 595.876 75.6675   2
   5 -11   0 555.271 88.0314   3
  -5 -11   0 718.204 77.7702   3
  11   5   0 635.751 59.4600   5
   5  11   0 610.335 49.5805   5
   5 -11   0 542.105 72.9089   4
  11  -5  -2 14955.2 533.823   6
   5 -11  -2 15539.7 530.091   6
   5 -11  -2 15490.2 567.401   4
  11   5   2 13592.8 535.813   5
  -5 -11   2 15624.5 594.724   2
   5 -11  -2 15062.2 625.740   3
  11  -5  -4 16261.7 583.108   6
   5 -11  -4 16400.5 575.314   6
   5 -11  -4 16145.5 606.870   4
  -5 -11   4 16298.4 647.654   2
  11  -5  -6 985.942 76.4903   6
  -5 -11   6 691.023 96.2201   2
   5 -11  -6 716.563 61.4495   6
   5 -11  -6 828.779 83.3534   4
  -5 -11   8 4293.54 272.967   2
  11  -5  -8 4434.47 208.812   6
   5 -11  -8 4365.65 194.903   6
  -5 -11  10 4518.28 300.027   2
   5 -11 -10 4938.56 220.548   6
   5 -11 -10 4926.71 236.251   4
  11  -5 -10 5162.64 237.028   6
  -5 -11  12 283.275 82.8815   2
  11  -5 -12 568.607 66.8791   6
   5 -11 -12 357.622 55.2338   6
   5 -11 -12 511.842 65.2920   4
  11  -5 -14 1005.38 81.8150   6
   5 -11 -14 957.560 77.6302   6
   5 -11 -14 911.347 79.8503   4
  11  -5 -16 988.235 73.5043   6
   5 -11 -16 893.788 66.8350   6
  11  -5 -18 83.3391 27.5947   6
  -5  11 -20 160.454 24.1050   5
  11  -5 -20 109.350 20.7374   6
   6  11 -19 248.082 25.9707   5
  11   6 -17 204.489 29.7446   6
   6  11 -17 177.884 32.6889   5
   6  11 -15 148.420 40.5854   5
  11   6 -13 1092.06 94.1181   5
   6  11 -13 1128.84 95.3551   5
  11   6 -11 1932.46 148.774   5
   6  11 -11 2049.80 144.155   5
   6  11  -9 629.245 80.7631   5
   6 -11   9 610.393 127.188   3
  11   6  -9 548.021 89.7657   5
   6 -11   7 4300.12 314.667   3
  11   6  -7 3988.12 210.598   5
   6  11  -7 3450.76 188.643   5
   6 -11   7 3566.91 235.527   2
   6 -11   5 4678.15 315.040   3
  -6 -11  -5 4338.20 183.035   4
   6 -11   5 4250.19 251.489   2
  11   6  -5 4131.22 206.578   5
   6  11  -5 4262.72 198.414   5
   6 -11   3 119.109 65.0896   3
   6 -11   3 137.504 53.2048   2
  11   6  -3 223.013 45.2303   5
   6  11  -3 137.411 34.2511   5
  11  -6   1 4918.85 202.489   6
   6 -11   1 4301.93 242.856   4
   6 -11   1 4955.41 264.389   2
  -6 -11  -1 4942.02 245.061   2
  11   6  -1 4513.66 205.399   5
   6  11  -1 4891.08 199.930   5
   6 -11   1 5053.94 293.237   3
  11  -6  -1 4954.62 207.203   6
   6 -11  -1 4746.82 247.300   4
  -6 -11   1 5256.90 256.137   2
  11   6   1 4881.70 211.844   5
   6  11   1 4883.37 201.064   5
   6 -11  -1 5081.83 204.973   6
  11  -6  -3 133.520 34.2144   6
   6 -11  -3 164.743 33.2543   6
   6 -11  -3 166.168 56.8312   4
  -6 -11   3 178.076 46.8157   2
   6 -11  -5 4179.07 186.961   6
   6 -11  -5 4646.40 223.992   4
  11  -6  -5 4440.22 196.533   6
  -6 -11   5 4034.02 243.878   2
   6 -11  -7 3312.60 183.917   4
  11  -6  -7 3145.61 165.767   6
   6 -11  -7 3483.71 160.890   6
  -6 -11   7 3391.77 228.302   2
  -6 -11   9 464.277 94.0236   2
  11  -6  -9 615.154 70.7882   6
   6 -11  -9 643.091 63.5516   6
  -6 -11  11 2554.20 210.676   2
   6 -11 -11 2455.61 139.731   6
   6 -11 -11 2556.09 152.013   4
  11  -6 -11 2398.13 145.100   6
  11  -6 -13 1060.97 90.0608   6
   6 -11 -13 1270.83 91.9601   6
   6 -11 -13 1264.85 93.5757   4
  11  -6 -15 63.0224 33.6872   6
   6 -11 -15 44.8513 28.5519   6
  11  -6 -17 171.325 35.2352   6
   6 -11 -17 232.484 32.9517   6
   7  11 -18 18.7733 17.0802   5
   7  11 -16 110.604 31.9171   5
  11   7 -14 145.617 41.9445   5
   7  11 -14 315.000 52.4951   5
   7  11 -12 473.411 69.5068   5
  11   7 -12 105.199 45.2071   5
  11   7 -10 569.657 94.5616   5
   7  11  -8 10.7630 46.5272   5
   7 -11   8-53.7713 93.9607   3
  11   7  -8 14.6868 60.1326   5
   7 -11   6 117.093 82.2704   3
  11   7  -6 11.1818 46.1731   5
   7  11  -6 43.8862 39.8683   5
   7 -11   4 113.258 46.7166   2
   7 -11   4 175.671 85.5336   3
  11  -7   4 94.1546 33.7009   6
  11   7  -4 108.776 41.9668   5
   7  11  -4 122.142 37.8384   5
   7 -11   2 855.150 100.846   2
  11  -7   2 917.506 69.4277   6
   7 -11   2 904.002 129.474   3
   7  11  -2 851.281 67.2860   5
  11  -7   0 1597.24 94.6041   6
  11   7   0 1765.49 101.803   5
   7  11   0 1650.38 92.3824   5
   7 -11   0 1729.82 164.919   3
  11  -7  -2 993.782 72.1725   6
   7 -11  -2 940.639 69.4694   6
  11   7   2 945.674 74.1364   5
   7  11   2 966.529 66.1068   5
   7 -11  -2 909.450 106.801   4
  -7 -11   4 285.632 57.5585   2
  11  -7  -4 440.790 81.2652   4
  11  -7  -4 361.919 47.7882   6
   7 -11  -4 294.054 43.2009   6
   7 -11  -4 377.019 71.7309   4
  11  -7  -6 87.2085 39.6213   6
   7 -11  -6 57.1182 32.1755   6
   7 -11  -6 120.681 55.5613   4
  -7 -11   6 43.3980 45.5587   2
  -7 -11   8 61.4617 48.0702   2
  11  -7  -8 72.4892 40.7767   6
   7 -11  -8 48.1885 33.4894   6
   7 -11  -8 65.6229 43.7091   4
  -7 -11  10 477.596 91.3845   2
  11  -7 -10 740.670 77.4192   6
   7 -11 -10 583.253 64.9091   6
  11  -7 -12 434.199 58.7194   6
   7 -11 -12 373.514 56.2881   6
   7 -11 -12 325.493 55.7363   4
  11  -7 -14 220.627 42.9122   6
   7 -11 -14 251.909 46.8378   6
  11  -7 -16 105.500 31.2727   6
   7 -11 -16 133.754 32.2128   6
   7 -11 -18 36.8000 18.1766   6
  -7  11 -18 32.1565 21.4153   5
   8  11 -17 139.770 26.7861   5
  11   8 -15 123.217 32.0580   5
   8  11 -15 121.990 36.3096   5
  11   8 -13 69.4714 41.2057   5
   8  11 -13 33.3985 39.7396   5
  11   8 -11 138.285 51.5362   5
   8  11 -11 444.297 72.4653   5
  11   8  -9 270.563 76.4271   5
   8 -11   7 995.480 165.878   3
  11   8  -7 907.738 101.135   5
   8  11  -7 726.142 81.1265   5
  11   8  -5 2238.20 140.163   5
   8  11  -5 2018.16 125.535   5
   8 -11   5 2256.77 236.253   3
  11  -8   3 3180.10 155.700   6
   8  11  -3 2951.22 149.034   5
  11  -8   1 1624.78 101.457   6
  11   8  -1 1716.34 105.213   5
   8  11  -1 1569.43 95.9521   5
   8 -11   1 1699.39 178.404   3
  11  -8  -1 1333.45 87.3829   6
   8 -11  -1 1640.19 91.4508   6
  11   8   1 1395.32 90.0234   5
   8  11   1 1589.81 87.9035   5
  11  -8  -3 2898.71 205.225   4
  11  -8  -3 2868.65 147.040   6
   8  11   3 3190.68 143.978   5
   8 -11  -3 2976.64 201.893   4
  11  -8  -5 3035.77 194.622   4
  11  -8  -5 2718.28 142.764   6
   8 -11  -5 2663.32 181.846   4
   8 -11  -5 2552.87 137.040   6
  11  -8  -7 1064.04 86.5184   6
   8 -11  -7 1193.70 110.193   4
   8 -11  -7 1269.15 89.6266   6
  11  -8  -9 330.105 56.2138   6
   8 -11  -9 293.415 50.0730   6
   8 -11  -9 287.561 61.3329   4
  11  -8 -11 388.271 57.5251   6
   8 -11 -11 291.452 55.5824   6
  11  -8 -13 31.7965 34.6281   6
   8 -11 -13 27.3482 34.7704   6
   8 -11 -15 193.432 37.0823   6
   8 -11 -17 110.641 26.2927   6
  11  -8 -19 75.4312 17.1692   6
  11   9 -16 154.121 26.0555   5
   9  11 -16 164.470 30.5421   5
  11   9 -14 479.643 58.9836   5
   9  11 -14 608.978 61.9737   5
  11   9 -12 54.0078 45.3858   5
   9  11 -12 21.0818 45.2471   5
  11   9 -10 1896.62 156.343   5
   9  11 -10 2013.39 148.577   5
  11   9  -8 1325.99 126.682   5
   9  11  -6 936.291 87.0456   5
  11   9  -6 817.729 90.1158   5
   9 -11   4 352.627 111.396   3
  11  -9   4 548.291 63.1757   6
   9  11  -4 559.032 64.4296   5
  11  -9   2 2744.32 145.264   6
   9 -11   2 2776.67 140.637   6
  11   9  -2 2812.37 146.947   5
   9  11  -2 2793.26 142.660   5
  11  -9   0 11439.7 419.184   6
   9 -11   0 10964.8 413.011   6
  11   9   0 10508.7 413.939   5
   9  11   0 11084.2 412.266   5
  11  -9  -2 3297.48 127.725   6
   9 -11  -2 3096.52 119.747   6
  11   9   2 3246.98 125.389   5
  11  -9  -4 689.218 67.3324   6
   9 -11  -4 661.161 64.3810   6
  11  -9  -4 642.320 99.4830   4
   9 -11  -4 558.566 93.7773   4
  11  -9  -6 736.038 103.399   4
   9 -11  -6 877.413 105.241   4
  11  -9  -6 853.011 75.7265   6
   9 -11  -8 1888.02 139.315   4
  11  -9  -8 1843.99 120.141   6
   9 -11  -8 1797.23 115.956   6
   9 -11 -10 2207.04 142.903   4
  11  -9 -10 2290.61 137.650   6
   9 -11 -10 2093.23 128.747   6
  11  -9 -12 62.5272 41.3090   6
   9 -11 -12 95.2980 43.0799   6
   9 -11 -14 576.419 59.4674   6
   9 -11 -16 237.198 34.5439   6
  -9  11 -18 25.4374 16.2415   5
  11  -9 -18 3.06769 16.4921   6
   9 -11 -18 29.9959 14.6632   6
  10  11 -17 271.154 25.1079   5
  11  10 -15 513.781 47.5430   5
  10  11 -15 458.590 45.8622   5
  11  10 -13 882.818 79.8252   5
  10  11 -13 921.051 80.1874   5
  11  10 -11 1807.20 138.402   5
  10  11 -11 2161.27 144.021   5
  11  10  -9 440.111 76.8286   5
  10  11  -9 398.224 71.3750   5
  11  10  -7 4030.16 216.477   5
  11 -10   5 9835.22 385.551   6
  10  11  -5 9268.27 383.802   5
  11 -10   3 1499.49 101.329   6
  10 -11   3 1473.25 97.7436   6
  11  10  -3 1479.03 101.475   5
  10  11  -3 1375.80 97.2091   5
  11 -10   1 8948.25 349.749   6
  10 -11   1 8809.36 345.919   6
  11  10  -1 8573.21 345.601   5
  10  11  -1 8861.10 344.929   5
  11 -10  -1 8029.38 322.694   6
  10 -11  -1 7999.65 319.913   6
  11  10   1 8040.73 320.475   5
  10  11   1 8190.14 319.688   5
  10 -11  -3 1379.39 85.5157   6
  11 -10  -3 1469.54 87.3884   6
  10  11   3 1620.82 86.3737   5
  10 -11  -5 10521.9 381.080   6
  10 -11  -5 9098.62 436.914   4
  11 -10  -5 9763.16 378.860   6
  11 -10  -7 4580.02 259.055   4
  10 -11  -7 4583.08 256.058   4
  11 -10  -7 5079.80 223.678   6
  11 -10  -9 376.859 56.4390   6
  10 -11  -9 362.592 68.2706   4
  11 -10 -11 2182.55 133.540   6
  10 -11 -11 2386.50 138.807   6
  10 -11 -13 929.442 75.1462   6
  11 -10 -15 533.681 50.7102   6
  10 -11 -15 516.793 50.3713   6
  10 -11 -17 338.035 32.2116   6
  11 -10 -17 303.162 32.1694   6
  11  11 -16 516.457 36.8774   5
  11  11 -14 1680.11 95.5701   5
  11  11 -12 13.4206 38.1063   5
  11  11 -10 2776.02 173.701   5
  11  11  -8 2618.29 165.214   5
  11 -11   6 545.061 65.9674   6
  11  11  -4 6815.60 301.781   5
  11 -11   4 7574.84 304.303   6
  11 -11   2 5050.85 219.489   6
  11  11  -2 4537.22 214.122   5
  11 -11   0 9209.31 360.260   6
  11  11   0 9077.20 356.122   5
  11 -11  -2 5597.15 245.263   6
  11  11   2 5838.74 244.110   5
  11 -11  -4 7266.54 187.822   6
  11 -11  -4 109.588 62.8979   4
  11 -11  -6 271.114 72.1506   4
  11 -11  -6 469.534 59.5513   6
  11 -11  -8 2801.46 151.954   6
  11 -11 -14 1589.75 91.5215   6
  11 -11 -16 572.962 44.0619   6
   0 -12   0 34865.7 1219.42   3
   0 -12   0 32491.7 1130.37   4
   0 -12   0 32714.0 1197.09   2
   0 -12  -2 1594.51 131.401   3
   0 -12   2 1847.59 150.550   3
   0 -12  -2 1500.27 130.470   2
   0 -12   2 1674.57 139.277   2
   0 -12  -4 584.240 77.3811   3
   0 -12  -4 657.570 62.9230   4
   0  12  -4 743.957 64.9528   5
   0 -12   4 479.520 88.2382   3
   0 -12  -6 7611.63 306.519   4
   0 -12   6 7507.34 402.077   3
   0  12  -6 7699.96 316.884   5
   0 -12   8 372.575 84.4095   2
   0  12  -8 372.212 62.3654   5
   0 -12  -8 300.258 49.5709   4
   0 -12  10 1118.12 143.383   2
   0 -12  10 836.951 134.583   3
  12   0 -10 1113.70 87.1390   6
   0  12 -10 1168.41 105.851   5
   0 -12 -10 1043.26 85.1483   4
   0  12 -12 238.343 54.3875   5
   0 -12  12 67.0287 58.2170   2
   0 -12  12 184.009 73.1297   3
  12   0 -12 222.224 43.8052   6
   0 -12 -12 141.755 37.6627   4
   0  12 -14 886.525 82.5052   5
  12   0 -14 782.147 70.5861   6
  12   0 -16 38.9463 26.6825   6
   0  12 -18 287.548 38.6344   5
  12   0 -18 233.861 34.2269   6
   0  12 -20 31.7785 16.4926   5
  12   0 -20 39.2764 15.0058   6
   1  12 -19 377.371 37.4090   5
  12   1 -19 351.411 34.9122   6
   1  12 -17 79.8590 32.9389   5
  12   1 -17 91.9218 29.5824   6
  12   1 -15 243.015 42.2148   6
  12   1 -13 715.111 67.6383   6
   1  12 -13 841.292 82.4684   5
  12   1 -11 2836.50 147.417   6
   1 -12  11 2693.11 240.888   3
   1  12 -11 2871.57 169.896   5
  -1 -12 -11 2683.31 144.814   4
   1 -12  11 3300.00 247.351   2
   1  12  -9 496.684 75.4524   5
   1 -12   9 672.774 111.128   2
   1 -12   9 463.017 103.385   3
  -1 -12  -9 521.359 59.0892   4
  -1 -12  -7 1036.13 78.8388   4
   1 -12   7 906.352 133.066   3
   1 -12   7 1060.54 126.808   2
   1  12  -7 952.328 89.2274   5
   1 -12   5 12726.1 595.740   3
  -1 -12  -5 13432.4 489.138   4
  12   1  -5 12791.6 490.854   5
   1 -12   5 13116.1 567.044   2
   1  12  -5 13903.3 497.600   5
   1 -12   3 4780.50 278.620   3
  -1 -12  -3 4767.92 203.412   4
   1 -12   3 4270.10 253.700   2
  -1 -12  -3 4487.75 240.232   3
  -1 -12  -1 12025.1 493.227   3
   1 -12   1 12497.3 522.079   3
   1 -12   1 11350.6 433.775   4
  -1 -12  -1 11000.5 485.166   2
   1 -12  -1 11396.9 484.736   3
   1 -12  -1 11101.8 418.522   4
  -1 -12   1 10464.6 471.610   2
  -1 -12   1 11588.4 489.146   3
  -1 -12   3 5400.43 291.794   3
   1 -12  -3 4800.05 195.851   6
  -1 -12   3 5315.14 271.483   2
   1 -12  -3 5168.34 265.868   3
  -1 -12   5 12928.4 582.810   3
   1 -12  -5 12763.0 489.965   4
  -1 -12   5 13328.9 566.638   2
  -1  12  -5 13809.3 495.597   5
  -1 -12   7 828.710 113.625   2
   1 -12  -7 808.177 73.8346   4
  -1  12  -7 727.796 76.8197   5
  -1  12  -9 374.680 69.2622   5
  12  -1  -9 534.265 63.1057   6
   1 -12  -9 450.342 57.7238   4
  12  -1 -11 3236.11 166.168   6
   1 -12 -11 3181.17 168.589   4
  -1  12 -11 3398.15 183.071   5
  12  -1 -13 745.537 69.2726   6
  -1  12 -13 704.201 74.9102   5
   1 -12 -13 675.337 65.7277   4
  -1  12 -15 278.116 49.5806   5
  12  -1 -15 221.401 42.5540   6
  12  -1 -17 96.1549 29.6691   6
  12  -1 -19 341.477 34.9436   6
  -1  12 -19 413.845 38.6853   5
   2  12 -20 15.6694 13.4931   5
  12   2 -18 516.784 44.2202   6
   2  12 -18 483.133 46.5924   5
   2  12 -16 191.838 41.0202   5
  12   2 -16 192.516 36.6031   6
  12   2 -14 365.178 48.3960   6
  12   2 -12 1182.70 85.3200   6
   2 -12  12 1186.22 148.895   2
   2 -12  12 1161.48 148.060   3
   2  12 -12 1290.03 106.963   5
   2 -12  10 3014.30 253.895   3
  -2 -12 -10 3076.17 153.387   4
   2  12 -10 3088.30 183.992   5
   2 -12  10 3505.53 252.060   2
   2 -12   8 1742.76 182.192   3
  -2 -12  -8 1791.88 105.745   4
   2  12  -8 1699.55 121.929   5
   2 -12   8 1600.55 160.897   2
   2 -12   6 9701.34 490.710   3
  -2 -12  -6 10086.9 378.390   4
   2 -12   6 9615.25 386.379   4
  12   2  -6 9889.56 387.287   5
   2 -12   6 9992.86 465.132   2
   2  12  -6 9849.97 391.096   5
   2  12  -4 122.064 36.6995   5
   2 -12   4 104.774 49.4877   2
   2 -12   4 135.654 64.8703   3
  -2 -12  -4 100.641 37.5386   4
   2 -12   4 179.786 45.4691   4
  12   2  -4 169.744 42.0733   5
  -2 -12  -2 6696.56 306.611   3
   2 -12   2 7016.29 349.015   3
  -2 -12  -2 6218.23 309.272   2
   2 -12   2 6286.79 267.029   4
  -2 -12  -2 6216.53 259.322   4
  12   2  -2 6345.97 263.657   5
   2 -12   2 6286.20 322.953   2
   2 -12   0 35147.1 1302.12   3
  -2 -12   0 37040.4 1286.46   3
   2 -12   0 35043.6 1222.42   4
   2 -12   0 36735.3 1294.48   2
  -2 -12   0 35158.8 1279.64   2
  -2 -12   2 6482.04 323.100   3
   2 -12  -2 6142.36 237.768   6
   2 -12  -2 6379.16 261.338   4
  -2 -12   2 6534.74 312.279   2
   2 -12  -2 6521.05 318.836   3
  -2 -12   4 55.5550 43.2607   2
  -2 -12   4 19.2065 46.1620   3
   2 -12  -4 85.1926 43.7511   3
   2 -12  -4 37.4577 20.8769   6
   2 -12  -6 9544.85 382.707   4
   2 -12  -6 9931.89 363.646   6
  -2  12  -6 9818.57 386.617   5
  -2 -12   6 10121.2 466.790   2
  12  -2  -8 1722.04 111.998   6
   2 -12  -8 1621.15 95.7668   6
   2 -12  -8 1741.94 111.567   4
  -2 -12   8 1729.67 166.972   2
  12  -2 -10 3465.77 174.293   6
   2 -12 -10 3414.77 173.648   4
  -2 -12  10 2956.67 238.591   2
   2 -12 -12 1076.94 88.3082   4
  -2 -12  12 889.700 133.499   2
  12  -2 -12 1096.42 87.1703   6
  -2  12 -12 1015.82 91.5655   5
  -2  12 -14 406.947 59.2516   5
  12  -2 -14 471.568 57.7792   6
   2 -12 -14 388.497 51.0085   4
  12  -2 -16 207.142 37.8461   6
  -2  12 -18 395.378 42.8880   5
  12  -2 -18 335.468 39.4675   6
  -2  12 -20 18.4830 15.1370   5
  12  -2 -20 13.4779 13.2657   6
   3  12 -19 181.207 25.8301   5
  12   3 -19 152.794 22.6786   6
   3  12 -17 157.448 33.2722   5
  12   3 -17 151.202 29.7920   6
   3  12 -15 90.5315 37.1609   5
  12   3 -15 52.8141 26.3692   6
  12   3 -13 238.082 40.7254   6
   3 -12  11 1894.46 195.490   3
   3 -12  11 1536.99 171.807   2
   3  12 -11 1864.29 131.679   5
   3  12  -9 450.878 72.2150   5
   3 -12   9 407.622 90.7235   2
   3 -12   9 272.539 89.9752   3
  -3 -12  -9 438.072 52.0351   4
   3  12  -7 712.626 76.8280   5
   3 -12   7 918.656 114.579   2
   3 -12   7 933.801 133.331   3
  -3 -12  -7 719.460 63.7827   4
  12   3  -7 670.018 76.7204   5
   3 -12   5 11268.8 539.847   3
  -3 -12  -5 11715.0 423.997   4
   3 -12   5 11149.8 439.797   4
  12   3  -5 10846.5 433.279   5
   3 -12   5 11550.1 506.604   2
   3  12  -5 11393.0 431.234   5
   3 -12   3 11478.5 564.908   3
   3 -12   3 12752.4 493.819   4
  -3 -12  -3 13703.2 480.920   4
  12   3  -3 13185.5 487.875   5
   3 -12   3 13589.9 562.927   2
   3  12  -3 12941.5 474.899   5
   3 -12   1 6326.96 336.269   3
  -3 -12  -1 6576.29 310.524   3
   3 -12   1 6408.93 275.586   4
  -3 -12  -1 6310.61 312.473   2
   3 -12   1 6642.00 329.572   2
  12   3  -1 6538.98 267.981   5
   3 -12  -1 6464.50 279.588   4
   3 -12  -1 6458.38 330.570   2
  -3 -12   1 6715.02 324.508   2
  -3 -12   1 7016.40 331.674   3
   3 -12  -1 7236.61 348.112   3
  -3 -12   3 13758.9 603.742   3
   3 -12  -3 14383.7 511.975   6
   3 -12  -3 14810.5 538.667   4
  -3 -12   3 14684.5 592.372   2
   3 -12  -3 14545.7 601.667   3
   3 -12  -5 10664.8 389.761   6
  -3 -12   5 10477.3 477.557   2
   3 -12  -7 778.840 62.4348   6
  -3 -12   7 780.827 107.809   2
  12  -3  -7 734.616 75.3888   6
   3 -12  -7 720.546 72.5276   4
  -3 -12   9 530.087 102.615   2
  12  -3  -9 521.765 65.7965   6
   3 -12  -9 575.250 59.2200   6
   3 -12  -9 521.383 67.2545   4
  12  -3 -11 2105.43 128.215   6
   3 -12 -11 2165.20 121.866   6
   3 -12 -11 2226.79 132.714   4
  12  -3 -13 286.329 48.4219   6
   3 -12 -13 220.065 47.1333   4
  -3  12 -15 127.488 37.6026   5
  12  -3 -15 136.810 36.9328   6
   3 -12 -15 88.9524 31.6418   4
  12  -3 -17 126.899 32.3506   6
  -3  12 -19 154.287 26.4837   5
  12  -3 -19 97.1169 22.3180   6
   4  12 -18 321.818 35.3774   5
  12   4 -18 207.705 27.7332   6
   4  12 -16 185.547 38.8008   5
  12   4 -16 238.590 35.9336   6
   4  12 -14 181.475 48.4271   5
   4  12 -10 348.975 68.1393   5
   4 -12  10 364.640 87.1942   2
   4 -12  10 403.648 104.943   3
  12   4 -10 396.414 61.5816   5
   4 -12   8 1975.64 203.963   3
  -4 -12  -8 2166.59 113.788   4
  12   4  -8 2037.88 140.388   5
   4 -12   8 1947.89 171.616   2
   4  12  -8 1914.21 133.075   5
   4 -12   6 4854.41 328.260   3
  -4 -12  -6 5012.15 211.513   4
  12   4  -6 4639.29 230.621   5
   4 -12   6 5301.46 293.989   2
   4  12  -6 4926.61 225.945   5
   4 -12   4 4959.98 313.942   3
   4 -12   4 5629.34 250.957   4
   4 -12   4 5419.69 298.255   2
  -4 -12  -4 5404.22 223.556   4
  12   4  -4 4968.21 233.346   5
   4  12  -4 5281.15 226.664   5
   4 -12   2 7328.24 317.652   4
  -4 -12  -2 7433.79 349.140   2
   4 -12   2 7550.65 365.946   2
  12   4  -2 7286.04 299.864   5
   4  12  -2 7653.05 289.487   5
  -4 -12   0 14895.7 605.578   3
   4 -12   0 15465.9 576.981   4
   4 -12   0 15064.5 630.867   2
  -4 -12   0 15348.8 613.211   2
  12   4   0 15670.4 560.281   5
   4 -12   0 15335.1 646.772   3
  -4 -12   2 7343.30 368.206   3
   4 -12  -2 7974.77 299.894   6
   4 -12  -2 8023.51 328.482   4
  -4 -12   2 8005.74 369.450   2
   4 -12  -2 7804.46 384.314   3
   4 -12  -4 5173.21 214.048   6
   4 -12  -4 5362.38 240.165   4
  12  -4  -4 5087.95 225.176   6
  -4 -12   4 5562.43 286.059   2
   4 -12  -6 5286.99 220.595   6
  12  -4  -6 5396.75 238.238   6
  -4 -12   6 5272.14 301.811   2
   4 -12  -8 2091.29 115.593   6
  12  -4  -8 2318.91 135.368   6
   4 -12  -8 1968.49 130.366   4
  -4 -12   8 1985.79 180.649   2
  -4 -12  10 256.593 76.6559   2
  12  -4 -10 370.075 58.8914   6
   4 -12 -10 382.626 51.3015   6
   4 -12 -10 354.866 60.8318   4
  12  -4 -12 531.340 63.9861   6
   4 -12 -12 477.865 57.1552   6
   4 -12 -12 492.540 61.2168   4
  12  -4 -14 162.846 40.6033   6
   4 -12 -14 142.059 35.5015   6
   4 -12 -14 134.543 38.8815   4
  -4  12 -16 177.454 38.0102   5
  12  -4 -16 260.168 41.2379   6
  12  -4 -18 172.905 29.6994   6
  -4  12 -20 73.1759 17.1851   5
  12  -4 -20 79.5083 16.7976   6
   5  12 -19 186.594 23.5972   5
   5  12 -17 169.503 32.2853   5
   5  12 -15 63.9983 34.2284   5
   5  12 -13 822.790 81.1067   5
   5 -12  11 848.057 134.334   3
  12   5 -11 1034.38 95.0512   5
   5  12 -11 1154.43 104.998   5
   5  12  -9-5.42594 46.5649   5
   5 -12   9-10.9142 44.3185   2
   5 -12   9 15.8503 64.3621   3
  12   5  -9 20.2903 54.0043   5
   5 -12   7 3030.06 254.370   3
  -5 -12  -7 3030.57 141.668   4
  12   5  -7 2986.29 174.834   5
   5 -12   7 2758.79 209.673   2
   5  12  -7 2618.86 157.590   5
   5 -12   5 5322.67 334.113   3
  -5 -12  -5 5302.02 220.471   4
   5 -12   5 5264.44 297.744   2
  12   5  -5 5126.51 242.712   5
   5  12  -5 5204.92 231.291   5
   5 -12   3 1071.41 132.253   3
   5 -12   3 1133.73 105.072   4
   5 -12   3 1382.18 131.279   2
  12   5  -3 1180.44 89.3364   5
   5  12  -3 1137.74 80.2419   5
   5 -12   1 4923.77 237.981   4
  12   5  -1 4950.47 212.374   5
   5 -12   1 4920.58 271.982   2
   5  12  -1 4454.82 195.200   5
  -5 -12  -1 4753.96 251.771   2
  -5 -12   1 5616.29 281.486   3
   5 -12  -1 5560.94 224.233   6
   5 -12  -1 5509.31 259.039   4
  -5 -12   1 5790.20 286.367   2
  12   5   1 5358.26 234.895   5
   5 -12  -1 5204.85 304.018   3
  12  -5  -3 1125.29 79.8870   6
   5 -12  -3 1234.24 76.7697   6
   5 -12  -3 1050.84 95.8186   4
  -5 -12   3 1090.47 113.808   2
   5 -12  -5 4681.41 225.418   4
  12  -5  -5 4534.96 208.377   6
   5 -12  -5 4540.03 196.421   6
  -5 -12   5 4796.01 270.726   2
  12  -5  -7 2857.53 155.342   6
   5 -12  -7 2837.14 141.725   6
  -5 -12   7 2890.51 212.175   2
  -5 -12   9 93.0704 63.3925   2
  12  -5  -9 23.4142 38.9905   6
   5 -12  -9 29.0825 31.4557   6
   5 -12  -9 49.6191 38.9513   4
   5 -12 -11 1085.55 84.1328   6
   5 -12 -11 1020.09 86.6306   4
  -5 -12  11 1125.55 140.089   2
  12  -5 -11 955.238 84.9940   6
  12  -5 -13 834.793 77.3107   6
   5 -12 -13 883.532 73.8391   6
   5 -12 -13 825.824 76.8931   4
  12  -5 -15 39.2774 27.6788   6
   5 -12 -15 13.9576 24.8473   6
  -5  12 -17 191.972 34.6816   5
  12  -5 -17 122.627 30.0651   6
  12  -5 -19 207.790 26.0983   6
   6  12 -18 38.3306 17.8625   5
   6  12 -16 204.397 36.3175   5
   6  12 -14 454.366 60.0509   5
  12   6 -12 578.543 73.0824   5
  12   6 -10 1317.84 123.537   5
   6  12 -10 1194.68 110.196   5
   6  12  -8 517.038 72.5171   5
   6 -12   8 448.053 89.7143   2
   6 -12   8 440.892 109.622   3
  12   6  -8 688.887 93.0449   5
   6  12  -6 175.176 47.5097   5
   6 -12   6 79.0817 53.0587   2
   6 -12   6 209.451 80.1211   3
  -6 -12  -6 135.105 33.7840   4
  12   6  -6 180.894 57.9613   5
   6 -12   4 816.106 105.482   2
   6 -12   4 1016.99 139.716   3
  -6 -12  -4 926.938 69.6237   4
  12   6  -4 851.528 80.3208   5
   6  12  -4 848.577 73.1174   5
   6 -12   2 1858.73 143.094   4
   6 -12   2 1985.79 159.535   2
  12   6  -2 1824.93 113.772   5
   6  12  -2 1946.52 106.872   5
   6 -12   2 1849.88 178.523   3
  -6 -12   0 678.518 81.8581   2
  12  -6   0 847.553 67.1333   6
   6  12   0 722.522 58.1780   5
   6 -12   0 768.355 92.8831   4
  12  -6  -2 1646.34 99.9758   6
   6 -12  -2 1711.54 97.3564   6
   6 -12  -2 1492.20 123.813   4
  -6 -12   2 1743.81 137.324   2
  12  -6  -4 1133.45 83.7432   6
   6 -12  -4 1165.76 106.159   4
   6 -12  -4 1309.98 82.3221   6
  -6 -12   4 1137.84 115.781   2
  -6 -12   6 113.766 54.5790   2
  12  -6  -6 150.328 43.1938   6
   6 -12  -6 99.6915 34.7051   6
   6 -12  -6 118.856 48.5490   4
  -6 -12   8 359.954 83.3373   2
  12  -6  -8 518.573 66.7450   6
   6 -12  -8 579.286 59.7892   6
   6 -12 -10 1639.45 103.232   6
   6 -12 -10 1358.40 105.752   4
  12  -6 -10 1530.68 108.553   6
  12  -6 -12 742.555 72.7304   6
   6 -12 -12 730.010 72.8636   6
   6 -12 -12 765.996 74.9979   4
  12  -6 -14 497.816 54.5691   6
   6 -12 -14 425.502 52.1556   6
   6 -12 -16 193.307 30.4712   6
  -6  12 -16 205.398 35.2441   5
  12  -6 -16 169.293 33.2154   6
  -6  12 -18 97.4279 23.7706   5
  12  -6 -18 51.9053 21.3315   6
   7  12 -17 128.670 26.1915   5
   7  12 -15 34.2998 28.7091   5
  12   7 -13 77.2800 36.0246   5
   7  12 -13 26.3922 37.2214   5
  12   7 -11 167.145 53.9316   5
   7 -12   9 710.417 130.100   3
  12   7  -9 625.856 94.0454   5
   7  12  -9 611.278 76.9749   5
   7 -12   7 877.901 152.831   3
   7  12  -7 909.466 84.9171   5
  12   7  -7 935.126 103.764   5
   7 -12   5 791.290 142.737   3
  -7 -12  -5 1283.72 79.9335   4
  12   7  -5 1325.55 107.626   5
   7  12  -5 977.535 84.2393   5
   7 -12   3 960.974 112.225   2
   7 -12   3 796.019 128.667   3
   7  12  -3 825.397 70.4081   5
  12   7  -3 724.085 75.8433   5
  12  -7   1 860.194 70.9104   6
   7 -12   1 759.995 119.165   3
   7 -12   1 676.046 96.6818   4
   7  12  -1 877.222 66.5410   5
   7 -12  -1 734.047 62.8789   6
  12   7   1 738.604 67.7594   5
   7  12   1 750.419 59.2184   5
   7 -12  -1 708.685 98.5654   4
  12  -7  -1 662.172 63.3530   6
  12  -7  -3 419.979 53.9211   6
   7 -12  -3 496.343 53.7440   6
   7 -12  -3 566.375 84.7679   4
  12  -7  -5 1566.77 104.989   6
   7 -12  -5 1806.76 104.966   6
   7 -12  -5 1604.05 130.436   4
  12  -7  -7 1089.74 90.0200   6
   7 -12  -7 1202.68 87.4395   6
   7 -12  -7 1234.68 106.505   4
   7 -12  -9 732.656 70.1135   6
  12  -7  -9 682.670 74.7144   6
  12  -7 -11 263.829 50.9693   6
   7 -12 -11 355.879 52.1827   6
   7 -12 -11 367.905 61.0785   4
   7 -12 -13 36.5744 32.3156   6
   7 -12 -13-7.89411 33.6238   4
  12  -7 -13 18.8313 33.5102   6
  12  -7 -15 38.7084 29.4961   6
   7 -12 -15 60.1210 28.1199   6
  -7  12 -17 136.025 28.1194   5
  12  -7 -17 167.928 29.4000   6
   7 -12 -17 156.868 24.6912   6
  -7  12 -19 129.455 18.2684   5
  12  -7 -19 98.3922 17.3661   6
   8  12 -16 11.1546 21.8198   5
  12   8 -14 191.653 38.0567   5
   8  12 -14 225.986 44.1020   5
  12   8 -12 5.86677 32.5759   5
   8  12 -12 159.777 47.3677   5
  12   8 -10 387.407 78.7929   5
   8 -12   8 202.310 94.9136   3
  12   8  -8 343.401 75.5582   5
   8  12  -8 278.840 58.0584   5
   8 -12   6 307.656 100.961   3
  12   8  -6 323.849 65.5038   5
   8  12  -6 333.334 56.4241   5
  12  -8   4 3331.75 174.924   6
  -8 -12  -4 3350.47 152.449   4
  12   8  -4 3264.74 177.537   5
   8  12  -4 3046.67 162.648   5
  12  -8   2 854.233 77.4719   6
   8 -12   2 983.272 143.597   3
   8  12  -2 917.874 73.4554   5
  12  -8   0 1326.11 92.0065   6
  12   8   0 1381.58 94.7827   5
  12  -8  -2 1095.10 84.3555   6
   8 -12  -2 958.474 119.491   4
   8  12   2 1257.77 79.4608   5
  12  -8  -4 3034.81 163.401   6
   8 -12  -4 3490.05 212.315   4
   8 -12  -4 3531.10 163.740   6
  12  -8  -6 95.6865 39.2745   6
   8 -12  -6 189.878 41.7400   6
   8 -12  -6 136.042 54.0994   4
  12  -8  -8 266.192 52.3464   6
   8 -12  -8 355.394 51.6879   6
   8 -12  -8 298.838 63.4145   4
  12  -8 -10 456.100 64.1244   6
   8 -12 -10 510.111 63.2863   6
  12  -8 -12 175.273 44.6505   6
   8 -12 -12 110.789 39.6418   6
   8 -12 -12 159.482 40.6083   4
  12  -8 -14 291.447 43.3262   6
   8 -12 -14 235.234 42.6759   6
  12  -8 -16 2.34919 23.6360   6
   8 -12 -16 40.0168 21.7608   6
  -8  12 -18 68.4252 17.5880   5
   9  12 -17 16.0369 12.3857   5
  12   9 -15 162.600 28.3291   5
   9  12 -15 90.1796 28.4657   5
  12   9 -13 37.7310 32.0281   5
   9  12 -13 46.2305 33.5795   5
  12   9 -11 485.568 73.7762   5
   9  12 -11 548.485 74.4395   5
  12   9  -9 393.221 81.8434   5
  12  -9   7 754.419 82.6412   6
   9  12  -7 844.185 84.7411   5
  12   9  -7 825.633 94.0152   5
  12  -9   5 3733.90 196.250   6
  12   9  -5 4075.86 206.448   5
   9  12  -5 3707.86 188.852   5
   9 -12   5 4048.79 330.374   3
  12  -9   3 1535.00 105.794   6
   9  12  -3 1285.26 93.8411   5
  12  -9   1 788.657 74.7359   6
   9 -12   1 826.022 69.6384   6
  12   9  -1 766.917 73.3138   5
   9  12  -1 862.111 70.5241   5
  12  -9  -1 1123.46 85.1169   6
   9 -12  -1 959.800 77.9183   6
  12   9   1 1094.48 81.8856   5
   9  12   1 1086.62 76.6355   5
  12  -9  -3 1146.38 88.3334   6
   9 -12  -3 1163.80 129.796   4
   9  12   3 1382.72 84.9417   5
  12  -9  -5 3678.10 182.289   6
   9 -12  -5 3574.21 222.303   4
  12  -9  -7 828.218 76.3906   6
   9 -12  -7 874.362 74.9342   6
   9 -12  -7 839.795 96.1735   4
  12  -9  -9 743.732 74.4282   6
   9 -12  -9 649.650 66.7477   6
   9 -12  -9 585.915 74.6425   4
  12  -9 -11 552.850 66.2613   6
   9 -12 -11 619.435 65.7462   6
  12  -9 -13 64.6372 33.9333   6
   9 -12 -13 94.4180 36.6597   6
  12  -9 -15 113.466 30.0077   6
   9 -12 -15 161.321 30.5152   6
  -9  12 -17 1.52449 15.6633   5
   9 -12 -17 15.6773 14.6436   6
  10  12 -16 278.035 27.5587   5
  12  10 -14 508.990 49.7778   5
  10  12 -14 562.168 51.3777   5
  12  10 -12 55.5168 37.6084   5
  10  12 -12 46.1311 36.8242   5
  12  10 -10 2457.94 164.411   5
  10  12 -10 2413.18 153.601   5
  12 -10   8 1060.11 93.2409   6
  12  10  -8 947.565 102.318   5
  12 -10   6 137.408 44.5099   6
  12  10  -6 123.447 53.4300   5
  10  12  -6 114.952 44.8205   5
  12 -10   4 3710.25 187.617   6
  10  12  -4 3672.64 181.425   5
  10 -12   4 3575.58 177.930   6
  12 -10   2 2515.65 138.744   6
  10 -12   2 2297.33 127.516   6
  12  10  -2 2155.53 128.689   5
  10  12  -2 2199.01 125.649   5
  12 -10   0 2481.78 141.115   6
  10 -12   0 2619.67 138.262   6
  12  10   0 2566.46 140.301   5
  10  12   0 2626.30 136.083   5
  12 -10  -2 2145.74 122.995   6
  10 -12  -2 2262.20 122.735   6
  10  12   2 2122.93 116.436   5
  12 -10  -4 4042.21 185.565   6
  10 -12  -4 3864.16 179.886   6
  12 -10  -6 210.683 44.0294   6
  10 -12  -6 199.810 64.3356   4
  10 -12  -8 1025.51 103.074   4
  12 -10  -8 1073.07 86.9788   6
  10 -12 -10 2795.78 147.142   6
  12 -10 -10 2511.26 143.989   6
  12 -10 -12 56.3622 33.7433   6
  10 -12 -12 99.2346 33.3320   6
  10 -12 -14 545.862 50.8746   6
  12 -10 -14 458.188 48.2751   6
 -10  12 -16 267.430 29.6964   5
  10 -12 -16 307.529 32.1270   6
  12  11 -15 467.584 34.9422   5
  11  12 -15 357.460 33.6074   5
  11 -12  13 319.940 34.2106   6
  12  11 -13 328.156 42.3528   5
  11  12 -13 379.066 45.7849   5
  11 -12  11 298.436 45.5711   6
  12  11 -11 283.386 55.5947   5
  11  12 -11 342.367 57.0109   5
  12 -11   9 1780.15 115.636   6
  11 -12   9 1676.64 109.547   6
  12  11  -9 1504.91 126.451   5
  11  12  -9 1662.24 123.018   5
  12 -11   7 2105.13 132.848   6
  11 -12   7 2261.74 130.806   6
  12  11  -7 1898.54 139.514   5
  12 -11   5 4488.29 213.053   6
  11 -12   5 4462.31 207.147   6
  11  12  -5 4049.43 207.302   5
  12 -11   3 340.355 54.0270   6
  11 -12   3 392.436 52.3378   6
  12  11  -3 403.375 56.0437   5
  11  12  -3 363.230 52.7292   5
  11 -12   1 3269.32 161.353   6
  12  11  -1 3009.21 157.891   5
  11  12  -1 3021.78 156.104   5
  12 -11   1 3250.60 164.444   6
  12 -11  -1 3140.32 159.574   6
  11 -12  -1 2990.72 153.301   6
  12  11   1 2982.49 152.768   5
  11  12   1 2993.19 150.999   5
  12 -11  -3 249.395 46.8055   6
  11 -12  -3 362.049 51.8005   6
  12 -11  -5 4356.41 195.797   6
  11 -12  -5 4238.24 193.388   6
  11 -12  -7 2198.81 155.186   4
  11 -12  -7 2082.65 126.365   6
  12 -11  -7 2243.89 128.500   6
  12 -11  -9 1645.28 108.380   6
  12 -11 -11 410.495 53.6793   6
  11 -12 -13 422.658 47.0919   6
  11 -12 -15 447.321 38.5611   6
  12  12 -14 637.632 45.2698   5
  12  12 -12 685.260 62.5349   5
  12 -12  10 1636.36 99.2055   6
  12  12 -10 1453.68 111.244   5
  12 -12   8 601.880 66.3221   6
  12 -12   6 559.271 64.2272   6
  12  12  -6 476.920 64.8567   5
  12 -12   4 6198.89 261.784   6
  12  12  -4 5501.16 253.815   5
  12 -12   2 984.229 83.2189   6
  12  12  -2 1016.94 81.8378   5
  12 -12   0 247.496 45.4416   6
  12  12   0 196.408 39.8999   5
  12 -12  -2 1112.21 86.2451   6
  12 -12  -4 5510.94 241.636   6
  12 -12  -6 489.442 58.9272   6
  12 -12  -8 644.688 65.7631   6
  12 -12 -10 1948.70 116.125   6
  12 -12 -14 709.521 49.4568   6
   0 -13  -1 2786.07 190.996   3
   0 -13   1 3253.21 219.682   3
   0 -13  -1 2810.69 150.724   4
   0 -13  -1 2833.31 195.574   2
   0 -13   1 3027.48 153.801   4
   0 -13   1 2887.11 197.673   2
   0 -13   3 1305.86 138.961   3
   0 -13  -3 1463.92 98.5161   4
   0 -13   3 1286.16 131.588   2
   0 -13  -3 1236.05 118.451   3
   0 -13   5 8447.96 439.095   3
   0 -13  -5 7942.82 329.323   4
   0  13  -5 8482.73 333.009   5
   0  13  -7 196.047 50.3035   5
   0 -13   7 132.681 73.8777   3
   0 -13  -7 217.619 49.1371   4
   0  13  -9 406.990 66.6861   5
   0 -13   9 468.012 97.4101   2
   0 -13   9 359.964 102.091   3
   0 -13  -9 379.281 56.4963   4
   0  13 -11 317.217 61.7523   5
   0 -13  11 186.916 71.8283   2
   0 -13  11 281.923 86.9905   3
  13   0 -11 242.716 43.1697   6
   0 -13 -11 231.082 45.1279   4
   0  13 -13 523.219 65.5458   5
  13   0 -13 416.144 51.3560   6
   0 -13 -13 421.788 51.9823   4
   0  13 -15 25.1047 34.4827   5
  13   0 -15 42.9726 26.2120   6
  13   0 -17 8.56808 20.7071   6
   0  13 -19 297.232 30.5181   5
  13   0 -19 240.629 25.4399   6
  13   1 -18 428.291 36.3076   6
   1  13 -18 431.228 41.5952   5
  13   1 -16 249.700 34.7773   6
  13   1 -14 790.682 65.9800   6
   1  13 -14 959.570 81.2232   5
  13   1 -12 161.236 37.8950   6
  -1 -13 -12 114.053 34.2195   4
   1 -13  10 2381.79 227.851   3
  -1 -13 -10 2314.07 130.543   4
   1  13 -10 2394.85 152.147   5
   1 -13  10 2150.93 204.344   2
  -1 -13  -8 2116.91 121.766   4
   1 -13   8 1739.79 192.272   3
   1  13  -8 1926.82 133.175   5
   1 -13   8 2017.42 187.798   2
   1 -13   6 3182.14 255.155   3
  -1 -13  -6 3622.45 173.258   4
   1 -13   6 3580.83 241.738   2
   1  13  -6 3454.60 177.742   5
   1 -13   4 1162.00 130.515   2
   1 -13   4 1332.85 144.239   3
  -1 -13  -4 1350.98 94.0518   4
   1 -13   4 1299.92 96.1595   4
   1  13  -4 1235.49 85.4309   5
  -1 -13  -2 2418.10 168.741   3
   1 -13   2 2794.32 205.976   3
  -1 -13  -2 2707.57 183.078   2
  -1 -13  -2 2523.87 136.116   4
   1 -13   2 2374.55 137.648   4
   1 -13   0 10564.1 458.954   3
  -1 -13   0 10201.8 448.550   3
   1 -13   0 9350.40 376.282   4
  -1 -13   0 9501.71 374.882   4
  -1 -13   0 9341.86 434.280   2
  -1 -13   2 2853.17 204.112   3
   1 -13  -2 2894.04 129.604   6
   1 -13  -2 3082.42 154.604   4
  -1 -13   2 2833.69 198.321   2
   1 -13  -2 2809.24 194.060   3
  -1 -13   4 1022.88 116.985   2
   1 -13  -4 808.345 96.0901   3
  -1 -13   4 899.679 125.421   3
   1 -13  -4 1031.53 83.0044   4
  -1 -13   6 3829.99 269.501   3
   1 -13  -6 3583.24 180.500   4
  -1 -13   6 3611.00 242.954   2
  -1  13  -6 3761.90 184.779   5
  -1 -13   8 2466.26 219.340   3
   1 -13  -8 2141.36 131.638   4
  -1  13  -8 2445.42 145.866   5
  -1 -13   8 2309.07 200.427   2
  13  -1 -10 2164.74 129.269   6
  -1 -13  10 2120.75 215.321   3
   1 -13 -10 2566.23 141.188   4
  -1  13 -10 2554.08 153.837   5
  -1  13 -12 188.813 50.6193   5
  13  -1 -12 99.7883 37.5694   6
   1 -13 -12 102.687 36.0704   4
  13  -1 -14 671.013 64.4104   6
   1 -13 -14 726.642 63.0425   4
  -1  13 -14 865.850 76.4072   5
  -1  13 -16 296.343 45.6886   5
  13  -1 -16 250.695 37.1923   6
  13  -1 -18 357.007 34.7338   6
   2  13 -19 448.917 35.7370   5
   2  13 -17 87.1861 28.3250   5
  13   2 -17 113.060 24.4096   6
  13   2 -15 91.6110 28.6746   6
   2  13 -13 851.598 80.0335   5
  -2 -13 -11 2296.42 126.651   4
   2  13 -11 2511.61 153.914   5
   2  13  -9 395.554 64.5680   5
   2 -13   9 484.401 95.5023   2
   2 -13   9 323.840 93.3141   3
  -2 -13  -9 307.087 48.7928   4
   2 -13   7 1190.25 139.027   2
  -2 -13  -7 1372.41 94.0338   4
   2 -13   7 1496.12 170.334   3
   2 -13   7 1495.83 106.035   4
   2  13  -7 1389.96 107.685   5
  -2 -13  -5 11252.9 416.890   4
   2 -13   5 10162.3 422.133   4
  13   2  -5 10881.3 425.857   5
   2 -13   5 11069.5 510.342   2
   2  13  -5 11106.1 419.773   5
   2 -13   3 8583.71 424.692   3
  -2 -13  -3 8127.39 317.312   4
   2 -13   3 7712.62 324.307   4
   2 -13   3 7862.88 394.459   2
   2  13  -3 7590.40 304.885   5
   2 -13   1 8136.22 391.736   3
  -2 -13  -1 7400.50 354.225   3
   2 -13   1 7192.68 309.080   4
  -2 -13  -1 7620.30 363.973   2
  -2 -13  -1 7439.85 304.644   4
   2 -13   1 7750.02 377.285   2
  -2 -13   1 7829.01 379.918   3
   2 -13  -1 7687.46 316.703   4
   2 -13  -1 8147.35 383.908   2
  -2 -13   1 7291.22 366.119   2
   2 -13  -1 7772.70 381.206   3
  -2 -13   3 8401.03 410.074   3
   2 -13  -3 7983.74 301.664   6
   2 -13  -3 7600.14 324.269   4
  -2 -13   3 8404.85 395.713   2
   2 -13  -3 8346.37 390.448   3
  -2 -13   5 9687.16 469.339   3
   2 -13  -5 9408.36 340.726   6
   2 -13  -5 8210.01 357.961   4
  -2 -13   5 9509.25 436.328   2
   2 -13  -7 1530.16 89.3103   6
   2 -13  -7 1477.76 104.790   4
  -2 -13   7 1470.85 169.800   3
  -2  13  -7 1388.89 105.997   5
  -2 -13   7 1456.12 153.952   2
  -2 -13   9 296.969 80.4213   2
  -2  13  -9 230.067 57.3515   5
  -2 -13   9 250.716 88.0309   3
  13  -2  -9 246.260 47.5086   6
   2 -13  -9 295.109 53.9295   4
  13  -2 -11 2402.80 135.553   6
   2 -13 -11 2324.69 138.563   4
  -2  13 -11 2375.22 148.650   5
  13  -2 -13 1006.98 79.4603   6
   2 -13 -13 885.177 76.8417   4
  -2  13 -13 955.972 82.9606   5
  -2  13 -15 130.221 38.8740   5
  13  -2 -15 101.990 34.2205   6
   2 -13 -15 113.796 29.6226   4
  -2  13 -17 157.980 33.3242   5
  13  -2 -17 114.273 28.2647   6
  -2  13 -19 319.410 32.2710   5
  13  -2 -19 382.427 30.9978   6
   3  13 -18 382.506 36.7300   5
   3  13 -16 155.736 33.6446   5
   3  13 -12 1402.25 109.939   5
   3  13 -10 809.350 89.4361   5
   3 -13  10 1064.68 136.031   2
  -3 -13 -10 1097.56 77.4192   4
   3 -13  10 1053.53 151.964   3
   3 -13   8 2593.15 243.471   3
  -3 -13  -8 3019.50 150.541   4
  13   3  -8 3111.84 170.516   5
   3 -13   8 2859.09 224.021   2
   3  13  -8 2969.55 168.091   5
   3 -13   6 9862.16 499.474   3
  -3 -13  -6 9853.44 368.920   4
  13   3  -6 8787.20 381.672   5
   3 -13   6 9951.92 472.815   2
   3  13  -6 9370.71 378.486   5
   3  13  -4 370.095 51.0585   5
   3 -13   4 463.319 87.2947   2
   3 -13   4 346.789 60.0297   4
  -3 -13  -4 396.646 54.1639   4
  13   3  -4 345.599 57.4835   5
   3 -13   2 7494.71 394.743   3
   3 -13   2 7367.52 318.220   4
  -3 -13  -2 7875.72 307.979   4
   3 -13   2 7576.02 381.261   2
  -3 -13   0 30917.7 1106.44   3
   3 -13   0 28927.0 1044.88   4
   3 -13   0 31241.5 1127.09   2
  -3 -13   0 29737.6 1105.81   2
   3 -13   0 29378.8 1133.56   3
  -3 -13   2 7492.18 367.951   3
   3 -13  -2 7041.88 274.990   6
   3 -13  -2 7027.32 300.795   4
  -3 -13   2 7144.42 354.005   2
   3 -13  -2 7315.51 368.190   3
  -3 -13   4 592.978 91.1349   2
  -3 -13   4 468.045 90.6397   3
   3 -13  -4 434.904 46.6014   6
   3 -13  -4 575.379 67.3365   4
   3 -13  -6 9985.27 370.253   6
  -3 -13   6 9100.25 484.391   3
  -3 -13   6 9514.26 465.233   2
  -3  13  -6 10092.4 389.411   5
  13  -3  -8 2838.63 154.339   6
   3 -13  -8 2895.81 156.963   4
   3 -13  -8 2729.76 138.818   6
  -3  13  -8 2728.80 158.289   5
  -3 -13   8 2914.87 224.265   2
  13  -3 -10 1176.93 91.1591   6
   3 -13 -10 1239.80 85.7042   6
   3 -13 -10 1150.52 94.6758   4
  -3 -13  10 1101.24 142.097   2
  -3  13 -10 1277.40 105.159   5
  13  -3 -12 1532.44 99.9442   6
  -3  13 -12 1325.92 101.182   5
   3 -13 -12 1329.14 98.1152   4
  -3  13 -14 238.164 47.0395   5
  13  -3 -14 272.786 44.5280   6
   3 -13 -14 273.430 44.7104   4
  -3  13 -16 183.740 37.3822   5
  13  -3 -16 153.426 32.7108   6
  -3  13 -18 272.130 34.3933   5
  13  -3 -18 287.356 31.6064   6
   4  13 -19 77.8075 16.5676   5
   4  13 -17-8.92366 21.1825   5
   4  13 -15 167.136 38.9498   5
   4  13 -13 100.184 39.4204   5
   4  13 -11 475.076 71.3441   5
   4 -13   9 1441.63 158.381   2
  -4 -13  -9 1575.10 96.3255   4
   4 -13   9 1560.18 187.774   3
  13   4  -9 1560.16 119.147   5
   4  13  -9 1654.04 119.895   5
   4  13  -7 309.471 55.0493   5
   4 -13   7 294.313 78.3489   2
   4 -13   7 202.824 80.8820   3
  -4 -13  -7 288.621 44.8700   4
  13   4  -7 254.000 60.0086   5
   4 -13   5 6329.32 374.497   3
  -4 -13  -5 6339.88 261.372   4
   4 -13   5 6640.83 351.639   2
  13   4  -5 6064.97 279.377   5
   4  13  -5 6348.72 269.572   5
   4 -13   3 10659.0 443.073   4
  -4 -13  -3 11722.0 425.754   4
   4 -13   3 11521.4 513.929   2
  13   4  -3 10819.3 433.925   5
   4  13  -3 11253.1 418.509   5
   4 -13   1 4079.04 211.138   4
  -4 -13  -1 4257.18 246.337   2
   4 -13   1 4327.73 260.918   2
   4 -13   1 4787.74 283.579   3
  -4 -13   1 4448.53 257.555   3
   4 -13  -1 4801.65 198.085   6
   4 -13  -1 4681.27 224.592   4
  -4 -13   1 4856.50 265.973   2
   4 -13  -1 4363.96 275.973   3
  -4 -13   3 10422.6 507.963   3
   4 -13  -3 11622.3 419.568   6
   4 -13  -3 11531.5 449.184   4
  -4 -13   3 11976.6 510.733   2
   4 -13  -3 10904.0 512.519   3
  13  -4  -5 5737.54 257.224   6
   4 -13  -5 6145.96 242.199   6
  -4 -13   5 5240.50 329.528   3
   4 -13  -5 6010.72 267.911   4
  -4 -13   5 6060.58 325.651   2
  -4 -13   7 185.381 64.3504   2
  13  -4  -7 292.544 53.3379   6
   4 -13  -7 339.709 45.7261   6
  13  -4  -9 1356.91 101.551   6
   4 -13  -9 1404.12 91.7116   6
   4 -13  -9 1285.91 102.499   4
  -4 -13   9 1303.75 151.892   2
   4 -13 -11 625.576 62.2900   6
  13  -4 -11 547.196 64.3150   6
   4 -13 -11 569.166 69.7685   4
  -4  13 -13 91.6596 38.5713   5
  13  -4 -13 151.708 38.0378   6
   4 -13 -13 100.673 32.5134   6
   4 -13 -13 97.8752 35.9603   4
  -4  13 -15 114.821 33.6866   5
  13  -4 -15 184.735 35.2496   6
  -4  13 -17 4.57168 22.6129   5
  13  -4 -17 18.9361 20.9313   6
  13  -4 -19 63.5524 15.4086   6
   5  13 -18 16.9538 15.9246   5
   5  13 -16 71.6774 27.8605   5
   5  13 -12 24.1191 40.4677   5
   5  13 -10 188.156 53.3298   5
  13   5 -10 243.271 57.3178   5
   5 -13   8 1981.38 205.866   3
  -5 -13  -8 1958.57 108.982   4
  13   5  -8 1958.13 147.241   5
   5 -13   8 1923.33 177.233   2
   5  13  -8 1906.87 130.847   5
   5 -13   6 827.477 112.093   2
   5 -13   6 674.397 120.569   3
  -5 -13  -6 663.455 62.6355   4
   5  13  -6 778.229 76.2724   5
  13   5  -6 583.053 79.0343   5
   5 -13   4 121.107 58.9818   2
   5 -13   4 89.8841 67.3729   3
  -5 -13  -4 77.0675 36.2801   4
  13   5  -4 91.0924 46.9704   5
   5  13  -4 80.8119 35.8268   5
   5 -13   2 3603.48 201.257   4
   5 -13   2 3876.43 244.270   2
  13   5  -2 3598.19 182.667   5
   5  13  -2 3740.04 168.481   5
   5 -13   0 9275.24 388.861   4
  -5 -13   0 9225.23 419.163   2
   5 -13   0 8856.83 454.211   3
  -5 -13   2 3216.45 216.322   3
   5 -13  -2 3626.98 161.061   6
   5 -13  -2 3374.20 188.536   4
  -5 -13   2 3494.63 218.804   2
   5 -13  -2 3312.26 232.709   3
  -5 -13   4 138.634 54.0455   2
  -5 -13   4 130.404 57.6922   3
  13  -5  -4 59.5603 37.3714   6
   5 -13  -4 117.650 33.8838   6
   5 -13  -4 66.5808 48.1337   4
  -5 -13   6 582.829 93.0631   2
   5 -13  -6 596.668 58.6294   6
  13  -5  -6 612.997 69.6258   6
   5 -13  -6 680.306 79.3164   4
  13  -5  -8 1829.70 122.949   6
   5 -13  -8 1927.99 112.238   6
  -5 -13   8 1744.97 170.638   2
  13  -5 -10 244.046 49.7578   6
   5 -13 -10 315.173 47.9940   6
   5 -13 -10 232.957 51.5654   4
  13  -5 -12 23.2067 31.9374   6
   5 -13 -12 3.63711 28.5440   6
   5 -13 -12 51.2330 40.2918   4
  -5  13 -14 228.288 41.9044   5
  13  -5 -14 231.117 41.1307   6
   5 -13 -14 225.101 35.8219   6
   5 -13 -14 285.135 44.4217   4
  -5  13 -16 67.7818 26.0413   5
  13  -5 -16 85.0864 26.4818   6
  -5  13 -18 38.1909 17.2454   5
  13  -5 -18 3.11653 15.7676   6
   6  13 -17 192.035 27.6956   5
   6  13 -15 95.3964 31.6500   5
   6  13 -11 26.5428 47.2582   5
  13   6 -11 71.9444 40.6525   5
   6  13  -9 52.2549 45.5650   5
  13   6  -9 96.5730 57.8058   5
   6 -13   7 922.737 117.509   2
  -6 -13  -7 984.928 70.8822   4
   6  13  -7 905.402 85.9107   5
  13   6  -7 898.108 104.534   5
   6 -13   5 1279.71 164.313   3
  -6 -13  -5 1310.78 87.4701   4
   6 -13   5 1400.43 143.054   2
  13   6  -5 1343.83 111.575   5
   6  13  -5 1358.99 96.1913   5
   6 -13   3 2126.05 172.286   2
  -6 -13  -3 1855.82 109.438   4
  13   6  -3 1991.25 124.614   5
   6  13  -3 1800.47 109.478   5
   6 -13   3 1909.25 187.398   3
   6  13  -1 735.396 60.8547   5
   6 -13   1 706.581 92.4943   4
  13   6  -1 720.583 73.2382   5
   6 -13  -1 1174.29 137.803   3
   6 -13  -1 1172.73 80.5892   6
   6 -13  -1 1001.48 103.592   4
  13  -6  -3 1951.59 115.306   6
   6 -13  -3 1789.69 105.142   6
   6 -13  -3 1772.81 132.313   4
  -6 -13   3 1908.79 156.518   2
  13  -6  -5 1116.29 88.3926   6
  -6 -13   5 1156.26 127.314   2
   6 -13  -5 1097.89 80.4371   6
   6 -13  -5 1102.88 102.386   4
  13  -6  -7 859.756 82.2166   6
   6 -13  -7 968.443 76.7377   6
  -6 -13   7 1146.89 126.420   2
   6 -13  -7 1033.66 95.5565   4
  13  -6  -9 77.7262 38.7448   6
   6 -13  -9 90.6907 38.0996   6
  13  -6 -11 107.037 39.1721   6
   6 -13 -11 65.4540 34.1140   6
   6 -13 -11 72.6098 38.7416   4
  13  -6 -13 27.7216 31.8980   6
   6 -13 -13 39.2060 29.6845   6
   6 -13 -13 30.1346 32.8228   4
  -6  13 -15 160.630 32.4884   5
  13  -6 -15 205.166 35.0004   6
   6 -13 -15 107.671 27.1801   6
  -6  13 -17 174.425 28.1979   5
  13  -6 -17 222.222 29.6103   6
   7  13 -16 230.723 32.3686   5
   7  13 -14 440.810 51.7220   5
  13   7 -12 194.031 47.0373   5
  13   7 -10 635.881 87.8008   5
   7  13 -10 699.461 78.1531   5
  13   7  -8 1820.91 149.278   5
   7  13  -8 1474.24 112.395   5
   7 -13   6 533.640 119.064   3
  13   7  -6 717.380 87.8912   5
   7  13  -6 551.320 66.9743   5
  -7 -13  -4 7268.86 287.560   4
  13   7  -4 7244.05 317.046   5
   7  13  -4 7292.26 296.891   5
   7 -13   4 6432.41 413.321   3
  13   7  -2 4856.41 225.570   5
   7  13  -2 4866.78 213.254   5
   7 -13   2 4875.04 321.949   3
  13  -7   0 4340.56 204.047   6
   7 -13   0 4652.80 251.859   4
   7 -13   0 4642.97 198.904   6
   7  13   0 4202.24 190.517   5
  13  -7  -2 4164.47 200.114   6
   7 -13  -2 4361.42 195.255   6
   7 -13  -2 4709.18 246.810   4
  13  -7  -4 7634.00 319.584   6
   7 -13  -4 7960.40 311.534   6
   7 -13  -4 7861.28 357.086   4
  13  -7  -6 719.938 71.3233   6
   7 -13  -6 688.346 65.7579   6
   7 -13  -6 650.440 83.4417   4
  13  -7  -8 1583.54 113.210   6
   7 -13  -8 1668.09 106.102   6
   7 -13  -8 1644.29 121.620   4
   7 -13 -10 772.681 70.1426   6
  13  -7 -10 665.928 72.6518   6
  13  -7 -12 480.706 55.3698   6
   7 -13 -12 507.622 58.7368   6
   7 -13 -12 355.317 55.3128   4
  13  -7 -14 458.139 50.9827   6
   7 -13 -14 426.494 47.1763   6
  -7  13 -14 520.177 51.6742   5
  -7  13 -16 264.106 34.7897   5
  13  -7 -16 302.930 36.7097   6
   7 -13 -16 303.712 30.9366   6
  -7  13 -18 61.2230 16.1355   5
  13  -7 -18 50.7632 14.4510   6
   8  13 -17 216.162 23.7194   5
   8  13 -15 42.4810 24.2834   5
  13   8 -13 375.748 50.5503   5
   8  13 -13 503.003 56.1146   5
  13   8 -11 68.8976 38.3566   5
  13   8  -9 51.1393 59.3350   5
   8  13  -9 101.323 47.8776   5
  13   8  -7 3315.06 206.420   5
   8  13  -7 3203.08 175.134   5
  13   8  -5 6262.07 286.824   5
   8  13  -5 5606.04 255.878   5
   8 -13   5 5684.75 388.868   3
  -8 -13  -3 2667.48 136.206   4
  13   8  -3 2845.51 160.143   5
   8  13  -3 2716.50 143.010   5
   8 -13   3 2654.70 241.343   3
  13  -8   1 6681.31 291.280   6
   8  13  -1 6981.91 278.499   5
  13  -8  -1 7084.15 294.989   6
   8 -13  -1 6469.98 344.058   4
   8  13   1 7141.81 278.909   5
  13  -8  -3 2446.62 141.875   6
   8 -13  -3 2877.24 187.435   4
   8 -13  -3 2665.24 138.367   6
   8 -13  -5 5490.70 279.223   4
  13  -8  -5 5024.20 241.988   6
  13  -8  -7 3360.18 180.011   6
   8 -13  -7 3758.76 202.375   4
   8 -13  -7 3655.25 176.065   6
  13  -8  -9 85.6512 41.5458   6
   8 -13  -9 86.6576 39.6874   6
   8 -13  -9 55.9244 38.1449   4
  13  -8 -11 152.178 43.2899   6
   8 -13 -11 100.593 39.3256   6
  13  -8 -13 543.891 55.1172   6
   8 -13 -13 464.241 53.4561   6
  -8  13 -15 6.39704 20.9876   5
  13  -8 -15 27.9600 23.8238   6
   8 -13 -15 44.2165 22.2001   6
  -8  13 -17 221.117 25.7244   5
  13  -8 -17 286.871 27.8500   6
   9  13 -16 58.4133 17.8677   5
  13   9 -14 129.690 25.7644   5
   9  13 -14 62.4909 25.6553   5
  13   9 -12 17.9344 31.5805   5
   9  13 -12 112.016 40.1272   5
  13   9 -10 182.895 57.5669   5
  13   9  -8 576.849 92.0676   5
   9  13  -8 548.197 68.7585   5
  13   9  -6 2474.78 160.521   5
   9  13  -6 2396.72 142.728   5
  13  -9   4 1647.17 121.033   6
   9 -13   4 1751.38 109.724   6
  13   9  -4 1940.26 129.194   5
   9  13  -4 1831.60 114.069   5
  13  -9   2 2387.27 142.746   6
   9 -13   2 2558.65 132.647   6
   9  13  -2 2242.53 128.973   5
  13  -9   0 5308.41 244.167   6
   9 -13   0 5402.62 232.107   6
  13   9   0 5210.19 236.291   5
   9  13   0 5527.90 229.632   5
   9 -13  -2 2033.52 170.420   4
  13  -9  -2 2118.91 129.986   6
   9  13   2 2349.52 119.656   5
  13  -9  -4 1942.55 123.902   6
   9 -13  -4 2082.86 159.891   4
  13  -9  -6 2256.70 138.777   6
   9 -13  -6 2337.33 162.133   4
   9 -13  -6 2669.19 138.405   6
  13  -9  -8 481.979 60.0116   6
   9 -13  -8 583.414 66.0794   6
   9 -13  -8 444.321 67.0875   4
  13  -9 -10 211.705 47.1482   6
   9 -13 -10 271.344 47.9701   6
   9 -13 -10 197.655 49.9481   4
  13  -9 -12 86.6148 35.0697   6
   9 -13 -12 107.418 34.9835   6
  -9  13 -14 130.464 28.4824   5
  13  -9 -14 79.7265 28.5662   6
   9 -13 -14 93.7817 27.6995   6
  -9  13 -16 45.2503 16.7219   5
  13  -9 -16 55.7462 18.9171   6
   9 -13 -16 65.4482 16.8413   6
  10  13 -15 90.5587 20.5648   5
  13  10 -13 86.1085 28.9034   5
  10  13 -13 14.0168 25.6669   5
  13  10 -11 48.5538 40.1002   5
  10  13 -11 24.7330 36.6906   5
  13  10  -9 382.687 70.6280   5
  13  10  -7-12.2809 49.0333   5
  10  13  -7 46.5911 41.1646   5
  13 -10   5 2092.42 141.702   6
  10 -13   5 2433.50 132.791   6
  13  10  -5 2383.41 148.488   5
  10  13  -5 2488.02 139.182   5
  10 -13   3 729.978 67.9278   6
  13 -10   3 728.976 77.2237   6
  10  13  -3 767.886 69.8762   5
  13 -10   1 1027.55 87.0521   6
  10 -13   1 1073.77 81.5125   6
  13  10  -1 873.252 78.6222   5
  10  13  -1 969.578 76.9568   5
  13 -10  -1 1101.60 88.5826   6
  10 -13  -1 1022.59 81.3531   6
  10  13   1 1073.61 77.9369   5
  13 -10  -3 786.250 73.8378   6
  10 -13  -3 794.045 71.0741   6
  10 -13  -3 647.489 100.942   4
  10 -13  -5 2403.45 172.429   4
  13 -10  -5 2442.33 138.753   6
  13 -10  -7-17.0262 34.5684   6
  10 -13  -7-6.00768 45.4209   4
  10 -13  -7 27.3002 37.2524   6
  10 -13  -9 291.374 55.5187   4
  13 -10  -9 299.638 49.7745   6
  10 -13  -9 319.395 51.6685   6
  13 -10 -11 23.9853 29.4111   6
  10 -13 -11 10.5268 30.3424   6
  13 -10 -13 96.0082 29.4214   6
  10 -13 -13 141.384 31.7672   6
 -10  13 -15 36.9432 16.3816   5
  13 -10 -15 35.0683 19.3304   6
  10 -13 -15 58.2704 19.6422   6
  13  11 -14 460.524 35.7237   5
  11  13 -14 426.129 37.7165   5
  11 -13  12 144.681 26.6231   6
  13  11 -12 153.440 34.9077   5
  11  13 -12 135.477 33.8699   5
  11 -13  10 354.301 48.2483   6
  13  11 -10 431.474 63.6821   5
  11 -13   8 272.923 46.5563   6
  13  11  -8 255.880 60.8791   5
  11  13  -8 222.877 50.0023   5
  13 -11   6 97.5225 40.9918   6
  11 -13   6 67.2911 33.8280   6
  11  13  -6 96.3197 38.7766   5
  13 -11   4 1224.81 97.9093   6
  11 -13   4 1295.09 92.3868   6
  13  11  -4 1221.64 95.2625   5
  11  13  -4 1124.26 89.6234   5
  13 -11   2 18.2731 33.8746   6
  11 -13   2-3.85990 30.0206   6
  13  11  -2 36.7691 33.1861   5
  11  13  -2 44.4955 35.4245   5
  13 -11   0 905.788 81.8856   6
  11 -13   0 1054.38 79.8161   6
  11  13   0 1075.78 79.0290   5
  13 -11  -2 54.6047 33.8550   6
  11 -13  -2 33.8958 28.5078   6
  13 -11  -4 1149.33 87.6295   6
  11 -13  -4 1046.19 83.4221   6
  11 -13  -4 1142.64 120.915   4
  11 -13  -6 97.3143 52.7556   4
  13 -11  -6 81.0095 36.6296   6
  11 -13  -6 76.1951 37.1386   6
  13 -11  -8 246.683 47.8442   6
  13 -11 -10 492.803 55.8499   6
  11 -13 -10 551.360 59.2723   6
  13 -11 -12 95.3728 28.5552   6
  11 -13 -12 130.166 31.6107   6
  11 -13 -14 423.268 36.8708   6
  13 -11 -14 298.331 33.6649   6
  13  12 -13-5.35224 16.6282   5
  12  13 -13 29.0341 18.3499   5
  12 -13  11 432.556 39.2166   6
  13  12 -11 395.623 48.3169   5
  12  13 -11 482.899 51.8927   5
  12 -13   9 2067.19 115.746   6
  13  12  -9 2139.04 131.105   5
  13 -12   7 200.554 41.7980   6
  12 -13   7 154.528 39.1605   6
  12  13  -7 191.664 44.5954   5
  13 -12   5 100.442 39.2650   6
  12 -13   5 78.8257 34.9819   6
  13  12  -5 131.081 45.2441   5
  12  13  -5 118.434 39.6202   5
  13 -12   3 2044.75 125.242   6
  12 -13   3 2033.88 119.454   6
  13  12  -3 1867.79 115.801   5
  12  13  -3 1901.53 116.044   5
  13 -12   1 37.5900 34.2036   6
  12 -13   1 19.2015 29.5902   6
  13  12  -1 29.8428 31.5347   5
  12  13  -1-21.3248 31.6214   5
  13 -12  -1 60.6186 35.7233   6
  12 -13  -1 22.6495 29.3778   6
  13 -12  -3 1644.30 107.389   6
  12 -13  -3 1725.14 105.407   6
  13 -12  -5 103.494 35.4358   6
  12 -13  -5 110.798 38.4899   6
  13 -12  -7 151.074 40.2019   6
  12 -13  -7 122.451 35.2909   6
  13 -12  -9 2224.99 118.067   6
  12 -13  -9 1755.31 110.574   6
  13 -12 -11 477.051 47.5052   6
  13 -12 -13 31.0468 19.4549   6
  12 -13 -13 25.7937 20.5549   6
  13  13 -12 496.568 40.5073   5
  13  13 -10 700.648 61.1888   5
  13 -13   8 1069.29 75.7640   6
  13 -13   6 727.596 67.3961   6
  13  13  -6 804.058 73.3963   5
  13 -13   4 1303.59 92.8079   6
  13  13  -4 1283.04 92.4100   5
  13 -13   2 1397.22 94.4141   6
  13  13  -2 1295.47 90.7323   5
  13 -13   0 11.3287 30.4132   6
  13 -13  -2 1221.82 85.9666   6
  13 -13  -4 934.963 75.2101   6
  13 -13  -6 674.346 62.7150   6
  13 -13  -8 1349.52 87.7811   6
  13 -13 -10 890.894 64.1772   6
   0 -14   0 28.2990 47.4504   2
   0 -14   0 67.5101 54.4694   3
   0 -14   0 37.6623 39.7533   4
   0 -14   2 68.3015 49.0816   2
   0 -14  -2 52.1763 40.7979   3
   0 -14   2 66.8892 52.2904   3
   0 -14   2 4.28365 44.0266   4
   0 -14   4 3211.23 243.752   3
   0 -14  -4 3173.95 163.765   4
   0 -14   4 3224.04 170.478   4
   0 -14   4 2964.73 221.704   2
   0  14  -6-4.15002 31.3775   5
   0 -14   6 13.5771 53.2630   3
   0 -14  -6 29.1798 40.2951   4
   0 -14   8 736.730 115.765   2
   0 -14  -8 758.414 74.1867   4
   0  14  -8 823.588 83.6026   5
   0 -14 -10 1863.57 118.275   4
   0  14 -10 1829.25 128.345   5
   0  14 -12 579.977 70.9684   5
   0 -14 -12 592.185 60.1792   4
   0  14 -14 336.506 50.0608   5
  14   0 -14 273.488 37.8198   6
   0  14 -16-25.7060 28.2710   5
  14   0 -16-7.85469 18.9875   6
   1  14 -15 414.746 47.1874   5
   1  14 -13 305.644 53.5940   5
  -1 -14 -11 799.029 71.5329   4
   1  14 -11 897.814 89.1725   5
  -1 -14  -9 3728.16 177.638   4
   1 -14   9 3786.72 266.454   2
   1  14  -9 3432.49 187.576   5
   1 -14   7 940.568 128.125   2
  -1 -14  -7 1046.92 84.1187   4
   1 -14   7 985.668 87.5001   4
   1  14  -7 894.553 84.5034   5
   1 -14   5 2496.06 218.629   3
  -1 -14  -5 2506.85 138.768   4
   1 -14   5 2167.13 139.229   4
   1 -14   5 2736.90 208.655   2
   1  14  -5 2482.52 134.863   5
   1 -14   3 1770.27 172.669   3
  -1 -14  -3 1610.80 106.903   4
   1 -14   3 1532.24 109.908   4
  -1 -14  -1 2337.55 175.660   3
   1 -14   1 2453.23 196.508   3
  -1 -14  -1 2951.58 196.354   2
   1 -14   1 2384.06 141.517   4
  -1 -14   1 1871.65 168.353   3
   1 -14  -1 1977.85 102.237   6
   1 -14  -1 2179.21 128.654   4
   1 -14  -1 1898.66 164.893   2
  -1 -14   1 2070.26 127.256   4
  -1 -14   1 2133.43 170.196   2
   1 -14  -1 2345.13 179.920   3
  -1 -14   3 1806.20 167.529   3
  -1 -14   3 1485.25 143.794   2
   1 -14  -3 1466.93 137.407   3
  -1 -14   5 2725.94 225.962   3
   1 -14  -5 2512.11 146.165   4
  -1 -14   5 2811.30 213.529   2
  -1 -14   7 1132.29 135.316   2
   1 -14  -7 1176.02 93.4114   4
  -1 -14   7 1128.50 152.508   3
  -1  14  -7 1123.33 92.5342   5
   1 -14  -9 3490.00 173.971   4
  -1 -14   9 2761.44 236.775   2
  -1  14  -9 3426.48 182.224   5
  -1 -14   9 3073.55 264.856   3
  -1  14 -11 780.522 82.9883   5
   1 -14 -11 890.447 80.9406   4
  -1  14 -13 166.736 43.8083   5
  14  -1 -13 182.415 37.0405   6
   1 -14 -13 161.651 36.9434   4
  -1  14 -15 332.137 44.7653   5
  14  -1 -15 239.980 35.4577   6
  -1  14 -17 87.0059 25.1820   5
  14  -1 -17 75.6744 19.3042   6
   2  14 -18 113.469 21.9934   5
   2  14 -14 735.227 66.2916   5
   2  14 -12 167.890 45.9571   5
  -2 -14 -10 2103.33 119.671   4
   2  14 -10 1993.63 135.439   5
  -2 -14  -8 1957.29 115.109   4
   2 -14   8 1575.33 187.127   3
   2 -14   8 1680.37 174.767   2
   2  14  -8 1966.96 129.083   5
   2 -14   6 1295.39 149.044   2
  -2 -14  -6 1239.07 91.8625   4
   2 -14   6 1210.35 98.7802   4
   2  14  -6 1284.98 95.7506   5
   2 -14   4 1549.53 163.753   3
  -2 -14  -4 1547.68 103.099   4
   2 -14   4 1293.61 104.485   4
   2 -14   4 1476.67 149.889   2
   2  14  -4 1584.50 97.3886   5
   2 -14   2 3385.48 241.742   3
   2 -14   2 3497.87 178.828   4
  -2 -14  -2 3346.74 170.387   4
   2 -14   2 3275.66 231.139   2
  -2 -14   0 5003.63 273.601   3
   2 -14   0 4441.93 215.641   4
   2 -14   0 4607.21 276.657   2
  -2 -14   0 4512.80 265.552   2
   2 -14   0 4505.85 279.978   3
  -2 -14   2 3012.34 218.818   3
   2 -14  -2 2968.56 137.292   6
   2 -14  -2 2979.23 160.756   4
  -2 -14   2 3023.54 208.380   2
   2 -14  -2 2830.15 206.794   3
  -2 -14   4 942.952 118.707   2
   2 -14  -4 951.729 67.0322   6
   2 -14  -6 1308.78 81.7241   6
   2 -14  -6 1247.16 99.4905   4
  -2 -14   6 1128.27 151.294   3
  -2 -14   6 1545.34 153.355   2
   2 -14  -8 2041.38 126.514   4
  -2 -14   8 1767.08 193.717   3
  -2 -14   8 1832.11 176.667   2
  -2  14  -8 1842.41 123.342   5
  14  -2 -10 2198.63 125.439   6
   2 -14 -10 2301.61 137.509   4
  -2  14 -10 2214.17 139.701   5
  -2  14 -12 131.653 43.7703   5
  14  -2 -12 104.275 32.7067   6
   2 -14 -12 97.3187 39.5182   4
  14  -2 -14 604.415 55.4211   6
   2 -14 -14 560.419 55.5254   4
  -2  14 -14 663.676 62.2576   5
  -2  14 -16 272.204 37.3414   5
  14  -2 -16 220.721 30.9785   6
  -2  14 -18 32.5364 17.4030   5
  14  -2 -18 52.4193 15.1021   6
   3  14 -17 48.4401 21.1705   5
   3  14 -15 35.1186 31.1611   5
   3  14 -13 130.871 43.6183   5
   3  14 -11 1490.33 113.699   5
   3  14  -9 20.0505 37.1645   5
  -3 -14  -9 10.5481 27.3427   4
   3 -14   7 1403.42 156.412   2
   3 -14   7 1070.40 150.353   3
  -3 -14  -7 1370.08 93.0204   4
  14   3  -7 1220.10 104.198   5
   3  14  -7 1376.25 103.462   5
  -3 -14  -5 5920.50 253.421   4
   3 -14   5 5963.43 268.091   4
   3 -14   5 6161.70 346.509   2
   3  14  -5 5692.88 252.751   5
   3 -14   3 2859.05 228.501   3
   3 -14   3 2889.55 164.481   4
  -3 -14  -3 3039.09 155.849   4
   3 -14   3 2951.32 217.585   2
   3  14  -3 2968.94 144.565   5
   3 -14   1 2100.62 136.212   4
  -3 -14  -1 2114.97 168.315   2
   3 -14   1 2291.52 184.848   2
  -3 -14  -1 2399.34 134.554   4
   3 -14   1 2177.45 188.859   3
  -3 -14   1 2435.76 182.059   3
   3 -14  -1 2172.94 114.327   6
   3 -14  -1 2372.73 140.309   4
  -3 -14   1 2194.29 174.810   2
   3 -14  -1 2439.93 191.306   3
  -3 -14   3 3635.91 245.698   3
   3 -14  -3 3275.95 152.791   6
   3 -14  -3 3524.48 180.420   4
  -3 -14   3 3436.83 228.344   2
   3 -14  -3 3179.45 224.091   3
  -3 -14   5 5764.01 350.157   3
   3 -14  -5 5974.19 240.093   6
  -3 -14   5 5768.85 333.227   2
   3 -14  -7 1123.21 76.0684   6
  -3 -14   7 1034.17 128.973   2
   3 -14  -7 1007.29 88.0758   4
  -3 -14   7 1203.61 153.216   3
  -3  14  -7 949.810 83.0013   5
  -3  14  -9 9.12198 34.8181   5
  14  -3  -9-7.98041 32.1395   6
   3 -14  -9 50.0306 29.2635   6
   3 -14  -9 14.0002 39.1470   4
  14  -3 -11 1300.91 93.4412   6
   3 -14 -11 1531.47 104.771   4
  -3  14 -11 1428.44 105.396   5
  -3  14 -13 112.471 39.8383   5
  14  -3 -13 87.8775 31.0282   6
   3 -14 -13 96.2103 35.5822   4
  -3  14 -15 5.63537 26.4277   5
  14  -3 -15 22.1285 22.9176   6
  -3  14 -17 47.6081 20.8795   5
  14  -3 -17 29.5331 17.4996   6
   4  14 -18-13.1605 13.5963   5
   4  14 -14 146.588 39.3423   5
   4  14 -12 261.423 51.1754   5
   4  14 -10 979.088 91.5743   5
  -4 -14  -8 1235.95 85.3918   4
  14   4  -8 1385.38 112.561   5
   4  14  -8 1279.20 101.705   5
   4  14  -6 65.2431 40.5962   5
   4 -14   6 34.9463 47.3559   2
   4 -14   6 127.673 61.3657   3
  -4 -14  -6 81.8624 34.0731   4
  14   4  -6 56.2014 43.7585   5
   4 -14   4 230.978 67.0268   2
   4 -14   4 448.150 68.2225   4
  -4 -14  -4 386.010 54.6021   4
  14   4  -4 311.363 61.1668   5
   4  14  -4 251.223 43.5486   5
   4 -14   2 1613.86 120.745   4
  -4 -14  -2 1703.86 107.957   4
   4 -14   2 1654.43 157.395   2
   4 -14   2 1590.97 163.839   3
   4 -14   0 6119.88 245.386   6
   4 -14   0 5979.26 273.559   4
  -4 -14   0 6037.70 318.548   2
   4 -14   0 5628.06 337.494   3
  -4 -14   2 1760.26 155.683   3
   4 -14  -2 1918.97 104.422   6
   4 -14  -2 1840.40 126.879   4
  -4 -14   2 1781.50 155.709   2
   4 -14  -2 1813.69 166.889   3
  -4 -14   4 222.154 66.6251   2
  -4 -14   4 335.318 80.7590   3
   4 -14  -4 272.000 41.2309   6
   4 -14  -4 200.580 54.1770   4
  -4 -14   6 88.7489 58.0623   3
   4 -14  -6 118.458 33.9417   6
  -4 -14   6 131.903 57.7438   2
  14  -4  -8 1100.01 90.4489   6
   4 -14  -8 1250.74 84.5435   6
  -4 -14   8 1377.48 145.582   2
   4 -14  -8 1314.83 102.469   4
  -4 -14   8 1274.15 155.292   3
  -4  14  -8 1030.90 88.3229   5
  14  -4 -10 778.241 72.2618   6
   4 -14 -10 835.695 71.4593   6
   4 -14 -10 812.823 79.8609   4
  -4  14 -10 890.321 82.8520   5
  -4  14 -12 144.677 41.4034   5
  14  -4 -12 161.234 38.2251   6
   4 -14 -12 156.238 42.7163   4
  -4  14 -14 114.888 36.0149   5
  14  -4 -14 72.3385 28.6236   6
   4 -14 -14 133.832 35.2345   4
  -4  14 -16 60.0632 24.0727   5
  14  -4 -16 46.1732 20.9052   6
  -4  14 -18-7.82733 13.1215   5
   5  14 -17 295.592 30.1206   5
   5  14 -13 62.9552 33.6871   5
   5  14 -11 288.134 56.1712   5
  14   5  -9 930.721 97.2263   5
   5  14  -9 918.000 88.3817   5
   5 -14   7 3507.97 280.931   3
  -5 -14  -7 3877.55 180.440   4
   5 -14   7 4096.34 269.981   2
  14   5  -7 4293.73 226.521   5
   5  14  -7 3992.92 198.030   5
   5 -14   5 836.550 116.300   2
   5 -14   5 873.969 134.966   3
  -5 -14  -5 1040.82 79.0493   4
  14   5  -5 1010.76 98.8161   5
   5  14  -5 1113.75 85.4978   5
   5 -14   3 679.701 100.694   2
   5 -14   3 509.664 76.7591   4
  -5 -14  -3 453.217 57.2944   4
  14   5  -3 554.473 70.7444   5
   5  14  -3 523.296 55.2419   5
   5 -14   1 277.383 76.6954   3
   5 -14   1 400.928 68.9441   4
  -5 -14   1 628.185 92.1965   2
   5 -14  -1 396.853 88.0763   3
   5 -14  -1 504.879 52.0972   6
   5 -14  -1 489.787 75.0141   4
  -5 -14   3 592.583 91.3074   2
   5 -14  -3 644.476 59.2607   6
   5 -14  -3 590.243 75.2125   4
  14  -5  -5 1119.38 91.3114   6
  -5 -14   5 1277.80 136.268   2
   5 -14  -5 1166.02 81.5370   6
   5 -14  -5 1208.14 101.560   4
  -5 -14   5 987.518 128.939   3
  14  -5  -7 3653.22 187.511   6
   5 -14  -7 3734.88 173.660   6
  -5 -14   7 3571.28 267.002   3
  -5 -14   7 3805.96 257.528   2
  14  -5  -9 752.898 72.9086   6
   5 -14  -9 751.009 66.7932   6
   5 -14  -9 723.343 78.9887   4
  -5  14  -9 754.559 74.3064   5
  -5  14 -11 232.914 46.2197   5
  14  -5 -11 144.360 40.8756   6
   5 -14 -11 109.929 36.2582   6
   5 -14 -11 224.353 48.1759   4
  -5  14 -13 31.8731 29.2096   5
  14  -5 -13 94.9383 31.2030   6
   5 -14 -13 72.9035 27.2362   6
   5 -14 -13 63.0041 32.8922   4
  14  -5 -15 457.889 45.5218   6
  -5  14 -15 528.873 48.3557   5
  -5  14 -17 300.657 30.7251   5
  14  -5 -17 243.534 27.2235   6
   6  14 -16 111.999 23.7460   5
   6  14 -12 1426.85 102.308   5
  14   6 -10 1266.64 110.418   5
   6  14 -10 1273.31 102.785   5
   6  14  -8 827.476 83.5406   5
  14   6  -8 1003.13 112.083   5
  -6 -14  -6 2532.42 129.050   4
   6 -14   6 2296.89 194.530   2
  14   6  -6 2658.68 168.920   5
   6  14  -6 2525.68 143.370   5
   6 -14   6 2156.67 214.470   3
  -6 -14  -4 4598.93 199.733   4
   6 -14   4 4465.50 280.974   2
  14   6  -4 4231.64 222.232   5
   6  14  -4 4407.05 202.112   5
   6 -14   4 4066.50 301.415   3
   6 -14   2 2423.98 167.337   4
  -6 -14  -2 2822.14 144.749   4
  14   6  -2 2617.79 154.586   5
   6  14  -2 2728.99 136.847   5
   6 -14   0 12.1419 45.9146   3
   6 -14   0 40.5611 29.2474   6
   6 -14   0 62.4390 53.5977   4
   6 -14  -2 2535.88 132.429   6
   6 -14  -2 2607.92 166.156   4
  14  -6  -4 4350.36 211.981   6
   6 -14  -4 4673.20 202.052   6
   6 -14  -4 4648.22 231.788   4
  14  -6  -6 2329.49 141.081   6
   6 -14  -6 2509.08 133.408   6
   6 -14  -6 2661.41 158.331   4
  14  -6  -8 714.190 75.4344   6
   6 -14  -8 792.440 69.2538   6
   6 -14  -8 576.544 76.2054   4
  14  -6 -10 1216.75 91.3719   6
   6 -14 -10 1252.51 88.6274   6
   6 -14 -10 1291.12 98.1281   4
  -6  14 -10 1213.73 92.6150   5
  14  -6 -12 1380.31 91.8714   6
   6 -14 -12 1348.19 88.6178   6
   6 -14 -12 1380.95 97.2007   4
  -6  14 -12 1299.17 90.0632   5
  14  -6 -14 860.013 61.7878   6
   6 -14 -14 746.719 55.2929   6
  -6  14 -14 745.451 60.0422   5
  -6  14 -16 63.0922 21.1569   5
  14  -6 -16 70.0256 21.0744   6
   7  14 -15 269.494 34.6545   5
   7  14 -11 871.499 80.3634   5
  14   7 -11 574.206 72.3763   5
   7  14  -9 1092.56 92.1029   5
  14   7  -9 876.229 107.204   5
  14   7  -7 5217.13 275.011   5
   7  14  -7 5188.56 240.487   5
  -7 -14  -5 4234.77 187.836   4
  14   7  -5 4458.92 230.299   5
   7  14  -5 4071.82 199.840   5
   7 -14   3 340.437 88.6044   3
  -7 -14  -3 343.689 50.0244   4
  14   7  -3 224.033 55.0787   5
   7  14  -3 372.761 50.1710   5
   7 -14   1 8446.04 382.235   4
   7 -14   1 8462.37 331.276   6
   7  14  -1 8331.16 326.918   5
   7 -14  -1 8830.62 395.785   4
   7 -14  -1 8956.17 347.196   6
  14  -7  -3 265.403 48.4219   6
   7 -14  -3 297.117 47.0957   6
   7 -14  -3 302.965 68.8856   4
  14  -7  -5 4276.97 213.723   6
   7 -14  -5 4681.96 205.559   6
   7 -14  -5 4643.38 237.132   4
  14  -7  -7 5696.21 254.218   6
   7 -14  -7 5555.14 239.951   6
   7 -14  -7 5369.32 260.944   4
  14  -7  -9 917.942 79.2123   6
   7 -14  -9 1039.19 79.9840   6
   7 -14  -9 839.842 82.9592   4
  14  -7 -11 930.697 75.0545   6
   7 -14 -11 1026.38 82.6467   4
   7 -14 -11 971.477 77.1758   6
  -7  14 -11 784.006 71.2649   5
  14  -7 -13 582.237 54.0905   6
   7 -14 -13 617.549 55.1651   6
  -7  14 -13 635.789 56.7387   5
  -7  14 -15 252.216 33.2823   5
  14  -7 -15 250.091 32.4633   6
   7 -14 -15 300.567 30.7996   6
   8  14 -16 270.970 26.3298   5
   8  14 -14 370.346 39.9346   5
  14   8 -12 232.977 43.9347   5
   8  14 -10 1596.60 101.861   5
  14   8 -10 315.931 63.3565   5
  14   8  -8 2520.17 184.096   5
   8  14  -8 2473.48 144.406   5
  14   8  -6 103.793 54.9649   5
   8  14  -6 168.242 46.5736   5
  -8 -14  -4 7874.63 309.926   4
  14   8  -4 8307.46 351.988   5
   8  14  -4 7764.32 320.582   5
  -8 -14  -2 7154.57 292.231   4
  14   8  -2 7171.36 314.889   5
   8  14  -2 7390.85 293.927   5
   8 -14   0 674.724 66.9020   6
  14  -8   0 730.191 75.6643   6
   8 -14   0 748.343 102.932   4
   8  14   0 813.065 64.7467   5
  14  -8  -2 7067.26 312.749   6
   8 -14  -2 7571.00 304.166   6
  14  -8  -4 7929.55 335.561   6
   8 -14  -4 8457.71 369.349   4
   8 -14  -4 8081.60 322.861   6
  14  -8  -6 143.900 44.3869   6
   8 -14  -6 96.5358 35.6629   6
   8 -14  -6 115.709 51.9613   4
  14  -8  -8 2887.84 160.178   6
   8 -14  -8 2895.84 168.337   4
   8 -14  -8 3224.54 157.491   6
  14  -8 -10 1657.40 106.506   6
   8 -14 -10 1586.12 111.878   4
   8 -14 -10 1763.53 107.041   6
  -8  14 -12 370.128 44.5973   5
  14  -8 -12 385.593 46.7560   6
   8 -14 -12 463.072 50.1670   6
  -8  14 -14 373.972 38.6220   5
  14  -8 -14 488.051 43.7662   6
   8 -14 -14 427.083 41.0628   6
  14  -8 -16 266.730 26.9356   6
   9 -14  15 63.3269 14.7461   6
   9  14 -15 37.2206 15.6848   5
  14   9 -13 251.402 36.0546   5
   9  14 -13 352.017 41.4585   5
  14   9 -11 125.058 40.2511   5
  14   9  -9 82.6748 48.5304   5
   9  14  -9 82.8249 43.4421   5
  14   9  -7 2041.62 151.880   5
   9  14  -7 1983.99 126.058   5
   9 -14   5 3722.88 179.992   6
  14   9  -5 3878.95 208.213   5
   9  14  -5 3664.94 182.811   5
   9 -14   3 1639.18 104.326   6
  -9 -14  -3 1638.65 97.1098   4
  14   9  -3 1607.02 116.336   5
   9  14  -3 1680.07 106.151   5
  14  -9   1 4753.41 226.983   6
   9 -14   1 4425.18 205.043   6
   9  14  -1 4715.79 205.382   5
   9 -14  -1 4253.14 248.921   4
  14  -9  -1 4550.52 218.187   6
   9  14   1 4515.53 195.609   5
  14  -9  -3 1577.45 107.630   6
   9 -14  -3 1455.93 130.684   4
   9 -14  -3 1358.81 94.5791   6
  14  -9  -5 4297.29 205.363   6
   9 -14  -5 4149.01 228.938   4
   9 -14  -5 4058.07 194.260   6
  14  -9  -7 2418.53 143.689   6
   9 -14  -7 2559.54 155.543   4
   9 -14  -7 2594.74 138.401   6
  14  -9  -9 113.860 40.1956   6
   9 -14  -9 47.4051 35.7433   6
   9 -14  -9 70.7373 36.8715   4
  14  -9 -11 251.787 40.8159   6
   9 -14 -11 260.175 44.0569   6
  -9  14 -13 300.178 34.7227   5
  14  -9 -13 328.060 39.0255   6
   9 -14 -13 329.048 38.3607   6
  14  -9 -15 53.1458 17.2695   6
   9 -14 -15 50.0294 15.5550   6
  10  14 -14 40.0393 17.7133   5
  10 -14  12 24.1135 19.3728   6
  14  10 -12 2.94608 25.0987   5
  10 -14  10 383.490 46.3725   6
  14  10 -10 255.109 52.4313   5
  10  14 -10 408.670 55.3219   5
  10 -14   8 187.400 40.1946   6
  14  10  -8 191.356 56.3606   5
  10  14  -8 170.799 43.6424   5
  10 -14   6 948.792 76.4813   6
  10  14  -6 755.903 72.3441   5
  14  10  -6 773.996 88.5792   5
  10 -14   4 923.634 77.1254   6
  10  14  -4 953.602 78.0006   5
  14 -10   2 1244.71 99.3532   6
  10 -14   2 1101.56 83.0499   6
 -10 -14  -2 1055.18 75.6732   4
  14  10  -2 1037.83 88.2308   5
  10  14  -2 1111.08 81.7836   5
  14 -10   0 1434.55 104.543   6
  10 -14   0 1185.73 88.7632   6
  10  14   0 1440.55 89.8658   5
  14 -10  -2 1365.92 100.759   6
  10 -14  -2 1069.90 116.031   4
  14 -10  -4 1059.87 87.8225   6
  10 -14  -4 994.730 105.584   4
  10 -14  -6 1076.57 100.165   4
  14 -10  -6 942.128 82.3347   6
  10 -14  -6 1007.57 79.5498   6
  14 -10  -8 240.773 49.2902   6
  10 -14  -8 359.706 58.2167   4
  10 -14  -8 306.798 48.5344   6
  14 -10 -10 430.579 50.0574   6
  10 -14 -10 415.789 52.4627   6
  14 -10 -12-7.37288 23.4748   6
  10 -14 -12 10.1061 23.0928   6
  14 -10 -14 51.3832 18.9415   6
  10 -14 -14 44.5275 18.0246   6
  14  11 -13 111.121 20.6854   5
  11  14 -13 69.7566 21.2152   5
  11 -14  11 101.836 24.8761   6
  14  11 -11 87.9048 31.5562   5
  11 -14   9 567.384 55.5475   6
  14  11  -9 522.733 67.8549   5
  11  14  -9 515.654 59.1477   5
  11 -14   7 177.357 39.8237   6
  14  11  -7 200.206 54.6378   5
  11  14  -7 144.646 41.3586   5
  14 -11   5 653.557 72.5304   6
  11 -14   5 607.962 63.0383   6
  11  14  -5 731.794 68.1332   5
  14 -11   3 4.86196 32.6502   6
  11 -14   3 21.9843 30.9825   6
  14  11  -3 17.1902 35.4877   5
  11  14  -3 54.0255 31.6045   5
  14 -11   1 233.957 49.1193   6
  11 -14   1 272.854 44.7061   6
 -11 -14  -1 288.924 41.2608   4
  11  14  -1 280.587 42.5652   5
  14 -11  -1 136.577 41.7700   6
  11 -14  -1 249.208 44.4249   6
  11 -14  -3 32.9881 49.4027   4
  14 -11  -3 8.42704 33.0640   6
  11 -14  -3 21.6845 29.3568   6
  14 -11  -5 757.036 71.5611   6
  11 -14  -5 822.275 89.0901   4
  14 -11  -7 261.490 45.7507   6
  14 -11  -9 669.618 61.8669   6
  11 -14  -9 730.737 63.6120   6
  14 -11 -11 74.5257 27.2358   6
  11 -14 -11 116.835 30.8255   6
  14 -11 -13 95.1449 20.8145   6
  11 -14 -13 79.0838 20.9800   6
  14  12 -12 206.622 27.3696   5
  12  14 -12 204.373 26.6859   5
  12 -14  10 745.092 52.4171   6
  14  12 -10 794.495 65.4626   5
  12 -14   8 332.162 42.7027   6
  14  12  -8 294.000 52.8031   5
  12  14  -8 256.869 45.1651   5
  14 -12   6-11.5878 33.9017   6
  12 -14   6 33.5690 27.9586   6
  14 -12   4 956.602 81.9455   6
  12 -14   4 914.175 75.8496   6
  14  12  -4 1049.43 84.6336   5
  12  14  -4 1166.74 81.7193   5
  14 -12   2 505.924 60.7420   6
  12 -14   2 503.051 54.8284   6
  12  14  -2 518.816 55.5134   5
  14 -12   0 24.7973 33.8733   6
  12 -14   0 42.2642 29.1117   6
 -12 -14   0 57.8999 26.6900   4
  14 -12  -2 418.459 56.4241   6
  12 -14  -2 491.694 55.0193   6
  14 -12  -4 948.721 77.9117   6
  12 -14  -4 855.281 70.5746   6
  14 -12  -6 60.0427 31.9210   6
  12 -14  -6 66.4163 32.3533   6
  14 -12  -8 255.372 43.1383   6
  14 -12 -10 964.856 65.7750   6
  14 -12 -12 216.394 27.2046   6
  12 -14 -12 219.738 27.4688   6
  13  14 -11 562.133 41.6862   5
  14  13  -9 734.983 61.3625   5
  13 -14   7 750.262 59.6822   6
  13  14  -7 790.846 65.0268   5
  14 -13   5 1095.01 78.9985   6
  13 -14   5 1072.37 77.1693   6
  14  13  -5 1032.04 80.5823   5
  13  14  -5 1113.17 79.5120   5
  14 -13   3 223.368 41.6551   6
  13 -14   3 170.177 38.5275   6
  14 -13   1 1144.63 83.3956   6
  13 -14   1 1027.53 77.6802   6
  14 -13  -1 1112.31 81.1259   6
  13 -14  -1 1021.21 75.8401   6
  14 -13  -3 199.108 40.3697   6
  13 -14  -3 233.394 41.3832   6
  14 -13  -5 1122.27 80.3191   6
  13 -14  -5 1176.31 79.9760   6
  14 -13  -7 834.309 64.9142   6
  13 -14  -7 849.544 65.1278   6
  14 -13  -9 823.136 57.4564   6
  13 -14  -9 752.369 57.7129   6
  14 -13 -11 638.442 42.9870   6
  14 -14   6 2.36322 20.4319   6
  14 -14   4 1064.68 72.4409   6
  14 -14   2 954.469 70.9393   6
  14 -14   0 1367.41 87.9430   6
  14 -14  -2 1068.07 74.3351   6
  14 -14  -4 1132.96 75.2970   6
  14 -14  -6-7.82229 21.3528   6
  14 -14  -8 497.025 42.9151   6
   0 -15   1 2068.14 182.657   3
   0 -15  -1 2442.28 142.539   4
   0 -15   1 2329.73 141.290   4
   0 -15   1 2090.04 180.715   2
   0 -15  -1 2374.83 181.981   3
   0 -15   3 7486.68 409.025   3
   0 -15   3 7140.52 312.126   4
   0 -15   3 7579.47 391.673   2
   0 -15   5 249.494 78.6069   3
   0 -15  -5 248.451 50.1896   4
   0 -15   5 197.556 49.6221   4
   0  15  -7 548.742 61.3919   5
   0 -15  -7 509.030 63.8322   4
   0 -15   7 452.035 64.2551   4
   0 -15  -9 7398.96 303.438   4
   0 -15   9 7298.18 298.753   4
   0  15  -9 6946.27 306.334   5
   0 -15 -11 1453.22 99.0011   4
   0  15 -11 1600.95 109.572   5
   0  15 -13 139.579 38.6793   5
   0 -15 -13 196.205 34.8448   4
   0  15 -15 934.987 65.7891   5
   0  15 -17 192.326 25.0296   5
   1  15 -16 101.346 25.8013   5
   1  15 -14 919.352 69.9093   5
  -1 -15 -12 2416.65 127.655   4
   1  15 -12 2617.69 143.495   5
  -1 -15 -10 1317.26 93.7952   4
   1  15 -10 1456.10 106.718   5
  -1 -15  -8 3301.42 166.403   4
   1 -15   8 3281.55 166.018   4
   1  15  -8 3010.66 166.927   5
   1 -15   6 3924.46 294.099   3
  -1 -15  -6 3752.25 185.077   4
   1 -15   6 3748.82 190.012   4
   1 -15   6 3639.50 263.761   2
   1  15  -6 3548.92 178.452   5
   1 -15   4 4084.75 293.586   3
  -1 -15  -4 4723.50 209.217   4
   1 -15   4 3867.77 205.733   4
   1 -15   4 4247.09 281.331   2
   1 -15   2 2318.56 199.838   3
   1 -15   2 2138.52 134.194   4
  -1 -15   0 5203.63 297.375   3
   1 -15   0 5049.69 211.500   6
   1 -15   0 5289.40 242.537   4
   1 -15   0 4698.80 297.615   2
  -1 -15   0 5500.71 306.449   2
  -1 -15   0 5651.79 243.904   4
   1 -15   0 5239.35 310.408   3
  -1 -15   2 2198.15 189.508   3
   1 -15  -2 2051.25 128.730   4
  -1 -15   2 2069.28 129.156   4
  -1 -15   2 1949.47 172.577   2
   1 -15  -2 1735.83 159.734   3
  -1 -15   4 5203.02 326.090   3
  -1 -15   4 4624.69 224.092   4
  -1 -15   4 4415.03 285.866   2
  -1 -15   6 3530.14 270.333   3
   1 -15  -6 3498.43 178.978   4
  -1 -15   6 3399.28 251.034   2
   1 -15  -8 3255.11 168.712   4
  -1  15  -8 3068.68 164.781   5
   1 -15 -10 1721.76 111.664   4
  -1 -15  10 1686.76 103.651   4
  -1  15 -10 1637.34 113.902   5
   1 -15 -12 2552.46 136.314   4
  -1  15 -12 2669.21 143.150   5
   1 -15 -14 738.239 56.1763   4
  -1  15 -14 829.638 65.2274   5
  -1  15 -16 114.508 26.4463   5
   2  15 -17 186.792 24.5925   5
   2  15 -15 307.564 39.1270   5
   2  15 -13 168.652 39.0851   5
   2  15 -11 420.027 63.9932   5
  -2 -15 -11 540.244 55.2134   4
  -2 -15  -9 1565.18 101.662   4
   2  15  -9 1469.35 107.880   5
  -2 -15  -7 810.688 73.8004   4
   2 -15   7 828.618 79.1574   4
   2  15  -7 826.055 78.5294   5
   2 -15   5 784.733 116.129   2
   2 -15   5 948.245 136.098   3
  -2 -15  -5 855.998 77.2056   4
   2  15  -5 752.078 68.5350   5
   2 -15   5 747.481 78.4535   4
   2 -15   3 491.034 90.3251   2
   2 -15   3 339.750 86.2649   3
  -2 -15  -3 308.646 56.0163   4
   2 -15   3 347.406 59.5149   4
   2 -15   1 598.714 96.8842   2
   2 -15   1 518.207 95.6296   3
   2 -15   1 711.937 77.4237   4
  -2 -15  -1 592.011 71.2068   4
  -2 -15   1 618.094 94.7392   2
   2 -15  -1 554.076 50.6326   6
   2 -15  -1 530.534 92.9339   3
  -2 -15   1 565.994 89.0603   3
   2 -15  -1 573.290 71.5596   4
  -2 -15   1 607.667 73.8489   4
  -2 -15   3 430.491 82.0936   2
   2 -15  -3 452.846 45.8936   6
  -2 -15   3 556.319 97.9278   3
   2 -15  -3 341.274 59.2891   4
  -2 -15   5 716.880 107.277   2
  -2 -15   5 948.160 131.837   3
   2 -15  -7 1025.86 90.5082   4
   2 -15  -9 2035.92 124.203   4
  -2  15  -9 1713.25 116.810   5
  -2  15 -11 726.350 73.1549   5
   2 -15 -11 617.600 65.4129   4
  -2  15 -13 213.065 42.8205   5
   2 -15 -13 252.076 40.0716   4
  -2  15 -15 299.623 39.2828   5
  -2  15 -17 208.902 24.8712   5
   3  15 -16 134.347 25.2393   5
   3  15 -14 198.413 37.1188   5
   3  15 -12 594.722 64.0985   5
  -3 -15 -10 1013.11 73.7368   4
   3  15 -10 917.994 84.0482   5
   3  15  -8 361.531 57.1233   5
  -3 -15  -8 371.213 49.6981   4
   3  15  -6 197.228 42.3108   5
  -3 -15  -6 141.283 41.1583   4
   3 -15   6 140.883 44.6176   4
   3 -15   4 1115.35 146.408   3
   3 -15   4 1425.34 106.997   4
  -3 -15  -4 1335.00 95.5580   4
   3 -15   4 1459.47 151.510   2
   3  15  -4 1369.25 89.3160   5
   3 -15   2 927.101 121.945   2
   3 -15   2 837.182 122.971   3
   3 -15   2 902.919 86.1296   4
  -3 -15  -2 1067.98 86.1594   4
   3 -15   0 1412.79 88.1804   6
   3 -15   0 1554.66 112.109   4
  -3 -15   0 1349.83 136.822   2
  -3 -15   0 1554.51 108.417   4
   3 -15   0 1427.23 152.285   3
  -3 -15   2 1160.40 126.138   2
   3 -15  -2 987.265 70.2785   6
   3 -15  -2 903.016 117.438   3
   3 -15  -2 1143.84 96.1079   4
  -3 -15   2 1067.76 126.986   3
  -3 -15   4 1576.51 160.215   3
   3 -15  -4 1428.46 87.7827   6
   3 -15  -4 1441.82 108.070   4
  -3 -15   4 1778.35 161.151   2
   3 -15  -6 173.316 35.2304   6
  -3  15  -8 378.205 52.5902   5
   3 -15  -8 390.007 60.3219   4
   3 -15 -10 1209.48 93.4025   4
  -3  15 -10 931.731 82.0090   5
  15  -3 -12 586.625 54.1188   6
   3 -15 -12 704.343 66.0892   4
  -3  15 -12 672.733 64.8227   5
  -3  15 -14 236.383 37.3646   5
  15  -3 -14 193.948 29.7931   6
   3 -15 -14 207.366 35.1435   4
  -3  15 -16 96.9904 22.3192   5
  15  -3 -16 61.2553 17.5363   6
   4  15 -15 526.060 46.5965   5
   4  15 -13 35.7473 31.6185   5
   4  15 -11 87.1723 38.3386   5
  -4 -15  -9 934.455 72.2371   4
   4  15  -9 1001.74 87.2705   5
  -4 -15  -7 3462.26 167.096   4
   4  15  -7 3478.43 177.954   5
   4 -15   5 465.422 66.1796   4
  -4 -15  -5 496.471 57.6200   4
   4  15  -5 510.073 59.7584   5
   4 -15   3 253.070 74.7614   2
   4 -15   3 234.452 73.9606   3
   4 -15   3 226.210 52.0183   4
  -4 -15  -3 254.119 48.1135   4
   4 -15   1 157.780 61.1577   3
   4 -15   1 87.0928 31.0699   6
   4 -15   1 180.253 53.0564   4
  -4 -15  -1 138.550 44.4191   4
  -4 -15   1 136.493 51.3188   2
   4 -15  -1 238.748 68.6302   3
   4 -15  -1 109.601 32.5002   6
   4 -15  -1 178.615 52.8997   4
  -4 -15   3 236.259 65.0447   2
   4 -15  -3 204.490 37.3547   6
   4 -15  -3 276.178 54.9631   4
   4 -15  -5 589.992 55.1024   6
   4 -15  -5 576.219 71.2844   4
   4 -15  -7 3656.98 169.133   6
  15  -4  -9 983.174 77.6628   6
   4 -15  -9 871.174 69.8844   6
   4 -15  -9 970.570 89.4446   4
  -4  15  -9 862.803 74.7896   5
  -4  15 -11 152.980 38.2088   5
  15  -4 -11 120.640 32.7703   6
   4 -15 -11 163.410 40.5622   4
  -4  15 -13 51.8994 29.0748   5
  15  -4 -13 58.9836 24.2937   6
   4 -15 -13 96.2261 32.4524   4
  15  -4 -15 440.613 38.6180   6
  -4  15 -15 485.343 43.4997   5
  -4  15 -17 215.511 22.7062   5
   5  15 -14 1006.12 68.6262   5
   5  15 -12 1898.54 114.736   5
   5  15 -10 1091.66 89.5487   5
  -5 -15  -8 243.338 40.7438   4
   5  15  -8 259.862 50.8157   5
  -5 -15  -6 3007.45 152.782   4
   5  15  -6 3251.14 164.814   5
  -5 -15  -4 744.827 68.9426   4
   5  15  -4 847.490 70.7147   5
   5 -15   2 179.525 67.3956   3
   5 -15   2 121.828 48.4688   4
  -5 -15  -2 157.001 44.2026   4
   5 -15   0-24.0740 45.5029   3
   5 -15   0 27.5644 43.6380   4
  -5 -15   0 12.6442 37.7557   4
  -5 -15   2 225.730 59.4248   2
   5 -15  -2 170.409 36.2245   6
   5 -15  -2 193.275 52.5554   4
   5 -15  -4 800.250 66.2334   6
   5 -15  -4 805.565 85.7991   4
   5 -15  -6 3695.25 169.311   6
   5 -15  -6 3486.74 189.444   4
  15  -5  -8 327.269 49.7458   6
   5 -15  -8 368.074 48.1574   6
  15  -5 -10 1013.05 79.1942   6
   5 -15 -10 1158.58 81.0649   6
   5 -15 -10 1257.83 94.4063   4
  -5  15 -10 1071.54 83.1560   5
  15  -5 -12 1983.19 108.091   6
   5 -15 -12 2085.82 119.195   4
  -5  15 -12 1921.30 110.619   5
  15  -5 -14 896.864 59.0386   6
  -5  15 -14 844.189 60.4034   5
  -5  15 -16 25.5319 15.0283   5
  15  -5 -16 8.08381 13.4107   6
   6  15 -13 251.624 41.5893   5
   6  15 -11 733.561 72.9439   5
  15   6  -9 3152.90 182.103   5
   6  15  -9 3086.61 163.260   5
  -6 -15  -7 6122.12 252.921   4
  15   6  -7 6407.61 313.717   5
   6  15  -7 6404.41 274.380   5
  -6 -15  -5 160.379 38.1736   4
   6  15  -5 203.535 44.7671   5
  -6 -15  -3 820.513 69.5039   4
   6  15  -3 684.748 62.3800   5
   6 -15   1 1143.95 82.7932   6
   6 -15   1 1118.52 105.975   4
  -6 -15  -1 1163.56 90.5008   4
   6 -15  -1 1095.70 81.2133   6
   6 -15  -1 1127.77 104.430   4
   6 -15  -3 824.872 67.9525   6
   6 -15  -3 690.090 84.0759   4
   6 -15  -5 160.908 36.4245   6
   6 -15  -5 145.043 47.3919   4
  15  -6  -7 5926.15 264.504   6
   6 -15  -7 6092.77 254.563   6
   6 -15  -7 6168.97 277.440   4
  15  -6  -9 3024.82 157.397   6
   6 -15  -9 3257.78 156.435   6
  15  -6 -11 821.068 65.7336   6
   6 -15 -11 812.099 64.1351   6
   6 -15 -11 781.915 72.8893   4
  -6  15 -11 726.578 64.6734   5
  -6  15 -13 233.931 36.1587   5
  15  -6 -13 254.945 35.3532   6
   6 -15 -13 231.933 31.5625   6
  15  -6 -15 785.180 48.7097   6
  -6  15 -15 657.672 46.1663   5
   7  15 -12 1656.19 99.0009   5
   7  15 -10 1048.80 82.6446   5
  15   7 -10 730.447 79.8694   5
  15   7  -8 557.043 88.6888   5
   7  15  -8 657.599 69.1725   5
  -7 -15  -6 2229.63 117.307   4
  15   7  -6 2329.67 163.356   5
   7  15  -6 2203.07 130.251   5
  -7 -15  -4 2064.27 117.536   4
   7  15  -4 2273.87 125.642   5
   7 -15   2 2016.17 115.636   6
  -7 -15  -2 2034.44 117.891   4
   7  15  -2 2056.42 113.244   5
   7 -15   0 303.740 47.4890   6
   7 -15   0 285.880 63.5769   4
   7 -15  -2 2020.02 116.065   6
   7 -15  -2 1990.18 143.698   4
  15  -7  -4 2245.95 138.807   6
   7 -15  -4 2297.68 126.627   6
   7 -15  -4 2404.36 155.359   4
  15  -7  -6 2245.01 138.556   6
   7 -15  -6 2458.90 129.580   6
   7 -15  -6 2133.75 142.879   4
  15  -7  -8 669.309 67.5873   6
   7 -15  -8 543.311 59.0629   6
   7 -15  -8 573.135 67.4434   4
  15  -7 -10 1029.35 77.9931   6
   7 -15 -10 1012.53 76.8322   6
  15  -7 -12 1447.71 86.7383   6
   7 -15 -12 1558.57 94.7707   4
   7 -15 -12 1622.29 88.5973   6
  -7  15 -12 1434.72 86.6038   5
  15  -7 -14 443.550 38.8479   6
   7 -15 -14 419.274 33.8716   6
  -7  15 -14 421.750 36.8705   5
   8  15 -15-1.36620 13.3605   5
   8  15 -13 206.031 32.3476   5
  15   8 -11 257.874 45.5662   5
   8  15 -11 316.902 47.0974   5
  15   8  -9 77.7774 43.7537   5
   8  15  -9 205.120 43.8138   5
  15   8  -7 1396.97 132.602   5
   8  15  -7 1373.84 97.7620   5
  -8 -15  -5 1007.85 71.5544   4
   8  15  -5 982.540 80.3959   5
  15   8  -5 1064.83 106.983   5
  -8 -15  -3 188.211 39.0518   4
   8  15  -3 218.250 40.7964   5
   8 -15   1 2064.37 119.403   6
  -8 -15  -1 2085.78 120.964   4
   8  15  -1 2266.73 117.944   5
   8 -15  -1 1810.88 145.372   4
   8 -15  -1 2221.00 120.044   6
  15  -8  -3 110.835 41.5495   6
   8 -15  -3 110.773 33.7483   6
   8 -15  -3 191.622 60.9276   4
  15  -8  -5 1068.00 91.5178   6
   8 -15  -5 1029.70 99.7944   4
   8 -15  -5 1267.02 86.8037   6
  15  -8  -7 1483.41 104.209   6
   8 -15  -7 1579.93 113.631   4
   8 -15  -7 1508.39 98.0695   6
  15  -8  -9 164.455 39.7390   6
   8 -15  -9 197.041 38.3165   6
   8 -15  -9 171.012 44.1275   4
  15  -8 -11 333.084 43.1406   6
   8 -15 -11 441.597 48.5312   6
  15  -8 -13 206.455 30.8300   6
   8 -15 -13 211.089 28.5559   6
   9  15 -14 151.227 21.6285   5
   9 -15  12 23.6038 20.1337   6
   9  15 -12 17.2719 21.6545   5
   9 -15  10 161.952 34.6150   6
  15   9 -10 102.287 38.9698   5
   9  15 -10 159.780 39.1603   5
   9 -15   8 348.168 46.5301   6
  15   9  -8 272.131 67.0482   5
   9  15  -8 360.470 52.1104   5
   9 -15   6 633.051 62.4767   6
  15   9  -6 731.520 89.6775   5
   9  15  -6 607.434 64.9807   5
   9 -15   4 394.483 49.3884   6
  -9 -15  -4 386.627 45.4451   4
   9  15  -4 456.761 52.1503   5
  -9 -15  -2 1720.68 102.275   4
   9  15  -2 1801.72 105.008   5
   9  15   0 1651.02 95.6522   5
  15  -9  -2 1474.82 110.819   6
   9 -15  -2 1601.16 128.179   4
   9 -15  -2 1594.60 100.296   6
  15  -9  -4 261.488 50.2050   6
   9 -15  -4 306.964 48.2764   6
   9 -15  -4 220.181 57.6499   4
  15  -9  -6 934.490 82.2027   6
   9 -15  -6 733.815 67.3367   6
   9 -15  -6 844.276 84.5784   4
  15  -9  -8 367.600 50.8275   6
   9 -15  -8 458.761 51.6015   6
   9 -15  -8 438.592 58.7080   4
  15  -9 -10 140.407 35.0034   6
   9 -15 -10 189.451 36.4951   6
  15  -9 -12-6.58280 19.6566   6
   9 -15 -12-2.17478 20.0087   6
  15  -9 -14 95.3505 18.2115   6
  10 -15  11 12.9533 18.9541   6
  10  15 -11 46.0756 26.1701   5
  10 -15   9-2.91179 24.4230   6
  15  10  -9-9.63304 36.4152   5
  10  15  -9 3.34048 28.8810   5
  10 -15   7 29.2965 28.1686   6
  15  10  -7 17.1375 42.7884   5
  10  15  -7 60.8998 34.0321   5
  10 -15   5 934.316 75.8535   6
  15  10  -5 1018.28 92.7757   5
  10  15  -5 1135.93 81.6386   5
  10 -15   3 585.846 59.8140   6
  10  15  -3 453.471 53.0937   5
  15 -10   1 47.0451 38.1463   6
  10 -15   1 178.274 40.4804   6
 -10 -15  -1 135.776 34.8878   4
  10  15  -1 100.047 31.4837   5
  15 -10  -1 104.080 37.6237   6
  15 -10  -3 583.569 69.7836   6
  10 -15  -3 686.731 84.3162   4
  10 -15  -5 1174.97 101.095   4
  15 -10  -5 1273.62 94.6389   6
  10 -15  -5 1154.77 83.8795   6
  15 -10  -7 30.6305 33.4157   6
  10 -15  -7 63.2815 38.1111   4
  10 -15  -7 113.018 36.4500   6
  15 -10  -9 3.04242 25.7171   6
  10 -15  -9-3.06558 26.3086   6
  15 -10 -11 33.7888 21.6745   6
  10 -15 -11 35.1995 21.8966   6
  15 -10 -13-1.47820 14.5439   6
  10 -15 -13 27.2969 14.1357   6
  11 -15  10 152.484 28.0524   6
  11  15 -10 80.2176 29.2208   5
  11 -15   8 19.5770 24.9102   6
  15  11  -8 59.9844 43.2870   5
  11  15  -8 50.3446 27.8242   5
  11 -15   6 190.588 36.2150   6
  11  15  -6 169.631 38.4930   5
  11 -15   4 262.913 44.4163   6
  11  15  -4 263.185 44.3266   5
  15 -11   2 137.222 42.4410   6
  11 -15   2 153.779 36.8232   6
  11  15  -2 204.217 38.9320   5
  15 -11   0 175.284 43.7790   6
  11 -15   0 180.900 38.7613   6
 -11 -15   0 105.121 31.5732   4
  15 -11  -2 234.872 47.7906   6
  11 -15  -2 160.566 38.1127   6
  11 -15  -4 208.520 51.1353   4
  15 -11  -4 213.604 45.0466   6
  15 -11  -6 203.490 42.4774   6
  15 -11  -8-18.0164 29.7006   6
  11 -15  -8 8.87140 27.2063   6
  15 -11 -10 78.5341 25.4244   6
  11 -15 -10 121.676 29.3409   6
  15 -11 -12 10.4231 13.6268   6
  11 -15 -12 35.5538 16.0586   6
  12 -15   9 392.741 37.5211   6
  12  15  -9 484.564 46.7834   5
  12 -15   7 187.242 33.9669   6
  12  15  -7 195.944 38.3613   5
  12 -15   5 343.267 43.9258   6
  12  15  -5 391.852 48.0802   5
  12 -15   3 12.3662 26.3403   6
  12  15  -3 27.1538 27.2189   5
  15 -12   1 36.5208 33.7760   6
  12 -15   1 12.5848 25.9829   6
  15 -12  -1 74.7420 35.0401   6
  12 -15  -1 44.0272 27.6413   6
 -12 -15   1 49.9671 28.5748   4
  15 -12  -3 7.37119 30.9165   6
  12 -15  -3 18.5183 25.6882   6
  15 -12  -5 391.226 49.5446   6
  12 -15  -5 430.103 47.8270   6
  15 -12  -7 182.623 34.7535   6
  15 -12  -9 390.151 39.6352   6
  12 -15  -9 443.848 43.0824   6
  12 -15 -11 4.59158 15.3084   6
  13  15  -8 144.637 30.1527   5
  13 -15   6 23.2436 21.9457   6
  13 -15   4 558.029 50.9338   6
  15 -13   2 278.650 41.7589   6
  13 -15   2 343.644 42.6826   6
  13 -15   0 540.931 51.3844   6
  15 -13   0 471.891 52.7628   6
  15 -13  -2 357.218 45.6672   6
  13 -15  -2 359.891 44.2110   6
 -13 -15   2 331.958 36.9243   4
  15 -13  -4 592.644 55.4961   6
  13 -15  -4 604.444 54.4285   6
  15 -13  -6 23.2719 22.8661   6
  13 -15  -6 40.2039 24.3099   6
  15 -13  -8 135.247 25.5703   6
  13 -15  -8 142.411 26.7088   6
  15 -14   3 833.895 60.0054   6
  14 -15   3 991.428 62.3871   6
  15 -14   1 733.603 58.2576   6
  14 -15   1 775.163 58.5741   6
  15 -14  -1 966.555 66.1884   6
  14 -15  -1 928.574 64.6642   6
  15 -14  -3 962.784 65.2944   6
  14 -15  -3 982.389 65.2467   6
  15 -14  -5 1251.35 71.7224   6
  14 -15  -5 1184.71 71.5376   6
  14 -15  -7 381.850 34.4274   6
   0 -16   0 7164.71 308.470   4
   0 -16   0 7366.57 381.609   3
   0 -16   2 1050.45 129.658   2
   0 -16   2 1138.71 96.5285   4
   0 -16  -4 3014.54 161.747   4
   0 -16   4 2898.68 165.295   4
   0 -16  -6 4301.69 206.504   4
   0 -16   6 4294.27 211.521   4
   0 -16  -8 2388.49 135.019   4
   0 -16   8 2506.55 136.605   4
   0  16  -8 2108.18 125.748   5
   0  16 -10 450.654 57.9365   5
   0 -16 -10 615.191 63.0618   4
   0 -16 -12 2491.40 123.270   4
   0  16 -12 2326.56 126.663   5
   0  16 -14 677.586 52.9852   5
   0  16 -16 2.81119 14.3641   5
   1  16 -15 418.112 37.9689   5
   1  16 -13 170.982 35.4946   5
  -1 -16 -11 989.446 72.6696   4
   1  16 -11 1000.54 80.9541   5
  -1 -16  -9 4418.10 203.565   4
   1  16  -9 4451.67 206.724   5
  -1 -16  -7 1272.42 91.7992   4
   1  16  -7 1086.36 84.9901   5
  -1 -16  -5 870.565 79.8633   4
   1 -16   5 732.127 78.7228   4
  -1 -16  -3 6152.44 265.971   4
   1 -16   3 5748.89 267.634   4
   1 -16   1 2384.24 119.111   6
   1 -16   1 2478.74 147.767   4
   1 -16   1 2471.79 203.408   3
  -1 -16   1 2104.91 183.358   3
   1 -16  -1 2830.00 156.281   4
  -1 -16   1 2396.40 194.775   2
  -1 -16   1 2619.99 154.365   4
   1 -16  -1 2521.02 195.789   3
  -1 -16   3 6147.36 276.923   4
   1 -16  -5 839.153 79.9983   4
  -1 -16   5 713.369 80.5225   4
   1 -16  -7 1530.69 106.636   4
  -1 -16   7 1422.83 107.874   4
   1 -16  -9 5071.03 219.908   4
  -1 -16   9 4678.73 210.186   4
   1 -16 -11 1120.33 81.2965   4
  -1  16 -11 980.282 78.8803   5
  -1  16 -13 144.483 30.8360   5
   1 -16 -13 165.517 31.3488   4
  -1  16 -15 447.352 37.8850   5
   2  16 -16 5.53810 13.1461   5
   2  16 -14 232.930 34.1306   5
   2  16 -12 763.611 65.4296   5
   2  16 -10 463.214 59.1828   5
  -2 -16 -10 492.035 53.2471   4
   2  16  -8 31.3186 31.3015   5
  -2 -16  -8 76.7929 37.0095   4
  -2 -16  -6 920.085 79.6432   4
   2 -16   6 966.363 86.1390   4
   2  16  -6 917.900 74.5551   5
  -2 -16  -4 1080.34 86.6647   4
   2 -16   4 953.844 89.0543   4
   2 -16   2 178.090 50.5405   4
  -2 -16  -2 306.502 56.0234   4
   2 -16   0 154.235 31.2701   6
   2 -16   0 177.733 50.8830   4
   2 -16  -2 113.778 28.7632   6
   2 -16  -2 89.9953 43.4621   4
  -2 -16   2 167.859 50.6786   4
  -2 -16   4 1162.57 97.8829   4
   2 -16  -6 856.150 82.2356   4
  -2 -16   6 1046.03 92.1598   4
   2 -16  -8 113.324 44.6373   4
  -2 -16   8 70.4516 41.3957   4
  -2  16 -10 357.581 49.2471   5
   2 -16 -10 444.668 56.4196   4
  -2 -16  10 366.069 48.6555   4
   2 -16 -12 783.735 64.9846   4
  -2  16 -12 720.120 63.0720   5
  -2  16 -14 222.599 32.3534   5
  -2  16 -16 54.8796 15.6495   5
   3  16 -15 94.3955 22.7297   5
   3  16 -13 144.182 32.3821   5
   3  16 -11 218.721 43.4874   5
  -3 -16  -9 235.642 40.3750   4
   3  16  -9 234.380 46.7843   5
  -3 -16  -7 1549.09 99.4054   4
   3  16  -7 1507.01 100.198   5
  -3 -16  -5 444.971 54.3311   4
   3 -16   5 377.162 59.0305   4
   3  16  -5 386.996 49.2437   5
  -3 -16  -3 847.886 77.1475   4
   3 -16   3 752.135 78.1898   4
   3 -16   1 218.700 36.6917   6
   3 -16   1 146.780 46.3432   4
  -3 -16  -1 231.775 52.2369   4
   3 -16  -1 130.719 32.1672   6
   3 -16  -1 107.323 45.3482   4
   3 -16  -3 709.273 56.9630   6
   3 -16  -3 497.448 71.6364   4
  -3 -16   3 688.133 77.3872   4
   3 -16  -5 324.081 41.5867   6
   3 -16  -5 312.089 56.6156   4
   3 -16  -7 1354.43 102.092   4
   3 -16  -9 239.106 49.8533   4
  -3  16 -11 271.005 42.3218   5
   3 -16 -11 304.574 47.1669   4
  -3 -16  11 234.205 37.5911   4
  -3  16 -13 139.731 28.7348   5
   3 -16 -13 141.155 31.5959   4
  -3  16 -15 52.6027 18.6444   5
   4  16 -14 435.165 41.3074   5
   4  16 -12 638.552 59.4937   5
   4  16 -10 758.133 70.5318   5
  -4 -16  -8 923.835 71.6282   4
   4  16  -8 939.010 78.5689   5
  -4 -16  -6 729.156 66.1201   4
   4  16  -6 752.904 69.5384   5
   4 -16   4 382.189 60.5763   4
  -4 -16  -4 417.928 55.7826   4
   4 -16   2 1857.94 105.200   6
   4 -16   2 1668.41 121.561   4
  -4 -16  -2 1835.89 115.557   4
   4 -16   0 440.113 50.2120   6
   4 -16   0 485.803 66.4252   4
  -4 -16   0 447.867 63.0792   4
   4 -16  -2 1754.77 100.098   6
   4 -16  -2 1684.87 119.883   4
   4 -16  -4 565.944 54.1611   6
   4 -16  -4 541.113 69.0584   4
   4 -16  -6 776.848 63.0934   6
   4 -16  -6 756.155 78.8913   4
   4 -16  -8 1102.13 76.2921   6
   4 -16  -8 1208.08 97.7114   4
   4 -16 -10 734.978 70.5688   4
   4 -16 -12 864.519 68.1574   4
  -4 -16  12 789.308 55.6270   4
  -4  16 -12 729.171 59.2236   5
  -4  16 -14 457.296 38.5082   5
   5  16 -15 399.744 33.5061   5
   5  16 -13 376.102 42.6035   5
   5  16 -11 930.879 74.9423   5
   5  16  -9 1311.70 94.4808   5
  -5 -16  -7 4757.69 208.749   4
   5  16  -7 5032.21 221.084   5
  -5 -16  -5 1027.53 78.2734   4
   5  16  -5 988.406 77.1804   5
   5 -16   3 7.00433 29.1447   6
   5 -16   3 30.5269 39.1994   4
  -5 -16  -3-30.1935 36.4824   4
   5 -16   1 1509.81 94.8186   6
   5 -16   1 1520.33 115.481   4
  -5 -16  -1 1460.22 103.756   4
   5 -16  -1 1269.33 84.6895   6
   5 -16  -1 1151.44 100.437   4
  -5 -16   1 1302.77 98.6631   4
   5 -16  -3 22.3336 27.9934   6
   5 -16  -3 10.1394 40.4846   4
   5 -16  -5 1230.18 82.5850   6
   5 -16  -5 1273.70 103.906   4
   5 -16  -7 4889.06 211.110   6
   5 -16  -7 4973.75 234.336   4
   5 -16  -9 1293.11 83.2413   6
   5 -16  -9 1336.03 98.7030   4
   5 -16 -11 1118.00 82.4529   4
  -5  16 -13 288.960 33.8376   5
  -5 -16  13 318.799 31.8626   4
   6  16 -14 507.908 40.2391   5
   6  16 -12 2459.21 121.516   5
   6  16 -10 755.127 68.3859   5
   6  16  -8 519.238 60.6237   5
  -6 -16  -6 4063.58 176.707   4
   6  16  -6 3726.41 182.933   5
   6 -16   4 1807.13 106.898   6
  -6 -16  -4 1981.68 110.182   4
   6  16  -4 1618.43 102.339   5
   6 -16   2 841.566 69.7733   6
  -6 -16  -2 832.985 75.3845   4
   6 -16   2 875.546 87.1766   4
   6 -16   0 609.487 61.3828   6
  -6 -16   0 841.786 76.6316   4
   6 -16   0 678.001 80.3597   4
   6 -16  -2 863.578 68.7793   6
   6 -16  -2 687.714 79.8640   4
   6 -16  -4 1568.83 96.2819   6
   6 -16  -4 1515.81 114.968   4
   6 -16  -6 3911.90 178.612   6
   6 -16  -6 4061.46 202.445   4
   6 -16  -8 535.357 54.6538   6
   6 -16  -8 465.669 63.0449   4
  16  -6 -10 683.384 59.5626   6
   6 -16 -10 825.970 62.6560   6
   6 -16 -10 776.812 70.2043   4
  16  -6 -12 2275.57 110.437   6
   6 -16 -12 2574.59 123.205   4
   7  16 -13 187.734 28.4743   5
   7  16 -11 602.623 57.1980   5
   7  16  -9 811.656 70.4907   5
   7  16  -7 2115.40 122.224   5
   7 -16   5 60.2670 32.0558   6
  -7 -16  -5 94.6336 32.3036   4
   7  16  -5 55.8214 33.0005   5
   7 -16   3 130.937 38.3564   6
  -7 -16  -3 182.855 37.3997   4
   7  16  -3 153.480 33.5529   5
   7 -16   1 444.485 51.7910   6
   7 -16   1 353.567 64.9397   4
  -7 -16  -1 454.832 55.1876   4
   7 -16  -1 343.358 46.8413   6
   7 -16  -1 364.126 66.4159   4
  -7 -16   1 366.361 56.2729   4
   7 -16  -3 67.2723 31.2210   6
   7 -16  -3 64.8542 48.4617   4
   7 -16  -5 82.1612 33.3322   6
   7 -16  -5 78.1454 41.9968   4
   7 -16  -7 2198.77 118.021   6
   7 -16  -7 2095.60 130.218   4
  16  -7  -9 773.351 64.4130   6
   7 -16  -9 886.346 66.4618   6
   7 -16  -9 760.840 72.3519   4
  16  -7 -11 498.956 45.3435   6
   7 -16 -11 413.538 42.0487   6
   7 -16 -11 418.498 48.4250   4
  16  -7 -13 118.556 21.6119   6
  -7 -16  13 182.260 23.5437   4
   8 -16  12 340.732 35.3846   6
   8  16 -12 300.898 35.3422   5
   8 -16  10 39.0399 27.8282   6
   8  16 -10 111.547 32.7740   5
   8 -16   8 290.958 43.4031   6
   8  16  -8 225.778 41.4420   5
   8  16  -6 82.8751 34.4520   5
  -8 -16  -4 427.006 46.6856   4
   8  16  -4 405.902 50.6325   5
   8 -16   2 1073.86 77.9376   6
  -8 -16  -2 946.397 75.0295   4
   8  16  -2 1070.59 73.4321   5
   8 -16   0 302.841 44.7219   6
   8 -16   0 266.189 60.0241   4
  -8 -16   0 341.019 51.4683   4
   8 -16  -2 965.145 94.9891   4
   8 -16  -2 1070.95 78.1207   6
   8 -16  -4 368.741 48.5250   6
   8 -16  -4 411.896 65.1440   4
  16  -8  -6 61.5927 33.6527   6
   8 -16  -6 45.2819 30.1729   6
   8 -16  -6 17.7267 35.4130   4
  16  -8  -8 157.428 35.2980   6
   8 -16  -8 248.051 39.4490   6
   8 -16  -8 161.838 43.2980   4
  16  -8 -10 59.4552 24.8364   6
   8 -16 -10 97.4589 29.8212   6
   8 -16 -10 105.175 33.0022   4
  16  -8 -12 358.776 33.8419   6
   8 -16 -12 339.805 32.1712   6
   9 -16  11 53.0994 23.2736   6
   9  16 -11 2.22301 20.7314   5
   9 -16   9 152.463 33.6421   6
   9  16  -9 146.587 34.5723   5
   9 -16   7 279.421 43.2510   6
   9  16  -7 297.840 44.3943   5
   9 -16   5 1279.87 85.8626   6
   9  16  -5 1260.89 84.5102   5
  -9 -16  -3 1914.20 102.929   4
   9  16  -3 1877.41 105.696   5
  -9 -16  -1 435.814 50.7939   4
   9 -16  -1 528.437 54.3506   6
   9 -16  -1 403.411 66.1065   4
  -9 -16   1 533.836 59.0265   4
   9 -16  -3 1948.77 131.460   4
   9 -16  -3 2111.36 115.783   6
  16  -9  -5 1128.15 91.2003   6
   9 -16  -5 1247.71 96.4140   4
   9 -16  -5 1241.67 84.4723   6
  16  -9  -7 201.577 40.0820   6
   9 -16  -7 213.467 38.0795   6
   9 -16  -7 157.375 42.2296   4
  16  -9  -9 87.5334 27.5039   6
   9 -16  -9 183.425 34.9151   6
  16  -9 -11 30.9071 18.7254   6
   9 -16 -11 59.6096 21.2872   6
  10 -16  10 169.972 27.9257   6
  10  16 -10 211.145 32.1629   5
  10 -16   8 408.456 43.3174   6
  10  16  -8 363.818 44.3186   5
  10 -16   6 715.575 59.2560   6
  10  16  -6 616.472 57.7211   5
  10 -16   4 469.397 51.5297   6
  10  16  -4 511.213 51.3199   5
  10 -16   2 1232.42 84.3606   6
 -10 -16  -2 1400.99 82.4028   4
  10  16  -2 1354.17 83.0298   5
 -10 -16   0 1170.60 80.3453   4
  10 -16  -2 1378.84 89.1151   6
 -10 -16   2 1422.83 92.6061   4
  16 -10  -4 449.314 59.5052   6
  10 -16  -4 480.366 59.9268   4
  10 -16  -4 483.319 52.0075   6
  10 -16  -6 681.055 58.8863   6
  16 -10  -6 600.298 60.8504   6
  10 -16  -6 669.395 65.9424   4
  16 -10  -8 330.544 41.8215   6
  10 -16  -8 376.877 44.7858   6
  16 -10 -10 148.905 26.1793   6
  10 -16 -10 144.892 26.9183   6
  11 -16   9 62.4976 20.9020   6
  11  16  -9 47.7630 20.4376   5
  11 -16   7 312.624 39.2630   6
  11  16  -7 319.119 39.8571   5
  11 -16   5 852.833 62.4398   6
  11  16  -5 739.545 60.4537   5
  11 -16   3 202.881 34.2161   6
  11  16  -3 252.038 38.3975   5
 -11 -16  -1 479.272 44.7567   4
  11 -16   1 466.411 50.5589   6
  11 -16  -1 478.523 51.1732   6
 -11 -16   1 528.787 51.0339   4
  16 -11  -3 170.542 39.5948   6
 -11 -16   3 160.335 36.8154   4
  16 -11  -5 716.958 64.2931   6
  11 -16  -5 735.187 60.0720   6
  16 -11  -7 217.749 33.9853   6
  11 -16  -7 275.031 38.7956   6
  16 -11  -9 47.5214 18.8831   6
  11 -16  -9 64.3484 23.8056   6
  12 -16   8 151.639 24.0008   6
  12  16  -8 166.847 26.6167   5
  12 -16   6 37.4851 22.8134   6
  12  16  -6 50.6740 23.9492   5
  12 -16   4 82.3057 26.5450   6
  12 -16   2 360.866 42.2647   6
  12 -16   0 53.9077 26.1131   6
  16 -12  -2 224.979 39.7151   6
  12 -16  -2 267.718 37.3321   6
 -12 -16   2 273.760 35.2878   4
  16 -12  -4 199.273 37.1465   6
  12 -16  -4 137.183 32.1771   6
 -12 -16   4 148.198 31.1208   4
  16 -12  -6 70.1775 24.5737   6
  12 -16  -8 97.0549 23.5942   6
  13 -16   5 126.399 23.5967   6
  13 -16   3 106.304 25.9652   6
  13 -16   1 9.23766 20.8310   6
  13 -16  -1 42.1280 24.2063   6
  16 -13  -3 67.5765 25.9974   6
  13 -16  -3 111.118 26.1971   6
 -13 -16   3 83.7669 20.8257   4
  13 -16  -5 152.393 27.0603   6
 -13 -16   5 145.238 23.7835   4
  14 -16   0 1089.18 62.2006   6
  14 -16  -2 506.106 40.4633   6
   0 -17  -1 69.7901 42.0072   4
   0 -17   1 47.3191 44.9666   4
   0 -17   3 70.5597 44.4462   4
   0 -17  -5 154.889 46.5987   4
   0 -17   5 85.8946 42.5648   4
   0 -17  -7 336.895 54.4579   4
   0 -17   7 279.699 50.9096   4
   0 -17  -9 752.961 67.7066   4
   0  17  -9 642.007 57.6121   5
   0  17 -11 320.432 41.1610   5
   0 -17 -11 391.551 44.0861   4
   0  17 -13 7.64627 15.9096   5
   1  17 -14 134.373 21.9830   5
   1  17 -12 302.545 38.5747   5
  -1 -17 -10 217.301 38.4814   4
   1  17 -10 171.533 35.7073   5
  -1 -17  -8 3.54291 28.5325   4
   1  17  -8 5.99110 25.3215   5
  -1 -17  -6 251.114 49.8860   4
   1 -17   6 294.194 50.7584   4
  -1 -17  -4 598.436 67.9076   4
   1 -17   4 690.886 74.4473   4
   1 -17   2 62.9525 26.8594   6
   1 -17   2 84.7514 44.7578   4
   1 -17   0-18.8441 39.8222   4
  -1 -17   0 4.66866 37.5986   4
   1 -17  -2 83.2625 43.2024   4
  -1 -17   2 94.9693 46.2590   4
  -1 -17   4 951.591 88.8296   4
   1 -17  -6 379.883 58.6543   4
  -1 -17   6 336.348 59.4779   4
   1 -17  -8 15.6370 33.7982   4
  -1 -17   8-14.5159 33.3870   4
  -1  17 -10 145.633 33.3567   5
   1 -17 -10 166.994 38.2515   4
   1 -17 -12 405.932 42.6421   4
  -1  17 -12 426.792 42.2017   5
  -1  17 -14 129.752 19.8120   5
   2  17 -13 95.5263 23.9512   5
  -2 -17 -11 150.245 28.2624   4
   2  17 -11 63.9656 29.5190   5
  -2 -17  -9 64.2868 29.3520   4
   2  17  -9 91.9569 28.6782   5
  -2 -17  -7 299.308 46.9277   4
  -2 -17  -5 615.633 64.7814   4
   2 -17   5 694.643 72.9044   4
   2 -17   3 2398.20 122.436   6
   2 -17   3 2481.04 145.390   4
  -2 -17  -3 2360.97 141.561   4
   2 -17   1 218.076 34.8770   6
   2 -17   1 235.227 55.1819   4
   2 -17  -1 210.938 34.3117   6
   2 -17  -1 291.513 57.0925   4
  -2 -17   1 192.195 48.6899   4
   2 -17  -3 2393.61 144.068   4
  -2 -17   3 2398.79 144.565   4
  -2 -17   5 834.462 81.9871   4
   2 -17  -7 352.373 58.2962   4
  -2 -17   7 244.487 52.7836   4
   2 -17  -9 78.8122 35.4275   4
  -2 -17   9 3.13499 29.5991   4
  -2  17 -11 174.855 31.1875   5
   2 -17 -11 137.985 34.7992   4
  -2  17 -13 111.637 21.9932   5
   2 -17 -13 114.846 23.8899   4
   3  17 -14 174.606 24.1543   5
   3  17 -12 11.6917 22.2037   5
  -3 -17 -10 341.489 39.7495   4
   3  17 -10 369.383 45.5095   5
  -3 -17  -8 1101.51 79.0724   4
   3  17  -8 1241.15 81.9748   5
  -3 -17  -6 583.604 60.6188   4
   3 -17   4 269.394 41.3702   6
   3 -17   4 235.905 52.0313   4
  -3 -17  -4 272.170 50.1494   4
   3 -17   2 3465.39 159.022   6
   3 -17   2 3381.86 178.423   4
  -3 -17  -2 3285.77 173.032   4
   3 -17   0 3765.11 168.550   6
   3 -17   0 3753.03 193.374   4
   3 -17  -2 3335.06 158.433   6
   3 -17  -2 3625.51 186.670   4
   3 -17  -4 114.690 28.6670   6
   3 -17  -4 142.048 49.6490   4
  -3 -17   4 180.745 51.3733   4
  -3 -17   6 451.762 65.0678   4
   3 -17  -8 1320.11 99.0906   4
  -3 -17   8 1422.33 99.1118   4
   3 -17 -10 345.675 47.6699   4
  -3 -17  10 325.448 41.9219   4
   3 -17 -12-2.45825 21.5638   4
   4  17 -13 406.168 36.7845   5
   4  17 -11 433.626 46.6532   5
  -4 -17  -9 75.7345 25.7620   4
   4  17  -9 61.0531 31.2778   5
  -4 -17  -7 1217.32 81.8412   4
   4  17  -7 1155.72 81.4014   5
  -4 -17  -5 1257.93 87.7155   4
   4 -17   3 3351.82 159.563   6
   4 -17   3 3212.19 175.155   4
  -4 -17  -3 3449.79 169.964   4
   4 -17   1 567.553 56.4268   6
   4 -17   1 637.252 72.7425   4
  -4 -17  -1 654.722 70.1755   4
   4 -17  -1 530.825 51.9259   6
   4 -17  -1 538.621 69.6178   4
   4 -17  -3 3072.64 148.250   6
   4 -17  -3 3346.46 176.949   4
  -4 -17   3 3356.95 175.040   4
   4 -17  -5 1220.57 78.3338   6
   4 -17  -5 1296.77 97.5801   4
  -4 -17   5 1225.50 98.3510   4
  -4 -17   7 1480.91 105.629   4
   4 -17  -9 80.1593 34.5477   4
  -4 -17   9 133.784 38.5189   4
  -4 -17  11 520.716 44.4963   4
   4 -17 -11 537.443 53.0863   4
   5  17 -12 670.148 51.1812   5
   5  17 -10 427.888 48.1584   5
  -5 -17  -8 887.523 63.3468   4
   5  17  -8 842.319 68.0887   5
  -5 -17  -6 579.810 55.8060   4
   5  17  -6 582.796 56.6830   5
   5 -17   4 1315.29 87.4080   6
  -5 -17  -4 1295.45 89.1559   4
   5 -17   2 2526.50 129.016   6
   5 -17   2 2330.68 143.531   4
  -5 -17  -2 2423.44 134.881   4
   5 -17   0 107.129 32.3611   6
   5 -17   0 95.8237 43.6236   4
  -5 -17   0 90.4289 41.6858   4
   5 -17  -2 2625.16 128.907   6
   5 -17  -2 2420.36 146.970   4
  -5 -17   2 2384.68 144.485   4
   5 -17  -4 1204.64 80.5829   6
   5 -17  -4 1336.46 101.572   4
  -5 -17   4 1386.22 103.016   4
   5 -17  -6 482.277 49.1150   6
   5 -17  -6 566.456 69.2931   4
  -5 -17   6 432.250 63.3362   4
   5 -17  -8 1027.93 68.8253   6
  -5 -17   8 1129.81 86.8980   4
   5 -17 -10 430.890 50.1368   4
  -5 -17  10 499.279 49.4634   4
   5 -17 -12 713.761 54.9386   4
  -5 -17  12 602.630 42.6390   4
   6  17 -13 407.545 33.0436   5
   6  17 -11 708.413 55.5615   5
   6  17  -9 486.180 50.6924   5
   6 -17   7 3270.08 152.131   6
  -6 -17  -7 3005.98 139.244   4
   6  17  -7 3025.29 147.769   5
   6 -17   5 1035.22 75.4474   6
  -6 -17  -5 945.164 70.6876   4
   6  17  -5 852.016 66.9643   5
   6 -17   3 173.370 38.5264   6
  -6 -17  -3 93.1979 36.0102   4
   6 -17   1 1811.35 106.889   6
   6 -17   1 1932.87 126.263   4
  -6 -17  -1 1979.43 115.018   4
   6 -17  -1 1704.90 102.289   6
   6 -17  -1 1787.10 121.929   4
  -6 -17   1 1972.50 117.553   4
   6 -17  -3 149.656 33.7379   6
   6 -17  -3 141.391 48.1225   4
  -6 -17   3 119.871 44.2159   4
   6 -17  -5 958.553 70.5861   6
   6 -17  -5 902.362 83.9115   4
  -6 -17   5 967.269 83.0439   4
   6 -17  -7 3011.73 143.861   6
   6 -17  -7 3046.73 161.759   4
  -6 -17   7 3312.43 161.423   4
   6 -17  -9 536.977 47.8245   6
  -6 -17   9 517.596 55.7078   4
   6 -17 -11 700.278 55.6949   4
  -6 -17  11 649.449 49.4098   4
   7 -17  12 822.436 50.8102   6
   7  17 -12 776.887 49.8792   5
   7  17 -10 164.272 31.9337   5
   7 -17   8 312.961 42.7342   6
   7  17  -8 441.707 46.6215   5
   7 -17   6 927.882 69.9544   6
  -7 -17  -6 739.431 57.1436   4
   7  17  -6 801.023 64.6511   5
   7 -17   4 1808.36 104.633   6
  -7 -17  -4 1712.23 98.8224   4
   7  17  -4 1695.46 95.4908   5
   7 -17   2 1115.37 80.3208   6
  -7 -17  -2 1034.40 77.3307   4
   7 -17   0 48.2487 29.2281   6
   7 -17   0 42.6212 39.4259   4
  -7 -17   0 14.3503 31.7144   4
   7 -17  -2 1055.11 92.9407   4
   7 -17  -2 1128.09 77.7738   6
  -7 -17   2 1195.68 89.2297   4
   7 -17  -4 1588.50 109.439   4
   7 -17  -4 1553.23 94.0448   6
  -7 -17   4 1493.11 104.673   4
   7 -17  -6 715.403 59.2880   6
   7 -17  -6 645.049 66.7950   4
   7 -17  -8 319.566 40.9726   6
   7 -17  -8 442.953 51.9960   4
   7 -17 -10 222.028 28.4033   6
  -7 -17  10 213.540 35.4020   4
  -7 -17  12 682.975 42.3304   4
   8 -17  11 70.1280 21.0615   6
   8  17 -11 38.8519 18.0310   5
   8 -17   9 27.2600 23.6873   6
   8  17  -9 26.5109 22.4761   5
   8  17  -7 1170.75 75.6196   5
   8 -17   5 846.974 66.6854   6
   8  17  -5 817.374 62.7498   5
   8 -17   3 944.042 72.2740   6
  -8 -17  -3 960.429 68.4253   4
   8 -17   1 1323.31 85.4019   6
  -8 -17  -1 1273.37 86.6944   4
   8 -17  -1 1141.58 93.7383   4
   8 -17  -1 1453.82 87.1212   6
  -8 -17   1 1293.43 89.2578   4
   8 -17  -3 1165.78 92.8021   4
   8 -17  -3 1396.27 85.5322   6
  -8 -17   3 1262.76 89.8659   4
   8 -17  -5 866.444 76.2501   4
   8 -17  -5 888.048 66.3107   6
  -8 -17   5 803.537 72.0458   4
   8 -17  -7 1058.87 80.7624   4
   8 -17  -7 1235.29 76.7538   6
   8 -17  -9 76.9283 23.7847   6
   8 -17  -9 23.9370 24.9975   4
  -8 -17   9 50.1197 29.4229   4
  -8 -17  11 20.3902 17.4160   4
   9 -17  10 380.030 34.8891   6
   9  17 -10 300.892 32.2687   5
   9 -17   8 838.028 58.7083   6
   9  17  -8 711.545 54.9714   5
   9 -17   6 515.629 50.5184   6
   9  17  -6 495.261 47.1345   5
   9  17  -4 1694.79 92.5490   5
   9 -17   2 2129.44 117.356   6
  -9 -17  -2 2429.36 116.350   4
   9 -17   0 1512.39 91.6319   6
  -9 -17   0 1508.20 92.3982   4
   9 -17  -2 2147.05 126.198   4
   9 -17  -2 2166.06 115.810   6
  -9 -17   2 2335.77 122.873   4
   9 -17  -4 1700.46 106.060   4
   9 -17  -4 1833.97 100.328   6
  -9 -17   4 1567.89 99.2434   4
   9 -17  -6 555.656 50.7622   6
   9 -17  -6 417.355 50.8904   4
  -9 -17   6 525.573 54.7333   4
   9 -17  -8 846.503 59.8394   6
  -9 -17   8 781.506 61.8182   4
   9 -17 -10 315.296 30.4737   6
  -9 -17  10 319.225 33.1725   4
  10 -17   9 77.2102 19.6997   6
  10  17  -9 68.0447 20.0946   5
  10 -17   7 655.380 50.4939   6
  10  17  -7 638.106 48.7203   5
  10 -17   5 1405.06 80.9789   6
  10  17  -5 1259.56 75.1359   5
 -10 -17  -1 928.374 63.6510   4
  10 -17  -1 1071.71 72.3939   6
 -10 -17   1 982.887 70.9831   4
  10 -17  -3 1277.34 79.8231   6
 -10 -17   3 1223.00 80.8909   4
  10 -17  -5 1255.29 78.3276   6
 -10 -17   5 1294.23 81.3919   4
  10 -17  -7 569.658 47.3790   6
 -10 -17   7 488.238 48.8043   4
  10 -17  -9 69.2509 19.8479   6
  11 -17   6 14.3059 18.9297   6
  11 -17   4 528.450 46.9350   6
  11 -17   2 1313.44 77.8200   6
 -11 -17   0 158.583 28.2675   4
 -11 -17   2 1234.51 73.5623   4
  11 -17  -4 484.785 45.5060   6
 -11 -17   4 457.591 45.0093   4
  11 -17  -6 32.5290 22.4081   6
 -11 -17   6 19.0458 20.9477   4
  11 -17  -8 523.834 40.2414   6
 -11 -17   8 490.965 40.6131   4
  12 -17   5 240.432 28.6433   6
  12 -17   3 141.963 26.9560   6
  12 -17   1 230.025 31.4761   6
  12 -17  -1 222.701 31.9672   6
 -12 -17   3 185.875 25.7872   4
  13 -17   0 29.5048 16.8039   6
   0 -18   0 1753.40 119.221   4
   0 -18  -2 618.925 71.2044   4
   0 -18   2 700.715 75.1422   4
   0 -18  -4 82.2644 39.7899   4
   0 -18   4 16.8860 38.1061   4
   0 -18  -6 29.9657 30.6917   4
   0 -18   6 38.1636 35.5806   4
   0 -18  -8 267.484 42.0803   4
   0 -18   8 300.941 38.8749   4
   0 -18 -10 65.0110 26.8183   4
   0 -18 -12 54.2312 17.2472   4
  -1 -18 -11 39.3040 19.2690   4
  -1 -18  -9 61.1385 28.4684   4
  -1 -18  -7 366.221 50.2352   4
   1 -18   7 379.569 46.2483   4
   1 -18   5 803.117 59.4534   6
  -1 -18  -5 725.701 71.4653   4
   1 -18   5 738.099 71.5334   4
  -1 -18  -3 1640.31 110.539   4
   1 -18   3 1574.59 110.194   4
   1 -18   1 393.488 60.0149   4
   1 -18  -1 441.947 60.6950   4
  -1 -18   1 439.731 64.9447   4
   1 -18  -3 1401.28 102.629   4
  -1 -18   3 1517.71 106.445   4
   1 -18  -5 947.953 81.7920   4
  -1 -18   5 1018.63 85.2908   4
   1 -18  -7 500.882 60.2090   4
  -1 -18   7 387.872 53.0274   4
   1 -18  -9-30.4308 29.5888   4
  -1 -18   9 11.2245 21.0536   4
   1 -18 -11 28.3079 20.5679   4
   2  18 -12 70.0922 17.3360   5
  -2 -18 -10 194.333 30.4867   4
   2  18 -10 157.190 27.3059   5
  -2 -18  -8 1270.78 81.5655   4
   2 -18   6 1478.27 88.2385   6
  -2 -18  -6 1549.53 96.9779   4
   2 -18   6 1543.56 95.5551   4
   2 -18   4 524.262 50.8878   6
  -2 -18  -4 584.042 63.5843   4
   2 -18   4 583.896 65.7401   4
   2 -18   2 2960.55 138.917   6
   2 -18   2 3003.96 163.182   4
  -2 -18  -2 3136.36 161.846   4
   2 -18   0 5033.87 234.092   4
   2 -18  -2 3031.67 166.024   4
  -2 -18   2 3141.12 165.684   4
   2 -18  -4 390.611 60.4669   4
  -2 -18   4 445.968 60.6234   4
   2 -18  -6 1350.70 95.5703   4
  -2 -18   6 1193.53 92.4853   4
   2 -18  -8 1199.86 84.7969   4
  -2 -18   8 1153.84 78.8518   4
   2 -18 -10 250.284 38.0997   4
   2 -18 -12 84.4081 20.1368   4
   3  18 -11 302.525 33.2158   5
  -3 -18  -9 1066.16 67.3776   4
   3 -18   7 27.8745 27.5781   6
  -3 -18  -7 11.5166 26.8378   4
   3 -18   5 1916.54 104.874   6
   3 -18   5 1820.30 110.362   4
  -3 -18  -5 1854.51 110.103   4
   3 -18   3 8009.61 316.164   6
   3 -18   3 8277.88 337.683   4
  -3 -18  -3 8709.13 334.152   4
   3 -18   1 704.765 56.8140   6
  -3 -18  -1 776.043 73.3170   4
   3 -18   1 650.093 70.9316   4
   3 -18  -1 469.415 46.1594   6
   3 -18  -1 607.300 70.0757   4
   3 -18  -3 7963.61 333.253   4
  -3 -18   3 8366.53 336.007   4
   3 -18  -5 2118.84 127.083   4
  -3 -18   5 2142.89 127.314   4
   3 -18  -7 89.8830 38.9262   4
  -3 -18   7 39.1676 37.7603   4
   3 -18  -9 1012.35 73.8630   4
  -3 -18   9 1003.48 67.6992   4
   3 -18 -11 219.511 32.7306   4
   4 -18  12 26.3287 15.4283   6
   4 -18  10 156.105 29.1813   6
   4  18 -10 118.298 24.2315   5
  -4 -18  -8 1110.96 70.6426   4
   4 -18   8 1180.02 75.9658   6
   4 -18   6 829.056 66.1700   6
  -4 -18  -6 880.910 66.2588   4
   4 -18   4 388.609 47.2123   6
   4 -18   4 395.802 53.2830   4
  -4 -18  -4 352.976 50.2054   4
   4 -18   2 3664.34 163.698   6
   4 -18   2 3796.68 183.051   4
  -4 -18  -2 3429.40 174.859   4
   4 -18   0 2959.23 138.718   6
   4 -18   0 2767.32 155.855   4
  -4 -18   0 2990.89 156.440   4
   4 -18  -2 3356.56 156.563   6
   4 -18  -2 3958.66 185.401   4
   4 -18  -4 269.504 36.6709   6
   4 -18  -4 297.730 49.1818   4
  -4 -18   4 321.157 53.7193   4
   4 -18  -6 749.652 73.9150   4
  -4 -18   6 923.448 75.5712   4
   4 -18  -8 1191.05 83.5407   4
  -4 -18   8 1221.17 82.1570   4
   4 -18 -10 141.121 30.5117   4
  -4 -18  10 106.738 23.4701   4
   5 -18  11 207.053 28.8271   6
   5  18 -11 166.504 24.3681   5
   5 -18   9 26.5189 22.9110   6
   5  18  -9 34.8056 20.0477   5
  -5 -18  -7 489.511 44.8396   4
   5 -18   7 504.799 49.6863   6
   5 -18   5 438.197 47.8796   6
  -5 -18  -5 391.509 47.3633   4
   5 -18   3 1763.55 101.312   6
   5 -18   3 1751.66 110.209   4
  -5 -18  -3 1782.41 105.061   4
   5 -18   1 192.856 37.6657   6
   5 -18   1 205.146 47.7754   4
  -5 -18  -1 214.851 45.6860   4
   5 -18  -1 201.626 35.5199   6
   5 -18  -1 264.733 48.8195   4
  -5 -18   1 234.214 46.3100   4
   5 -18  -3 1601.65 90.6006   6
   5 -18  -3 1604.96 108.512   4
   5 -18  -5 408.809 40.9198   6
   5 -18  -5 358.110 54.6276   4
  -5 -18   5 348.469 53.2743   4
   5 -18  -7 400.186 52.2926   4
  -5 -18   7 541.155 57.9879   4
  -5 -18   9 41.9188 25.7604   4
   5 -18 -11 268.936 32.0451   4
  -5 -18  11 142.083 20.9446   4
   6 -18  10 38.8205 20.3343   6
   6  18 -10 10.3226 16.5465   5
   6 -18   8 259.797 36.0297   6
   6  18  -8 190.550 28.8026   5
   6 -18   6 396.469 45.1853   6
  -6 -18  -6 357.907 38.9774   4
   6 -18   4 656.121 58.4097   6
  -6 -18  -4 702.004 58.5563   4
   6 -18   2 1145.22 76.0850   6
  -6 -18  -2 1031.06 76.0751   4
   6 -18   0 19.9368 26.2156   6
   6 -18   0 76.8076 39.3134   4
  -6 -18   0 3.44185 29.9864   4
   6 -18  -2 984.173 70.3302   6
   6 -18  -2 1051.74 85.0481   4
  -6 -18   2 1023.23 81.1658   4
   6 -18  -4 655.785 53.6131   6
   6 -18  -4 584.723 64.4751   4
   6 -18  -6 383.947 40.0776   6
   6 -18  -6 338.181 47.3342   4
  -6 -18   6 285.100 47.6913   4
   6 -18  -8 206.837 39.1937   4
  -6 -18   8 198.997 38.0237   4
  -6 -18  10 29.1017 19.3538   4
   7 -18   9 111.689 25.4037   6
   7  18  -9 93.0098 21.6922   5
   7 -18   7 837.839 60.9927   6
   7  18  -7 740.181 52.2513   5
   7 -18   5 153.957 31.6447   6
  -7 -18  -5 176.890 29.4567   4
   7 -18   3 550.456 53.3497   6
  -7 -18  -3 601.984 53.5152   4
   7 -18   1 577.716 53.7002   6
  -7 -18  -1 463.076 51.8593   4
   7 -18  -1 463.733 47.5266   6
   7 -18  -1 432.296 53.7252   4
  -7 -18   1 455.955 53.2863   4
   7 -18  -3 720.070 56.5733   6
  -7 -18   3 665.691 64.5250   4
   7 -18  -3 630.975 64.8186   4
   7 -18  -5 181.545 32.9776   6
   7 -18  -5 186.172 40.9354   4
   7 -18  -7 727.314 52.4213   6
   7 -18  -7 620.087 58.2958   4
  -7 -18   7 799.000 63.9264   4
   7 -18  -9 115.802 27.1757   4
  -7 -18   9 62.0016 22.4566   4
   8  18  -8 318.830 31.2173   5
   8 -18   6 41.4072 24.7959   6
   8 -18   4 923.443 64.4595   6
  -8 -18  -4 801.268 55.7659   4
   8 -18   2 1058.11 71.6464   6
  -8 -18  -2 1125.57 71.8427   4
   8 -18   0 549.137 50.9836   6
  -8 -18   0 431.085 49.1502   4
   8 -18  -2 998.624 76.8867   4
   8 -18  -2 1059.22 70.4534   6
  -8 -18   2 1018.42 73.8981   4
   8 -18  -4 884.113 69.0139   4
   8 -18  -4 950.041 65.6614   6
  -8 -18   4 937.881 70.5992   4
   8 -18  -6 115.622 27.4487   6
   8 -18  -6 64.9064 28.9309   4
   8 -18  -8 354.457 32.9698   6
  -8 -18   8 283.222 36.5878   4
   9 -18   3 1879.58 98.8068   6
   9 -18   1 663.975 53.8420   6
  -9 -18  -1 569.444 48.7533   4
   9 -18  -1 696.868 56.1588   6
  -9 -18   1 665.203 56.4163   4
   9 -18  -3 1837.69 102.095   4
   9 -18  -3 2168.50 104.753   6
  -9 -18   3 2119.01 107.000   4
   9 -18  -5 513.891 48.9313   4
   9 -18  -5 660.048 50.7874   6
  -9 -18   5 683.529 54.0722   4
   9 -18  -7 373.945 35.2588   6
  10 -18   6 38.1347 18.4026   6
  10 -18   0 1001.63 64.1955   6
 -10 -18   0 916.234 58.9207   4
  10 -18  -2 741.657 54.5269   6
 -10 -18   2 693.678 52.5925   4
  10 -18  -4 128.758 26.6869   6
 -10 -18   4 85.1635 25.2918   4
  10 -18  -6 34.6772 18.7591   6
 -10 -18   6 5.64203 18.0825   4
  11 -18   3 51.2153 19.5340   6
  11 -18  -1 77.0227 23.4689   6
  11 -18  -3 50.7773 18.3598   6
   0 -19  -1 393.716 57.5308   4
   0 -19   1 378.221 56.0662   4
   0 -19   3 1068.26 83.2907   4
   0 -19  -5 479.720 55.9212   4
   0 -19   5 470.203 56.8075   4
   0 -19  -7 638.870 56.8627   4
   0 -19   7 525.205 48.0468   4
   0 -19  -9 35.1873 20.6550   4
  -1 -19 -10 134.006 22.5608   4
  -1 -19  -8 888.631 63.4864   4
  -1 -19  -6 174.732 37.5441   4
   1 -19   6 177.089 34.3555   4
  -1 -19  -4 138.743 35.7609   4
   1 -19   4 154.870 41.0356   4
   1 -19   2 1297.47 95.3243   4
   1 -19   0 3215.59 166.224   4
  -1 -19   0 3267.75 165.366   4
   1 -19  -2 1506.64 102.084   4
  -1 -19   2 1473.71 100.802   4
  -1 -19   4 115.786 39.4217   4
   1 -19  -6 141.450 37.7585   4
  -1 -19   6 68.9136 31.3200   4
   1 -19  -8 751.887 61.2343   4
  -1 -19   8 799.493 53.1839   4
   1 -19 -10 156.695 25.7797   4
  -2 -19  -9 394.645 35.4582   4
   2 -19   9 312.290 31.6566   6
   2 -19   7 83.4076 22.1395   6
  -2 -19  -7 91.9785 28.3626   4
   2 -19   5 1440.45 81.2512   6
  -2 -19  -5 1705.69 97.5538   4
   2 -19   5 1633.76 94.3349   4
   2 -19   3 4362.00 203.231   4
  -2 -19  -3 4633.54 204.133   4
   2 -19   1 753.124 72.2893   4
   2 -19  -1 824.349 75.2837   4
  -2 -19   1 781.145 74.3769   4
   2 -19  -3 4667.95 209.386   4
  -2 -19   3 4480.69 207.631   4
  -2 -19   5 1630.48 103.102   4
   2 -19  -7 58.2746 30.2303   4
  -2 -19   7 62.8377 28.3313   4
   2 -19  -9 436.136 43.8649   4
   3 -19  10 62.9593 17.4606   6
  -3 -19  -8 921.749 58.6741   4
   3 -19   8 882.467 57.0508   6
   3 -19   6 1617.94 87.9047   6
  -3 -19  -6 1783.17 96.3093   4
   3 -19   4 727.087 55.1375   6
   3 -19   4 704.367 64.1410   4
  -3 -19  -4 799.330 64.8828   4
   3 -19   2 2692.98 140.527   4
  -3 -19  -2 2957.03 142.822   4
   3 -19   0 4096.11 193.140   4
   3 -19  -2 2650.07 144.515   4
  -3 -19   2 2834.06 147.186   4
   3 -19  -4 741.871 69.7695   4
  -3 -19   4 545.237 61.3434   4
  -3 -19   6 1588.03 96.7912   4
   3 -19  -8 721.572 60.9674   4
  -3 -19   8 822.808 56.0446   4
   3 -19 -10 86.1130 21.8819   4
   4 -19   9 417.409 36.7957   6
   4 -19   7 68.8205 22.6358   6
  -4 -19  -7 53.6259 22.4569   4
   4 -19   5 960.285 64.7322   6
  -4 -19  -5 1037.35 69.4398   4
   4 -19   3 3529.11 154.683   6
   4 -19   3 3542.17 168.712   4
  -4 -19  -3 3657.19 165.158   4
   4 -19   1 345.121 38.7296   6
   4 -19   1 374.929 52.8602   4
  -4 -19  -1 258.670 46.6874   4
   4 -19  -1 301.727 35.6712   6
   4 -19  -1 281.508 47.1409   4
   4 -19  -3 3599.37 175.704   4
  -4 -19   3 3764.46 176.740   4
   4 -19  -5 1043.81 78.6289   4
  -4 -19   5 1063.38 77.7718   4
  -4 -19   7 109.627 31.0456   4
   4 -19  -9 476.486 43.7514   4
  -4 -19   9 406.275 34.8505   4
   5 -19   8 84.2373 22.9619   6
   5 -19   6 26.8774 21.0086   6
  -5 -19  -6 4.10167 18.2505   4
   5 -19   4 125.144 29.1841   6
  -5 -19  -4 185.624 33.8680   4
   5 -19   2 1124.74 78.7509   4
   5 -19   2 1115.35 70.7679   6
  -5 -19  -2 1193.35 78.4023   4
   5 -19   0 61.0061 25.5308   6
   5 -19   0 58.3897 33.4590   4
  -5 -19   0 72.9896 33.3362   4
   5 -19  -2 1088.42 66.3199   6
   5 -19  -2 1080.15 81.4762   4
   5 -19  -4 176.139 39.7574   4
  -5 -19   4 134.982 37.1369   4
   5 -19  -6 17.4175 25.6544   4
  -5 -19   6 25.0923 28.3487   4
  -5 -19   8 116.475 25.3794   4
   5 -19 -10 94.0743 21.6214   4
   6 -19   9 85.6746 18.9698   6
   6 -19   7 250.526 31.7716   6
   6 -19   5 11.3054 21.8610   6
  -6 -19  -5 16.0034 16.5211   4
   6 -19   3 93.1500 27.4039   6
  -6 -19  -3 112.505 29.8683   4
   6 -19   1 333.497 38.7711   6
  -6 -19  -1 397.889 45.5612   4
   6 -19  -1 390.861 39.1741   6
   6 -19  -1 288.097 43.5167   4
  -6 -19   1 277.282 42.4728   4
   6 -19  -3 95.4941 24.9559   6
   6 -19  -3 152.122 34.4102   4
   6 -19  -5 33.7800 26.4019   4
  -6 -19   5-2.72229 26.7785   4
   6 -19  -7 191.090 32.9899   4
  -6 -19   7 266.795 36.6504   4
   7 -19   8 128.488 22.2862   6
   7 -19   6 162.698 27.3197   6
   7 -19   4 15.4786 20.8695   6
  -7 -19  -4 11.3412 17.3951   4
   7 -19   2 479.694 45.4390   6
  -7 -19  -2 530.772 45.9927   4
   7 -19   0 25.2219 21.6477   6
  -7 -19   0 17.9872 23.8043   4
   7 -19  -2 550.981 45.3296   6
  -7 -19   2 518.923 50.5856   4
   7 -19  -2 444.415 47.1613   4
   7 -19  -4 21.5579 18.6079   6
   7 -19  -4-12.8256 22.9791   4
  -7 -19   4 5.09093 24.4608   4
   7 -19  -6 162.011 29.5253   4
  -7 -19   6 149.639 30.3237   4
  -7 -19   8 181.979 24.5593   4
   8 -19   5 177.154 26.8191   6
   8 -19   3 691.774 50.2716   6
  -8 -19  -3 618.310 44.2380   4
   8 -19   1 43.3779 22.4114   6
  -8 -19  -1 12.4833 19.5283   4
   8 -19  -1 21.1781 21.4309   6
  -8 -19   1 34.2229 23.9367   4
   8 -19  -3 635.937 50.6542   4
   8 -19  -3 795.442 52.2332   6
  -8 -19   3 749.658 55.8152   4
   8 -19  -5 139.195 24.9663   4
  -8 -19   5 99.2306 25.8509   4
  -8 -19   7 323.394 31.9011   4
   9 -19   4 43.8680 17.8939   6
   9 -19   2 677.000 48.5491   6
   9 -19   0 1406.07 75.0838   6
  -9 -19   0 1408.11 73.0291   4
   9 -19  -2 724.052 48.9953   6
  -9 -19   2 642.106 47.8992   4
  -9 -19   4 68.4756 21.7384   4
   0 -20   0 587.428 59.3814   4
   0 -20  -2 168.668 38.7243   4
   0 -20   2 228.744 40.7447   4
   0 -20  -4 271.161 42.8773   4
   0 -20   4 283.584 41.2853   4
   0 -20  -6 332.127 40.2510   4
   0 -20   6 288.409 32.3143   4
   0 -20  -8 50.1552 19.6751   4
  -1 -20  -7 826.660 56.1846   4
  -1 -20  -5 490.365 47.6743   4
   1 -20   5 421.688 42.4282   4
  -1 -20  -3 193.346 38.6771   4
   1 -20   3 226.868 38.8166   4
   1 -20   1 168.519 36.6430   4
  -1 -20  -1 108.816 36.1087   4
   1 -20  -1 126.184 35.7836   4
  -1 -20   1 108.973 36.2386   4
   1 -20  -3 176.703 39.2149   4
  -1 -20   3 200.224 38.3534   4
   1 -20  -5 468.331 50.3848   4
  -1 -20   5 497.616 48.2039   4
   1 -20  -7 951.545 62.7780   4
  -2 -20  -6 133.879 27.9761   4
   2 -20   4 35.9361 23.3054   4
  -2 -20  -4 7.85914 24.5779   4
   2 -20   2 760.603 63.8840   4
  -2 -20  -2 858.303 65.9893   4
   2 -20   0 1754.88 102.884   4
  -2 -20   0 1667.76 100.309   4
   2 -20  -2 776.438 65.2775   4
  -2 -20   2 796.987 65.3691   4
   2 -20  -4 32.6687 28.0479   4
  -2 -20   4 38.5095 27.3841   4
   2 -20  -6 113.841 31.4181   4
  -2 -20   6 131.424 27.2458   4
   2 -20  -8 319.713 34.2215   4
  -3 -20  -5 609.786 48.9834   4
   3 -20   3 1519.24 86.6663   4
  -3 -20  -3 1561.30 90.4914   4
   3 -20   1 355.535 44.5892   4
  -3 -20  -1 320.640 44.7374   4
   3 -20  -1 366.295 47.5381   4
  -3 -20   1 386.831 47.8670   4
   3 -20  -3 1696.35 96.9420   4
  -3 -20   3 1480.59 91.3470   4
   3 -20  -5 645.540 56.6157   4
  -3 -20   5 784.995 58.2731   4
  -3 -20   7 117.497 21.9104   4
  -4 -20  -6 203.190 26.5902   4
   4 -20   4 455.450 36.1708   6
  -4 -20  -4 466.491 43.8292   4
   4 -20   2 1207.84 76.5246   4
  -4 -20  -2 1372.28 79.7104   4
   4 -20   0 391.382 47.0794   4
  -4 -20   0 406.143 45.5131   4
   4 -20  -2 1292.59 82.3245   4
  -4 -20   2 1205.38 78.9657   4
   4 -20  -4 681.341 55.6369   4
  -4 -20   4 593.795 53.5692   4
   4 -20  -6 226.483 33.2930   4
  -4 -20   6 209.454 30.2489   4
   5 -20   5 396.245 32.9609   6
   5 -20   3 64.6506 18.8996   6
  -5 -20  -3 113.420 24.5697   4
   5 -20   1 771.928 56.7609   4
   5 -20   1 801.477 50.7213   6
  -5 -20  -1 872.528 61.1656   4
   5 -20  -1 725.550 57.5346   4
  -5 -20   1 796.259 60.1882   4
   5 -20  -3 128.117 29.6335   4
   5 -20  -5 443.284 43.9141   4
  -5 -20   5 457.617 42.7007   4
   6 -20   2 517.944 39.5603   6
  -6 -20  -2 574.053 44.9248   4
   6 -20   0 172.339 24.3024   6
  -6 -20   0 211.272 31.1495   4
   6 -20  -2 515.873 44.1942   4
  -6 -20   2 593.361 48.1191   4
   6 -20  -4 418.596 39.1714   4
  -7 -20  -1 505.371 40.1850   4
  -7 -20   1 525.035 42.4056   4
  -7 -20   3 40.1270 21.0760   4
   0 -21  -1 64.4967 26.5947   4
   0 -21   1 69.3874 25.2953   4
   0 -21   3 625.018 47.5579   4
   0 -21  -5 53.7280 21.2616   4
  -1 -21  -4 815.026 55.0017   4
   1 -21   2 18.9511 18.4812   4
   1 -21   0-2.34080 21.1124   4
  -1 -21   0 14.1353 22.3675   4
   1 -21  -2 11.7573 22.4668   4
  -1 -21   2 19.8561 21.8281   4
  -2 -21  -3 40.1303 20.1107   4
   2 -21   1 12.7599 20.5608   4
   2 -21  -1 20.6488 20.1377   4
  -2 -21   1 22.4611 22.7208   4
   2 -21  -3 28.2731 23.1700   4
  -2 -21   3 40.2503 19.8268   4
  -3 -21  -2 136.662 25.3780   4
   3 -21  -2 168.678 27.9512   4
  -3 -21   2 181.993 29.3999   4
  -4 -21  -1 410.210 37.3938   4
   0   0   0    0.00    0.00   0

TITL Ag12bpy_vacuum_290K in I-42m
REM I-42m (#121 in standard setting)
CELL 1.54184  17.341489  17.341489  20.167052  90.0000  90.0000  90.0000
ZERR    3.00   0.000131   0.000131   0.000361   0.0000   0.0000   0.0000
LATT -2
SYMM -x,-y, z
SYMM  y,-x,-z
SYMM -y, x,-z
SYMM -x, y,-z
SYMM  x,-y,-z
SYMM -y,-x, z
SYMM  y, x, z
SFAC C H N O S Ag
UNIT 240.00 312.00 24.00 24.00 24.00 36.00
TREF
HKLF 4
END
;
_shelx_hkl_checksum              68338
loop_
_space_group_symop_operation_xyz
'x, y, z'
'y, -x, -z'
'-x, -y, z'
'-y, x, -z'
'x, -y, -z'
'-x, y, -z'
'-y, -x, z'
'y, x, z'
'x+1/2, y+1/2, z+1/2'
'y+1/2, -x+1/2, -z+1/2'
'-x+1/2, -y+1/2, z+1/2'
'-y+1/2, x+1/2, -z+1/2'
'x+1/2, -y+1/2, -z+1/2'
'-x+1/2, y+1/2, -z+1/2'
'-y+1/2, -x+1/2, z+1/2'
'y+1/2, x+1/2, z+1/2'
loop_
_atom_site_label
_atom_site_type_symbol
_atom_site_fract_x
_atom_site_fract_y
_atom_site_fract_z
_atom_site_U_iso_or_equiv
_atom_site_adp_type
_atom_site_occupancy
_atom_site_site_symmetry_order
_atom_site_calc_flag
_atom_site_refinement_flags_posn
_atom_site_refinement_flags_adp
_atom_site_refinement_flags_occupancy
_atom_site_disorder_assembly
_atom_site_disorder_group
Ag1 Ag 0.5000 0.5000 0.79056(5) 0.0545(2) Uani 1 4 d S T P . .
Ag2 Ag 0.47281(3) 0.66151(3) 0.83175(4) 0.06847(18) Uani 1 1 d . . . . .
Ag3 Ag 0.41647(8) 0.5000 1.0000 0.0733(4) Uani 0.5 2 d S T P . .
S1 S 0.40170(8) 0.40170(8) 0.79634(13) 0.0569(5) Uani 1 2 d S T P . .
C1 C 0.3752(5) 0.3752(5) 0.7104(6) 0.077(3) Uani 1 2 d S T P . .
C2 C 0.3917(9) 0.2901(6) 0.7011(7) 0.125(5) Uani 1 1 d . . . . .
H2A H 0.4445 0.2798 0.7124 0.188 Uiso 1 1 calc GR . . . .
H2B H 0.3828 0.2761 0.6557 0.188 Uiso 1 1 calc GR . . . .
H2C H 0.3584 0.2606 0.7294 0.188 Uiso 1 1 calc GR . . . .
C3 C 0.4220(7) 0.4220(7) 0.6608(8) 0.118(6) Uani 1 2 d S T P . .
H3A H 0.4311 0.4726 0.6784 0.178 Uiso 0.5 1 calc GR . . A -1
H3B H 0.3940 0.4261 0.6199 0.178 Uiso 0.5 1 calc GR . . A -1
H3C H 0.4704 0.3968 0.6529 0.178 Uiso 0.5 1 calc GR . . A -1
S2 S 0.39893(10) 0.60107(10) 0.92519(12) 0.0596(5) Uani 1 2 d S T P B .
C4 C 0.3310(4) 0.6690(4) 0.9659(5) 0.070(3) Uani 1 2 d DS T P . .
C7 C 0.370(2) 0.7118(19) 1.0211(13) 0.116(10) Uani 0.5 1 d D U . B -1
H7A H 0.3893 0.6757 1.0533 0.174 Uiso 0.5 1 calc GR . . B -1
H7B H 0.3343 0.7462 1.0418 0.174 Uiso 0.5 1 calc GR . . B -1
H7C H 0.4128 0.7409 1.0034 0.174 Uiso 0.5 1 calc GR . . B -1
C6 C 0.2874(5) 0.7126(5) 0.9137(7) 0.099(4) Uani 1 2 d DS T P B .
H6A H 0.3232 0.7361 0.8835 0.149 Uiso 0.5 1 calc GR . . C -1
H6B H 0.2566 0.7518 0.9343 0.149 Uiso 0.5 1 calc GR . . C -1
H6C H 0.2546 0.6777 0.8898 0.149 Uiso 0.5 1 calc GR . . C -1
O1 O 0.3967(5) 0.6930(5) 0.7335(5) 0.123(3) Uani 1 1 d . U . . .
C8 C 0.3406(8) 0.6594(8) 0.7099(9) 0.102(3) Uani 1 2 d S TU P D .
C9 C 0.3098(6) 0.6902(6) 0.6480(8) 0.108(5) Uani 1 2 d DS T P . .
N1 N 0.4859(3) 0.7966(3) 0.8327(4) 0.0713(15) Uani 1 1 d . . . . .
C10 C 0.4275(4) 0.8420(4) 0.8159(4) 0.073(2) Uani 1 1 d . . . . .
H10 H 0.3824 0.8187 0.8010 0.087 Uiso 1 1 calc R . . . .
C11 C 0.4294(4) 0.9213(4) 0.8190(5) 0.071(2) Uani 1 1 d . . . . .
H11 H 0.3863 0.9502 0.8075 0.085 Uiso 1 1 calc R . . . .
C12 C 0.4970(5) 0.9574(3) 0.8395(4) 0.0658(15) Uani 1 1 d . . . . .
C13 C 0.5588(4) 0.9104(4) 0.8563(5) 0.075(2) Uani 1 1 d . . . . .
H13 H 0.6053 0.9317 0.8701 0.090 Uiso 1 1 calc R . . . .
C14 C 0.5502(5) 0.8310(4) 0.8520(5) 0.075(2) Uani 1 1 d . . . . .
H14 H 0.5921 0.8002 0.8634 0.090 Uiso 1 1 calc R . . . .
F1 F 0.3475(13) 0.6525(13) 0.6017(15) 0.172(11) Uani 0.45 2 d DS TU P D 1
F2 F 0.3337(17) 0.7579(10) 0.6316(16) 0.173(10) Uani 0.45 1 d D U . D 1
F1B F 0.2566(6) 0.7434(6) 0.6562(13) 0.167(9) Uani 0.55 2 d DS TU P D 2
F2B F 0.3605(13) 0.7195(14) 0.6076(11) 0.188(10) Uani 0.55 1 d D U . D 2
C5 C 0.2679(15) 0.6197(18) 0.9953(14) 0.097(8) Uani 0.5 1 d D U . B -1
H5A H 0.2365 0.5991 0.9603 0.146 Uiso 0.5 1 calc GR . . B -1
H5B H 0.2366 0.6506 1.0242 0.146 Uiso 0.5 1 calc GR . . B -1
H5C H 0.2905 0.5781 1.0200 0.146 Uiso 0.5 1 calc GR . . B -1
loop_
_atom_site_aniso_label
_atom_site_aniso_U_11
_atom_site_aniso_U_22
_atom_site_aniso_U_33
_atom_site_aniso_U_23
_atom_site_aniso_U_13
_atom_site_aniso_U_12
Ag1 0.0385(2) 0.0385(2) 0.0866(6) 0.000 0.000 -0.0036(3)
Ag2 0.0603(3) 0.0393(2) 0.1058(4) 0.0042(3) 0.0101(3) 0.00245(17)
Ag3 0.0527(7) 0.0709(9) 0.0964(9) 0.0313(9) 0.000 0.000
S1 0.0427(6) 0.0427(6) 0.0855(13) -0.0067(7) -0.0067(7) -0.0051(8)
C1 0.070(4) 0.070(4) 0.091(7) -0.014(4) -0.014(4) -0.007(5)
C2 0.167(12) 0.077(7) 0.132(9) -0.039(6) -0.038(9) -0.002(7)
C3 0.136(9) 0.136(9) 0.084(9) -0.011(6) -0.011(6) -0.039(11)
S2 0.0557(7) 0.0557(7) 0.0675(12) 0.0042(7) -0.0042(7) 0.0023(9)
C4 0.070(4) 0.070(4) 0.071(6) 0.000(3) 0.000(3) 0.012(5)
C7 0.129(18) 0.13(2) 0.089(15) -0.053(15) -0.002(14) 0.027(15)
C6 0.095(6) 0.095(6) 0.107(9) 0.003(4) -0.003(4) 0.043(7)
O1 0.118(5) 0.109(5) 0.143(6) 0.025(5) -0.042(5) -0.026(5)
C8 0.092(4) 0.092(4) 0.122(7) 0.029(5) -0.029(5) -0.015(6)
C9 0.108(7) 0.108(7) 0.108(11) 0.010(7) -0.010(7) 0.003(10)
N1 0.066(3) 0.040(2) 0.108(4) 0.015(3) -0.002(4) -0.001(2)
C10 0.057(4) 0.043(3) 0.118(6) 0.012(4) -0.003(4) -0.003(3)
C11 0.054(4) 0.041(3) 0.117(7) 0.007(4) -0.004(4) 0.003(2)
C12 0.066(4) 0.040(3) 0.092(4) 0.004(3) 0.003(4) 0.004(3)
C13 0.060(4) 0.051(4) 0.114(6) 0.000(4) -0.027(4) -0.006(3)
C14 0.064(4) 0.048(4) 0.113(6) 0.012(4) -0.010(4) 0.003(3)
F1 0.188(15) 0.188(15) 0.140(18) 0.002(13) -0.002(13) -0.02(2)
F2 0.23(2) 0.091(11) 0.20(2) 0.066(12) -0.047(16) -0.008(13)
F1B 0.156(10) 0.156(10) 0.190(18) 0.048(9) -0.048(9) 0.060(14)
F2B 0.234(19) 0.186(18) 0.143(13) 0.078(15) 0.003(13) -0.024(16)
C5 0.084(12) 0.117(16) 0.091(15) 0.005(14) 0.026(12) 0.013(11)
loop_
_atom_type_symbol
_atom_type_description
_atom_type_scat_dispersion_real
_atom_type_scat_dispersion_imag
_atom_type_scat_source
C C 0.0181 0.0091 'International Tables Vol C Tables 4.2.6.8 and 6.1.1.4'
H H 0.0000 0.0000 'International Tables Vol C Tables 4.2.6.8 and 6.1.1.4'
Ag Ag 0.1306 4.2820 'International Tables Vol C Tables 4.2.6.8 and 6.1.1.4'
F F 0.0727 0.0534 'International Tables Vol C Tables 4.2.6.8 and 6.1.1.4'
N N 0.0311 0.0180 'International Tables Vol C Tables 4.2.6.8 and 6.1.1.4'
O O 0.0492 0.0322 'International Tables Vol C Tables 4.2.6.8 and 6.1.1.4'
S S 0.3331 0.5567 'International Tables Vol C Tables 4.2.6.8 and 6.1.1.4'
loop_
_exptl_crystal_face_index_h
_exptl_crystal_face_index_k
_exptl_crystal_face_index_l
_exptl_crystal_face_perp_dist
11 0 -3 0.0792
0 11 0 0.0774
0 -11 0 0.0540
0 -1 -13 0.0367
0 1 13 0.0240
-10 -1 -5 0.0864
10 1 7 0.0687
-11 0 3 0.0954
loop_
_geom_angle_atom_site_label_1
_geom_angle_atom_site_label_2
_geom_angle_atom_site_label_3
_geom_angle
_geom_angle_site_symmetry_1
_geom_angle_site_symmetry_3
Ag2 Ag1 Ag2 67.64(2) 8 3_665
Ag2 Ag1 Ag2 102.88(3) 3_665 7_665
Ag2 Ag1 Ag2 147.39(5) 8 7_665
Ag2 Ag1 Ag2 147.39(5) 3_665 .
Ag2 Ag1 Ag2 102.87(3) 8 .
Ag2 Ag1 Ag2 67.64(2) 7_665 .
S1 Ag1 Ag2 122.84(3) . 8
S1 Ag1 Ag2 55.29(2) 3_665 8
S1 Ag1 Ag2 122.84(3) . .
S1 Ag1 Ag2 55.28(2) 3_665 .
S1 Ag1 Ag2 55.29(2) . 3_665
S1 Ag1 Ag2 55.29(2) . 7_665
S1 Ag1 Ag2 122.84(3) 3_665 7_665
S1 Ag1 Ag2 122.84(3) 3_665 3_665
S1 Ag1 S1 174.45(13) 3_665 .
Ag1 Ag2 Ag2 56.180(10) . 7_665
S1 Ag2 Ag1 51.38(5) 3_665 .
S1 Ag2 Ag2 107.50(5) 3_665 7_665
S2 Ag2 Ag1 84.08(5) . .
S2 Ag2 Ag2 48.95(4) . 7_665
S2 Ag2 S1 117.95(8) . 3_665
O1 Ag2 Ag1 94.0(2) . .
O1 Ag2 Ag2 77.08(18) . 7_665
O1 Ag2 S1 109.4(3) . 3_665
O1 Ag2 S2 115.3(2) . .
N1 Ag2 Ag1 158.29(17) . .
N1 Ag2 Ag2 140.52(15) . 7_665
N1 Ag2 S1 110.46(16) . 3_665
N1 Ag2 S2 117.31(18) . .
N1 Ag2 O1 80.6(3) . .
Ag3 Ag3 Ag3 89.998(1) 2_567 4_657
Ag3 Ag3 Ag3 44.999(1) 2_567 3_665
Ag3 Ag3 Ag3 45.0 4_657 3_665
Ag3 Ag3 S2 63.95(4) 4_657 4_657
Ag3 Ag3 S2 128.57(6) 2_567 4_657
Ag3 Ag3 S2 128.58(6) 4_657 .
Ag3 Ag3 S2 63.95(4) 2_567 .
S2 Ag3 Ag3 97.49(5) 4_657 3_665
S2 Ag3 Ag3 97.49(5) . 3_665
S2 Ag3 S2 165.01(10) 4_657 .
Ag1 S1 Ag2 73.33(5) . 3_665
Ag1 S1 Ag2 73.33(5) . 7_665
Ag2 S1 Ag2 131.36(9) 3_665 7_665
C1 S1 Ag1 107.8(4) . .
C1 S1 Ag2 111.65(10) . 7_665
C1 S1 Ag2 111.65(10) . 3_665
C2 C1 S1 108.1(8) 8 .
C2 C1 S1 108.0(8) . .
C2 C1 C2 110.8(14) . 8
C2 C1 C3 109.8(9) 8 .
C2 C1 C3 109.8(9) . .
C3 C1 S1 110.5(9) . .
C1 C2 H2A 109.5 . .
C1 C2 H2B 109.5 . .
C1 C2 H2C 109.5 . .
H2A C2 H2B 109.5 . .
H2A C2 H2C 109.5 . .
H2B C2 H2C 109.5 . .
C1 C3 H3A 109.5 . .
C1 C3 H3B 109.5 . .
C1 C3 H3C 109.5 . .
H3A C3 H3B 109.5 . .
H3A C3 H3C 109.5 . .
H3B C3 H3C 109.5 . .
Ag2 S2 Ag2 82.10(8) 7_665 .
Ag3 S2 Ag2 137.17(11) . .
Ag3 S2 Ag2 99.01(5) . 7_665
Ag3 S2 Ag2 137.16(11) 2_567 7_665
Ag3 S2 Ag2 99.01(5) 2_567 .
Ag3 S2 Ag3 52.09(8) . 2_567
C4 S2 Ag2 113.0(2) . 7_665
C4 S2 Ag2 113.0(2) . .
C4 S2 Ag3 105.9(3) . 2_567
C4 S2 Ag3 105.8(3) . .
C7 C4 S2 110.7(16) . .
C7 C4 C5 108.6(19) . .
C6 C4 S2 109.2(8) . .
C6 C4 C7 120.0(17) . .
C6 C4 C5 101.3(14) . .
C5 C4 S2 105.9(14) . .
C4 C7 H7A 109.5 . .
C4 C7 H7B 109.5 . .
C4 C7 H7C 109.5 . .
H7A C7 H7B 109.5 . .
H7A C7 H7C 109.5 . .
H7B C7 H7C 109.5 . .
C4 C6 H6A 109.5 . .
C4 C6 H6B 109.5 . .
C4 C6 H6C 109.5 . .
H6A C6 H6B 109.5 . .
H6A C6 H6C 109.5 . .
H6B C6 H6C 109.5 . .
C8 O1 Ag2 129.4(8) . .
O1 C8 O1 126.9(15) 7_665 .
O1 C8 C9 116.5(8) 7_665 .
O1 C8 C9 116.5(8) . .
F1 C9 C8 104(2) . .
F2 C9 C8 115.8(16) 7_665 .
F2 C9 C8 115.8(16) . .
F2 C9 F1 96(2) . .
F2 C9 F1 96(2) 7_665 .
F2 C9 F2 121(3) . 7_665
F1B C9 C8 113.9(16) . .
F2B C9 C8 115.5(14) 7_665 .
F2B C9 C8 115.5(14) . .
F2B C9 F1B 106.2(17) 7_665 .
F2B C9 F1B 106.2(17) . .
F2B C9 F2B 98(3) 7_665 .
C10 N1 Ag2 121.0(5) . .
C14 N1 Ag2 122.2(4) . .
C14 N1 C10 116.8(6) . .
N1 C10 H10 117.9 . .
N1 C10 C11 124.2(7) . .
C11 C10 H10 117.9 . .
C10 C11 H11 120.5 . .
C10 C11 C12 119.0(7) . .
C12 C11 H11 120.5 . .
C11 C12 C12 120.6(8) . 3_675
C13 C12 C11 117.2(6) . .
C13 C12 C12 122.2(8) . 3_675
C12 C13 H13 120.5 . .
C14 C13 C12 119.1(7) . .
C14 C13 H13 120.5 . .
N1 C14 C13 123.8(7) . .
N1 C14 H14 118.1 . .
C13 C14 H14 118.1 . .
C4 C5 H5A 109.5 . .
C4 C5 H5B 109.5 . .
C4 C5 H5C 109.5 . .
H5A C5 H5B 109.5 . .
H5A C5 H5C 109.5 . .
H5B C5 H5C 109.5 . .
loop_
_geom_bond_atom_site_label_1
_geom_bond_atom_site_label_2
_geom_bond_distance
_geom_bond_site_symmetry_2
Ag1 Ag2 2.9592(6) 8
Ag1 Ag2 2.9592(6) 3_665
Ag1 Ag2 2.9593(6) .
Ag1 Ag2 2.9592(6) 7_665
Ag1 S1 2.414(2) 3_665
Ag1 S1 2.414(2) .
Ag2 Ag2 3.2940(9) 7_665
Ag2 S1 2.5392(10) 3_665
Ag2 S2 2.5081(19) .
Ag2 O1 2.442(8) .
Ag2 N1 2.354(5) .
Ag3 Ag3 2.048(2) 4_657
Ag3 Ag3 2.897(3) 3_665
Ag3 Ag3 2.048(2) 2_567
Ag3 S2 2.333(2) .
Ag3 S2 2.333(2) 4_657
S1 Ag2 2.5392(10) 3_665
S1 Ag2 2.5392(10) 7_665
S1 C1 1.852(12) .
C1 C2 1.514(12) 8
C1 C2 1.514(12) .
C1 C3 1.52(2) .
C2 H2A 0.9600 .
C2 H2B 0.9600 .
C2 H2C 0.9600 .
C3 H3A 0.9600 .
C3 H3B 0.9600 .
C3 H3C 0.9600 .
S2 Ag2 2.5081(19) 7_665
S2 Ag3 2.333(2) 2_567
S2 C4 1.856(11) .
C4 C7 1.502(13) .
C4 C6 1.501(12) .
C4 C5 1.509(13) .
C7 H7A 0.9600 .
C7 H7B 0.9600 .
C7 H7C 0.9600 .
C6 H6A 0.9600 .
C6 H6B 0.9600 .
C6 H6C 0.9600 .
O1 C8 1.231(9) .
C8 O1 1.231(9) 7_665
C8 C9 1.46(2) .
C9 F1 1.315(15) .
C9 F2 1.288(13) .
C9 F2 1.288(13) 7_665
C9 F1B 1.314(14) .
C9 F2B 1.302(13) .
C9 F2B 1.302(13) 7_665
N1 C10 1.327(9) .
N1 C14 1.324(10) .
C10 H10 0.9300 .
C10 C11 1.377(10) .
C11 H11 0.9300 .
C11 C12 1.393(11) .
C12 C12 1.479(11) 3_675
C12 C13 1.389(11) .
C13 H13 0.9300 .
C13 C14 1.387(10) .
C14 H14 0.9300 .
C5 H5A 0.9600 .
C5 H5B 0.9600 .
C5 H5C 0.9600 .
loop_
_geom_torsion_atom_site_label_1
_geom_torsion_atom_site_label_2
_geom_torsion_atom_site_label_3
_geom_torsion_atom_site_label_4
_geom_torsion
_geom_torsion_site_symmetry_1
_geom_torsion_site_symmetry_2
_geom_torsion_site_symmetry_3
_geom_torsion_site_symmetry_4
Ag1 S1 C1 C2 120.1(9) . . . .
Ag1 S1 C1 C2 -120.1(9) . . . 8
Ag1 S1 C1 C3 0.000(2) . . . .
Ag2 S1 C1 C2 -41.4(10) 7_665 . . 8
Ag2 S1 C1 C2 161.3(8) 3_665 . . 8
Ag2 S1 C1 C2 41.4(10) 3_665 . . .
Ag2 S1 C1 C2 -161.3(8) 7_665 . . .
Ag2 S1 C1 C3 78.65(17) 7_665 . . .
Ag2 S1 C1 C3 -78.65(17) 3_665 . . .
Ag2 S2 C4 C7 -179.7(15) 7_665 . . .
Ag2 S2 C4 C7 -88.6(15) . . . .
Ag2 S2 C4 C6 -45.53(11) 7_665 . . .
Ag2 S2 C4 C6 45.53(11) . . . .
Ag2 S2 C4 C5 62.8(13) 7_665 . . .
Ag2 S2 C4 C5 153.8(13) . . . .
Ag2 O1 C8 O1 5(3) . . . 7_665
Ag2 O1 C8 C9 -176.7(11) . . . .
Ag2 N1 C10 C11 176.0(7) . . . .
Ag2 N1 C14 C13 -176.8(7) . . . .
Ag3 S2 C4 C7 18.7(15) 2_567 . . .
Ag3 S2 C4 C7 73.0(15) . . . .
Ag3 S2 C4 C6 -152.84(6) . . . .
Ag3 S2 C4 C6 152.84(6) 2_567 . . .
Ag3 S2 C4 C5 -44.5(13) . . . .
Ag3 S2 C4 C5 -98.8(13) 2_567 . . .
O1 C8 C9 F1 -90.5(17) 7_665 . . .
O1 C8 C9 F1 90.5(17) . . . .
O1 C8 C9 F2 14(3) 7_665 . . 7_665
O1 C8 C9 F2 165(2) 7_665 . . .
O1 C8 C9 F2 -165(2) . . . 7_665
O1 C8 C9 F2 -14(3) . . . .
O1 C8 C9 F1B -89.5(17) . . . .
O1 C8 C9 F1B 89.5(17) 7_665 . . .
O1 C8 C9 F2B 34(3) . . . .
O1 C8 C9 F2B -34(3) 7_665 . . 7_665
O1 C8 C9 F2B -147(2) 7_665 . . .
O1 C8 C9 F2B 147(2) . . . 7_665
N1 C10 C11 C12 1.6(15) . . . .
C10 N1 C14 C13 1.0(14) . . . .
C10 C11 C12 C12 176.2(7) . . . 3_675
C10 C11 C12 C13 -0.5(13) . . . .
C11 C12 C13 C14 -0.3(14) . . . .
C12 C12 C13 C14 -176.9(7) 3_675 . . .
C12 C13 C14 N1 0.1(15) . . . .
C14 N1 C10 C11 -1.8(14) . . . .
loop_
_exptl_oxdiff_crystal_face_indexfrac_h
_exptl_oxdiff_crystal_face_indexfrac_k
_exptl_oxdiff_crystal_face_indexfrac_l
_exptl_oxdiff_crystal_face_x
_exptl_oxdiff_crystal_face_y
_exptl_oxdiff_crystal_face_z
11.0000 -0.0000 -3.0000 -0.0045 0.0121 1.0046
0.0000 11.0000 0.0000 0.7768 -0.5921 0.0104
-0.0000 -11.0000 -0.0000 -0.7768 0.5921 -0.0104
0.0000 -1.0000 -13.0000 -0.6569 -0.7123 0.2328
-0.0000 1.0000 13.0000 0.6569 0.7123 -0.2328
-10.0000 -1.0000 -5.0000 -0.4151 -0.4125 -0.7753
10.0000 1.0000 7.0000 0.5053 0.5304 0.7393
-11.0000 0.0000 3.0000 0.0045 -0.0121 -1.0046
