#------------------------------------------------------------------------------
#$Date: 2019-06-14 11:57:03 +0300 (Fri, 14 Jun 2019) $
#$Revision: 215976 $
#$URL: file:///home/coder/svn-repositories/cod/cif/1/55/14/1551438.cif $
#------------------------------------------------------------------------------
#
# This file is available in the Crystallography Open Database (COD),
# http://www.crystallography.net/
#
# All data on this site have been placed in the public domain by the
# contributors.
#
data_1551438
loop_
_publ_author_name
'Ren-Wu Huang'
'Yong-Sheng Wei'
'Xi-Yan Dong'
'Xiao-Hui Wu'
'Chen-Xia Du'
'Shuang-Quan Zang'
'Thomas C. W. Mak'
_publ_section_title
;
 Hypersensitive dual-function luminescence switching of a
 silver-chalcogenolate cluster-based metal-organic framework
;
_journal_name_full               'Nature Chemistry'
_journal_page_first              689
_journal_page_last               697
_journal_paper_doi               10.1038/nchem.2718
_journal_volume                  9
_journal_year                    2017
_chemical_absolute_configuration ad
_chemical_formula_moiety         'C80 H104 Ag12 F12 N8 O8 S8, 2(C6 H5 Br)'
_chemical_formula_sum            'C92 H114 Ag12 Br2 F12 N8 O8 S8'
_chemical_formula_weight         3398.65
_space_group_crystal_system      tetragonal
_space_group_IT_number           121
_space_group_name_Hall           'I -4 2'
_space_group_name_H-M_alt        'I -4 2 m'
_atom_sites_solution_hydrogens   mixed
_atom_sites_solution_primary     direct
_cell_angle_alpha                90
_cell_angle_beta                 90
_cell_angle_gamma                90
_cell_formula_units_Z            2
_cell_length_a                   17.2292(3)
_cell_length_b                   17.2292(3)
_cell_length_c                   20.5453(9)
_cell_measurement_reflns_used    2588
_cell_measurement_temperature    100.15(10)
_cell_measurement_theta_max      28.1170
_cell_measurement_theta_min      3.3530
_cell_volume                     6098.8(3)
_computing_cell_refinement
;
CrysAlisPro, Agilent Technologies,
Version 1.171.36.32 (release 02-08-2013 CrysAlis171 .NET)
(compiled Aug  2 2013,16:46:58)
;
_computing_data_collection
;
CrysAlisPro, Agilent Technologies,
Version 1.171.36.32 (release 02-08-2013 CrysAlis171 .NET)
(compiled Aug  2 2013,16:46:58)
;
_computing_data_reduction
;
CrysAlisPro, Agilent Technologies,
Version 1.171.36.32 (release 02-08-2013 CrysAlis171 .NET)
(compiled Aug  2 2013,16:46:58)
;
_computing_molecular_graphics    'Olex2 (Dolomanov et al., 2009)'
_computing_publication_material  'Olex2 (Dolomanov et al., 2009)'
_computing_structure_refinement  'ShelXL (Sheldrick, 2015)'
_computing_structure_solution    'ShelXS (Sheldrick, 2008)'
_diffrn_ambient_temperature      100.15(10)
_diffrn_detector_area_resol_mean 16.2312
_diffrn_measured_fraction_theta_full 0.996
_diffrn_measured_fraction_theta_max 0.879
_diffrn_measurement_details
;
#__ type_ start__ end____ width___ exp.time_
  1 omega   46.00   88.00   1.0000   29.0000
omega____ theta____ kappa____ phi______ frames
    -       19.7104   77.0000 -180.0000 42

#__ type_ start__ end____ width___ exp.time_
  2 omega   41.00   67.00   1.0000   29.0000
omega____ theta____ kappa____ phi______ frames
    -       19.7104   77.0000 -120.0000 26

#__ type_ start__ end____ width___ exp.time_
  3 omega   -5.00   76.00   1.0000   29.0000
omega____ theta____ kappa____ phi______ frames
    -       19.7104   77.0000   60.0000 81
;
_diffrn_measurement_device_type  'Xcalibur, Eos, Gemini'
_diffrn_measurement_method       '\w scans'
_diffrn_orient_matrix_UB_11      -0.0190449000
_diffrn_orient_matrix_UB_12      0.0351457000
_diffrn_orient_matrix_UB_13      -0.0082904000
_diffrn_orient_matrix_UB_21      -0.0269941000
_diffrn_orient_matrix_UB_22      -0.0060097000
_diffrn_orient_matrix_UB_23      0.0255845000
_diffrn_orient_matrix_UB_31      0.0245563000
_diffrn_orient_matrix_UB_32      0.0205762000
_diffrn_orient_matrix_UB_33      0.0216559000
_diffrn_radiation_monochromator  graphite
_diffrn_radiation_type           MoK\a
_diffrn_radiation_wavelength     0.71073
_diffrn_reflns_av_R_equivalents  0.0482
_diffrn_reflns_av_unetI/netI     0.0612
_diffrn_reflns_Laue_measured_fraction_full 0.996
_diffrn_reflns_Laue_measured_fraction_max 0.879
_diffrn_reflns_limit_h_max       18
_diffrn_reflns_limit_h_min       -22
_diffrn_reflns_limit_k_max       21
_diffrn_reflns_limit_k_min       -23
_diffrn_reflns_limit_l_max       14
_diffrn_reflns_limit_l_min       -27
_diffrn_reflns_number            8892
_diffrn_reflns_point_group_measured_fraction_full 0.959
_diffrn_reflns_point_group_measured_fraction_max 0.810
_diffrn_reflns_theta_full        25.250
_diffrn_reflns_theta_max         29.271
_diffrn_reflns_theta_min         3.086
_diffrn_source                   'Enhance (Mo) X-ray Source'
_exptl_absorpt_coefficient_mu    2.740
_exptl_absorpt_correction_T_max  1.00000
_exptl_absorpt_correction_T_min  0.69517
_exptl_absorpt_correction_type   multi-scan
_exptl_absorpt_process_details
;
CrysAlisPro, Agilent Technologies,
Version 1.171.36.32 (release 02-08-2013 CrysAlis171 .NET)
(compiled Aug  2 2013,16:46:58)
Empirical absorption correction using spherical harmonics,
 implemented in SCALE3 ABSPACK scaling algorithm.
;
_exptl_crystal_colour            colourless
_exptl_crystal_colour_primary    colourless
_exptl_crystal_density_diffrn    1.851
_exptl_crystal_description
;
;
_exptl_crystal_F_000             3312
_exptl_crystal_size_max          0.22
_exptl_crystal_size_mid          0.168
_exptl_crystal_size_min          0.064
_refine_diff_density_max         1.868
_refine_diff_density_min         -0.630
_refine_diff_density_rms         0.139
_refine_ls_abs_structure_details
;
 Flack x determined using 1066 quotients [(I+)-(I-)]/[(I+)+(I-)]
 (Parsons and Flack (2004), Acta Cryst. A60, s61).
;
_refine_ls_abs_structure_Flack   0.02(3)
_refine_ls_extinction_coef       .
_refine_ls_extinction_method     none
_refine_ls_goodness_of_fit_ref   1.050
_refine_ls_hydrogen_treatment    constr
_refine_ls_matrix_type           full
_refine_ls_number_parameters     231
_refine_ls_number_reflns         3512
_refine_ls_number_restraints     51
_refine_ls_restrained_S_all      1.050
_refine_ls_R_factor_all          0.0590
_refine_ls_R_factor_gt           0.0433
_refine_ls_shift/su_max          0.001
_refine_ls_shift/su_mean         0.000
_refine_ls_structure_factor_coef Fsqd
_refine_ls_weighting_details
;
 w=1/[\s^2^(Fo^2^)+(0.0487P)^2^+4.6572P]
 where P=(Fo^2^+2Fc^2^)/3
;
_refine_ls_weighting_scheme      calc
_refine_ls_wR_factor_gt          0.0939
_refine_ls_wR_factor_ref         0.1008
_reflns_Friedel_coverage         0.691
_reflns_Friedel_fraction_full    0.914
_reflns_Friedel_fraction_max     0.727
_reflns_number_gt                2923
_reflns_number_total             3512
_reflns_threshold_expression     'I > 2\s(I)'
_cod_data_source_file            nchem.2718-s21.cif
_cod_data_source_block           ag12bpy_bromobenzene
_cod_database_code               1551438
_chemical_oxdiff_formula         C1H1O1N1S1Ag1
_shelx_space_group_comment
;
The symmetry employed for this shelxl refinement is uniquely defined
by the following loop, which should always be used as a source of
symmetry information in preference to the above space-group names.
They are only intended as comments.
;
_shelx_estimated_absorpt_t_max   0.844
_shelx_estimated_absorpt_t_min   0.584
_reflns_odcompleteness_completeness 99.67
_reflns_odcompleteness_iscentric 1
_reflns_odcompleteness_theta     26.32
_olex2_refinement_description
;
1. Fixed Uiso
 At 1.2 times of:
  All C(H) groups
 At 1.5 times of:
  All C(H,H,H) groups
2. Restrained distances
 C18-C17 = C17-C16 = C16-C15
 1.39 with sigma of 0.02
 C9-F1 \\sim C9-F2 \\sim C9-F1B \\sim C9-F2B
 with sigma of 0.01
3. Uiso/Uaniso restraints and constraints
Uanis(F1) \\sim Ueq, Uanis(F1B) \\sim Ueq, Uanis(F2B) \\sim Ueq, Uanis(C4)
\\sim Ueq, Uanis(C16) \\sim Ueq, Uanis(C17) \\sim Ueq, Uanis(C18) \\sim Ueq:
with sigma of 0.01 and sigma for terminal atoms of 0.02
Uanis(C15) = Uanis(Br1)
4. Others
 Fixed Sof: Ag3(0.25) H2A(0.5) H2B(0.5) H2C(0.5) C4(0.5) C5(0.5) H5A(0.5)
 H5B(0.5) H5C(0.5) C6(0.5) H6A(0.5) H6B(0.5) H6C(0.5) C7(0.5) H7A(0.5) H7B(0.5)
 H7C(0.5) F1(0.7) F2(0.35) F1B(0.3) F2B(0.15) Br1(0.25) C15(0.25) C16(0.5)
 H16(0.5) C17(0.5) H17(0.5) C18(0.25) H18(0.25)
 Fixed X: Br1(1) C15(1) C18(1)
 Fixed Z: Br1(0) C15(0) C18(0)
5.a Riding coordinates:
 C18(H18)
5.b Aromatic/amide H refined with riding coordinates:
 C10(H10), C11(H11), C13(H13), C14(H14), C16(H16), C17(H17)
5.c Idealised Me refined as rotating group:
 C2(H2A,H2B,H2C), C3(H3A,H3B,H3C), C5(H5A,H5B,H5C), C6(H6A,H6B,H6C), C7(H7A,
 H7B,H7C)
Comments: The trifluoroacetate, the t-butyl mercaptan anions and the 
guest bromobenzene molecules were involved in disorder, 
to which restraints and constraints were applied. In detail, 
two parts of the trifluoro-group with fixed occupancies of 0.7 and 0.3 
were assigned, whose ADP and relevant C-F bond lengths were 
restrained by "ISOR 0.01" and "SADI 0.01", respectively. 
One carbon atom (C4) in the t-butyl mercaptan group was also 
disordered. Only strong ADP restraint by the "ISOR 0.01" command 
was used for its thermal vibration. The guest bromobenzene 
molecule was located in the channel of the structure in a disordered 
manner, which can be detected clearly from the difference 
Fourier map. Due to the geometrical symmetry of the molecule 
and its special position in the lattice, this guest molecule is 
distributed over several positions. However, only the main 
part was assigned for clarity; very strong geometrical and 
thermal vibrational restraints and constraints were applied to 
make this model chemically suitable.
;
_shelx_res_file
;
TITL A in I-42m #121
REM reset to I-42m #121
CELL 0.71073 17.2292 17.2292 20.5453 90 90 90
ZERR 2 0.0003 0.0003 0.0009 0 0 0
LATT -2
SYMM +Y,-X,-Z
SYMM -X,-Y,+Z
SYMM -Y,+X,-Z
SYMM +X,-Y,-Z
SYMM -X,+Y,-Z
SYMM -Y,-X,+Z
SYMM +Y,+X,+Z
SFAC C H Ag Br F N O S
UNIT 184 228 24 4 24 16 16 16
DFIX 1.39 C18 C17 C17 C16 C16 C15
SADI 0.01 C9 F1 C9 F2 C9 F1B C9 F2B
ISOR 0.01 0.02 F1 F1B F2B C4 C16 C17 C18
EADP C15 Br1

L.S. 30
PLAN  10
SIZE 0.22 0.168 0.064
TEMP -173.0(1)
BOND $H
MORE -3
CONF
HTAB
fmap 2
acta 50.5
REM <olex2.extras>
REM <HklSrc "%.\\Ag12bpy_Bromobenzene.hkl">
REM </olex2.extras>

WGHT    0.048700    4.657200
FVAR       0.02353
AG1   3    0.500000    0.500000    0.204941    10.25000    0.01442    0.01442 =
         0.02870    0.00000    0.00000    0.00103
AG2   3    0.659856    0.529345    0.166827    11.00000    0.01540    0.02697 =
         0.04341   -0.00184    0.00116   -0.00340
AG3   3    0.500000    0.584005    0.000000    10.25000    0.02365    0.01918 =
         0.03044    0.00000   -0.00941    0.00000
S1    8    0.400528    0.599472    0.200326    10.50000    0.01931    0.01931 =
         0.02626   -0.00232    0.00232    0.00473
C1    1    0.374922    0.625078    0.285325    10.50000    0.03393    0.03393 =
         0.03114   -0.00985    0.00985   -0.00093
C2    1    0.422720    0.577280    0.333239    10.50000    0.04751    0.04751 =
         0.02395   -0.00776    0.00776    0.01104
PART -1
AFIX 137
H2A   2    0.472871    0.602680    0.340505    10.50000   -1.50000
H2B   2    0.431255    0.525237    0.315371    10.50000   -1.50000
H2C   2    0.394751    0.573207    0.374633    10.50000   -1.50000
AFIX   0
PART 0
C3    1    0.289269    0.608546    0.294338    11.00000    0.03117    0.06230 =
         0.04728   -0.01272    0.00964    0.00216
AFIX 137
H3A   2    0.259699    0.634054    0.259657    11.00000   -1.50000
H3B   2    0.272303    0.628476    0.336688    11.00000   -1.50000
H3C   2    0.280373    0.552408    0.292503    11.00000   -1.50000
AFIX   0
S2    8    0.601350    0.601350    0.072579    10.50000    0.03109    0.03109 =
         0.02145   -0.00087   -0.00087   -0.01269
PART -1
C4    1    0.661349    0.678873    0.031907    10.50000    0.02706    0.03367 =
         0.02683   -0.00124    0.00403   -0.00543
C5    1    0.705859    0.722408    0.084702    10.50000    0.02052    0.01624 =
         0.03153    0.00458   -0.00230   -0.00042
AFIX 137
H5A   2    0.672349    0.762350    0.103769    10.50000   -1.50000
H5B   2    0.751825    0.746953    0.065577    10.50000   -1.50000
H5C   2    0.721998    0.685886    0.118673    10.50000   -1.50000
AFIX   0
C6    1    0.705243    0.639818   -0.021263    10.50000    0.05087    0.03604 =
         0.04055   -0.01075    0.01454   -0.02343
AFIX 137
H6A   2    0.741683    0.602357   -0.002434    10.50000   -1.50000
H6B   2    0.734047    0.678721   -0.046313    10.50000   -1.50000
H6C   2    0.668884    0.612678   -0.050030    10.50000   -1.50000
AFIX   0
C7    1    0.607594    0.742491    0.003225    10.50000    0.03818    0.03649 =
         0.04883    0.01968   -0.00155    0.00186
AFIX 137
H7A   2    0.562815    0.717994   -0.017824    10.50000   -1.50000
H7B   2    0.636423    0.773082   -0.028910    10.50000   -1.50000
H7C   2    0.589586    0.776588    0.038291    10.50000   -1.50000
AFIX   0
PART 0
O1    7    0.692230    0.601096    0.266393    11.00000    0.03852    0.06446 =
         0.06408   -0.02125   -0.01031    0.00551
C8    1    0.657651    0.657651    0.286636    10.50000    0.02360    0.02360 =
         0.04558    0.00544    0.00544   -0.00551
C9    1    0.691474    0.691474    0.350432    10.50000    0.05258    0.05258 =
         0.05563   -0.00320   -0.00320    0.00907
PART 1
F1    5    0.643697    0.731580    0.386813    10.70000    0.08408    0.09415 =
         0.06535   -0.05533   -0.01096    0.01990
F2    5    0.744780    0.744780    0.336460    10.35000    0.09668    0.09668 =
         0.08345   -0.01981   -0.01981   -0.05334
PART 0
PART 2
F1B   5    0.675409    0.762851    0.366945    10.30000    0.11121    0.08300 =
         0.10016   -0.01167   -0.05030    0.01803
F2B   5    0.655539    0.655539    0.398653    10.15000    0.13165    0.13165 =
         0.08468   -0.02189   -0.02189   -0.01937
PART 0
N1    6    0.794608    0.515425    0.167370    11.00000    0.02028    0.03049 =
         0.02622   -0.00095   -0.00387   -0.00462
C10   1    0.840790    0.575606    0.184419    11.00000    0.02276    0.02071 =
         0.03595   -0.00774   -0.00622   -0.00046
AFIX  43
H10   2    0.816647    0.622633    0.197569    11.00000   -1.20000
AFIX   0
C11   1    0.920090    0.572839    0.183868    11.00000    0.02194    0.02140 =
         0.02419    0.00076   -0.00144   -0.00417
AFIX  43
H11   2    0.949605    0.617313    0.195465    11.00000   -1.20000
AFIX   0
C12   1    0.957706    0.503255    0.165901    11.00000    0.01888    0.02231 =
         0.01904    0.00151   -0.00517   -0.00161
C13   1    0.910173    0.440619    0.150282    11.00000    0.02532    0.01763 =
         0.02523    0.00094   -0.00428    0.00013
AFIX  43
H13   2    0.932410    0.391970    0.139061    11.00000   -1.20000
AFIX   0
C14   1    0.830053    0.449632    0.151190    11.00000    0.01649    0.02885 =
         0.03056   -0.00325   -0.00961   -0.00635
AFIX  43
H14   2    0.798820    0.406346    0.139596    11.00000   -1.20000
AFIX   0

PART -1
BR1   4   11.000000    0.424533   10.000000    10.25000    0.07768    0.09059 =
         0.02949    0.00604    0.01269    0.03120
C15   1   11.000000    0.527803   10.000000    10.25000    0.07768    0.09059 =
         0.02949    0.00604    0.01269    0.03120
PART 0
C16   1    0.933555    0.572740    0.014230    10.50000    0.04743    0.06296 =
         0.03659   -0.00512    0.00029    0.00123
AFIX  43
H16   2    0.886273    0.547135    0.024471    10.50000   -1.20000
AFIX   0
C17   1    0.935452    0.653477    0.013660    10.50000    0.04865    0.07874 =
         0.04848   -0.00750    0.00319    0.00718
AFIX  43
H17   2    0.888473    0.679862    0.023477    10.50000   -1.20000
AFIX   0
PART -1
C18   1   11.000000    0.698794   10.000000    10.25000    0.05440    0.06554 =
         0.05029    0.00000    0.00068    0.00000
AFIX   3
H18   2    1.000000    0.753914    0.000000    10.25000   -1.20000
AFIX   0
HKLF 4

REM  A in I-42m #121
REM R1 =  0.0433 for    2923 Fo > 4sig(Fo)  and  0.0590 for all    3512 data
REM    231 parameters refined using     51 restraints

END

WGHT      0.0487      4.6534

REM Instructions for potential hydrogen bonds
HTAB C10 O1
EQIV $1 -x+3/2, y-1/2, -z+1/2
HTAB C14 F1B_$1

REM Highest difference peak  1.868,  deepest hole -0.630,  1-sigma level  0.139
Q1    1   0.5000  0.5000  0.2519  10.25000  0.05    1.87
Q2    1   0.5000  0.5000  0.1578  10.25000  0.05    1.69
Q3    1   0.6575  0.5251  0.2145  11.00000  0.05    1.49
Q4    1   0.6569  0.5273  0.1191  11.00000  0.05    1.40
Q5    1   0.4800  0.5000  0.5000  10.50000  0.05    0.78
Q6    1   0.5570  0.5570  0.4754  10.50000  0.05    0.66
Q7    1   0.6660  0.6660  0.2397  10.50000  0.05    0.66
Q8    1   0.4001  0.5999  0.1568  10.50000  0.05    0.65
Q9    1   1.0000  0.8151  0.0000  10.50000  0.05    0.64
Q10   1   0.3969  0.6031  0.2473  10.50000  0.05    0.63
;
_shelx_res_checksum              30271
_shelx_hkl_file
;
   0   0  -4    0.95    0.16
   0   0   6  985.78   25.24
   0   0  -6 1000.00   25.24
   0   0   8   26.73    1.06
   0   0  -8   28.22    1.07
   0   0 -10   18.57    0.89
   0   0 -12  191.41    5.47
   0   0 -14    8.62    0.70
   0   0 -16    0.63    0.34
   0   0 -18   49.82    2.09
   0   0 -20    1.54    0.46
   0   0 -22    6.96    0.80
   0   0 -24   32.95    1.85
   0   0 -26    0.98    0.54
  -1   0  -3  115.19    2.90
   0   1  -3  106.84    2.91
   1   0  -3  104.91    2.96
   0  -1  -3  113.91    2.96
   1   0   5  134.02    3.59
  -1   0  -5  138.81    3.61
   1   0  -5  127.35    3.66
   0  -1  -5  140.54    3.69
   0   1  -5  129.09    3.59
   0  -1   5  133.96    3.61
   0   1  -7   12.69    0.59
   1   0   7   11.91    0.57
   1   0  -7   10.84    0.61
   0  -1  -7   11.86    0.62
   0  -1   7   11.80    0.60
   0   1   7   11.67    0.60
  -1   0  -7   12.59    0.59
   0  -1  -9   55.53    1.84
   1   0   9   50.19    1.73
  -1   0  -9   54.47    1.76
  -1   0   9   53.29    1.82
   1   0  -9   54.96    1.84
   0  -1   9   54.29    1.79
   0   1  -9   52.52    1.76
   0   1   9   50.30    1.78
   0   1 -11   53.19    1.84
  -1   0 -11   53.49    1.86
   1   0 -11   52.93    1.90
   0  -1 -11   52.64    1.89
  -1   0 -13   13.94    0.82
   0  -1 -13   13.16    0.83
   1   0 -13   13.68    0.85
   0   1 -13   12.52    0.80
   1   0 -15   -0.66    0.34
   0   1 -15    0.19    0.25
  -1   0 -15   -0.32    0.32
   0  -1 -15    0.12    0.29
   1   0 -17    1.19    0.41
   0   1 -17    1.85    0.45
   0  -1 -17    1.31    0.40
  -1   0 -17    1.71    0.42
  -1   0 -19   11.26    0.89
   0  -1 -19   10.46    0.89
   0   1 -19   11.52    0.91
   1   0 -19   11.00    0.90
   1   0 -21    6.73    0.77
  -1   0 -21    6.62    0.73
   0  -1 -21    7.33    0.77
   0   1 -21    6.24    0.72
   0  -1 -23    0.29    0.40
  -1   0 -23    0.73    0.43
   1   0 -23    1.35    0.51
  -1   0 -25    8.82    0.95
   0  -1 -25   10.20    1.04
   1   0 -25    9.42    0.99
   0   1 -25   11.33    1.07
   1   1 -26    0.69    0.49
   1   1 -24    7.46    0.90
  -1  -1 -24    8.72    0.94
   1   1 -22   10.06    0.95
  -1  -1 -22   11.14    0.97
   1   1 -20    0.10    0.35
  -1  -1 -20    0.52    0.35
   1   1 -18    3.11    0.54
  -1  -1 -18    3.25    0.56
   1   1 -16    1.53    0.41
  -1  -1 -16    1.77    0.42
   1   1 -14    1.73    0.37
  -1  -1 -14    1.68    0.37
  -1  -1 -12    1.00    0.32
   1   1 -12    0.87    0.27
  -1  -1 -10   19.85    0.92
   1  -1  10   19.43    0.87
   1   1 -10   18.20    0.90
   1  -1   8   30.91    1.10
   1   1  -8   28.48    1.13
  -1   1   8   29.05    1.17
  -1  -1  -8   33.08    1.17
  -1  -1  -6   16.13    0.68
   1  -1   6   16.09    0.64
   1   1  -6   15.29    0.67
   1   1  -4    2.36    0.23
   1  -1   4    2.16    0.18
  -1  -1  -4    2.41    0.21
   1  -1  -4    1.54    0.22
  -1   1  -4    1.90    0.16
   1  -1  -6   14.30    0.69
  -1   1  -6   13.75    0.57
   1   1   6   14.96    0.63
  -1  -1   8   29.51    1.15
  -1   1  -8   29.53    1.09
   1  -1  -8   29.40    1.18
   1   1   8   30.18    1.12
  -1   1 -10   18.11    0.84
   1  -1 -10   17.47    0.90
  -1   1 -12    1.36    0.31
   1  -1 -12    1.24    0.31
   1  -1 -14    2.49    0.43
  -1   1 -14    2.22    0.38
  -1   1 -16    1.63    0.38
   1  -1 -16    1.57    0.42
   1  -1 -18    1.44    0.43
  -1   1 -18    3.10    0.47
   1  -1 -20   -0.13    0.43
  -1   1 -20   -0.07    0.34
  -1   1 -22   10.30    0.93
   1  -1 -22    9.52    0.94
  -1   1 -24    9.71    0.95
   1  -1 -24    8.53    0.95
   1  -1 -26   -0.36    0.46
   2   0  -2    2.01    0.18
  -2   0  -4   25.09    0.75
   2   0  -4   23.22    0.87
   0  -2  -4   23.74    0.85
   0  -2   4   23.28    0.77
   0   2  -6  162.94    4.50
  -2   0  -6  169.64    4.49
   0  -2  -6  169.05    4.61
   0  -2   6  171.89    4.52
   2   0   6  178.35    4.49
   2   0  -8    4.32    0.43
   0   2  -8    4.52    0.37
   0  -2  -8    4.16    0.41
   0  -2   8    4.92    0.37
   2   0   8    4.28    0.34
  -2   0  -8    4.55    0.35
   0   2   8    4.47    0.40
   2   0  10   21.27    0.92
   0  -2 -10   21.91    1.03
   0   2 -10   20.03    0.92
   2   0 -10   21.64    1.03
  -2   0 -10   22.28    0.95
   0  -2  10   22.34    0.97
   2   0 -12   23.18    1.14
  -2   0 -12   24.44    1.06
   0  -2 -12   22.38    1.12
   0   2 -12   20.71    1.02
   2   0 -14   11.59    0.85
   0   2 -14   12.79    0.82
  -2   0 -14   13.24    0.82
   0  -2 -14   12.65    0.86
   0  -2 -16    3.24    0.52
   2   0 -16    2.42    0.46
  -2   0 -16    2.71    0.45
   0   2 -16    3.54    0.50
   2   0 -18    8.16    0.79
  -2   0 -18   10.13    0.83
   0   2 -18    8.07    0.75
   0  -2 -18    8.81    0.81
   2   0 -20    5.12    0.71
   0   2 -20    5.37    0.67
   0  -2 -20    6.52    0.76
  -2   0 -20    6.62    0.70
   0   2 -22    0.35    0.36
   2   0 -22   -0.20    0.38
  -2   0 -22   -0.13    0.36
   0  -2 -22   -0.12    0.41
  -2   0 -24    8.39    0.89
   2   0 -24    8.22    0.92
   0  -2 -24    8.38    0.93
   0   2 -24    9.74    0.94
   2   0 -26   -0.27    0.48
   0  -2 -26    1.71    0.60
   2   1 -25    2.47    0.61
  -1  -2 -25    2.88    0.62
  -2  -1 -23   -0.09    0.36
  -1  -2 -23    1.12    0.45
   1   2 -23    0.57    0.41
   2   1 -23    0.87    0.49
   2   1 -21    1.25    0.43
   1   2 -21    0.50    0.42
  -1  -2 -21    0.77    0.40
  -2  -1 -21    1.00    0.36
  -2  -1 -19    8.45    0.81
   2   1 -19    7.54    0.77
   1   2 -19    7.55    0.77
  -1  -2 -19    7.95    0.78
   1   2 -17    0.95    0.36
  -2  -1 -17    0.82    0.32
   2   1 -17    1.29    0.41
  -1  -2 -17    1.39    0.40
   1   2 -15   16.73    1.01
  -1  -2 -15   16.24    1.00
   2   1 -15   18.02    1.07
  -2  -1 -15   18.54    1.01
   1   2 -13    5.48    0.52
   2   1 -13    5.39    0.55
  -2  -1 -13    6.08    0.54
  -1  -2 -13    4.63    0.52
   1  -2  11   14.92    0.77
  -1  -2 -11   14.14    0.79
   2   1 -11   11.96    0.77
   1   2 -11   13.53    0.77
   2  -1  11   13.80    0.72
  -2  -1 -11   15.55    0.80
   1   2  -9   35.48    1.35
   2   1  -9   36.17    1.40
  -1  -2  -9   39.18    1.41
   2  -1   9   36.95    1.29
  -2  -1  -9   38.88    1.37
   1  -2   9   39.50    1.34
   2  -1   7    8.48    0.43
   2   1  -7    8.20    0.52
   1  -2   7    8.95    0.45
   1   2  -7    8.88    0.51
  -1  -2  -7    9.13    0.52
  -2  -1  -7    9.01    0.47
   1  -2   5   39.82    1.18
  -1  -2  -5   40.76    1.27
  -2  -1  -5   39.57    1.22
   2  -1   5   39.16    1.15
   2   1  -5   36.40    1.28
   1  -2  -3   14.48    0.58
   2  -1  -3   13.28    0.57
   1  -2  -5   34.93    1.27
   2  -1  -5   35.34    1.27
  -1   2  -5   37.27    1.10
  -2   1  -5   37.75    1.10
  -1  -2   7    8.46    0.48
  -1   2  -7    8.26    0.44
   1  -2  -7    7.78    0.53
   1   2   7    8.53    0.50
   2  -1  -7    8.17    0.54
  -2   1  -7    8.70    0.44
   2   1   7    9.69    0.49
   1  -2  -9   38.80    1.48
  -2   1  -9   37.50    1.30
  -1   2  -9   35.79    1.29
   2  -1  -9   37.50    1.46
   2   1   9   38.24    1.35
  -1  -2   9   37.31    1.37
   1   2   9   37.72    1.39
  -1   2 -11   14.39    0.75
   2  -1 -11   14.73    0.86
  -2   1 -11   15.63    0.78
   1  -2 -11   16.46    0.91
  -1   2 -13    4.88    0.47
   2  -1 -13    4.92    0.54
  -2   1 -13    5.12    0.47
   1  -2 -13    5.33    0.55
  -1   2 -15   16.11    0.95
   2  -1 -15   17.24    1.07
  -2   1 -15   16.68    0.96
   1  -2 -15   17.02    1.05
   1  -2 -17    1.69    0.42
  -2   1 -17    1.74    0.39
   2  -1 -17    1.44    0.44
  -1   2 -17    1.57    0.40
   2  -1 -19    7.98    0.81
   1  -2 -19    7.36    0.76
  -1   2 -19    8.15    0.75
  -2   1 -19    8.70    0.76
   1  -2 -21    1.14    0.47
   2  -1 -21    1.28    0.46
  -2   1 -21    1.45    0.45
  -1   2 -21    0.43    0.37
  -1   2 -23    0.47    0.40
   1  -2 -23    0.43    0.42
  -2   1 -23    0.71    0.46
   2  -1 -23    0.30    0.40
   2  -1 -25    2.56    0.59
   1  -2 -25    2.82    0.67
   1  -2 -27    0.01    0.46
   2  -1 -27   -0.01    0.47
  -2  -2 -24    1.79    0.48
   2   2 -22    5.86    0.77
  -2  -2 -22    5.75    0.74
  -2  -2 -20   13.29    1.04
   2   2 -20   11.10    0.97
   2   2 -18    1.77    0.45
  -2  -2 -18    1.81    0.40
  -2  -2 -16    6.69    0.68
   2   2 -16    7.24    0.69
  -2  -2 -14   30.31    1.39
   2   2 -14   31.51    1.42
  -2  -2 -12   27.57    1.21
   2  -2  12   26.00    1.11
   2   2 -12   26.63    1.22
  -2  -2 -10   65.37    2.10
   2  -2  10   62.43    1.98
   2   2 -10   60.78    2.10
  -2  -2  -8   31.74    1.13
   2   2  -8   30.22    1.17
   2  -2   8   28.19    1.02
   2  -2   6   16.25    0.61
  -2  -2  -6   17.86    0.72
   2  -2   4   28.43    0.81
  -2   2   2   40.62    1.16
   2  -2   0   23.61    0.71
  -2   2   0   23.18    0.76
  -2  -2   2   39.16    1.11
   2  -2  -2   35.10    1.17
   2  -2  -4   26.33    0.99
  -2   2  -6   16.85    0.59
   2  -2  -6   17.47    0.82
  -2  -2   8   31.39    1.19
   2   2   8   32.29    1.16
   2  -2  -8   28.79    1.22
  -2   2  -8   27.83    1.00
  -2   2 -10   60.55    1.94
   2  -2 -10   65.81    2.20
   2  -2 -12   27.60    1.30
  -2   2 -12   26.60    1.10
   2  -2 -14   29.52    1.42
  -2   2 -14   29.25    1.27
   2  -2 -16    6.38    0.70
  -2   2 -16    7.13    0.64
  -2   2 -18    2.19    0.44
   2  -2 -18    2.57    0.51
  -2   2 -20   11.56    0.89
   2  -2 -20   10.14    0.95
  -2   2 -22    5.59    0.69
   2  -2 -22    5.73    0.75
   2  -2 -24    1.30    0.50
   2  -2 -26    0.60    0.53
   0   3  -1    2.52    0.18
  -3   0   1    3.02    0.19
  -3   0   3  175.15    4.57
   3   0  -3  171.69    4.61
   0  -3  -3  170.32    4.60
  -3   0  -5   24.01    0.74
   0  -3   5   21.43    0.78
   3   0  -5   21.60    0.89
   0  -3  -5   22.44    0.88
   0  -3  -7    5.66    0.45
   3   0  -7    5.15    0.44
   0  -3   7    6.23    0.39
  -3   0  -7    6.39    0.36
   3   0  -9    5.41    0.50
  -3   0  -9    6.35    0.42
   3   0   9    6.70    0.43
   0  -3  -9    6.64    0.53
   0  -3   9    6.27    0.45
   3   0 -11    1.16    0.27
   0   3 -11    1.49    0.29
   3   0  11    1.31    0.26
   0  -3 -11    1.46    0.33
  -3   0 -11    1.26    0.27
  -3   0 -13    0.47    0.26
   0   3 -13    0.32    0.27
   3   0 -13   -0.03    0.27
   0  -3 -13    0.49    0.33
  -3   0 -15    1.29    0.32
   3   0 -15    0.93    0.35
   0  -3 -15    1.11    0.38
   0   3 -15    1.35    0.35
  -3   0 -17    1.50    0.37
   3   0 -17    1.31    0.43
   0  -3 -17    1.63    0.44
   0   3 -17    1.30    0.39
   3   0 -19    4.39    0.64
   0  -3 -19    3.95    0.60
   0   3 -19    5.60    0.64
  -3   0 -19    6.45    0.69
   3   0 -21    0.12    0.39
   0  -3 -21    0.63    0.40
  -3   0 -21    0.01    0.33
   0  -3 -23    0.13    0.41
   3   0 -23    0.94    0.51
   0  -3 -25    0.51    0.46
   3   0 -25   -0.24    0.47
   3   0 -27    0.76    0.49
   0  -3 -27    0.84    0.49
   3   1 -26    0.26    0.48
  -1  -3 -26   -0.78    0.46
  -1  -3 -24   -0.91    0.53
   3   1 -24   -0.94    0.47
  -1  -3 -22    0.91    0.40
   3   1 -22    0.94    0.48
  -1  -3 -20    4.39    0.63
   3   1 -20    4.04    0.65
  -3  -1 -20    5.36    0.66
  -1  -3 -18    4.46    0.59
   3   1 -18    5.29    0.66
   1   3 -18    5.72    0.64
  -3  -1 -18    6.13    0.64
  -1  -3 -16    3.61    0.55
   1   3 -16    3.41    0.50
  -3  -1 -16    3.45    0.46
   3   1 -16    3.56    0.56
   1   3 -14    6.19    0.59
  -1  -3 -14    6.23    0.62
  -3  -1 -14    7.08    0.59
   3   1 -14    5.83    0.62
   3  -1  12   17.22    0.84
   3   1 -12   18.01    0.99
  -3  -1 -12   18.83    0.92
  -1  -3 -12   18.92    1.00
   1   3 -12   17.43    0.92
  -3  -1 -10   25.01    1.01
   3   1 -10   22.52    1.09
   3  -1  10   23.52    0.94
  -1  -3 -10   23.67    1.08
   1  -3  10   23.97    0.99
  -3  -1  -8   13.06    0.61
  -1  -3  -8   13.92    0.70
   1  -3   8   12.67    0.60
   3   1  -8   11.38    0.70
   3  -1   8   13.51    0.57
   1  -3   6    3.03    0.23
   3  -1   6    3.50    0.23
   3   1  -6    3.44    0.34
  -3  -1  -6    3.49    0.27
  -1  -3  -6    3.48    0.33
   3   1  -4   18.37    0.75
  -1  -3  -4   18.68    0.74
  -3   1   2   29.44    0.94
  -3   1   2   30.35    0.95
   3   1  -2   29.51    0.86
  -3   1   0   41.04    1.14
  -1  -3   0   35.10    1.03
   3  -1   0   41.12    1.09
  -1   3   0   34.76    1.12
   3  -1  -2   29.76    0.98
   1  -3  -2   29.56    0.85
   1  -3  -2   29.70    0.98
  -3  -1   2   31.59    0.97
   1  -3  -4   17.98    0.76
   3  -1  -4   16.29    0.76
  -3   1  -4   19.13    0.56
   3  -1  -6    3.76    0.38
  -3   1  -6    4.09    0.25
   1  -3  -6    3.82    0.38
  -1  -3   6    4.02    0.32
   3  -1  -8   13.73    0.78
   1   3   8   15.19    0.75
  -1  -3   8   14.10    0.69
   1  -3  -8   14.41    0.80
  -3   1  -8   14.36    0.61
  -3   1 -10   25.25    0.97
   3   1  10   26.72    1.05
  -1   3 -10   22.36    0.96
   1  -3 -10   24.34    1.15
   3  -1 -10   23.89    1.15
   1  -3 -12   18.77    1.05
  -1   3 -12   17.99    0.89
   3  -1 -12   18.71    1.05
  -3   1 -12   19.66    0.91
  -3   1 -14    6.83    0.56
  -1   3 -14    5.95    0.55
   1  -3 -14    6.32    0.65
   3  -1 -14    6.70    0.67
  -1   3 -16    2.30    0.41
   1  -3 -16    2.11    0.46
   3  -1 -16    3.04    0.50
  -3   1 -16    2.67    0.42
   3  -1 -18    7.20    0.75
   1  -3 -18    7.35    0.75
  -1   3 -18    6.76    0.68
  -3   1 -18    7.12    0.66
   1  -3 -20    4.90    0.72
  -3   1 -20    4.97    0.59
   3  -1 -20    3.43    0.62
  -1   3 -20    3.93    0.58
  -3   1 -22    1.29    0.48
   1  -3 -22    1.95    0.52
   3  -1 -22    0.87    0.42
   3  -1 -24   -0.18    0.43
   1  -3 -24    0.49    0.46
   3  -1 -26    0.40    0.44
   1  -3 -26   -0.48    0.46
  -2  -3 -25    0.30    0.40
  -3  -2 -23    2.00    0.52
  -2  -3 -23    1.16    0.46
  -2  -3 -21    4.62    0.61
  -3  -2 -21    5.84    0.70
   3   2 -21    5.40    0.72
   3   2 -19    2.55    0.53
  -3  -2 -19    4.08    0.55
  -2  -3 -19    3.59    0.57
   3   2 -17   12.95    0.97
  -3  -2 -17   12.95    0.92
   2   3 -17   11.42    0.89
  -2  -3 -17   12.35    0.95
  -2  -3 -15   35.22    1.56
  -3  -2 -15   36.18    1.55
   2   3 -15   32.38    1.51
   3   2 -15   32.99    1.57
   3   2 -13   11.82    0.82
   2   3 -13   11.88    0.78
  -2  -3 -13   12.66    0.82
  -3  -2 -13   13.55    0.79
   3  -2  13   12.16    0.69
   3   2 -11   25.88    1.23
  -2  -3 -11   29.41    1.23
   3  -2  11   27.17    1.06
   2  -3  11   29.64    1.12
  -3  -2 -11   27.91    1.17
   3   2  -9   63.05    2.14
  -3  -2  -9   65.29    2.04
  -2  -3  -9   63.87    2.09
   3  -2   9   61.42    1.90
   2  -3   9   67.30    1.97
  -3  -2  -7   45.28    1.46
   2  -3   7   44.70    1.36
  -2  -3  -7   46.31    1.52
   3  -2   7   44.41    1.33
   2  -3   5    0.23    0.10
  -2  -3  -5    0.19    0.16
  -3   2   3   91.74    2.53
  -3   2   1   13.20    0.55
  -2   3   1   13.46    0.56
   3  -2   1   13.02    0.43
   2  -3  -1   11.01    0.48
  -3   2  -1   11.72    0.38
  -2   3  -1   10.74    0.49
   3  -2  -1   10.97    0.47
  -2  -3   1   11.52    0.42
  -3  -2   3   90.67    2.46
   2  -3  -3   89.49    2.38
   3  -2  -3   80.87    2.51
   2  -3  -3   87.27    2.51
   3  -2  -5    0.24    0.21
   2  -3  -5   -0.04    0.20
  -3   2  -5    0.14    0.07
  -3   2  -7   41.44    1.25
   2  -3  -7   44.19    1.57
   3  -2  -7   41.45    1.54
  -2  -3   7   42.57    1.44
   3  -2  -9   64.18    2.16
  -2   3  -9   60.61    1.84
  -3   2  -9   59.97    1.83
   2  -3  -9   62.64    2.16
   2  -3 -11   27.70    1.29
   3  -2 -11   27.77    1.28
  -2   3 -11   26.20    1.04
  -3   2 -11   26.56    1.04
   3  -2 -13   13.04    0.90
   2  -3 -13   14.13    0.93
  -3   2 -13   12.95    0.71
  -2   3 -13   12.89    0.73
  -3   2 -15   34.58    1.40
  -2   3 -15   31.65    1.38
   2  -3 -15   33.01    1.59
   3  -2 -15   34.05    1.61
   3  -2 -17   13.69    1.02
   2  -3 -17   12.99    1.01
  -3   2 -17   14.13    0.89
  -2   3 -17   13.31    0.89
  -2   3 -19    2.67    0.47
  -3   2 -19    4.25    0.55
   2  -3 -19    3.68    0.62
   3  -2 -19    4.26    0.64
  -2   3 -21    6.00    0.69
   2  -3 -21    5.12    0.74
  -3   2 -21    6.29    0.68
   3  -2 -21    4.96    0.70
   3  -2 -23    2.58    0.58
   2  -3 -23    2.69    0.62
   2  -3 -25    0.37    0.47
   3  -2 -25    0.13    0.43
   2  -3 -27    0.02    0.48
  -3  -3 -24    3.47    0.66
  -3  -3 -22    0.87    0.41
  -3  -3 -20    8.69    0.85
  -3  -3 -18   34.93    1.68
  -3  -3 -16    1.65    0.39
  -3  -3 -14   21.68    1.13
   3  -3  12   91.40    2.76
  -3  -3 -12   93.56    2.94
   3  -3  10   41.84    1.40
  -3  -3 -10   44.45    1.56
  -3  -3  -8    8.40    0.51
   3  -3   8    7.84    0.39
   3  -3   6  103.01    2.73
   3  -3   2    7.47    0.28
  -3   3   2    7.39    0.42
  -3   3   2    6.27    0.34
  -3   3   0    2.52    0.28
   3  -3   0    2.39    0.21
  -3   3   0    2.31    0.19
  -3  -3   2    6.60    0.36
   3  -3  -2    6.21    0.40
   3  -3  -4   64.40    2.15
   3  -3  -4   72.69    2.01
   3  -3  -6  110.81    3.37
   3  -3  -6  115.59    3.20
   3  -3  -8    7.83    0.59
   3  -3 -10   44.01    1.72
  -3   3 -10   41.67    1.37
  -3   3 -12   89.06    2.73
   3  -3 -12   98.03    3.14
   3  -3 -14   21.88    1.22
  -3   3 -14   21.03    0.98
   3  -3 -16    2.51    0.52
  -3   3 -16    1.79    0.34
  -3   3 -18   36.59    1.61
   3  -3 -18   36.88    1.83
  -3   3 -20    8.76    0.75
   3  -3 -20    5.29    0.71
   3  -3 -22    1.65    0.51
   3  -3 -24    2.57    0.59
   3  -3 -26    0.42    0.53
   0  -4   0    1.47    0.18
   0   4   0    1.65    0.19
   4   0  -2    0.55    0.17
  -4   0   2    0.49    0.22
   0   4  -2    0.65    0.16
  -4   0   2    0.66    0.18
   0  -4  -4    0.41    0.20
   4   0  -4    0.36    0.15
   4   0  -4    0.25    0.21
  -4   0   4   -0.02    0.19
  -4   0  -6   35.07    1.06
   0  -4   6   34.02    1.13
   4   0  -6   33.35    1.27
   0  -4  -6   33.93    1.27
   4   0  -8    2.41    0.38
  -4   0  -8    2.81    0.26
   0  -4  -8    2.66    0.37
   0  -4   8    2.29    0.27
   4   0 -10    1.96    0.38
   0  -4  10    1.56    0.26
   0  -4 -10    2.16    0.36
  -4   0 -10    1.92    0.25
  -4   0 -12    2.44    0.32
   0  -4 -12    2.07    0.38
   4   0 -12    1.95    0.39
   0  -4 -14    0.00    0.31
  -4   0 -14    1.12    0.35
   4   0 -14    0.77    0.37
  -4   0 -16   -0.07    0.32
   0  -4 -16    0.09    0.32
   4   0 -16   -0.24    0.36
   0  -4 -18    4.57    0.63
   4   0 -18    3.96    0.61
  -4   0 -18    4.48    0.57
   0  -4 -20    1.60    0.46
   4   0 -20    1.73    0.48
  -4   0 -20    2.18    0.48
   0  -4 -22    0.27    0.40
   4   0 -22   -0.04    0.42
   0  -4 -24    5.00    0.74
   4   0 -24    3.70    0.72
   0  -4 -26    0.18    0.45
   4   0 -26    0.79    0.50
  -1  -4 -27    0.03    0.45
  -1  -4 -25    1.24    0.53
   4   1 -25    0.30    0.43
   4   1 -23    1.06    0.50
  -1  -4 -23    0.78    0.49
  -4  -1 -21    1.41    0.45
  -1  -4 -21    1.16    0.45
   4   1 -21    1.54    0.48
  -1  -4 -19    5.51    0.69
   4   1 -19    4.35    0.62
   4   1 -17    0.23    0.36
  -1  -4 -17    0.61    0.37
  -4  -1 -17    0.30    0.26
  -4  -1 -15    6.51    0.59
  -1  -4 -15    5.39    0.62
   4   1 -15    6.04    0.66
  -1  -4 -13    2.77    0.43
  -4  -1 -13    3.46    0.40
   4   1 -13    3.51    0.50
   4  -1  13    2.86    0.36
   1  -4  11    6.29    0.46
   4   1 -11    5.59    0.55
  -4  -1 -11    5.59    0.45
   4  -1  11    5.58    0.42
  -1  -4 -11    6.10    0.56
   1  -4   9   37.00    1.28
  -1  -4  -9   36.16    1.40
   4   1  -9   34.85    1.44
  -4  -1  -9   36.37    1.26
   4   1  -7    9.12    0.60
   1  -4   7    9.56    0.47
  -4  -1  -7   10.17    0.48
  -1  -4  -7    9.55    0.59
   4   1  -5   25.10    1.00
  -1  -4  -5   25.47    0.98
  -4   1   3   12.86    0.60
   4   1  -3   14.20    0.51
   1   4  -1    0.10    0.11
   1   4  -1    0.25    0.12
  -4   1   1    0.13    0.15
  -4   1   1    0.00    0.17
  -1   4   1   -0.22    0.19
   4  -1  -1    0.47    0.16
  -1  -4   1    0.28    0.12
  -4   1  -1    0.42    0.11
  -1   4  -1    0.33    0.20
  -4  -1   1    0.29    0.14
   1  -4  -3   13.51    0.62
   4  -1  -3   12.66    0.61
  -4  -1   3   14.58    0.63
  -4   1  -5   24.30    0.72
   4  -1  -5   23.11    0.97
   1  -4  -5   24.68    0.99
  -1  -4   7    8.62    0.51
   1  -4  -7    8.79    0.59
   4  -1  -7    8.34    0.59
  -4   1  -7    9.54    0.41
  -4   1  -9   38.85    1.27
   1  -4  -9   36.60    1.49
   4  -1  -9   37.56    1.51
  -1  -4   9   37.40    1.36
   4  -1 -11    6.03    0.60
  -4   1 -11    7.24    0.47
   1  -4 -11    6.80    0.60
   4  -1 -13    2.62    0.46
  -4   1 -13    2.74    0.35
   1  -4 -13    2.52    0.46
   1  -4 -15    5.54    0.64
   4  -1 -15    5.31    0.64
  -4   1 -15    6.85    0.56
   1  -4 -17    0.83    0.37
  -4   1 -17    0.24    0.28
   4  -1 -17    1.42    0.43
   4  -1 -19    6.42    0.77
   1  -4 -19    4.75    0.65
   4  -1 -21    1.14    0.50
  -4   1 -21    1.45    0.44
   1  -4 -21    1.54    0.47
   1  -4 -23    1.80    0.56
   4  -1 -23    1.03    0.51
   1  -4 -25   -0.05    0.45
   4  -1 -25    0.53    0.45
  -2  -4 -26    0.32    0.46
  -2  -4 -24   -0.47    0.49
  -2  -4 -22    0.51    0.37
  -4  -2 -22    0.14    0.36
  -4  -2 -20    4.60    0.63
  -2  -4 -20    5.31    0.68
   4   2 -20    4.95    0.69
  -2  -4 -18    3.09    0.53
   4   2 -18    2.48    0.52
   4   2 -16    2.70    0.50
  -4  -2 -16    2.89    0.45
  -2  -4 -16    2.59    0.47
  -2  -4 -14   13.19    0.87
   4   2 -14   10.89    0.86
  -4  -2 -14   13.07    0.80
  -4  -2 -12   48.05    1.71
   4   2 -12   46.39    1.85
   2  -4  12   48.48    1.66
  -2  -4 -12   48.26    1.81
   4  -2  12   44.57    1.56
  -2  -4 -10   31.50    1.31
   4  -2  10   33.61    1.12
  -4  -2 -10   32.26    1.24
   2  -4  10   33.45    1.18
   4   2 -10   31.18    1.35
   2  -4   8   11.63    0.53
  -4  -2  -8   11.10    0.58
   4  -2   8   12.38    0.49
  -2  -4  -8   10.80    0.65
   2  -4   6   42.72    1.27
  -2  -4  -6   44.54    1.49
  -4   2   4   60.92    1.83
  -2   4   2   15.69    0.52
   2   4  -2   15.01    0.56
  -4   2   2   15.07    0.62
   4   2  -2   16.10    0.50
  -4   2   2   15.07    0.67
  -4   2   2   16.86    0.68
  -4   2   0    8.39    0.39
  -2   4   0    8.06    0.45
   4  -2   0    8.64    0.38
  -4   2   0    8.00    0.45
   2  -4   0    7.59    0.40
   4  -2  -2   15.53    0.66
   2  -4  -2   15.07    0.66
  -4  -2   2   16.64    0.51
  -4  -2   2   15.08    0.65
  -4  -2   4   59.12    1.73
   4  -2  -4   53.62    1.78
   2  -4  -4   55.26    1.60
   2  -4  -4   54.65    1.78
   4  -2  -6   38.06    1.42
   2  -4  -6   41.26    1.43
  -4   2  -6   36.83    1.06
   2  -4  -8   11.95    0.74
   4  -2  -8   10.96    0.72
  -4   2  -8   11.02    0.47
   4  -2 -10   32.02    1.44
  -4   2 -10   33.47    1.15
   2  -4 -10   35.01    1.46
   4  -2 -12   48.09    1.95
   2  -4 -12   46.66    1.91
  -4   2 -12   47.69    1.61
   2  -4 -14   11.41    0.90
   4  -2 -14   11.50    0.87
  -4   2 -14   11.54    0.70
   4  -2 -16    2.78    0.55
   2  -4 -16    2.78    0.53
  -4   2 -16    2.53    0.38
  -4   2 -18    3.66    0.48
   2  -4 -18    4.03    0.61
   4  -2 -18    3.68    0.60
   2  -4 -20    3.79    0.65
   4  -2 -20    4.20    0.67
  -4   2 -20    5.61    0.63
   2  -4 -22    0.69    0.45
   4  -2 -22    0.41    0.43
   2  -4 -24    0.34    0.48
   4  -2 -24   -0.42    0.46
   2  -4 -26   -0.51    0.49
   4  -2 -26    0.17    0.48
  -3  -4 -25    0.18    0.45
  -4  -3 -23    3.05    0.60
  -3  -4 -23    1.65    0.46
  -4  -3 -21    2.18    0.51
  -3  -4 -21    2.50    0.54
  -3  -4 -19    0.68    0.38
  -4  -3 -19    0.78    0.37
  -4  -3 -17   12.87    0.93
  -3  -4 -17   12.57    0.93
  -3  -4 -15   32.17    1.50
  -4  -3 -15   31.85    1.45
  -4  -3 -13   16.29    0.90
   3  -4  13   17.55    0.82
   4  -3  13   15.87    0.77
  -3  -4 -13   16.67    0.94
   4  -3  11    9.14    0.49
   3  -4  11    9.78    0.53
  -4  -3 -11    9.20    0.60
  -3  -4 -11    9.16    0.63
  -4  -3  -9   36.01    1.33
  -3  -4  -9   36.64    1.38
   3  -4   9   37.78    1.20
   4  -3   9   35.42    1.14
   3  -4   7   33.94    0.98
  -3  -4  -7   34.09    1.23
   4  -3   7   28.93    0.90
  -4  -3  -7   34.30    1.18
   3   4  -5    8.86    0.50
   3   4  -3   45.46    1.39
  -4   3   3   44.59    1.40
  -3   4   3   44.93    1.34
   3  -4   1   24.95    0.77
  -3   4   1   22.88    0.87
  -4   3   1   24.03    0.89
  -3   4   1   19.93    0.80
   4  -3   1   23.89    0.74
  -4   3   1   21.66    0.81
  -3   4  -1   22.85    0.88
  -3  -4   1   22.71    0.78
   3  -4  -1   22.68    0.84
  -4   3  -1   23.45    0.89
  -4   3  -1   23.84    0.74
   4  -3  -1   22.74    0.84
   3  -4  -3   41.41    1.42
  -4  -3   3   42.51    1.35
   4  -3  -3   41.80    1.43
   4  -3  -5    8.81    0.48
   3  -4  -5    8.91    0.45
   3  -4  -5    9.10    0.59
   4  -3  -5    8.00    0.57
   3  -4  -7   34.86    1.39
   4  -3  -7   32.34    1.36
  -4   3  -9   35.96    1.13
   3  -4  -9   38.17    1.56
   4  -3  -9   38.06    1.55
   4  -3 -11    8.66    0.71
  -4   3 -11    9.29    0.48
   3  -4 -11    8.77    0.71
   3  -4 -13   16.87    1.05
  -4   3 -13   16.12    0.77
   4  -3 -13   17.81    1.08
  -4   3 -15   31.54    1.29
   4  -3 -15   32.42    1.63
   3  -4 -15   32.58    1.61
   4  -3 -17   13.44    1.05
   3  -4 -17   12.02    1.00
  -4   3 -17   13.15    0.82
  -4   3 -19    0.36    0.27
   4  -3 -19    0.77    0.44
   3  -4 -19    0.35    0.41
   3  -4 -21    2.73    0.62
   4  -3 -21    2.36    0.57
   3  -4 -23    2.26    0.56
   4  -3 -23    1.98    0.52
   3  -4 -25    0.24    0.46
   4  -3 -25    0.36    0.46
  -4  -4 -24    0.15    0.48
  -4  -4 -22    3.41    0.60
  -4  -4 -20    5.50    0.72
  -4  -4 -18   14.22    1.02
  -4  -4 -16    2.50    0.47
  -4  -4 -14    9.91    0.72
   4  -4  14    9.29    0.58
   4  -4  12   37.72    1.32
  -4  -4 -12   40.58    1.56
   4  -4  10   20.15    0.75
  -4  -4 -10   19.94    0.95
  -4  -4  -8   50.99    1.62
   4  -4   8   42.40    1.27
  -4   4   4   58.28    1.75
   4   4  -4   58.27    1.81
   4  -4   2   56.17    1.52
  -4   4   2   52.52    1.68
  -4   4   2   50.26    1.58
  -4   4   2   56.05    1.73
   4  -4   0    3.89    0.29
  -4   4   0    4.26    0.36
  -4   4   0    3.74    0.26
  -4   4  -2   53.14    1.70
  -4  -4   2   55.16    1.64
   4  -4  -2   53.28    1.72
   4  -4  -4   56.41    1.88
   4  -4  -6   47.19    1.76
   4  -4  -6   49.03    1.57
   4  -4  -8   50.96    1.91
   4  -4 -10   21.18    1.13
   4  -4 -12   38.68    1.72
   4  -4 -14    9.49    0.83
   4  -4 -16    1.59    0.44
   4  -4 -18   16.38    1.24
   4  -4 -20    5.10    0.71
   4  -4 -22    3.25    0.64
   4  -4 -24    0.34    0.45
   0  -5   1    0.28    0.15
  -5   0   1    0.36    0.17
  -5   0   1    0.36    0.17
   0   5  -1    0.04    0.16
   0  -5  -1    0.40    0.18
  -5   0   3   81.05    2.42
   5   0  -3   79.66    2.41
  -5   0   3   82.71    2.33
   5   0  -3   86.22    2.34
   0  -5  -5   13.86    0.72
   5   0  -5   13.46    0.72
  -5   0   5   13.90    0.68
   5   0  -5   15.14    0.62
  -5   0  -7    0.73    0.15
   5   0  -7    0.81    0.28
   0  -5  -7    0.96    0.27
  -5   0  -9   19.90    0.78
   0  -5   9   20.08    0.86
   5   0  -9   19.23    1.00
   0  -5  -9   18.54    0.97
   5   0 -11    0.08    0.28
   0  -5 -11   -0.63    0.30
  -5   0 -11   -0.05    0.17
   0  -5 -13    0.13    0.32
   5   0 -13    0.79    0.37
  -5   0 -13    0.17    0.20
  -5   0 -15   27.49    1.24
   0  -5 -15   27.80    1.44
   5   0 -15   25.90    1.42
  -5   0 -17    0.33    0.28
   5   0 -17    1.08    0.41
   0  -5 -17    0.48    0.35
  -5   0 -19    1.44    0.37
   0  -5 -19    1.34    0.43
   5   0 -19    1.81    0.55
   0  -5 -21    7.52    0.87
   5   0 -21    8.50    0.92
   5   0 -23    1.86    0.58
   0  -5 -23    0.85    0.47
   0  -5 -25    0.28    0.49
   5   0 -25   -0.43    0.45
  -1  -5 -26    1.65    0.57
  -1  -5 -24    0.24    0.43
   5   1 -24    0.44    0.44
  -1  -5 -22    1.08    0.44
   5   1 -22    1.01    0.46
  -1  -5 -20    0.91    0.45
   5   1 -20    0.69    0.46
  -5  -1 -20    0.73    0.35
   5   1 -18    0.60    0.40
  -5  -1 -18    0.25    0.31
  -1  -5 -18    0.49    0.39
  -5  -1 -16    4.50    0.53
   5   1 -16    3.99    0.61
  -1  -5 -16    4.61    0.63
   5   1 -14    3.34    0.52
  -1  -5 -14    3.27    0.50
  -5  -1 -14    3.48    0.41
  -5  -1 -12    1.61    0.27
   5   1 -12    2.32    0.42
  -1  -5 -12    1.19    0.33
  -1  -5 -10    6.36    0.55
   5   1 -10    4.81    0.54
   1  -5  10    5.45    0.41
  -5  -1 -10    5.03    0.38
  -5  -1  -8    2.18    0.23
   5   1  -8    1.94    0.34
   1  -5   8    1.68    0.22
  -1  -5  -8    2.55    0.35
  -1  -5  -6   14.32    0.73
   5   1  -6   14.63    0.75
  -5   1   4    7.18    0.46
   5   1  -4    6.96    0.37
   1   5  -2   38.51    1.16
   5   1  -2   42.45    1.21
  -5   1   2   40.91    1.32
   1   5  -2   38.34    1.16
  -5   1   2   42.37    1.30
   1  -5   0   26.82    0.95
  -1   5   0   26.61    0.96
  -1  -5   0   26.84    0.88
  -5   1   0   30.20    0.94
  -5   1   0   30.88    0.99
   5  -1  -2   44.26    1.25
  -5  -1   2   43.53    1.15
   5  -1  -2   42.89    1.27
  -1   5  -2   38.70    1.21
   5  -1  -4    7.32    0.43
   5  -1  -4    6.26    0.46
  -5  -1   4    6.46    0.46
   1  -5  -4    6.45    0.46
   1  -5  -6   14.07    0.76
  -5   1  -6   14.66    0.50
   5  -1  -6   13.09    0.74
  -5   1  -8    2.58    0.21
   5  -1  -8    2.10    0.36
   1  -5  -8    2.23    0.36
  -1  -5   8    2.15    0.29
   1  -5 -10    5.20    0.53
  -5   1 -10    5.72    0.38
   5  -1 -10    4.74    0.51
   5  -1 -12    1.40    0.37
  -5   1 -12    1.70    0.26
   1  -5 -12    1.49    0.36
  -5   1 -14    2.99    0.38
   5  -1 -14    3.11    0.51
   1  -5 -14    3.34    0.53
   5  -1 -16    3.93    0.60
  -5   1 -16    5.13    0.53
   1  -5 -16    3.32    0.56
   1  -5 -18    0.15    0.37
  -5   1 -18    0.90    0.32
   5  -1 -20    1.16    0.48
   1  -5 -20    0.84    0.45
   5  -1 -22    0.96    0.50
   1  -5 -22    0.51    0.39
   1  -5 -24    0.44    0.46
   5  -1 -24    0.01    0.41
   1  -5 -26    1.87    0.62
   5  -1 -26    1.95    0.66
  -2  -5 -25   -0.15    0.47
  -2  -5 -23    0.05    0.40
  -2  -5 -21    0.48    0.36
  -5  -2 -21    0.46    0.34
  -5  -2 -19    1.16    0.38
   5   2 -19    0.28    0.33
  -2  -5 -19    0.52    0.35
  -2  -5 -17    5.83    0.66
   5   2 -17    5.46    0.72
  -5  -2 -17    6.27    0.65
  -2  -5 -15    0.41    0.31
  -5  -2 -15    0.87    0.33
   5   2 -15    0.89    0.37
   5   2 -13    5.48    0.60
  -5  -2 -13    6.34    0.51
  -2  -5 -13    5.73    0.58
   5   2 -11    5.70    0.57
  -2  -5 -11    5.66    0.55
   2  -5  11    5.09    0.40
  -5  -2 -11    4.80    0.42
  -5  -2  -9    2.16    0.27
   2  -5   9    2.52    0.26
  -2  -5  -9    2.18    0.34
   2  -5   7    2.59    0.23
  -2  -5  -7    2.76    0.35
  -5   2   5   10.33    0.57
  -5   2   3   10.91    0.56
   2   5  -3   11.00    0.40
   5   2  -3   12.04    0.44
  -5   2   3   11.23    0.60
   2   5  -3   11.04    0.49
  -5   2   3   12.02    0.57
  -2   5   1    6.87    0.43
  -5   2   1    7.02    0.41
  -2   5   1    6.51    0.27
  -5   2   1    7.71    0.45
  -5   2  -1    7.51    0.34
  -2   5  -1    6.57    0.42
  -2  -5   1    6.40    0.28
   5  -2  -1    7.36    0.40
   2  -5  -1    6.85    0.42
  -5  -2   1    7.31    0.32
  -2  -5   1    7.03    0.31
  -5  -2   3   13.02    0.63
   5  -2  -3   12.70    0.63
  -5   2  -3   12.24    0.40
   2  -5  -3   12.19    0.46
   2  -5  -3   12.59    0.63
   5  -2  -5   10.53    0.57
   5  -2  -5    9.83    0.62
   2  -5  -5   10.31    0.62
  -5  -2   5   10.66    0.59
   5  -2  -7    2.70    0.37
   2  -5  -7    3.02    0.40
  -5   2  -7    3.14    0.18
   2  -5  -9    1.87    0.33
   5  -2  -9    1.88    0.38
  -5   2  -9    2.39    0.20
   2  -5 -11    4.03    0.51
   5  -2 -11    4.74    0.55
  -5   2 -11    4.28    0.33
   2  -5 -13    6.00    0.67
  -5   2 -13    5.99    0.45
   5  -2 -13    6.17    0.66
  -5   2 -15    0.75    0.24
   2  -5 -15    0.79    0.36
  -5   2 -17    5.96    0.56
   2  -5 -17    5.67    0.74
   5  -2 -17    5.43    0.69
   5  -2 -19    1.11    0.41
   2  -5 -19    0.08    0.39
  -5   2 -19    1.29    0.39
   2  -5 -21    1.01    0.43
   5  -2 -21    1.31    0.48
   2  -5 -23    0.11    0.43
   5  -2 -23    0.10    0.40
   2  -5 -25    0.53    0.52
   5  -2 -25    0.28    0.52
  -3  -5 -24   -0.39    0.49
  -5  -3 -22    2.51    0.54
  -3  -5 -22    2.21    0.55
  -5  -3 -20    2.27    0.49
  -3  -5 -20    1.88    0.50
  -3  -5 -18    2.96    0.53
  -5  -3 -18    4.67    0.56
  -5  -3 -16    0.14    0.30
  -3  -5 -16    0.83    0.36
  -3  -5 -14    5.39    0.56
   3  -5  14    5.32    0.46
   5  -3  14    5.22    0.42
  -5  -3 -14    6.07    0.54
  -3  -5 -12   21.18    1.10
  -5  -3 -12   22.19    1.04
   3  -5  12   22.28    0.94
   5  -3  12   22.62    0.87
  -3  -5 -10    9.88    0.65
   3  -5  10   10.27    0.52
  -5  -3 -10    9.88    0.61
   3  -5   8    6.56    0.35
  -5  -3  -8    6.40    0.45
  -3  -5  -8    6.29    0.50
   3   5  -6   21.69    0.91
  -5   3   4    8.74    0.49
  -5   3   4    7.30    0.53
   5   3  -4    8.62    0.34
   3   5  -4    8.38    0.46
  -5   3   2   21.41    0.89
  -3   5   2   22.07    0.75
  -5   3   2   23.92    0.93
  -3   5   2   22.93    0.91
  -3   5   2   20.94    0.87
   5  -3   2   24.53    0.71
  -3   5   0    1.26    0.26
   3  -5   0    1.17    0.20
  -5   3   0    0.83    0.23
   5  -3   0    1.00    0.18
  -5   3   0    1.01    0.18
  -3  -5   2   22.83    0.81
   5  -3  -2   22.27    0.90
   3  -5  -2   22.75    0.91
  -5   3  -2   25.11    0.73
  -5  -3   2   23.28    0.69
  -3   5  -2   21.17    0.89
  -5  -3   2   22.86    0.90
   3  -5  -4    8.34    0.41
   3  -5  -4    7.90    0.53
  -5  -3   4    8.05    0.50
   5  -3  -4    7.33    0.52
   3  -5  -6   21.19    0.80
   5  -3  -6   19.20    0.97
   3  -5  -6   19.43    0.98
   5  -3  -8    5.87    0.56
   3  -5  -8    6.02    0.56
  -5   3 -10    9.06    0.42
   3  -5 -10   10.04    0.77
   5  -3 -10   10.19    0.76
   5  -3 -12   22.96    1.26
  -5   3 -12   21.86    0.85
   3  -5 -12   23.26    1.27
   5  -3 -14    5.84    0.69
  -5   3 -14    5.81    0.45
   3  -5 -14    5.45    0.66
   5  -3 -16    0.44    0.40
  -5   3 -16    0.30    0.22
   3  -5 -16    0.93    0.40
  -5   3 -18    4.35    0.48
   3  -5 -18    3.26    0.59
   5  -3 -18    4.31    0.65
   5  -3 -20    2.18    0.55
   3  -5 -20    1.04    0.47
   5  -3 -22    1.83    0.55
   3  -5 -22    2.75    0.64
   3  -5 -24   -0.61    0.52
   5  -3 -24   -1.06    0.59
  -5  -4 -23    6.04    0.78
  -4  -5 -23    5.76    0.78
  -5  -4 -21    1.91    0.53
  -4  -5 -21    1.43    0.45
  -4  -5 -19    6.14    0.72
  -5  -4 -19    7.54    0.77
  -4  -5 -17   15.40    1.05
  -5  -4 -17   15.97    1.04
  -5  -4 -15    4.38    0.51
  -4  -5 -15    4.63    0.54
   4  -5  13   21.18    0.88
   5  -4  13   19.70    0.83
  -4  -5 -13   21.76    1.12
  -5  -4 -13   22.78    1.09
   4  -5  11   23.45    0.86
  -5  -4 -11   24.37    1.07
  -4  -5 -11   22.87    1.10
   5  -4  11   20.87    0.78
  -4  -5  -9    0.27    0.20
   4  -5   9    0.28    0.12
  -5  -4  -9   -0.07    0.20
   4  -5   7  118.60    3.12
  -5   4   5   51.45    1.67
   4   5  -5   52.63    1.70
   5  -4   3   51.42    1.41
  -5   4   3   46.06    1.67
  -5   4   3   50.74    1.61
  -5   4   3   52.65    1.72
   4  -5   3   56.21    1.49
  -4   5   3   50.82    1.69
  -4   5   3   51.53    1.56
   5  -4   1   64.57    1.86
   4  -5   1   67.44    1.90
  -4   5   1   63.73    1.94
  -5   4   1   63.05    1.94
  -5   4   1   68.06    2.07
  -4   5   1   63.80    2.02
   5  -4  -1   60.45    1.88
   4  -5  -1   58.56    1.87
  -5   4  -1   61.66    1.74
  -5   4  -1   63.15    1.95
  -4   5  -1   62.35    1.94
  -4  -5   1   60.51    1.80
   4  -5  -3   53.02    1.76
   5  -4  -3   49.96    1.73
  -4  -5   3   51.27    1.61
  -5  -4   3   53.03    1.68
   4  -5  -5   50.55    1.60
   5  -4  -5   50.37    1.81
   4  -5  -5   53.10    1.84
   4  -5  -7  121.06    3.51
   4  -5  -7  129.47    3.82
   5  -4  -7  123.68    3.76
   4  -5  -9    0.07    0.28
   5  -4  -9    0.54    0.28
   5  -4 -11   24.96    1.30
   4  -5 -11   24.68    1.31
   4  -5 -13   21.67    1.26
   5  -4 -13   21.47    1.25
   4  -5 -15    4.36    0.62
   5  -4 -15    4.27    0.60
   5  -4 -17   15.04    1.15
   4  -5 -17   17.06    1.21
   5  -4 -19    8.10    0.90
   4  -5 -19    6.41    0.79
   5  -4 -21    2.56    0.64
   4  -5 -21    1.25    0.49
   5  -4 -23    5.65    0.82
   4  -5 -23    5.98    0.87
   4  -5 -25    1.23    0.55
   5  -4 -25    1.70    0.64
  -5  -5 -22   12.91    1.09
  -5  -5 -20    5.04    0.67
  -5  -5 -18    3.37    0.54
  -5  -5 -16   10.13    0.80
  -5  -5 -14   20.32    1.10
  -5  -5 -12    6.19    0.55
   5  -5  12    5.53    0.34
  -5  -5 -10   45.13    1.51
   5  -5  10   31.67    1.02
   5  -5   4   68.64    1.91
  -5   5   4   80.05    2.16
   5  -5   2   63.62    1.84
  -5   5   2   61.60    1.97
  -5   5   2   68.07    2.10
  -5   5   0   13.99    0.73
  -5   5   0   14.07    0.59
   5  -5   0   14.54    0.65
   5  -5  -2   62.12    2.04
  -5   5  -2   64.50    2.06
  -5  -5   2   66.30    1.97
  -5  -5   4   76.78    2.29
   5  -5  -4   72.69    2.41
   5  -5  -6    3.52    0.46
   5  -5  -8   74.69    2.61
   5  -5 -10   44.15    1.85
   5  -5 -12    6.57    0.69
   5  -5 -14   21.34    1.29
   5  -5 -16   10.52    0.95
   5  -5 -18    3.35    0.61
   5  -5 -20    5.59    0.78
   5  -5 -22   10.40    1.06
   5  -5 -24    1.48    0.56
  -6   0   0   69.64    1.96
   0  -6   0   66.00    1.93
   0   6   0   63.58    1.92
  -6   0   2   48.60    1.45
  -6   0   2   46.33    1.50
   0   6  -2   42.65    1.39
   6   0  -2   48.05    1.44
   0  -6  -2   44.08    1.46
   6   0  -4    9.38    0.49
   0  -6  -4    9.08    0.58
  -6   0   4    9.38    0.57
   6   0  -6   71.24    2.11
   0  -6  -6   68.44    2.26
   6   0  -6   69.35    2.28
  -6   0   6   69.60    2.21
   0  -6  -8    9.28    0.66
  -6   0  -8    9.60    0.46
   0  -6   8    9.45    0.54
   6   0  -8    8.73    0.67
   6   0 -10    4.31    0.52
   0  -6 -10    4.85    0.53
  -6   0 -10    4.99    0.37
   6   0 -12    9.69    0.79
  -6   0 -12   11.83    0.65
   0  -6 -12   10.75    0.80
  -6   0 -14    5.78    0.50
   0  -6 -14    4.95    0.58
   6   0 -14    4.53    0.62
   0  -6 -16   13.36    0.99
   6   0 -16   11.90    0.97
  -6   0 -16   13.84    0.84
  -6   0 -18   19.57    1.09
   0  -6 -18   15.46    1.15
   6   0 -18   16.64    1.21
   0  -6 -20    0.25    0.44
   6   0 -20    0.58    0.44
   0  -6 -22    1.34    0.43
   6   0 -22    1.06    0.52
   0  -6 -24    9.49    1.04
   6   0 -24    9.98    1.08
   0  -6 -26    3.81    0.77
  -1  -6 -25    2.73    0.68
  -1  -6 -23    2.66    0.63
   6   1 -21    1.79    0.57
  -1  -6 -21    1.07    0.44
  -1  -6 -19    7.55    0.83
  -6  -1 -19    9.11    0.77
   6   1 -19    8.13    0.88
   6   1 -17    5.09    0.70
  -1  -6 -17    4.19    0.62
  -6  -1 -17    4.80    0.53
  -6  -1 -15    5.62    0.54
   6   1 -15    5.18    0.65
  -1  -6 -15    5.03    0.61
  -6  -1 -13    6.49    0.51
  -1  -6 -13    6.14    0.61
   6   1 -13    5.89    0.63
  -6  -1 -11   12.55    0.65
   6   1 -11   11.76    0.83
   1  -6  11   12.04    0.68
  -1  -6 -11   12.10    0.82
   6   1  -9   13.20    0.83
  -6  -1  -9   13.99    0.64
  -1  -6  -9   13.67    0.81
   1  -6   9   13.82    0.67
  -1  -6  -7   32.03    1.29
  -6   1   5   84.42    2.60
   6   1  -5   87.80    2.47
  -6   1   3   97.02    2.91
   1   6  -3   93.64    2.71
   6   1  -3  105.29    2.77
  -6   1   3  101.94    2.85
  -6   1   3  103.20    2.91
  -6   1   1   65.68    1.88
  -6   1   1   67.20    1.91
   1   6  -1   59.84    1.77
   1  -6   1   56.69    1.84
  -1  -6  -1   63.99    1.83
  -6   1  -1   64.39    1.75
  -6  -1   1   63.02    1.76
  -1  -6   1   54.33    1.70
   1  -6  -1   60.22    1.84
  -1   6  -1   58.86    1.82
   6  -1  -3  103.77    2.83
   1  -6  -3   99.64    2.79
   1  -6  -3   85.94    2.49
   1  -6  -3   97.03    2.83
  -1   6  -3   90.57    2.70
  -6  -1   3  103.23    2.66
  -6  -1   3  102.85    2.83
   6  -1  -3  104.53    2.76
   6  -1  -5   84.21    2.64
   6  -1  -5   89.12    2.54
   1  -6  -5   81.16    2.63
  -6  -1   5   85.77    2.60
   1  -6  -7   30.99    1.32
  -6   1  -7   32.79    0.98
   6  -1  -7   29.36    1.31
  -6   1  -9   15.45    0.60
   1  -6  -9   13.21    0.84
   6  -1  -9   12.05    0.84
   6  -1 -11   11.30    0.84
   1  -6 -11   12.91    0.87
  -6   1 -11   14.24    0.65
  -6   1 -13    6.40    0.47
   1  -6 -13    5.28    0.64
   6  -1 -13    5.35    0.65
   1  -6 -15    5.01    0.64
   6  -1 -15    6.46    0.73
  -6   1 -15    5.41    0.50
   1  -6 -17    4.60    0.69
   6  -1 -17    3.77    0.62
   6  -1 -19    7.32    0.83
   1  -6 -19    7.12    0.82
   1  -6 -21    1.31    0.45
   6  -1 -21    1.84    0.54
   6  -1 -23    4.28    0.77
   1  -6 -23    2.95    0.69
   6  -1 -25    2.83    0.68
   1  -6 -25    1.74    0.62
  -2  -6 -26    1.75    0.57
  -2  -6 -24    2.75    0.58
  -2  -6 -22    2.82    0.60
  -6  -2 -20    0.48    0.34
  -2  -6 -20    0.29    0.34
  -2  -6 -18    2.75    0.53
  -6  -2 -18    3.45    0.51
  -2  -6 -16    4.66    0.61
  -6  -2 -16    6.01    0.58
  -2  -6 -14    1.39    0.37
  -6  -2 -14    1.35    0.29
   2  -6  12    0.13    0.19
  -2  -6 -12    0.78    0.30
  -6  -2 -12    0.21    0.21
  -2  -6 -10    6.85    0.60
   2  -6  10    6.62    0.45
  -6  -2 -10    7.24    0.47
   2  -6   8   27.78    0.98
  -2  -6  -8   26.28    1.17
  -6   2   6   11.97    0.67
   6   2  -6   12.16    0.54
   2   6  -4   37.61    1.23
  -6   2   4   39.34    1.35
   6   2  -4   39.74    1.18
  -6   2   4   34.61    1.38
   2   6  -2   68.85    2.00
  -6   2   2   74.80    2.21
  -6   2   2   78.16    2.21
   2   6  -2   72.43    1.97
  -6   2   0   44.25    1.33
  -2  -6   0   39.33    1.22
   2  -6   0   40.48    1.37
   6  -2   0   44.32    1.31
  -2  -6   0   39.55    1.17
  -2   6   0   40.31    1.38
  -6   2   0   45.12    1.42
  -6  -2   2   79.40    2.17
   2  -6  -2   75.95    2.37
   6  -2  -2   80.76    2.35
   6  -2  -2   81.46    2.37
  -2   6  -2   71.88    2.31
  -6   2  -2   80.43    2.17
   2  -6  -4   35.57    1.09
  -6  -2   4   39.11    1.34
   2  -6  -4   36.56    1.35
  -6   2  -4   34.55    1.00
   6  -2  -4   35.93    1.32
   6  -2  -4   40.60    1.32
   6  -2  -6   11.21    0.71
   2  -6  -6   12.11    0.72
   2  -6  -8   25.56    1.22
  -6   2  -8   27.72    0.84
   6  -2  -8   25.82    1.24
   2  -6 -10    7.06    0.64
  -6   2 -10    6.85    0.37
   6  -2 -10    6.57    0.63
   2  -6 -12   -0.22    0.34
  -6   2 -12    0.30    0.16
   6  -2 -12   -0.39    0.34
   6  -2 -14    2.06    0.47
   2  -6 -14    1.29    0.43
  -6   2 -14    2.03    0.30
   2  -6 -16    5.24    0.68
  -6   2 -16    5.91    0.52
   6  -2 -16    5.64    0.70
   2  -6 -18    3.86    0.63
   6  -2 -18    3.23    0.60
   2  -6 -20   -0.03    0.40
   6  -2 -20    0.46    0.43
   2  -6 -22    3.18    0.66
   6  -2 -22    2.46    0.64
   2  -6 -24    3.13    0.71
   6  -2 -24    2.82    0.75
  -3  -6 -25    0.05    0.43
  -3  -6 -23    0.14    0.40
  -6  -3 -21    2.70    0.57
  -3  -6 -21    1.96    0.52
  -6  -3 -19    3.24    0.52
  -3  -6 -19    3.38    0.59
  -3  -6 -17    3.37    0.57
  -6  -3 -17    2.71    0.47
  -6  -3 -15    2.41    0.36
  -3  -6 -15    2.64    0.44
   3  -6  13    0.16    0.19
  -6  -3 -13   -0.05    0.23
  -3  -6 -13    0.14    0.25
  -6  -3 -11    5.08    0.44
   3  -6  11    4.88    0.37
  -3  -6 -11    5.17    0.52
  -3  -6  -9    0.68    0.25
  -6  -3  -9    0.74    0.22
   3  -6   9    0.69    0.17
   3   6  -5   11.32    0.58
  -6   3   5   12.47    0.65
   6   3  -5   11.74    0.47
   3   6  -3   35.47    1.13
  -6   3   3   39.19    1.30
  -6   3   3   33.29    1.28
  -6   3   3   38.82    1.26
   3   6  -3   32.67    0.96
   6  -3   1    3.17    0.24
  -3   6   1    2.64    0.33
  -6   3   1    3.28    0.35
  -6   3   1    2.68    0.28
   3  -6  -1    2.83    0.31
  -3   6  -1    2.99    0.35
  -3  -6   1    3.44    0.25
   6  -3  -1    2.84    0.28
  -6   3  -1    3.30    0.25
  -6  -3   1    2.89    0.20
  -3  -6   1    2.77    0.18
  -6   3  -1    3.57    0.36
   6  -3  -3   36.86    1.35
  -3   6  -3   35.94    1.30
  -6  -3   3   38.68    1.34
  -6   3  -3   37.83    1.07
   3  -6  -3   35.22    1.36
   3  -6  -5   10.36    0.49
   3  -6  -5   11.51    0.69
   6  -3  -5   10.31    0.66
  -6  -3   5   11.72    0.64
   3  -6  -7    8.95    0.50
   3  -6  -7    9.73    0.68
   6  -3  -7    9.13    0.68
   6  -3  -9    0.69    0.34
   3  -6  -9    0.61    0.30
  -6   3 -11    4.41    0.28
   3  -6 -11    4.82    0.58
   6  -3 -11    4.29    0.55
   3  -6 -13   -0.31    0.36
   6  -3 -13    0.19    0.33
  -6   3 -13    0.25    0.16
   3  -6 -15    3.21    0.58
   6  -3 -15    2.81    0.54
  -6   3 -15    3.25    0.35
   6  -3 -17    2.99    0.58
   3  -6 -17    2.18    0.54
   3  -6 -19    2.65    0.58
   6  -3 -19    2.87    0.57
   3  -6 -21    1.57    0.50
   6  -3 -21    1.94    0.57
   3  -6 -23   -0.20    0.43
   6  -3 -23    0.93    0.53
   6  -3 -25    0.55    0.47
   3  -6 -25    0.52    0.48
  -4  -6 -24    0.24    0.41
  -6  -4 -22   13.47    1.09
  -4  -6 -22   11.44    1.09
  -4  -6 -20    2.76    0.55
  -6  -4 -20    2.60    0.55
  -6  -4 -18    3.01    0.51
  -4  -6 -18    2.59    0.50
  -6  -4 -16    6.85    0.63
  -4  -6 -16    5.59    0.63
  -6  -4 -14   13.04    0.84
  -4  -6 -14   12.77    0.88
   4  -6  12    6.03    0.41
  -6  -4 -12    5.99    0.52
  -4  -6 -12    6.37    0.59
  -4  -6 -10   10.05    0.69
   4  -6  10    9.70    0.46
  -6  -4 -10    9.58    0.61
   4  -6   8   53.38    1.53
   6   4  -6    0.47    0.12
   4   6  -4   30.58    1.10
  -6   4   4   31.07    1.15
  -4   6   2   83.43    2.70
  -6   4   2   98.61    2.83
  -4   6   2   92.05    2.79
  -6   4   2   87.14    2.73
   4  -6   2   98.09    2.61
  -4   6   2   89.53    2.56
   6  -4   2   97.69    2.52
   6  -4   0   52.42    1.58
  -6   4   0   48.56    1.68
  -6   4   0   49.19    1.55
  -4   6   0   48.91    1.69
   4  -6   0   49.85    1.60
   6  -4  -2   89.57    2.64
   4  -6  -2   87.84    2.65
  -6  -4   2   91.45    2.62
  -4  -6   2   89.02    2.51
  -6   4  -2   92.14    2.40
  -6   4  -2   91.18    2.67
  -4   6  -2   88.12    2.66
  -6  -4   2   83.59    2.30
   6  -4  -4   29.03    1.22
  -6  -4   4   31.82    1.19
   4  -6  -4   30.98    1.26
   6  -4  -6    0.06    0.32
   4  -6  -6    0.45    0.19
   4  -6  -6    0.71    0.30
   4  -6  -8   55.17    2.06
   6  -4  -8   50.47    1.99
   4  -6 -10   11.39    0.83
   6  -4 -10   10.61    0.82
   4  -6 -12    6.53    0.68
   6  -4 -12    5.54    0.68
   4  -6 -14   12.57    1.01
   6  -4 -14   11.88    0.97
   4  -6 -16    6.78    0.78
   6  -4 -16    6.47    0.76
   4  -6 -18    1.79    0.52
   6  -4 -18    3.30    0.62
   4  -6 -20    2.00    0.52
   6  -4 -20    2.03    0.54
   6  -4 -22   11.30    1.09
   4  -6 -22   11.75    1.12
   4  -6 -24    0.24    0.50
   6  -4 -24    1.89    0.58
  -5  -6 -23    2.74    0.56
  -6  -5 -21    7.31    0.81
  -5  -6 -21    6.48    0.78
  -5  -6 -19    3.94    0.60
  -6  -5 -19    4.07    0.60
  -6  -5 -17   11.35    0.87
  -5  -6 -17   11.19    0.88
  -6  -5 -15    0.13    0.25
  -5  -6 -15    0.78    0.34
  -5  -6 -13   11.00    0.78
  -6  -5 -13   11.44    0.76
   5  -6  13    9.35    0.49
  -5  -6 -11   11.23    0.73
  -6  -5 -11   10.81    0.69
   5  -6  11    9.40    0.43
   5  -6   9    5.97    0.27
  -5  -6  -9    7.40    0.57
   5  -6   5   38.87    1.14
  -6   5   5   42.52    1.42
   5  -6   3   80.19    2.22
  -6   5   3   71.62    2.42
  -6   5   3   78.01    2.35
   6  -5   3   81.10    2.16
  -5   6   3   80.87    2.51
  -6   5   3   81.08    2.51
  -5   6   3   75.96    2.28
  -6   5   1   38.68    1.33
  -6   5   1   41.38    1.48
   6  -5   1   38.85    1.26
   5  -6   1   39.89    1.29
  -5   6   1   37.27    1.31
  -5   6   1   38.30    1.43
  -5   6  -1   37.04    1.40
  -5  -6   1   37.36    1.26
  -6   5  -1   38.98    1.41
  -6   5  -1   37.72    1.19
   6  -5  -1   36.52    1.32
   5  -6  -1   37.57    1.35
  -5   6  -3   76.43    2.43
  -6  -5   3   79.73    2.37
  -6   5  -3   75.82    2.42
   6  -5  -3   74.45    2.43
   5  -6  -3   76.30    2.47
  -5  -6   3   78.09    2.31
   5  -6  -5   43.09    1.65
   6  -5  -5   40.70    1.61
  -6  -5   5   41.63    1.49
   6  -5  -7   48.93    1.93
   5  -6  -7   52.31    1.98
   5  -6  -9    7.29    0.69
   6  -5  -9    7.71    0.69
   5  -6 -11   10.21    0.86
   6  -5 -11   10.94    0.88
   5  -6 -13   11.24    0.95
   6  -5 -13   12.01    0.98
   5  -6 -15    0.47    0.36
   6  -5 -15   -0.29    0.43
   6  -5 -17   10.74    0.98
   5  -6 -17   10.44    0.99
   5  -6 -19    3.86    0.67
   6  -5 -19    4.19    0.70
   5  -6 -21    5.45    0.80
   6  -5 -21    7.42    0.91
   5  -6 -23    3.20    0.72
   6  -5 -23    2.68    0.65
  -6  -6 -22   16.80    1.26
  -6  -6 -20    3.14    0.57
  -6  -6 -18    1.79    0.39
  -6  -6 -16   14.10    0.95
  -6  -6 -14    2.52    0.41
  -6  -6 -12    1.88    0.35
  -6  -6 -10    7.20    0.60
  -6   6   4   40.69    1.36
   6  -6   4   37.37    1.13
  -6   6   2   86.90    2.75
   6  -6   2   92.96    2.63
   6  -6   0   55.41    1.81
  -6   6   0   56.05    1.75
  -6   6   0   58.43    1.96
  -6   6  -2   93.19    2.91
   6  -6  -2   91.94    2.89
  -6  -6   2   97.45    2.80
   6  -6  -4   43.67    1.67
  -6  -6   4   43.03    1.52
   6  -6  -6    5.53    0.57
   6  -6  -8   95.32    3.22
   6  -6 -10   10.57    0.86
   6  -6 -12    1.24    0.40
   6  -6 -14    3.03    0.57
   6  -6 -16   14.98    1.19
   6  -6 -18    1.48    0.49
   6  -6 -20    3.02    0.67
   6  -6 -22   15.40    1.31
   0   7  -1    5.31    0.37
  -7   0   1    6.08    0.39
   0   7  -1    4.30    0.19
   0  -7  -1    5.20    0.36
   0  -7   1    5.69    0.36
  -7   0   1    5.65    0.38
  -7   0   3  134.78    3.91
  -7   0   3  141.18    3.82
  -7   0   3  139.07    3.94
   0  -7  -3  137.76    3.89
   0   7  -3  130.84    3.77
   7   0  -3  147.39    3.84
   0  -7  -5   33.20    1.39
   7   0  -5   37.65    1.27
  -7   0   5   36.49    1.38
   0  -7  -7    0.02    0.25
   7   0  -7    0.14    0.18
   7   0  -7    0.51    0.27
   7   0  -9   34.68    1.56
   0  -7  -9   36.96    1.55
  -7   0  -9   38.74    1.24
   7   0 -11    0.24    0.32
   0  -7 -11    0.27    0.30
  -7   0 -11    0.69    0.20
   0  -7 -13   -0.28    0.33
   7   0 -13    0.27    0.34
  -7   0 -13   -0.04    0.22
   7   0 -15   17.13    1.18
   0  -7 -15   18.16    1.21
  -7   0 -15   20.91    1.00
   0  -7 -17   -0.19    0.40
  -7   0 -17   -0.20    0.29
   7   0 -17   -0.58    0.43
   0  -7 -19    2.71    0.54
   7   0 -19    1.85    0.54
   0  -7 -21   12.61    1.10
   7   0 -21   11.26    1.08
   7   0 -23   -0.15    0.48
   0  -7 -23    0.85    0.48
   0  -7 -25    0.24    0.46
  -1  -7 -24    2.43    0.69
  -1  -7 -22    2.76    0.62
   7   1 -20    0.80    0.46
  -1  -7 -20    1.04    0.46
   7   1 -18    1.50    0.48
  -7  -1 -18    1.89    0.41
  -1  -7 -18    1.29    0.44
  -1  -7 -16   11.17    0.94
   7   1 -16   11.41    0.96
  -7  -1 -16   12.56    0.81
   7   1 -14    3.83    0.58
  -7  -1 -14    5.17    0.48
  -1  -7 -14    4.57    0.59
  -7  -1 -12    4.59    0.40
   7   1 -12    3.89    0.54
  -1  -7 -12    3.71    0.51
   1  -7  10    7.97    0.52
  -1  -7 -10    8.17    0.68
   7   1 -10    8.02    0.69
  -7  -1 -10    8.77    0.50
   7   1  -8   34.41    1.24
  -1  -7  -8   33.78    1.42
  -7   1   6   45.64    1.65
   7   1  -6   47.68    1.51
  -1  -7  -6   44.88    1.71
   1   7  -4   42.47    1.37
  -7   1   4   44.68    1.50
  -7   1   4   45.78    1.58
   7   1  -4   46.80    1.43
  -7   1   2   63.33    1.84
  -7   1   2   58.99    1.84
  -1  -7  -2   59.26    1.78
   1   7  -2   55.11    1.67
   1   7  -2   53.88    1.58
  -7   1   0  102.08    2.75
  -7  -1   0   98.08    2.71
  -7   1   0  101.20    2.82
  -1   7   0   93.83    2.76
  -1  -7   0   91.73    2.68
   1  -7   0   91.04    2.75
   7  -1  -2   61.56    1.85
  -7   1  -2   60.53    1.72
  -7  -1   2   57.30    1.85
   1  -7  -2   57.35    1.85
  -7  -1   2   60.53    1.77
  -1   7  -2   53.29    1.79
  -1   7  -4   41.21    1.40
   7  -1  -4   45.16    1.55
   1  -7  -4   44.05    1.57
   1  -7  -4   39.61    1.20
   7  -1  -4   46.52    1.46
  -7  -1   4   45.27    1.54
   7  -1  -6   45.92    1.71
   1  -7  -6   45.78    1.70
  -7  -1   6   47.07    1.66
   1  -7  -8   33.42    1.45
  -7   1  -8   35.32    1.08
   7  -1  -8   32.65    1.45
   7  -1 -10    8.73    0.73
  -7   1 -10   10.29    0.49
   1  -7 -10    8.70    0.71
  -7   1 -12    4.09    0.36
   1  -7 -12    3.33    0.51
   7  -1 -12    3.55    0.56
   7  -1 -14    4.31    0.63
  -7   1 -14    4.62    0.42
   1  -7 -14    4.38    0.59
   7  -1 -16   10.83    0.96
   1  -7 -16   11.45    0.98
  -7   1 -16   11.86    0.75
   1  -7 -18    2.05    0.52
   7  -1 -18    1.55    0.49
   7  -1 -20    1.18    0.47
   1  -7 -20    1.53    0.49
   1  -7 -22    2.82    0.62
   7  -1 -22    2.38    0.64
   1  -7 -24    1.48    0.51
   7  -1 -24    2.07    0.68
  -2  -7 -25    1.61    0.52
  -2  -7 -23    2.17    0.63
  -2  -7 -21    6.29    0.83
  -7  -2 -19    0.74    0.35
  -2  -7 -19    0.84    0.39
  -7  -2 -17   11.95    0.85
  -2  -7 -17   11.22    0.96
  -7  -2 -15    2.67    0.40
  -2  -7 -15    2.40    0.46
  -2  -7 -13    7.09    0.67
  -7  -2 -13    7.79    0.55
  -7  -2 -11    2.71    0.32
   2  -7  11    2.38    0.31
  -2  -7 -11    2.78    0.43
  -2  -7  -9    9.49    0.69
   2  -7   9    9.94    0.53
  -7  -2  -9   10.69    0.58
  -2  -7  -7   51.10    1.90
   7   2  -7   54.44    1.67
   7   2  -5   47.55    1.46
  -7   2   5   46.60    1.66
  -7   2   3  116.56    3.45
  -7   2   3  125.16    3.44
   2   7  -3  118.03    3.17
  -7   2   3  125.30    3.42
   2   7  -3  112.34    3.20
  -7   2   1   90.10    2.38
  -7   2   1   88.87    2.34
   2  -7   1   80.02    2.30
  -2   7   1   82.96    2.34
  -2  -7  -1   82.90    2.20
  -7   2  -1   95.71    2.54
  -7   2  -1   93.77    2.68
   2  -7  -1   84.61    2.63
  -2  -7   1   80.67    2.43
   7  -2  -1   95.93    2.61
  -7  -2   1   90.06    2.49
  -2   7  -1   90.33    2.66
  -2   7  -3  108.44    3.35
  -7  -2   3  121.04    3.22
  -7   2  -3  119.21    3.17
   7  -2  -3  120.88    3.43
   2  -7  -3  111.85    3.45
   7  -2  -3  124.39    3.42
  -7  -2   3  119.69    3.45
   7  -2  -5   44.31    1.60
  -7   2  -5   40.28    1.16
   2  -7  -5   41.43    1.26
   2  -7  -5   43.13    1.58
  -7  -2   5   44.35    1.55
   7  -2  -7   50.36    1.81
   2  -7  -7   52.20    1.83
  -7   2  -7   45.41    1.29
   2  -7  -9    9.92    0.74
  -7   2  -9    9.86    0.40
   7  -2  -9    8.18    0.69
  -7   2 -11    2.05    0.22
   2  -7 -11    1.68    0.39
   7  -2 -11    1.08    0.39
   7  -2 -13    7.70    0.76
   2  -7 -13    8.71    0.78
  -7   2 -13    9.83    0.53
  -7   2 -15    3.34    0.37
   2  -7 -15    2.55    0.53
   7  -2 -15    4.24    0.60
   2  -7 -17   10.46    0.97
   7  -2 -17   11.23    1.01
   2  -7 -19    0.56    0.45
   7  -2 -19    1.51    0.56
   2  -7 -21    5.17    0.77
   7  -2 -21    7.31    0.90
   7  -2 -23    1.44    0.58
   2  -7 -23    0.90    0.50
   2  -7 -25    3.34    0.77
  -3  -7 -26    0.69    0.48
  -3  -7 -24    1.51    0.55
  -3  -7 -22    3.81    0.69
  -3  -7 -20    0.28    0.38
  -7  -3 -20    0.70    0.38
  -3  -7 -18    0.61    0.36
  -7  -3 -18    1.27    0.38
  -7  -3 -16    0.70    0.26
  -3  -7 -16    1.29    0.39
  -7  -3 -14    0.15    0.24
  -3  -7 -14    0.29    0.29
   3  -7  12    3.82    0.36
  -3  -7 -12    3.70    0.50
  -7  -3 -12    4.98    0.46
   3  -7  10    1.26    0.21
  -7  -3 -10    0.98    0.24
  -3  -7 -10    0.83    0.27
   7   3  -8   13.55    0.61
  -3  -7  -8   13.06    0.80
   3   7  -6    2.36    0.31
   7   3  -6    2.45    0.24
  -7   3   6    1.90    0.35
   3   7  -4   21.86    0.85
  -7   3   4   25.51    1.03
  -7   3   4   22.70    0.97
   3   7  -4   22.46    0.72
   7   3  -4   23.28    0.77
  -3   7   2   22.53    0.73
  -3   7   2   23.15    0.98
  -7   3   2   22.29    0.97
  -7   3   2   23.99    0.98
   7  -3   0   29.80    0.98
  -7   3   0   26.68    1.00
  -3   7   0   26.01    1.07
  -7   3   0   28.57    1.11
  -3  -7   0   26.18    0.87
  -3  -7   0   26.86    0.87
   3  -7   0   25.85    1.04
  -3   7  -2   22.27    0.97
  -7   3  -2   23.70    0.82
   7  -3  -2   23.29    0.94
   3  -7  -2   21.74    0.97
  -7  -3   2   23.45    0.77
  -7   3  -4   23.07    0.71
   7  -3  -4   22.92    1.03
  -3   7  -4   23.91    0.99
   3  -7  -4   24.12    1.06
  -7  -3   4   24.95    1.04
   7  -3  -6    2.45    0.38
  -7  -3   6    2.18    0.36
   3  -7  -6    1.88    0.23
   3  -7  -6    1.48    0.33
   3  -7  -8   13.46    0.85
   7  -3  -8   12.01    0.84
   3  -7 -10    0.97    0.34
   7  -3 -10    1.08    0.37
   3  -7 -12    4.51    0.61
   7  -3 -12    3.62    0.55
  -7   3 -12    4.00    0.26
   7  -3 -14    0.52    0.39
   3  -7 -14    0.58    0.38
  -7   3 -14    0.89    0.19
   3  -7 -16    0.46    0.39
   7  -3 -16    0.57    0.46
   7  -3 -18    1.10    0.45
   3  -7 -18    1.52    0.49
   3  -7 -20    0.17    0.41
   7  -3 -20    0.21    0.42
   7  -3 -22    2.36    0.63
   3  -7 -22    2.26    0.63
   3  -7 -24    1.20    0.57
   7  -3 -24    1.96    0.64
  -4  -7 -25    0.24    0.47
  -4  -7 -23    1.90    0.63
  -7  -4 -21    5.53    0.72
  -4  -7 -21    5.30    0.77
  -4  -7 -19    1.32    0.48
  -7  -4 -19    1.09    0.36
  -7  -4 -17    7.09    0.65
  -4  -7 -17    5.01    0.62
  -7  -4 -15    1.60    0.33
  -4  -7 -15    1.21    0.39
  -4  -7 -13    2.32    0.39
   4  -7  13    1.83    0.26
  -7  -4 -13    2.89    0.39
  -7  -4 -11    2.82    0.37
   4  -7  11    2.84    0.27
  -4  -7 -11    3.36    0.45
   4  -7   9   16.80    0.64
  -4  -7  -9   15.89    0.92
   7   4  -7   19.09    0.70
   4   7  -5    9.87    0.37
  -7   4   5   12.21    0.68
   4   7  -5   11.89    0.61
   7   4  -5   12.04    0.44
  -7   4   3   90.59    2.69
  -7   4   3   94.30    2.78
  -4   7   3   86.82    2.49
  -7   4   1    0.03    0.24
  -7   4   1    0.04    0.15
   4  -7   1    0.02    0.15
  -4   7   1    0.56    0.26
   7  -4   1    0.19    0.15
  -7  -4   1   -0.15    0.12
   7  -4  -1   -0.01    0.17
  -4  -7   1    0.42    0.17
  -4   7  -1    0.09    0.24
  -7   4  -1    0.16    0.13
   4  -7  -1   -0.03    0.18
  -7   4  -1    0.03    0.26
  -4  -7   1    0.00    0.08
  -7  -4   3   87.37    2.65
  -7   4  -3   85.26    2.33
  -4   7  -3   83.94    2.66
   7  -4  -3   87.38    2.68
   4  -7  -3   89.10    2.71
   4  -7  -5   12.91    0.78
  -7  -4   5   11.71    0.71
   7  -4  -5   12.44    0.78
   7  -4  -7   14.42    0.90
   4  -7  -7   15.83    0.71
   4  -7  -7   16.48    0.95
   7  -4  -9   15.99    1.01
   4  -7  -9   15.83    1.01
   7  -4 -11    3.57    0.56
   4  -7 -11    2.81    0.52
   7  -4 -13    2.39    0.52
   4  -7 -13    2.06    0.47
   7  -4 -15    0.50    0.44
   4  -7 -15    1.18    0.45
   7  -4 -17    6.92    0.81
   4  -7 -17    5.74    0.75
   4  -7 -19    0.01    0.41
   7  -4 -19    0.37    0.41
   7  -4 -21    4.71    0.74
   4  -7 -21    5.77    0.81
   4  -7 -23    0.61    0.50
   7  -4 -23    1.22    0.58
  -5  -7 -24    2.53    0.66
  -5  -7 -22    5.63    0.78
  -5  -7 -20    0.15    0.38
  -7  -5 -20   -0.10    0.33
  -7  -5 -18   -0.09    0.27
  -5  -7 -18   -0.57    0.40
  -7  -5 -16    2.58    0.41
  -5  -7 -16    2.72    0.49
  -5  -7 -14    0.21    0.27
  -7  -5 -14    0.33    0.25
   5  -7  12    0.93    0.17
  -5  -7 -12    1.29    0.36
  -7  -5 -12    1.15    0.31
   5  -7  10    0.31    0.11
  -5  -7 -10    1.01    0.28
   7   5  -8   19.20    0.66
   5  -7   8   15.89    0.56
   7   5  -6    3.00    0.18
  -7   5   6    3.17    0.36
  -5   7   4    0.67    0.18
  -7   5   4    0.93    0.26
  -7   5   4    0.32    0.25
   5  -7   4    1.08    0.17
  -7   5   2   30.93    1.26
  -5   7   2   33.02    1.14
   7  -5   2   36.29    1.11
   5  -7   2   37.20    1.21
  -5   7   2   33.82    1.37
  -7   5   2   36.53    1.40
  -7   5   0   41.27    1.39
   7  -5   0   44.44    1.43
  -5   7   0   42.15    1.59
   5  -7   0   40.34    1.44
  -7   5   0   43.05    1.59
   7  -5  -2   34.38    1.28
  -7  -5   2   35.15    1.27
  -5  -7   2   37.23    1.19
   5  -7  -2   34.18    1.31
  -5   7  -2   34.39    1.32
  -7   5  -2   35.80    1.35
  -7   5  -2   34.35    1.04
  -7  -5   2   29.80    0.91
  -5   7  -4    0.35    0.24
   7  -5  -4    0.15    0.25
   5  -7  -4    0.81    0.29
  -7  -5   4    0.93    0.28
   7  -5  -6    2.12    0.38
   5  -7  -6    2.78    0.45
   7  -5  -8   16.63    1.03
   5  -7  -8   19.39    1.09
   5  -7 -10    0.60    0.37
   7  -5 -10    0.34    0.32
   5  -7 -12    0.90    0.40
   7  -5 -12    1.23    0.42
   5  -7 -14    1.03    0.45
   7  -5 -14    0.77    0.40
   5  -7 -16    2.41    0.61
   7  -5 -16    1.91    0.45
   5  -7 -18   -0.01    0.45
   7  -5 -18    1.12    0.51
   5  -7 -20    0.44    0.44
   7  -5 -20    0.11    0.43
   7  -5 -22    6.70    0.88
   5  -7 -22    6.29    0.90
  -6  -7 -23    0.73    0.48
  -7  -6 -21    5.71    0.73
  -6  -7 -21    5.41    0.76
  -7  -6 -19    0.90    0.39
  -6  -7 -19    1.57    0.45
  -7  -6 -17    2.61    0.48
  -6  -7 -17    2.81    0.52
  -6  -7 -15    1.41    0.36
  -7  -6 -15    2.46    0.43
  -6  -7 -13    4.85    0.56
  -7  -6 -13    4.76    0.52
  -6  -7 -11    2.90    0.43
  -7  -6 -11    3.20    0.44
   7   6  -7   11.76    0.42
  -7   6   5    3.28    0.36
   6  -7   5    2.91    0.21
  -6   7   5    3.28    0.32
   6  -7   3   73.82    2.18
  -7   6   3   73.47    2.31
  -7   6   3   77.79    2.49
  -6   7   3   72.27    2.24
   7  -6   3   77.75    2.12
  -6   7   3   75.27    2.48
  -7   6   1    0.50    0.28
   7  -6   1    0.64    0.21
   6  -7   1    0.20    0.18
  -6   7   1    0.18    0.26
  -7   6   1    0.20    0.17
  -7   6  -1    0.19    0.14
  -6   7  -1   -0.09    0.28
   6  -7  -1    0.15    0.21
  -6  -7   1    0.28    0.21
   7  -6  -1    0.50    0.23
  -7   6  -1    0.13    0.26
   6  -7  -3   75.48    2.52
  -6  -7   3   78.55    2.37
  -7  -6   3   77.08    2.41
  -6   7  -3   75.74    2.49
   7  -6  -3   71.66    2.46
  -7   6  -3   77.23    2.50
  -7  -6   5    3.36    0.40
   6  -7  -5    2.80    0.41
   7  -6  -5    3.15    0.45
   6  -7  -7   12.31    0.87
   7  -6  -7   13.29    0.89
   7  -6  -9   11.91    0.89
   6  -7  -9   11.60    0.90
   6  -7 -11    3.06    0.57
   7  -6 -11    1.84    0.48
   6  -7 -13    5.39    0.72
   7  -6 -13    4.02    0.62
   7  -6 -15    1.91    0.46
   6  -7 -15    1.71    0.49
   6  -7 -17    2.57    0.57
   7  -6 -17    3.16    0.62
   6  -7 -19    2.18    0.60
   7  -6 -19    1.02    0.51
   7  -6 -21    5.14    0.81
   6  -7 -21    5.80    0.86
   6  -7 -23    1.40    0.65
   7  -6 -23    0.99    0.54
  -7  -7 -22    8.31    0.91
  -7  -7 -20    4.12    0.63
  -7  -7 -18    1.84    0.41
  -7  -7 -16   11.99    0.90
  -7  -7 -14   19.39    1.13
  -7  -7 -12    1.81    0.37
   7   7  -8   31.82    0.93
   7  -7   4    6.79    0.35
  -7   7   4    6.47    0.48
   7  -7   2   68.68    2.12
  -7   7   2   74.34    2.44
  -7   7   0   27.47    1.22
   7  -7   0   25.54    1.07
  -7  -7   2   71.98    2.23
  -7   7  -2   70.44    2.36
   7  -7  -2   65.20    2.29
  -7  -7   4    7.59    0.56
   7  -7  -4    6.98    0.62
  -7   7  -4    7.77    0.61
   7  -7  -6    2.18    0.42
   7  -7  -8   35.82    1.66
   7  -7 -10   17.72    1.16
   7  -7 -12    1.20    0.46
   7  -7 -14   19.00    1.32
   7  -7 -16   13.86    1.17
   7  -7 -18    2.34    0.63
   7  -7 -20    4.76    0.82
   7  -7 -22    8.01    1.01
  -8   0   0    7.12    0.45
  -8   0   0    6.32    0.41
   0  -8   0    6.00    0.41
  -8   0   2    0.68    0.24
   0  -8  -2    0.40    0.19
   0   8  -2    0.35    0.20
  -8   0   4    9.13    0.63
   0   8  -4    8.65    0.50
  -8   0   4    9.52    0.53
   8   0  -4    9.56    0.53
  -8   0   6    1.98    0.35
   8   0  -6    2.50    0.30
   0  -8  -6    2.07    0.36
   0  -8  -8    0.43    0.32
   8   0  -8    0.57    0.32
   0  -8 -10   20.35    1.13
   8   0 -10   20.78    1.17
  -8   0 -10   21.97    0.84
  -8   0 -12    5.06    0.40
   8   0 -12    3.87    0.56
   0  -8 -12    4.94    0.61
   8   0 -14    5.29    0.68
   0  -8 -14    6.84    0.73
  -8   0 -14    6.95    0.53
  -8   0 -16    0.66    0.24
   0  -8 -16    0.70    0.39
   8   0 -16    0.62    0.37
   0  -8 -18   -0.23    0.42
   8   0 -18    0.36    0.41
   0  -8 -20    1.51    0.51
   8   0 -20    2.19    0.57
   0  -8 -22    1.82    0.55
   8   0 -22    0.70    0.47
   0  -8 -24    3.20    0.68
  -1  -8 -25    4.14    0.79
  -1  -8 -23    1.64    0.52
  -1  -8 -21    1.29    0.47
  -1  -8 -19    3.33    0.62
  -1  -8 -17    6.66    0.77
  -8  -1 -17    7.50    0.65
  -8  -1 -15   17.52    0.91
  -1  -8 -15   15.13    1.07
   8   1 -15   13.67    1.09
  -8  -1 -13    5.18    0.44
  -1  -8 -13    5.30    0.63
  -8  -1 -11    2.36    0.28
  -1  -8 -11    2.42    0.45
  -1  -8  -9   15.31    0.92
  -8  -1  -9   15.58    0.70
  -8   1   7   36.35    1.45
  -1  -8  -7   34.16    1.47
   8   1  -7   36.76    1.29
   1   8  -5   49.79    1.61
  -8   1   5   52.68    1.85
   8   1  -5   54.81    1.67
   1   8  -3    3.87    0.30
   1   8  -3    3.44    0.25
  -8   1   3    3.93    0.43
  -1  -8  -3    4.45    0.39
  -8   1   3    3.59    0.38
   1  -8   1   42.63    1.52
  -1  -8  -1   46.81    1.51
  -8   1   1   50.69    1.60
  -8   1   1   48.16    1.56
  -1  -8   1   41.13    1.39
   1  -8  -1   43.69    1.51
  -1   8  -1   42.54    1.49
  -8   1  -1   45.99    1.53
  -8  -1   1   47.51    1.46
  -8   1  -1   47.81    1.45
  -8  -1   3    4.49    0.36
  -8  -1   3    3.91    0.41
   8  -1  -3    4.91    0.39
  -1   8  -3    4.04    0.35
   8  -1  -5   56.99    1.87
  -1   8  -5   52.08    1.69
  -8  -1   5   56.46    1.87
   1  -8  -5   52.52    1.86
   1  -8  -5   47.60    1.45
   8  -1  -7   32.98    1.41
  -8  -1   7   32.20    1.34
   1  -8  -7   31.48    1.40
   8  -1  -9   15.37    0.97
   1  -8  -9   15.09    0.94
  -8   1  -9   16.15    0.62
   8  -1 -11    2.22    0.48
   1  -8 -11    2.76    0.46
  -8   1 -11    2.66    0.26
   8  -1 -13    4.22    0.62
   1  -8 -13    4.39    0.62
  -8   1 -13    5.07    0.40
   1  -8 -15   15.17    1.11
   8  -1 -15   12.76    1.07
   1  -8 -17    7.61    0.84
   8  -1 -17    6.66    0.79
   1  -8 -19    2.85    0.60
   8  -1 -19    1.72    0.54
   1  -8 -21    1.95    0.59
   8  -1 -21    1.25    0.54
   8  -1 -23    1.54    0.53
   1  -8 -23    3.16    0.70
  -2  -8 -24    0.03    0.49
  -2  -8 -22    0.55    0.43
  -2  -8 -20    2.79    0.53
  -8  -2 -18    3.53    0.50
  -2  -8 -18    1.85    0.45
  -2  -8 -16   11.52    0.94
  -8  -2 -16   10.90    0.77
  -2  -8 -14    8.78    0.80
  -8  -2 -14    9.89    0.66
  -8  -2 -12   13.86    0.74
  -2  -8 -12   13.19    0.92
  -8  -2 -10   15.15    0.75
  -2  -8 -10   15.72    0.94
   2  -8  10   15.02    0.73
   8   2  -8   31.39    1.15
  -2  -8  -8   30.76    1.38
   8   2  -6    6.05    0.39
  -8   2   6    5.04    0.49
   2   8  -4   68.13    2.10
   8   2  -4   75.88    2.12
  -8   2   4   74.28    2.29
   2   8  -4   70.34    2.06
  -8   2   4   76.71    2.35
  -8   2   2   31.81    1.23
  -8   2   2   33.18    1.25
  -2  -8  -2   32.09    1.15
  -2  -8   0    1.09    0.19
  -8   2   0    1.30    0.28
  -2   8   0    0.89    0.25
  -8   2   0    1.09    0.21
  -8  -2   2   34.60    1.15
  -2   8  -2   34.05    1.28
  -8   2  -2   36.00    1.15
   2  -8  -2   32.46    1.32
   8  -2  -2   35.61    1.28
  -8   2  -4   72.72    2.03
  -8  -2   4   75.48    2.37
   2  -8  -4   72.16    2.39
   8  -2  -4   76.54    2.38
  -2   8  -4   68.29    2.26
   2  -8  -6    5.08    0.32
  -8  -2   6    5.39    0.51
   8  -2  -6    5.48    0.53
   2  -8  -6    4.68    0.49
  -8   2  -8   27.25    0.82
   2  -8  -8   27.52    1.32
   8  -2  -8   27.40    1.31
  -8   2 -10   16.19    0.58
   2  -8 -10   14.66    0.97
   8  -2 -10   12.18    0.92
  -8   2 -12   15.47    0.64
   2  -8 -12   13.50    0.98
   8  -2 -12   13.44    1.02
   8  -2 -14    8.89    0.84
   2  -8 -14   10.65    0.92
  -8   2 -14   10.35    0.56
   8  -2 -16    8.87    0.90
   2  -8 -16    9.48    0.90
   8  -2 -18    3.89    0.68
   2  -8 -18    2.96    0.63
   2  -8 -20    4.59    0.71
   8  -2 -20    3.55    0.67
   8  -2 -22    3.35    0.65
   2  -8 -22    0.60    0.46
   8  -2 -24    0.54    0.49
   2  -8 -24    0.41    0.49
  -3  -8 -25    2.36    0.64
  -3  -8 -23    0.63    0.48
  -3  -8 -21    0.15    0.40
  -8  -3 -19    0.64    0.32
  -3  -8 -19    0.28    0.37
  -8  -3 -17    6.13    0.60
  -3  -8 -17    4.35    0.59
  -8  -3 -15    5.43    0.52
  -3  -8 -15    5.19    0.60
  -8  -3 -13    5.59    0.49
  -3  -8 -13    5.65    0.63
   3  -8  11    0.77    0.21
  -3  -8 -11    0.90    0.32
  -8  -3 -11    1.24    0.26
   8   3  -9   16.89    0.75
   3  -8   9   17.25    0.72
  -3  -8  -9   16.05    0.95
  -8   3   7   26.42    1.20
   8   3  -7   29.10    1.02
   3   8  -5   11.32    0.47
  -8   3   5   12.79    0.73
   8   3  -5   12.07    0.52
   3   8  -5   12.14    0.61
  -8   3   3    7.08    0.52
  -8   3   3    7.31    0.55
  -8   3   1   18.68    0.88
  -3   8   1   16.34    0.56
  -3   8   1   16.92    0.83
  -3  -8  -1   18.48    0.70
  -8   3   1   17.80    0.82
  -3   8  -1   17.46    0.85
  -8   3  -1   18.05    0.87
  -8   3  -1   18.59    0.75
  -8  -3   1   17.58    0.67
  -3  -8   1   16.12    0.62
   3  -8  -1   15.72    0.81
   8  -3  -1   19.69    0.81
  -8   3  -3    8.14    0.39
  -3   8  -3    7.39    0.54
   3  -8  -3    7.13    0.56
   8  -3  -3    7.20    0.53
  -8  -3   3    7.31    0.38
  -8  -3   3    7.19    0.55
   8  -3  -5   11.62    0.73
  -8  -3   5   13.21    0.76
  -3   8  -5   11.98    0.68
   3  -8  -5   11.21    0.76
  -8   3  -5   11.32    0.40
  -8  -3   7   25.95    1.16
   3  -8  -7   24.99    1.23
   3  -8  -7   24.64    0.93
   8  -3  -7   22.19    1.17
   3  -8  -9   16.48    1.02
   8  -3  -9   15.85    0.98
   8  -3 -11    1.04    0.39
   3  -8 -11    1.85    0.46
   8  -3 -13    5.75    0.71
  -8   3 -13    4.79    0.27
   3  -8 -13    5.40    0.66
   3  -8 -15    6.16    0.77
   8  -3 -15    5.44    0.70
   3  -8 -17    7.21    0.83
   8  -3 -17    5.36    0.75
   3  -8 -19    0.32    0.40
   8  -3 -19    0.34    0.45
   3  -8 -21   -0.45    0.50
   8  -3 -21   -0.39    0.50
   3  -8 -23    0.09    0.45
   8  -3 -23    1.72    0.62
  -4  -8 -24    0.39    0.50
  -4  -8 -22    2.40    0.57
  -4  -8 -20   -0.41    0.40
  -4  -8 -18    4.50    0.63
  -8  -4 -18    4.23    0.56
  -4  -8 -16    1.21    0.38
  -8  -4 -16    1.83    0.37
  -8  -4 -14    0.89    0.28
  -4  -8 -14    1.93    0.45
  -4  -8 -12   13.31    0.93
   4  -8  12   13.59    0.65
  -8  -4 -12   13.79    0.81
   8   4 -10    0.04    0.20
   4  -8  10    0.20    0.14
  -4  -8 -10    0.06    0.25
   8   4  -8    7.84    0.43
  -8   4   6    1.91    0.35
   8   4  -6    2.23    0.21
   4   8  -6    1.92    0.16
  -8   4   4    1.43    0.30
  -8   4   4    2.22    0.32
  -4   8   2   23.58    1.07
   4  -8   2   24.29    0.95
  -4   8   2   23.88    0.81
  -8   4   2   25.33    1.11
   4  -8   0    0.95    0.24
  -8   4   0    0.90    0.22
  -4  -8   0    1.10    0.16
  -4  -8   0    0.85    0.17
  -8   4   0    0.88    0.30
  -4   8   0    0.84    0.29
   8  -4   0    0.82    0.22
   4  -8  -2   21.74    1.05
  -4   8  -2   23.51    1.06
  -8   4  -2   23.91    1.08
   8  -4  -2   23.76    1.01
  -8   4  -2   24.70    0.88
  -8  -4   2   25.17    0.80
   8  -4  -4    1.20    0.29
  -8  -4   4    1.39    0.33
  -4   8  -4    1.93    0.35
  -8   4  -4    1.12    0.11
   4  -8  -4    1.52    0.35
   8  -4  -6    2.09    0.39
  -8  -4   6    2.06    0.34
   4  -8  -6    2.30    0.39
   8  -4  -8    6.08    0.61
   4  -8  -8    6.92    0.65
   8  -4 -10    0.39    0.33
   4  -8 -10   -0.11    0.36
   4  -8 -12   15.31    1.11
   8  -4 -12   12.89    1.01
   4  -8 -14    0.83    0.43
   8  -4 -14    1.33    0.47
   4  -8 -16    1.63    0.48
   8  -4 -16    2.82    0.58
   8  -4 -18    4.36    0.71
   4  -8 -18    3.85    0.64
   8  -4 -20    0.22    0.42
   4  -8 -20   -0.35    0.45
   4  -8 -22    1.80    0.56
   8  -4 -22    1.88    0.61
  -5  -8 -25    0.37    0.49
  -5  -8 -23    0.14    0.42
  -5  -8 -21    0.40    0.38
  -8  -5 -19   -0.32    0.37
  -5  -8 -19    0.27    0.37
  -8  -5 -17    7.60    0.69
  -5  -8 -17    6.01    0.70
  -5  -8 -15    1.52    0.42
  -8  -5 -15    1.49    0.34
  -5  -8 -13    6.75    0.67
  -8  -5 -13    7.19    0.62
  -8  -5 -11    3.53    0.41
   5  -8  11    3.05    0.25
  -5  -8 -11    3.99    0.51
   5  -8   9    0.86    0.13
   8   5  -9    0.98    0.20
   8   5  -7   10.42    0.44
  -8   5   5    0.15    0.23
   5  -8   5    0.34    0.14
   5  -8   3    2.41    0.26
  -8   5   3    2.67    0.39
  -5   8   3    2.33    0.25
  -8   5   3    2.32    0.33
  -8   5   1    7.95    0.62
   8  -5   1    8.60    0.46
  -5   8   1    7.69    0.59
   5  -8   1    8.36    0.52
  -8   5   1    7.03    0.49
  -5  -8   1    7.86    0.46
  -8   5  -1    8.36    0.45
   5  -8  -1    8.52    0.56
   8  -5  -1    9.05    0.54
  -8   5  -1    8.90    0.64
  -8  -5   1    7.62    0.33
  -5   8  -1    8.77    0.62
   5  -8  -3    2.05    0.36
  -8   5  -3    2.55    0.37
  -5   8  -3    2.01    0.38
  -8   5  -3    2.32    0.19
  -8  -5   3    2.93    0.38
   8  -5  -3    2.60    0.37
  -8  -5   5    0.21    0.26
  -5   8  -5    0.15    0.26
   5  -8  -5    0.16    0.25
   8  -5  -5    0.34    0.29
   5  -8  -7    9.65    0.78
   8  -5  -7   10.56    0.79
   5  -8  -9    0.86    0.36
   8  -5  -9    0.51    0.36
   5  -8 -11    3.64    0.60
   8  -5 -11    3.40    0.55
   5  -8 -13    8.40    0.84
   8  -5 -13    7.09    0.81
   5  -8 -15    1.03    0.41
   8  -5 -15    1.97    0.57
   8  -5 -17    6.57    0.82
   5  -8 -17    7.32    0.87
   5  -8 -19   -0.16    0.43
   8  -5 -19   -0.13    0.41
   8  -5 -21   -0.32    0.50
   5  -8 -21   -0.55    0.54
   8  -5 -23    0.56    0.52
   5  -8 -23   -0.10    0.50
  -6  -8 -24    0.73    0.51
  -6  -8 -22    2.68    0.57
  -8  -6 -20    0.69    0.33
  -6  -8 -20    0.77    0.37
  -8  -6 -18    4.09    0.56
  -6  -8 -18    4.28    0.63
  -8  -6 -16    5.57    0.62
  -6  -8 -16    5.68    0.68
  -8  -6 -14    5.04    0.55
  -6  -8 -14    3.51    0.51
  -6  -8 -12   19.64    1.13
  -8  -6 -12   19.90    1.09
   8   6 -10    4.83    0.33
   6  -8   8   10.68    0.37
   8   6  -8   13.11    0.45
  -8   6   6    8.38    0.60
   6  -8   6    8.08    0.38
   6  -8   4    5.57    0.35
  -8   6   4    4.43    0.51
  -8   6   4    5.34    0.48
  -6   8   4    4.87    0.38
  -6   8   2   42.22    1.43
   8  -6   2   45.76    1.40
   6  -8   2   42.93    1.48
  -8   6   2   44.43    1.71
  -6   8   2   44.23    1.69
   6  -8   0    0.83    0.25
  -8   6   0    0.54    0.18
  -8   6   0    0.55    0.29
   8  -6   0    0.79    0.21
  -6   8   0    0.90    0.28
  -8  -6   2   41.87    1.55
   6  -8  -2   40.82    1.60
  -6   8  -2   43.74    1.64
  -6  -8   2   44.20    1.49
   8  -6  -2   40.85    1.56
  -8   6  -2   40.85    1.32
  -8   6  -2   43.58    1.65
   8  -6  -4    3.96    0.46
  -8  -6   4    5.75    0.50
   6  -8  -4    4.84    0.53
  -6   8  -4    4.64    0.50
  -8   6  -4    4.69    0.47
  -8  -6   6    9.04    0.66
   6  -8  -6    9.41    0.76
   8  -6  -6    7.94    0.68
   6  -8  -8   13.62    0.98
   8  -6  -8   14.03    0.98
   6  -8 -10    4.48    0.62
   8  -6 -10    4.18    0.59
   6  -8 -12   17.25    1.22
   8  -6 -12   18.07    1.24
   6  -8 -14    4.05    0.67
   8  -6 -14    4.36    0.67
   6  -8 -16    5.65    0.79
   8  -6 -16    5.67    0.77
   6  -8 -18    4.16    0.70
   8  -6 -18    4.19    0.74
   8  -6 -20    1.23    0.54
   6  -8 -20    1.41    0.49
   6  -8 -22    3.58    0.71
   8  -6 -22    3.59    0.71
  -7  -8 -23    3.75    0.67
  -8  -7 -21    0.67    0.39
  -7  -8 -21   -0.13    0.44
  -8  -7 -19   13.67    1.01
  -7  -8 -19   13.12    1.07
  -7  -8 -17   12.12    0.98
  -8  -7 -17   12.68    0.96
  -7  -8 -15    0.57    0.32
  -8  -7 -15    0.74    0.33
  -7  -8 -13   26.50    1.37
  -8  -7 -13   28.00    1.37
  -7  -8 -11   48.10    1.96
   8   7  -9    0.28    0.11
  -7   8   5   30.97    1.09
  -8   7   5   30.99    1.16
   7  -8   5   28.76    0.88
   7  -8   3   18.63    0.79
  -8   7   3   19.65    0.90
   8  -7   3   20.41    0.75
  -8   7   3   17.32    0.98
  -7   8   3   17.45    0.82
  -7   8   3   19.26    1.03
  -8   7   1   47.07    1.77
   7  -8   1   42.87    1.56
   8  -7   1   43.98    1.51
  -7   8   1   45.37    1.77
  -7  -8   1   45.22    1.43
   7  -8  -1   44.11    1.53
  -7   8  -1   45.59    1.62
   8  -7  -1   44.47    1.48
  -8  -7   1   44.14    1.46
  -8   7  -1   44.56    1.62
   8  -7  -3   17.23    0.96
  -7  -8   3   19.87    0.91
  -8  -7   3   19.28    0.94
   7  -8  -3   17.47    1.00
  -7   8  -3   18.92    1.01
  -8   7  -3   19.53    1.03
  -8  -7   5   32.75    1.34
   7  -8  -5   32.86    1.49
  -8   7  -5   29.33    1.36
   8  -7  -5   29.73    1.41
  -7   8  -5   31.61    1.39
   8  -7  -7   46.41    1.95
   7  -8  -7   48.33    2.02
   8  -7  -9   -0.33    0.42
   7  -8  -9    0.08    0.36
   7  -8 -11   47.21    2.13
   8  -7 -11   45.73    2.11
   8  -7 -13   25.53    1.56
   7  -8 -13   28.03    1.59
   8  -7 -15   -0.06    0.41
   7  -8 -15    0.29    0.40
   8  -7 -17   11.12    1.11
   7  -8 -17   11.68    1.12
   8  -7 -19   13.86    1.23
   7  -8 -19   13.35    1.22
   8  -7 -21    1.44    0.57
   7  -8 -21    0.59    0.51
  -8  -8 -22   10.08    1.03
  -8  -8 -20    7.58    0.80
  -8  -8 -18    4.36    0.61
  -8  -8 -16   15.89    1.09
  -8  -8 -14   27.72    1.44
  -8  -8 -12   12.58    0.91
  -8   8   6    1.71    0.31
  -8   8   4   36.04    1.37
  -8   8   4   34.21    1.53
   8  -8   4   35.71    1.16
  -8   8   2  112.36    3.50
   8  -8   2  107.78    3.17
  -8   8   0    0.02    0.35
   8  -8   0    0.78    0.26
   8  -8  -2  107.11    3.49
  -8  -8   2  116.11    3.41
  -8   8  -2  115.86    3.58
  -8  -8   4   33.09    1.35
  -8   8  -4   33.81    1.49
   8  -8  -4   32.69    1.49
   8  -8  -6    1.36    0.38
  -8   8  -6    1.53    0.37
   8  -8  -8   61.28    2.44
   8  -8 -10   47.84    2.15
   8  -8 -12   11.76    1.02
   8  -8 -14   32.65    1.82
   8  -8 -16   15.24    1.25
   8  -8 -18    4.35    0.73
   8  -8 -20    9.68    1.07
   0   9  -1   -0.16    0.21
   0  -9   1   -0.01    0.17
  -9   0  -1   -0.25    0.22
  -9   0  -1    0.07    0.14
   0   9  -3    8.70    0.53
  -9   0   3   10.66    0.59
  -9   0   3    9.45    0.66
   0  -9  -5    0.14    0.25
   0   9  -5    0.17    0.19
  -9   0   5    0.60    0.32
  -9   0   7   34.76    1.45
   0  -9  -7   32.84    1.46
   0  -9  -9   23.44    1.25
  -9   0  -9   25.37    0.92
   9   0 -11    0.09    0.31
  -9   0 -11   -0.10    0.16
   0  -9 -11   -0.17    0.33
  -9   0 -13    4.65    0.41
   0  -9 -13    3.09    0.55
   9   0 -13    3.45    0.58
  -9   0 -15   37.01    1.41
   0  -9 -15   32.09    1.71
   9   0 -15   30.83    1.69
   0  -9 -17    5.30    0.73
   9   0 -17    6.00    0.76
   9   0 -19    0.07    0.41
   0  -9 -19    0.29    0.40
   0  -9 -21   -0.01    0.45
   0  -9 -23    0.55    0.43
  -1  -9 -24    0.38    0.44
  -1  -9 -22    1.35    0.55
  -1  -9 -20    7.76    0.90
  -1  -9 -18   10.65    0.99
  -1  -9 -16    8.20    0.83
  -9  -1 -16    8.17    0.63
  -9  -1 -14   25.49    1.12
  -1  -9 -14   24.81    1.39
  -9  -1 -12   24.83    1.03
  -1  -9 -12   23.79    1.32
  -1  -9 -10   38.93    1.70
  -9  -1 -10   39.46    1.37
  -1  -9  -8   11.69    0.81
  -9   1   6   14.55    0.84
   1   9  -6   13.52    0.65
  -1  -9  -6   12.08    0.83
   9   1  -6   14.25    0.69
   1   9  -4   48.14    1.56
  -9   1   4   51.72    1.80
   9   1  -4   51.32    1.62
  -9   1   4   49.08    1.69
   1   9  -4   47.86    1.50
  -9   1   2   13.69    0.70
   1   9  -2   10.64    0.56
  -9  -1   0    6.26    0.43
  -9   1   0    6.31    0.42
  -1  -9   0    5.05    0.37
  -1   9   0    4.46    0.40
  -9   1   0    6.09    0.46
  -9  -1   2   11.65    0.60
  -9   1  -2   11.56    0.56
  -1   9  -2   12.04    0.65
  -9  -1   4   50.00    1.81
  -9  -1   4   51.49    1.63
   1  -9  -4   47.95    1.84
  -1   9  -4   48.97    1.67
  -9  -1   6   14.06    0.83
   9  -1  -6   13.48    0.81
  -1   9  -6   12.97    0.69
   1  -9  -6   13.39    0.82
   1  -9  -6   11.98    0.50
   1  -9  -8   10.77    0.80
   9  -1  -8   11.56    0.82
  -9   1 -10   38.34    1.21
   1  -9 -10   34.87    1.64
   9  -1 -10   36.34    1.67
   9  -1 -12   20.60    1.29
   1  -9 -12   21.85    1.30
   1  -9 -14   23.78    1.45
   9  -1 -14   23.80    1.48
   1  -9 -16    8.22    0.87
   9  -1 -16    8.02    0.87
   1  -9 -18   10.22    1.01
   9  -1 -18    9.53    0.98
   9  -1 -20    7.58    0.92
   1  -9 -20    7.80    0.96
   1  -9 -22    0.98    0.49
   9  -1 -22    0.84    0.41
   1  -9 -24    0.31    0.49
  -2  -9 -23    3.53    0.72
  -2  -9 -21    1.28    0.49
  -2  -9 -19    0.19    0.41
  -9  -2 -17   10.29    0.77
  -2  -9 -17    9.49    0.91
  -9  -2 -15   13.12    0.80
  -2  -9 -15   13.57    1.00
  -9  -2 -13   10.97    0.67
  -2  -9 -13   10.17    0.86
  -9  -2 -11    5.89    0.45
  -2  -9 -11    5.44    0.61
  -2  -9  -9   17.18    1.01
  -9   2   7   47.25    1.84
  -2  -9  -7   48.35    1.91
   9   2  -7   52.03    1.65
   2   9  -5   40.08    1.40
   9   2  -5   46.46    1.44
   2   9  -5   42.28    1.36
  -9   2   5   44.82    1.65
  -9   2   3    2.40    0.36
   2   9  -3    2.09    0.20
   2   9  -3    2.36    0.23
  -2   9   1   30.87    1.26
  -9   2   1   34.80    1.31
  -2  -9  -1   32.00    1.15
  -9   2   1   34.24    1.27
  -9   2  -1   36.68    1.24
  -9   2  -1   37.40    1.37
  -9  -2   1   36.15    1.20
  -2  -9   1   30.99    1.13
  -2   9  -1   34.43    1.32
  -2   9  -3    2.20    0.32
  -9  -2   3    2.25    0.27
  -9  -2   3    2.31    0.36
  -9   2  -3    2.31    0.22
   2  -9  -3    2.23    0.37
  -2   9  -5   39.63    1.50
  -9  -2   5   43.87    1.65
  -9   2  -5   40.84    1.26
   2  -9  -5   41.40    1.66
   9  -2  -5   45.11    1.66
   2  -9  -7   44.42    1.46
  -9  -2   7   48.77    1.82
   2  -9  -7   49.85    1.90
   9  -2  -7   50.49    1.88
  -9   2  -9   17.71    0.60
   2  -9  -9   19.18    1.09
   9  -2  -9   17.68    1.08
   9  -2 -11    5.61    0.65
  -9   2 -11    5.76    0.31
   2  -9 -11    5.05    0.63
   2  -9 -13   10.50    0.91
  -9   2 -13   11.02    0.53
   9  -2 -13   10.29    0.93
   2  -9 -15   13.95    1.07
   9  -2 -15   12.27    1.02
   2  -9 -17    9.00    0.92
   9  -2 -17    8.86    0.95
   9  -2 -19    0.84    0.52
   2  -9 -19    0.22    0.42
   9  -2 -21    0.18    0.44
   2  -9 -21    0.94    0.51
   2  -9 -23    3.23    0.69
   9  -2 -23    2.62    0.73
  -3  -9 -24    0.76    0.56
  -3  -9 -22    0.06    0.41
  -3  -9 -20    2.53    0.59
  -3  -9 -18    3.92    0.64
  -3  -9 -16   -0.32    0.38
  -9  -3 -16    0.70    0.32
  -9  -3 -14    4.23    0.47
  -3  -9 -14    3.68    0.54
  -9  -3 -12   19.50    0.95
  -3  -9 -12   18.40    1.12
   3  -9  10    8.80    0.52
  -3  -9 -10    8.84    0.74
   9   3  -8    0.80    0.21
  -3  -9  -8    0.52    0.28
  -9   3   6    6.38    0.56
   3   9  -6    6.70    0.37
   9   3  -6    6.41    0.39
  -9   3   4   16.03    0.84
   3   9  -4   13.76    0.63
   3   9  -4   14.65    0.57
  -9   3   4   15.72    0.82
  -3  -9  -2    2.19    0.26
  -9   3   2    3.06    0.39
  -9   3   0    9.13    0.55
  -3  -9   0    8.57    0.45
  -9   3   0    9.60    0.63
   3  -9   0    8.48    0.58
  -3   9   0    8.96    0.60
  -9  -3   2    3.17    0.28
  -3   9  -2    2.79    0.38
  -9   3  -2    2.90    0.27
  -9   3  -2    2.76    0.37
   9  -3  -2    3.66    0.38
   3  -9  -2    2.39    0.38
  -9   3  -4   15.61    0.60
   9  -3  -4   16.01    0.85
   3  -9  -4   15.98    0.89
  -3   9  -4   14.45    0.81
  -9  -3   4   14.98    0.85
  -9  -3   6    5.60    0.54
  -3   9  -6    5.72    0.50
   9  -3  -6    6.47    0.58
  -9   3  -6    5.27    0.23
   3  -9  -6    5.74    0.56
   3  -9  -8    0.67    0.21
   3  -9  -8    0.85    0.37
   9  -3  -8    1.08    0.35
   9  -3 -10    7.30    0.72
   3  -9 -10    8.88    0.77
   3  -9 -12   19.82    1.23
   9  -3 -12   16.88    1.15
   3  -9 -14    3.75    0.63
   9  -3 -14    3.96    0.64
   9  -3 -16   -0.56    0.47
   3  -9 -16   -0.33    0.43
   3  -9 -18    3.07    0.65
   9  -3 -18    4.55    0.70
   9  -3 -20    2.40    0.63
   3  -9 -20    2.77    0.64
   3  -9 -22   -0.37    0.53
   9  -3 -22   -0.25    0.49
  -4  -9 -23    0.10    0.43
  -4  -9 -21    1.05    0.49
  -4  -9 -19    1.44    0.47
  -9  -4 -17    6.02    0.64
  -4  -9 -17    5.49    0.67
  -9  -4 -15    2.58    0.40
  -4  -9 -15    2.41    0.48
  -9  -4 -13    6.28    0.54
  -4  -9 -13    5.99    0.66
  -4  -9 -11    6.52    0.66
  -9  -4 -11    7.86    0.60
   4  -9  11    6.15    0.42
  -4  -9  -9   10.26    0.78
   9   4  -9   11.32    0.58
   9   4  -7    5.24    0.34
  -9   4   7    4.92    0.51
   4   9  -7    5.55    0.31
   4   9  -5    1.36    0.14
  -9   4   5    1.36    0.33
   4   9  -5    1.24    0.23
  -9   4   3    0.20    0.28
  -9   4   3    0.13    0.24
  -9   4   1    5.78    0.52
  -4  -9  -1    5.29    0.33
  -4   9   1    5.47    0.30
   4  -9   1    5.39    0.44
  -4  -9  -1    4.99    0.33
  -4   9   1    5.57    0.52
  -9   4   1    5.41    0.46
  -4  -9   1    5.87    0.36
  -9   4  -1    5.92    0.42
   9  -4  -1    6.00    0.45
  -9  -4   1    5.91    0.34
  -4  -9   1    4.96    0.29
   4  -9  -1    5.79    0.49
  -9   4  -1    5.80    0.53
  -4   9  -1    4.95    0.48
  -9   4  -3    0.11    0.25
  -9   4  -3    0.28    0.13
   9  -4  -3   -0.04    0.22
  -9  -4   3    0.60    0.29
  -9  -4   3    0.26    0.13
   4  -9  -3    0.42    0.25
  -4   9  -3   -0.01    0.27
   9  -4  -5    1.37    0.33
  -9   4  -5    0.80    0.09
  -4   9  -5    1.49    0.34
  -9  -4   5    1.21    0.35
   4  -9  -5    1.47    0.35
  -9  -4   7    5.14    0.53
   4  -9  -7    4.83    0.55
   9  -4  -7    4.87    0.54
   4  -9  -9   10.46    0.85
   9  -4  -9    7.98    0.76
   9  -4 -11    6.19    0.67
   4  -9 -11    5.82    0.71
   9  -4 -13    6.23    0.73
   4  -9 -13    6.32    0.75
   9  -4 -15    2.67    0.57
   4  -9 -15    1.88    0.55
   9  -4 -17    5.59    0.80
   4  -9 -17    6.51    0.85
   9  -4 -19    1.91    0.59
   4  -9 -19    1.53    0.52
   9  -4 -21   -0.14    0.44
   4  -9 -21    0.22    0.44
   4  -9 -23    0.58    0.52
  -5  -9 -24    0.12    0.45
  -5  -9 -22    0.07    0.41
  -5  -9 -20    2.90    0.58
  -9  -5 -18    0.71    0.30
  -5  -9 -18    1.08    0.43
  -9  -5 -16    3.05    0.44
  -5  -9 -16    2.37    0.48
  -5  -9 -14    3.00    0.49
  -9  -5 -14    4.07    0.48
  -9  -5 -12   14.90    0.88
  -5  -9 -12   13.75    0.97
  -5  -9 -10    7.83    0.71
   5  -9  10    7.03    0.39
   9   5 -10    7.82    0.46
   5   9  -8    6.18    0.31
   9   5  -8    6.66    0.36
  -9   5   6   13.44    0.80
  -9   5   4   11.84    0.74
   5  -9   4   13.87    0.65
  -9   5   4   13.13    0.82
  -9   5   2    7.24    0.60
   5  -9   2    7.05    0.49
  -5   9   2    7.10    0.57
  -5   9   2    7.23    0.40
   5  -9   0   20.56    0.96
  -9   5   0   21.85    1.05
  -9   5   0   20.09    0.89
   9  -5   0   21.65    0.88
  -5   9   0   20.58    1.03
  -5  -9   0   19.10    0.70
  -5  -9   0   21.80    0.83
  -5  -9   2    7.35    0.45
  -9   5  -2    7.01    0.59
  -5   9  -2    6.57    0.58
  -9   5  -2    7.83    0.43
   5  -9  -2    7.68    0.59
   9  -5  -2    7.43    0.53
  -9  -5   2    8.11    0.59
  -9  -5   2    7.32    0.35
   5  -9  -4   12.04    0.78
  -9   5  -4    9.69    0.40
  -9  -5   4   12.01    0.76
   9  -5  -4   10.36    0.71
  -9   5  -4   11.18    0.72
  -5   9  -4   11.86    0.75
   5  -9  -6   12.85    0.89
  -9  -5   6   13.66    0.83
  -5   9  -6   12.69    0.80
   9  -5  -6   12.52    0.86
   5  -9  -8    7.22    0.70
   9  -5  -8    6.33    0.66
   5  -9 -10    7.12    0.77
   9  -5 -10    6.45    0.71
   5  -9 -12   13.99    1.09
   9  -5 -12   11.78    0.99
   9  -5 -14    3.12    0.59
   5  -9 -14    4.19    0.70
   5  -9 -16    3.25    0.66
   9  -5 -16    3.10    0.61
   9  -5 -18    1.61    0.53
   5  -9 -18    1.43    0.54
   5  -9 -20    3.64    0.73
   9  -5 -20    3.04    0.63
   5  -9 -22    0.05    0.50
   9  -5 -22    1.25    0.59
  -6  -9 -23    0.36    0.43
  -6  -9 -21    0.43    0.42
  -9  -6 -19    0.24    0.34
  -6  -9 -19    0.56    0.41
  -9  -6 -17    6.10    0.65
  -6  -9 -17    4.91    0.66
  -6  -9 -15    1.02    0.36
  -9  -6 -15    1.75    0.36
  -6  -9 -13    4.59    0.56
  -9  -6 -13    4.21    0.50
  -6  -9 -11    6.46    0.67
   9   6  -9    5.61    0.32
   6  -9   9    5.46    0.28
  -9   6   7    7.99    0.61
   6  -9   7    7.17    0.37
  -9   6   5    0.24    0.29
   6  -9   5    0.26    0.16
  -9   6   3    0.03    0.29
  -6   9   3    0.40    0.20
  -9   6   3    0.36    0.26
  -6   9   3   -0.05    0.36
   6  -9   3    0.18    0.18
  -9   6   1   11.42    0.78
   6  -9   1   11.23    0.65
  -6   9   1   10.30    0.77
   9  -6   1   11.14    0.58
  -6  -9   1   10.86    0.58
   6  -9  -1   11.32    0.69
  -9   6  -1    9.93    0.72
  -6   9  -1   11.27    0.77
  -9   6  -1   10.38    0.53
  -9  -6   1    9.59    0.38
   9  -6  -1   10.15    0.61
  -9   6  -3    0.20    0.31
  -9  -6   3    0.38    0.27
   6  -9  -3    0.51    0.29
  -6   9  -3    0.56    0.34
   9  -6  -3    0.36    0.27
  -9  -6   5    0.54    0.34
  -6   9  -5    0.29    0.30
   6  -9  -5    0.15    0.29
   9  -6  -5   -0.10    0.29
   9  -6  -7    6.08    0.65
   6  -9  -7    7.38    0.72
   9  -6  -9    5.33    0.65
   6  -9  -9    5.88    0.68
   9  -6 -11    5.98    0.73
   6  -9 -11    5.38    0.73
   9  -6 -13    3.60    0.60
   6  -9 -13    3.31    0.62
   6  -9 -15    1.20    0.51
   9  -6 -15    1.91    0.57
   9  -6 -17    6.53    0.86
   6  -9 -17    5.56    0.82
   6  -9 -19    0.72    0.51
   9  -6 -19    0.36    0.46
   9  -6 -21    0.67    0.48
   6  -9 -21   -0.18    0.48
  -7  -9 -22    2.85    0.61
  -9  -7 -20    3.01    0.51
  -7  -9 -20    3.93    0.64
  -9  -7 -18    0.09    0.30
  -7  -9 -18    1.06    0.48
  -7  -9 -16    4.01    0.60
  -9  -7 -16    4.06    0.55
  -7  -9 -14    6.65    0.70
  -9  -7 -14    9.62    0.76
  -7  -9 -12    8.27    0.77
  -9  -7 -12    7.87    0.70
  -9   7   6    1.74    0.38
   7  -9   6    1.52    0.19
   9  -7   4    8.49    0.38
  -9   7   4    8.52    0.61
   7  -9   4    8.08    0.48
  -9   7   4    8.03    0.68
  -7   9   4    8.91    0.54
   7  -9   2   22.71    1.00
  -7   9   2   22.33    0.95
   9  -7   2   25.92    0.93
  -7   9   2   23.27    1.19
  -9   7   2   24.13    1.22
   9  -7   0    0.73    0.25
  -9   7   0    0.97    0.38
   7  -9   0    0.90    0.28
  -7  -9   0    0.97    0.27
  -7  -9   0    0.57    0.12
  -7   9   0    1.29    0.40
  -7   9  -2   23.30    1.19
  -7  -9   2   24.12    1.03
  -9  -7   2   22.32    1.08
   7  -9  -2   22.75    1.15
  -9   7  -2   23.06    1.17
   9  -7  -2   23.32    1.10
   9  -7  -4    8.19    0.69
  -9  -7   4    9.06    0.67
  -9   7  -4    9.99    0.75
   7  -9  -4    9.02    0.75
  -7   9  -4    9.17    0.70
  -9  -7   6    1.77    0.41
   9  -7  -6    0.79    0.36
   7  -9  -6    1.34    0.41
   9  -7  -8   14.46    1.03
   7  -9  -8   14.32    1.06
   9  -7 -10   18.03    1.21
   7  -9 -10   16.83    1.19
   7  -9 -12    8.23    0.87
   9  -7 -12    7.28    0.85
   9  -7 -14    8.15    0.91
   7  -9 -14    8.92    0.95
   7  -9 -16    3.97    0.70
   9  -7 -16    3.97    0.71
   7  -9 -18   -0.43    0.58
   9  -7 -18    1.26    0.59
   9  -7 -20    2.50    0.63
   7  -9 -20    3.22    0.72
  -8  -9 -21    0.34    0.43
  -9  -8 -21   -0.14    0.40
  -9  -8 -19    7.40    0.78
  -8  -9 -19    6.60    0.78
  -8  -9 -17    7.39    0.81
  -9  -8 -17    5.80    0.68
  -9  -8 -15    2.89    0.48
  -8  -9 -15    4.35    0.58
  -8  -9 -13   12.02    0.93
  -9  -8 -13   12.03    0.91
   8  -9   5   20.84    0.73
  -8   9   5   20.18    0.90
  -9   8   5   20.56    0.98
   9  -8   5   16.85    0.59
   9  -8   3    0.95    0.20
  -8   9   3    0.59    0.34
  -9   8   3    0.11    0.38
   8  -9   3    1.03    0.23
  -8   9   3    1.07    0.28
  -9   8   3    1.01    0.29
   8  -9   1   30.89    1.29
   9  -8   1   32.62    1.26
  -8   9   1   32.45    1.50
  -9   8   1   33.77    1.50
  -8   9  -1   32.62    1.48
  -9   8  -1   32.80    1.48
   8  -9  -1   30.84    1.38
  -8  -9   1   33.14    1.31
  -9  -8   1   34.18    1.36
   9  -8  -1   30.10    1.32
  -9   8  -3    1.08    0.41
   9  -8  -3    1.05    0.33
  -8  -9   3    0.48    0.28
   8  -9  -3    1.02    0.35
  -9  -8   3    0.54    0.31
  -8   9  -3    0.78    0.39
   9  -8  -5   21.51    1.20
  -9  -8   5   21.38    1.09
  -9   8  -5   20.39    1.14
   8  -9  -5   20.10    1.19
  -8   9  -5   20.76    1.15
   9  -8  -7   19.73    1.22
   8  -9  -7   21.70    1.28
  -8   9  -7   20.47    1.13
   9  -8  -9    2.34    0.51
   8  -9  -9    2.15    0.54
   8  -9 -11   19.41    1.33
   9  -8 -11   20.42    1.35
   9  -8 -13   12.54    1.11
   8  -9 -13   14.28    1.17
   8  -9 -15    2.67    0.70
   9  -8 -15    3.83    0.72
   9  -8 -17    6.02    0.86
   8  -9 -17    5.73    0.84
   8  -9 -19    8.12    1.00
   9  -8 -19    6.79    0.92
   8  -9 -21    0.48    0.60
   9  -8 -21    1.23    0.58
  -9  -9 -20    0.82    0.37
  -9  -9 -18    0.75    0.41
  -9  -9 -16    1.16    0.41
  -9  -9 -14    6.83    0.71
  -9  -9 -12    1.18    0.32
  -9   9   6    0.26    0.27
  -9   9   4    5.52    0.51
   9  -9   4    5.80    0.37
  -9   9   4    5.06    0.58
   9  -9   2    8.18    0.54
  -9   9   2    8.53    0.60
  -9   9   2    8.73    0.76
  -9   9   0   30.38    1.47
   9  -9   0   27.74    1.26
  -9  -9   0   32.02    1.28
   9  -9  -2    8.40    0.69
  -9  -9   2    7.95    0.63
  -9   9  -2    7.76    0.73
  -9   9  -4    4.11    0.56
   9  -9  -4    5.54    0.61
  -9  -9   4    5.82    0.56
  -9   9  -6   -0.28    0.36
   9  -9  -6    0.31    0.37
   9  -9  -8   10.00    0.90
  -9   9  -8    8.91    0.77
   9  -9 -10   12.80    1.07
   9  -9 -12    2.28    0.56
   9  -9 -14    7.58    0.88
   9  -9 -16    0.61    0.44
   9  -9 -18    0.55    0.54
   9  -9 -20    0.68    0.55
 -10   0   0    9.25    0.60
 -10   0   2    2.19    0.33
   0  10  -2    1.57    0.12
   0  10  -2    2.17    0.30
   0  10  -4   57.79    1.89
 -10   0   4   60.17    2.10
 -10   0   4   58.03    1.92
 -10   0   6   12.72    0.83
   0  10  -6   12.06    0.65
   0 -10  -6   12.39    0.83
 -10   0   8   -0.34    0.38
   0 -10  -8    0.36    0.29
   0 -10 -10   47.51    2.03
 -10   0 -10   48.95    1.56
 -10   0 -12    7.79    0.49
   0 -10 -12    7.86    0.77
   0 -10 -14   29.39    1.59
   0 -10 -16    9.05    0.91
   0 -10 -18    4.14    0.70
   0 -10 -20    8.72    0.96
   0 -10 -22   -0.04    0.46
  -1 -10 -23    1.09    0.60
  -1 -10 -21    2.87    0.70
  -1 -10 -19    2.02    0.57
  -1 -10 -17    4.86    0.73
  -1 -10 -15   44.67    2.06
 -10  -1 -13    6.48    0.49
  -1 -10 -13    6.61    0.72
  -1 -10 -11    7.69    0.73
 -10  -1 -11    7.09    0.48
  -1 -10  -9   44.07    1.86
 -10   1   7   15.53    0.92
  -1 -10  -7   15.53    0.97
   1  10  -7   15.45    0.74
 -10   1   5   15.98    0.90
   1  10  -5   14.20    0.68
   1  10  -5   13.56    0.63
   1  10  -3   21.91    0.76
   1  10  -3   24.41    0.93
 -10   1   3   25.30    1.05
 -10   1   1   11.47    0.68
  -1 -10   1    9.99    0.56
 -10   1  -1   11.03    0.66
 -10  -1   1   10.38    0.60
 -10   1  -1   11.30    0.60
  -1  10  -1   11.26    0.63
  -1  10  -3   23.61    1.02
 -10  -1   3   23.38    1.11
 -10   1  -3   24.06    0.92
 -10  -1   3   24.00    0.98
 -10  -1   5   15.88    0.90
  -1  10  -5   15.05    0.78
   1 -10  -5   15.05    0.92
 -10  -1   7   14.34    0.91
  -1  10  -7   15.73    0.79
   1 -10  -7   14.19    0.92
   1 -10  -7   13.42    0.57
   1 -10  -9   46.90    1.92
  10  -1  -9   44.10    1.86
 -10   1  -9   43.78    1.37
 -10   1 -11    7.91    0.43
   1 -10 -11    7.26    0.72
  10  -1 -11    6.12    0.71
   1 -10 -13    5.24    0.68
  10  -1 -13    6.14    0.73
   1 -10 -15   47.38    2.18
  10  -1 -15   44.08    2.14
  10  -1 -17    6.33    0.82
   1 -10 -17    7.13    0.86
   1 -10 -19    2.34    0.58
  10  -1 -19    1.75    0.57
   1 -10 -21    2.60    0.62
  10  -1 -21    3.11    0.66
   1 -10 -23    1.81    0.60
  -2 -10 -22    0.51    0.44
  -2 -10 -20    4.41    0.70
  -2 -10 -18    1.09    0.47
  -2 -10 -16    2.85    0.57
 -10  -2 -14   11.50    0.70
  -2 -10 -14   10.24    0.90
  -2 -10 -12    9.89    0.86
 -10  -2 -12   10.08    0.63
  -2 -10 -10   23.17    1.26
 -10   2   8    0.43    0.31
   2  10  -8    1.00    0.25
  -2 -10  -8    0.58    0.28
  10   2  -6    4.78    0.38
   2  10  -6    4.50    0.36
 -10   2   6    3.53    0.48
   2  10  -6    4.45    0.38
   2  10  -4   26.59    0.97
 -10   2   4   30.33    1.30
   2  10  -4   29.47    1.03
 -10   2   4   28.68    1.21
 -10   2   2   12.67    0.75
 -10  -2   0    5.65    0.41
  -2 -10   0    4.93    0.38
 -10   2   0    6.48    0.53
  -2  10   0    5.68    0.47
   2 -10  -2   11.12    0.73
 -10   2  -2   10.25    0.67
 -10  -2   2   11.79    0.60
 -10   2  -2   11.51    0.58
  -2  10  -2   10.48    0.66
 -10  -2   4   30.51    1.35
  -2  10  -4   31.51    1.26
   2 -10  -4   29.55    1.36
 -10  -2   4   31.62    1.13
 -10   2  -4   31.51    1.07
   2 -10  -6    4.39    0.29
 -10  -2   6    5.47    0.56
 -10   2  -6    4.67    0.28
   2 -10  -6    4.33    0.53
  -2  10  -6    4.41    0.45
  10  -2  -6    4.87    0.53
   2 -10  -8    1.22    0.21
 -10  -2   8    0.73    0.32
   2 -10  -8    1.48    0.39
 -10   2  -8    0.79    0.12
  10  -2  -8    1.48    0.39
 -10   2 -10   24.00    0.79
   2 -10 -10   25.73    1.36
  10  -2 -10   24.38    1.33
   2 -10 -12    8.86    0.84
  10  -2 -12    8.64    0.83
   2 -10 -14   10.09    0.96
  10  -2 -14    9.36    0.92
  10  -2 -16    1.75    0.55
   2 -10 -16    2.21    0.58
   2 -10 -18    1.53    0.59
  10  -2 -18    0.96    0.46
   2 -10 -20    4.68    0.78
  10  -2 -20    4.84    0.76
   2 -10 -22    1.20    0.54
  10  -2 -22    0.79    0.56
  -3 -10 -23    0.40    0.44
  -3 -10 -21    1.11    0.48
  -3 -10 -19    0.71    0.45
  -3 -10 -17    1.25    0.44
 -10  -3 -15    5.40    0.51
  -3 -10 -15    4.23    0.63
  -3 -10 -13    1.55    0.42
 -10  -3 -13    1.48    0.31
  -3 -10 -11    0.34    0.31
 -10  -3 -11    0.68    0.26
  10   3  -9   14.64    0.74
  -3 -10  -9   14.61    0.97
   3  10  -7    4.45    0.33
 -10   3   7    5.58    0.56
  10   3  -7    4.61    0.36
   3  10  -5    7.67    0.40
 -10   3   5    6.73    0.59
   3  10  -5    6.90    0.45
 -10   3   3    4.18    0.47
  -3 -10  -1    2.54    0.19
  -3 -10  -1    2.70    0.29
  -3  10   1    2.32    0.35
 -10   3   1    2.76    0.39
 -10  -3   1    2.83    0.29
  -3 -10   1    2.15    0.23
 -10   3  -1    3.03    0.32
 -10   3  -1    2.53    0.37
  -3  10  -1    2.17    0.37
   3 -10  -1    2.77    0.38
 -10   3  -3    2.86    0.39
  -3  10  -3    2.65    0.40
 -10  -3   3    3.87    0.47
 -10   3  -3    2.95    0.28
  10  -3  -3    4.16    0.42
   3 -10  -3    3.33    0.44
 -10  -3   3    3.23    0.30
 -10  -3   5    7.75    0.64
   3 -10  -5    6.34    0.62
  -3  10  -5    6.79    0.56
  10  -3  -5    7.83    0.62
 -10   3  -5    6.38    0.35
   3 -10  -7    3.96    0.33
  -3  10  -7    3.57    0.43
 -10  -3   7    3.90    0.49
   3 -10  -7    4.62    0.56
  10  -3  -7    4.64    0.54
   3 -10  -9   15.25    1.04
  10  -3  -9   12.53    0.95
   3 -10 -11    0.77    0.36
  10  -3 -11    0.33    0.37
  10  -3 -13    1.49    0.50
   3 -10 -13    1.67    0.48
   3 -10 -15    4.21    0.62
  10  -3 -15    3.99    0.68
   3 -10 -17    1.71    0.52
  10  -3 -17    0.84    0.44
   3 -10 -19    0.43    0.46
  10  -3 -19    0.26    0.41
   3 -10 -21    1.01    0.57
  10  -3 -21    0.78    0.49
  -4 -10 -22    0.89    0.48
  -4 -10 -20    5.69    0.79
  -4 -10 -18    0.32    0.36
 -10  -4 -16    3.22    0.45
  -4 -10 -16    2.65    0.53
  -4 -10 -14   10.14    0.87
 -10  -4 -14   10.28    0.72
  -4 -10 -12    6.98    0.71
 -10  -4 -12    7.36    0.59
  -4 -10 -10   15.46    1.02
  10   4 -10   16.24    0.76
   4 -10  10   15.39    0.71
 -10   4   8   17.78    1.03
  10   4  -8   20.81    0.81
   4  10  -8   19.02    0.73
   4  10  -6    0.77    0.14
 -10   4   6    0.48    0.31
 -10   4   4   27.35    1.24
 -10   4   4   27.35    1.25
 -10   4   2   28.38    1.23
  -4 -10  -2   26.63    1.03
   4 -10   2   25.34    1.10
  -4 -10   0    1.34    0.19
  -4  10   0    1.60    0.31
 -10   4   0    1.42    0.26
   4 -10   0    1.17    0.27
  -4 -10   0    1.25    0.19
 -10   4   0    1.66    0.36
 -10  -4   0    1.17    0.20
 -10  -4   2   27.25    0.96
  10  -4  -2   27.76    1.16
 -10   4  -2   25.89    1.23
  -4  10  -2   27.28    1.22
 -10   4  -2   27.11    1.04
   4 -10  -2   25.80    1.22
 -10  -4   4   27.73    1.26
 -10   4  -4   27.87    0.95
  -4  10  -4   27.06    1.23
   4 -10  -4   25.95    1.28
  10  -4  -4   27.98    1.24
  -4  10  -6    0.73    0.28
 -10  -4   6    0.52    0.32
  10  -4  -6    1.09    0.35
   4 -10  -6    1.06    0.35
   4 -10  -8   18.93    1.12
  10  -4  -8   17.16    1.07
   4 -10 -10   15.74    1.09
  10  -4 -10   13.97    1.02
   4 -10 -12    7.36    0.85
  10  -4 -12    7.44    0.79
   4 -10 -14   11.36    1.00
  10  -4 -14   10.70    1.00
  10  -4 -16    2.98    0.64
   4 -10 -16    3.69    0.68
  10  -4 -18    1.43    0.56
   4 -10 -18    0.91    0.48
  10  -4 -20    4.07    0.76
   4 -10 -20    4.64    0.77
  10  -4 -22    1.30    0.57
   4 -10 -22    1.51    0.58
  -5 -10 -23    0.53    0.42
  -5 -10 -21    0.19    0.39
  -5 -10 -19    2.80    0.55
  -5 -10 -17    8.01    0.85
 -10  -5 -17    5.88    0.63
  -5 -10 -15    0.47    0.33
 -10  -5 -15    1.01    0.30
  -5 -10 -13   15.89    1.09
 -10  -5 -13   16.44    0.96
  -5 -10 -11   17.45    1.11
  10   5  -9   10.92    0.53
   5  10  -9   10.21    0.46
 -10   5   7   21.54    1.06
   5  10  -7   18.69    0.61
 -10   5   5   31.36    1.37
   5 -10   3    1.48    0.27
 -10   5   3    1.31    0.37
 -10   5   3    1.12    0.31
  -5  10   1   34.07    1.11
 -10   5   1   36.69    1.53
  -5 -10  -1   35.32    1.18
   5 -10   1   33.29    1.35
  -5 -10  -1   33.81    1.15
  -5  10   1   34.37    1.47
  -5  10  -1   34.65    1.44
 -10   5  -1   36.58    1.46
 -10  -5   1   34.73    1.08
   5 -10  -1   34.59    1.39
  -5 -10   1   33.91    1.16
  -5 -10   1   28.41    0.99
  10  -5  -1   34.99    1.29
 -10   5  -1   34.78    1.25
  10  -5  -3    1.72    0.33
 -10   5  -3    1.00    0.32
 -10  -5   3    1.27    0.33
  -5  10  -3    1.67    0.37
 -10   5  -3    1.69    0.21
   5 -10  -3    1.48    0.36
   5 -10  -5   30.73    1.46
  -5  10  -5   31.01    1.38
 -10  -5   5   33.46    1.43
  10  -5  -5   30.56    1.40
 -10  -5   7   19.72    1.10
  -5  10  -7   19.26    1.05
   5 -10  -7   20.32    1.21
  10  -5  -7   20.72    1.15
   5 -10  -9   11.00    0.93
  10  -5  -9   10.85    0.89
   5 -10 -11   20.66    1.30
  10  -5 -11   15.96    1.15
   5 -10 -13   15.50    1.21
  10  -5 -13   15.73    1.18
   5 -10 -15    1.50    0.53
  10  -5 -15    1.21    0.48
   5 -10 -17    9.60    1.06
  10  -5 -17    7.02    0.89
  10  -5 -19    3.76    0.74
   5 -10 -19    4.39    0.80
   5 -10 -21   -0.08    0.48
  10  -5 -21    0.14    0.50
  -6 -10 -22    0.87    0.51
  -6 -10 -20    2.50    0.60
 -10  -6 -18    1.96    0.43
  -6 -10 -18    1.98    0.49
  -6 -10 -16    2.71    0.52
 -10  -6 -16    1.75    0.40
 -10  -6 -14    3.13    0.46
  -6 -10 -14    3.73    0.55
 -10  -6 -12   13.44    0.90
  -6 -10 -12   13.06    0.99
   6  10 -10    5.14    0.29
   6 -10   8    7.73    0.42
 -10   6   6    4.16    0.52
   6 -10   6    4.94    0.37
 -10   6   4   17.28    0.94
   6 -10   4   17.77    0.80
 -10   6   4   16.22    0.99
  -6  10   2   13.43    0.62
   6 -10   2   14.70    0.77
  -6  10   2   13.62    0.88
 -10   6   2   13.69    0.89
  -6  10   0   11.97    0.83
 -10   6   0   12.74    0.85
   6 -10   0   12.28    0.74
  10  -6   0   12.70    0.68
  -6 -10   0   11.95    0.64
  -6 -10   0   10.87    0.47
 -10  -6   2   14.14    0.82
   6 -10  -2   14.22    0.87
  10  -6  -2   12.86    0.76
 -10   6  -2   13.86    0.63
 -10   6  -2   13.19    0.88
  -6  10  -2   14.11    0.89
 -10  -6   2   12.01    0.48
  -6 -10   2   13.25    0.68
 -10  -6   4   18.11    0.99
 -10   6  -4   16.80    0.99
   6 -10  -4   16.36    1.00
  -6  10  -4   18.35    1.02
  10  -6  -4   16.06    0.95
  -6  10  -6    3.72    0.53
  10  -6  -6    4.02    0.54
 -10  -6   6    4.16    0.55
   6 -10  -6    4.38    0.59
  10  -6  -8    6.93    0.72
   6 -10  -8    6.23    0.71
  -6  10  -8    6.11    0.62
  10  -6 -10    7.30    0.78
   6 -10 -10    5.91    0.72
   6 -10 -12   13.48    1.10
  10  -6 -12   11.89    1.05
  10  -6 -14    3.23    0.60
   6 -10 -14    4.33    0.70
  10  -6 -16    2.44    0.59
   6 -10 -16    3.40    0.67
   6 -10 -18    2.45    0.69
  10  -6 -18    1.75    0.62
  10  -6 -20    2.28    0.64
   6 -10 -20    1.96    0.55
  -7 -10 -23   -0.26    0.44
  -7 -10 -21   -0.25    0.41
 -10  -7 -19   -0.27    0.37
  -7 -10 -19    0.90    0.50
 -10  -7 -17    2.86    0.49
  -7 -10 -17    2.29    0.53
  -7 -10 -15    1.13    0.42
 -10  -7 -15    0.79    0.30
  -7 -10 -13    3.44    0.56
 -10  -7 -13    5.40    0.60
  -7 -10 -11    3.28    0.52
 -10   7   7    9.57    0.71
   7 -10   7    9.67    0.47
 -10   7   5    2.51    0.42
   7 -10   5    1.74    0.25
 -10   7   3    1.85    0.43
  -7  10   3    1.96    0.30
 -10   7   3    1.09    0.32
   7 -10   3    1.27    0.27
  -7  10   3    0.79    0.34
  10  -7   3    1.92    0.21
  10  -7   1    2.15    0.29
  -7  10   1    1.71    0.44
 -10   7   1    2.11    0.47
   7 -10   1    2.01    0.34
  -7  10  -1    2.17    0.48
  10  -7  -1    1.56    0.32
  -7 -10   1    2.00    0.34
   7 -10  -1    2.06    0.39
 -10  -7   1    1.45    0.14
 -10   7  -1    1.87    0.42
 -10   7  -1    1.60    0.24
  -7 -10   3    0.69    0.25
  -7  10  -3    1.29    0.38
 -10   7  -3    1.56    0.40
 -10  -7   3    0.61    0.31
   7 -10  -3    1.46    0.37
  10  -7  -3    1.58    0.37
 -10  -7   5    2.03    0.42
  -7  10  -5    1.78    0.44
 -10   7  -5    0.98    0.37
  10  -7  -5    1.55    0.43
   7 -10  -5    1.57    0.40
   7 -10  -7   10.96    0.90
  -7  10  -7   10.30    0.80
  10  -7  -7    8.72    0.83
  10  -7  -9    3.32    0.59
   7 -10  -9    3.67    0.64
  10  -7 -11    2.39    0.55
   7 -10 -11    3.52    0.64
   7 -10 -13    4.24    0.72
  10  -7 -13    4.24    0.69
  10  -7 -15    0.82    0.46
   7 -10 -15    1.40    0.53
  10  -7 -17    4.00    0.77
   7 -10 -17    3.06    0.72
  10  -7 -19   -0.85    0.47
   7 -10 -19   -0.02    0.49
   7 -10 -21   -0.02    0.53
  10  -7 -21    0.67    0.54
  -8 -10 -22    1.47    0.55
  -8 -10 -20    0.95    0.43
 -10  -8 -18    1.97    0.48
  -8 -10 -18    1.61    0.52
  -8 -10 -16    0.19    0.36
 -10  -8 -16    0.15    0.30
  -8 -10 -14    2.64    0.51
 -10  -8 -14    2.48    0.47
  -8 -10 -12    3.54    0.56
 -10   8   6    0.35    0.28
   8 -10   6    0.45    0.15
 -10   8   4    4.17    0.57
  -8  10   4    3.79    0.40
   8 -10   4    3.88    0.36
 -10   8   4    3.62    0.46
  10  -8   4    3.89    0.26
  10  -8   2    2.30    0.29
  -8  10   2    2.72    0.47
   8 -10   2    2.27    0.34
 -10   8   2    2.82    0.49
  -8  10   2    2.90    0.35
 -10   8   0    5.02    0.63
  10  -8   0    5.56    0.48
  -8 -10   0    6.09    0.50
   8 -10   0    4.39    0.49
  -8  10   0    5.89    0.63
  10  -8  -2    2.08    0.39
  -8  10  -2    2.43    0.50
  -8 -10   2    3.45    0.42
   8 -10  -2    2.80    0.45
 -10  -8   2    2.66    0.42
 -10   8  -2    2.79    0.51
  -8  10  -4    2.62    0.49
  10  -8  -4    3.91    0.52
 -10  -8   4    3.85    0.50
   8 -10  -4    2.92    0.51
 -10   8  -4    4.06    0.55
 -10   8  -6    0.01    0.38
 -10  -8   6    0.61    0.33
  10  -8  -6    0.11    0.36
   8 -10  -6    0.28    0.40
  -8  10  -6    0.21    0.35
  10  -8  -8    5.73    0.72
   8 -10  -8    5.02    0.71
  -8  10  -8    5.42    0.61
  10  -8 -10    4.48    0.68
   8 -10 -10    4.59    0.71
  10  -8 -12    4.66    0.72
   8 -10 -12    4.11    0.71
  10  -8 -14    2.38    0.64
   8 -10 -14    2.08    0.60
  10  -8 -16   -0.37    0.44
   8 -10 -16    0.29    0.48
  10  -8 -18    1.71    0.60
   8 -10 -18    2.26    0.66
  10  -8 -20    1.44    0.58
   8 -10 -20    1.47    0.57
  -9 -10 -21    0.57    0.41
 -10  -9 -19    1.41    0.46
  -9 -10 -19    1.42    0.49
  -9 -10 -17    1.18    0.43
 -10  -9 -17    1.27    0.39
  -9 -10 -15    2.59    0.51
 -10  -9 -15    1.32    0.36
 -10  -9 -13    0.69    0.33
  -9 -10 -13    0.36    0.31
 -10   9   5    7.31    0.61
   9 -10   5    7.26    0.40
  -9  10   5    7.72    0.56
  10  -9   5    6.49    0.30
   9 -10   3    8.26    0.55
  -9  10   3    7.80    0.75
  -9  10   3    8.05    0.59
 -10   9   3    7.99    0.62
 -10   9   3    8.55    0.77
  10  -9   3    8.18    0.48
   9 -10   1    9.38    0.65
  -9  10   1   10.12    0.85
 -10   9   1    8.95    0.78
  10  -9   1    9.12    0.61
   9 -10  -1    8.16    0.69
  -9  10  -1    9.95    0.82
 -10   9  -1    8.40    0.78
  -9 -10   1    8.75    0.64
  10  -9  -1    9.29    0.68
 -10  -9   1    8.77    0.68
   9 -10  -3    6.99    0.70
  -9 -10   3    7.87    0.64
  10  -9  -3    7.18    0.66
  -9  10  -3    7.77    0.74
 -10   9  -3    7.86    0.75
 -10  -9   3    8.67    0.69
   9 -10  -5    6.77    0.73
  10  -9  -5    5.98    0.65
 -10  -9   5    7.31    0.66
 -10   9  -5    6.92    0.70
  -9  10  -5    7.90    0.75
  10  -9  -7    5.62    0.70
  -9  10  -7    5.01    0.65
   9 -10  -7    7.15    0.79
 -10   9  -7    5.34    0.62
  10  -9  -9    0.30    0.39
  -9  10  -9    0.43    0.37
   9 -10  -9    0.33    0.39
  10  -9 -11    3.42    0.60
   9 -10 -11    3.31    0.64
  10  -9 -13    0.71    0.45
   9 -10 -13   -0.01    0.46
   9 -10 -15    2.65    0.64
  10  -9 -15    3.16    0.70
  10  -9 -17    1.81    0.58
   9 -10 -17    1.14    0.55
  10  -9 -19    0.68    0.53
   9 -10 -19    2.37    0.67
 -10 -10 -20    2.27    0.58
 -10 -10 -18    0.38    0.38
 -10 -10 -16    5.90    0.71
 -10 -10 -14    8.23    0.82
 -10  10   6    1.89    0.35
 -10  10   4   18.04    0.94
  10 -10   4   17.76    0.74
 -10  10   4   16.00    1.09
 -10  10   2   25.93    1.16
 -10  10   2   23.16    1.33
  10 -10   2   24.82    1.07
  10 -10   0   66.60    2.35
 -10  10   0   70.16    2.60
 -10 -10   0   69.10    2.38
  10 -10  -2   23.51    1.26
 -10 -10   2   28.83    1.29
 -10  10  -2   26.62    1.40
 -10 -10   4   17.32    1.01
 -10  10  -4   18.71    1.15
  10 -10  -4   16.99    1.11
  10 -10  -6    2.76    0.54
 -10  10  -6    3.18    0.58
 -10  10  -8   13.22    0.97
  10 -10  -8   14.18    1.11
  10 -10 -10   19.24    1.35
  10 -10 -12    0.02    0.47
  10 -10 -14    7.37    0.92
  10 -10 -16    6.89    0.97
  10 -10 -18    1.20    0.62
 -11   0   1    7.50    0.54
 -11   0  -1    7.52    0.55
   0  11  -3    1.24    0.14
   0  11  -3    1.66    0.28
 -11   0   3    1.32    0.30
   0 -11  -5   12.94    0.87
   0  11  -5   13.81    0.73
 -11   0   5   14.05    0.90
 -11   0   7   13.31    0.90
   0 -11  -7   12.55    0.89
   0  11  -7   12.63    0.72
   0  11  -9   14.01    0.78
   0 -11  -9   14.85    1.00
 -11   0 -11    4.37    0.34
   0 -11 -11    3.87    0.56
   0 -11 -13    2.24    0.55
   0 -11 -15   14.85    1.14
   0 -11 -17    0.41    0.40
   0 -11 -19    2.10    0.56
   0 -11 -21    1.11    0.58
  -1 -11 -22    3.12    0.69
  -1 -11 -20    2.59    0.61
  -1 -11 -18    0.00    0.45
  -1 -11 -16    1.39    0.47
  -1 -11 -14    8.07    0.83
  -1 -11 -12    3.80    0.58
 -11  -1 -12    3.65    0.35
  -1 -11 -10   15.74    1.06
 -11   1   8    2.15    0.45
   1  11  -8    2.91    0.35
  -1 -11  -8    2.63    0.47
  -1 -11  -6    0.09    0.28
   1  11  -6    0.70    0.22
 -11   1   6    0.93    0.35
   1  11  -6    0.78    0.24
   1  11  -4   13.55    0.58
 -11   1   4   14.94    0.90
   1  11  -4   14.05    0.70
 -11   1   4   14.87    0.81
 -11   1   2   12.39    0.74
 -11  -1   0   18.43    0.86
 -11   1   0   18.44    0.93
 -11  -1   2   12.95    0.67
 -11   1  -2   12.57    0.71
  -1  11  -2   12.35    0.68
  -1  11  -4   13.37    0.75
 -11  -1   4   13.72    0.87
   1 -11  -4   12.88    0.87
 -11  -1   4   13.56    0.71
 -11   1  -4   13.97    0.64
  -1  11  -6    0.07    0.25
   1 -11  -6    0.50    0.11
   1 -11  -6   -0.04    0.29
   1 -11  -8    2.51    0.46
 -11  -1   8    3.10    0.50
  -1  11  -8    2.36    0.36
   1 -11  -8    2.46    0.26
   1 -11 -10   14.12    1.02
 -11   1 -10   14.16    0.60
  11  -1 -12    3.46    0.59
   1 -11 -12    2.77    0.52
   1 -11 -14    8.62    0.89
  11  -1 -14    8.85    0.89
   1 -11 -16    0.47    0.41
  11  -1 -16    0.77    0.41
   1 -11 -18    0.78    0.49
  11  -1 -18    0.54    0.44
   1 -11 -20    4.00    0.79
   1 -11 -22    1.88    0.62
  -2 -11 -21   -0.16    0.44
  -2 -11 -19    4.07    0.69
  -2 -11 -17    0.49    0.43
  -2 -11 -15    3.77    0.60
  -2 -11 -13    2.17    0.49
 -11  -2 -13    2.85    0.34
  -2 -11 -11   13.49    1.00
 -11  -2 -11   13.67    0.75
   2  11  -9    1.50    0.28
  -2 -11  -9    2.18    0.47
  -2 -11  -7    0.64    0.29
   2  11  -7    0.93    0.23
 -11   2   7    0.74    0.37
   2  11  -5   22.11    0.88
 -11   2   5   24.02    1.18
   2  11  -5   23.29    0.91
 -11   2   5   24.03    1.10
 -11   2   3    4.22    0.47
 -11  -2  -1    9.09    0.56
 -11   2   1    8.48    0.63
  -2 -11   1    8.17    0.50
 -11  -2   1    9.26    0.55
 -11   2  -1    9.49    0.67
  -2  11  -1    9.05    0.63
 -11  -2   3    3.59    0.37
 -11  -2   3    4.31    0.52
  -2  11  -3    4.18    0.46
 -11   2  -3    4.01    0.33
   2 -11  -3    3.11    0.45
 -11  -2   5   24.18    1.19
 -11   2  -5   22.83    0.86
   2 -11  -5   22.40    1.19
  -2  11  -5   23.14    1.07
 -11   2  -7    0.69    0.13
 -11  -2   7    0.91    0.38
   2 -11  -7    0.81    0.17
  -2  11  -7    0.43    0.29
   2 -11  -7    0.32    0.29
  11  -2  -7    1.42    0.38
   2 -11  -9    1.80    0.27
  11  -2  -9    1.62    0.45
   2 -11  -9    1.98    0.44
 -11   2  -9    1.19    0.14
   2 -11 -11   12.68    0.97
  11  -2 -11   13.02    1.00
  11  -2 -13    2.01    0.52
   2 -11 -13    2.65    0.55
  11  -2 -15    4.26    0.67
   2 -11 -15    2.80    0.55
   2 -11 -17    0.45    0.44
  11  -2 -17    0.41    0.47
   2 -11 -19    3.80    0.76
  11  -2 -19    3.94    0.72
   2 -11 -21    0.62    0.61
  11  -2 -21    0.53    0.49
  -3 -11 -22    0.63    0.50
  -3 -11 -20    0.28    0.43
  -3 -11 -18    1.53    0.48
  -3 -11 -16    1.87    0.49
  -3 -11 -14    0.89    0.40
 -11  -3 -14    0.90    0.26
  -3 -11 -12    4.82    0.65
 -11  -3 -12    3.97    0.43
  -3 -11 -10    5.83    0.67
  -3 -11  -8    4.45    0.56
 -11   3   8    4.55    0.57
  11   3  -8    4.88    0.41
   3  11  -8    6.09    0.40
 -11   3   6    8.44    0.71
   3  11  -6    8.21    0.45
 -11   3   4   14.68    0.90
 -11   3   4   14.45    0.85
 -11   3   2   10.73    0.74
  -3 -11  -2   10.29    0.39
 -11   3   0   19.61    1.01
  -3 -11   0   17.33    0.78
  -3  11   0   20.83    1.02
 -11  -3   0   20.33    0.85
 -11   3  -2    9.91    0.59
 -11  -3   2   11.22    0.58
 -11   3  -2   10.45    0.72
   3 -11  -2   10.46    0.74
  -3  11  -2    9.94    0.70
  -3  11  -4   12.95    0.80
 -11  -3   4   13.95    0.88
 -11   3  -4   12.99    0.62
   3 -11  -4   13.49    0.89
 -11   3  -6    7.55    0.39
 -11  -3   6    7.70    0.70
   3 -11  -6    8.21    0.72
  -3  11  -6    8.58    0.65
  11  -3  -6    9.00    0.72
 -11  -3   8    4.77    0.58
   3 -11  -8    4.13    0.36
   3 -11  -8    5.38    0.63
  11  -3  -8    4.97    0.60
  -3  11  -8    4.65    0.51
  11  -3 -10    5.54    0.67
   3 -11 -10    7.46    0.75
   3 -11 -12    3.68    0.57
  11  -3 -12    4.36    0.63
   3 -11 -14    0.45    0.40
  11  -3 -14    0.40    0.38
  11  -3 -16    1.33    0.50
   3 -11 -16    2.18    0.58
  11  -3 -18    2.56    0.66
   3 -11 -18    2.18    0.59
   3 -11 -20    0.16    0.49
  11  -3 -20    0.41    0.45
  -4 -11 -21   -0.30    0.48
  -4 -11 -19    4.27    0.69
  -4 -11 -17    3.32    0.62
  -4 -11 -15    0.42    0.38
 -11  -4 -15    0.72    0.31
  -4 -11 -13   11.13    0.92
 -11  -4 -13   11.74    0.77
  -4 -11 -11    9.42    0.82
   4  11  -9    0.88    0.21
  -4 -11  -9    0.79    0.39
 -11   4   7   23.86    1.19
   4  11  -7   22.65    0.81
 -11   4   5   37.61    1.60
 -11   4   5   37.60    1.57
 -11   4   3    7.32    0.66
  -4  11   1   25.41    0.83
 -11   4   1   30.06    1.34
  -4 -11  -1   29.43    0.93
   4 -11   1   29.70    1.23
  -4  11   1   27.02    1.26
  -4 -11  -1   28.42    1.04
  -4 -11   1   26.60    0.98
 -11   4  -1   28.44    1.19
 -11  -4   1   30.27    1.07
 -11   4  -1   31.06    1.35
   4 -11  -1   30.29    1.31
  -4  11  -1   33.58    1.38
  -4  11  -3    7.00    0.62
 -11   4  -3    6.92    0.46
 -11  -4   3    7.10    0.63
   4 -11  -3    7.94    0.68
 -11   4  -3    6.90    0.63
 -11  -4   3    6.69    0.42
  11  -4  -3    7.54    0.59
 -11  -4   5   39.31    1.63
  -4  11  -5   36.81    1.53
   4 -11  -5   38.48    1.66
  11  -4  -5   39.89    1.62
 -11   4  -5   35.47    1.16
 -11  -4   7   22.44    1.20
   4 -11  -7   23.23    1.29
  11  -4  -7   23.66    1.26
  -4  11  -7   22.16    1.14
  -4  11  -9   -0.24    0.35
   4 -11  -9    0.34    0.37
  11  -4 -11    9.58    0.90
   4 -11 -11    8.76    0.88
   4 -11 -13   10.69    1.02
  11  -4 -13   10.55    0.97
  11  -4 -15    0.44    0.45
   4 -11 -15    0.34    0.43
  11  -4 -17    3.57    0.69
   4 -11 -17    4.05    0.74
   4 -11 -19    4.48    0.79
  11  -4 -19    5.24    0.81
  11  -4 -21    0.10    0.44
   4 -11 -21    0.40    0.51
  -5 -11 -22    3.13    0.72
  -5 -11 -20    5.20    0.78
  -5 -11 -18    0.39    0.41
  -5 -11 -16    8.36    0.88
 -11  -5 -16    9.26    0.76
  -5 -11 -14    7.40    0.80
 -11  -5 -14    9.38    0.72
 -11  -5 -12    3.43    0.47
  -5 -11 -12    3.27    0.56
  -5 -11 -10   21.64    1.26
   5  11 -10   19.09    0.74
 -11   5   8   18.74    1.07
   5  11  -8   17.08    0.61
 -11   5   6    2.12    0.43
 -11   5   4   46.88    1.81
   5 -11   4   47.50    1.66
 -11   5   4   44.97    1.84
  -5  11   2   37.86    1.22
  -5 -11  -2   41.26    1.32
   5 -11   2   42.00    1.53
  -5  11   2   40.98    1.67
  -5 -11  -2   37.83    1.37
 -11   5   2   42.15    1.69
 -11  -5   0    0.59    0.17
  -5 -11   0    0.51    0.20
  -5  11   0    0.98    0.39
 -11   5   0    0.36    0.32
  -5 -11   0    0.49    0.17
   5 -11   0    0.45    0.27
 -11   5  -2   40.38    1.43
  -5  11  -2   40.45    1.70
   5 -11  -2   40.77    1.68
 -11  -5   2   41.53    1.65
 -11   5  -2   41.25    1.69
  11  -5  -2   43.15    1.60
 -11  -5   2   40.34    1.30
  -5  11  -4   42.60    1.74
 -11  -5   4   45.00    1.77
 -11   5  -4   44.98    1.78
 -11   5  -4   41.85    1.34
   5 -11  -4   44.37    1.82
  11  -5  -4   45.20    1.75
  11  -5  -6    2.03    0.44
 -11  -5   6    1.21    0.40
  -5  11  -6    1.96    0.44
   5 -11  -6    2.01    0.42
   5 -11  -8   19.86    1.21
  11  -5  -8   17.94    1.14
  -5  11  -8   17.12    1.01
   5 -11 -10   21.29    1.32
  11  -5 -10   17.74    1.19
   5 -11 -12    2.53    0.56
  11  -5 -12    2.37    0.60
   5 -11 -14    9.49    1.00
  11  -5 -14    8.74    0.92
  11  -5 -16    8.18    0.94
   5 -11 -16    9.22    1.03
  11  -5 -18    0.32    0.52
   5 -11 -18    0.56    0.54
  11  -5 -20    6.13    0.92
   5 -11 -20    6.30    0.90
  -6 -11 -21   -0.06    0.41
  -6 -11 -19    4.10    0.70
 -11  -6 -17    3.20    0.48
  -6 -11 -17    3.88    0.64
  -6 -11 -15    1.20    0.42
 -11  -6 -15    1.18    0.31
  -6 -11 -13    8.28    0.82
 -11  -6 -13    8.00    0.72
  -6 -11 -11   13.85    1.02
 -11   6   7   12.54    0.87
   6 -11   7   13.79    0.66
 -11   6   5   20.33    1.08
   6 -11   5   20.18    0.88
 -11   6   5   17.40    1.08
 -11   6   3    0.25    0.32
 -11   6   3    0.05    0.29
   6 -11   3    0.12    0.21
 -11   6   1   14.55    0.95
  -6 -11  -1   14.46    0.69
  -6  11   1   14.13    0.62
   6 -11   1   14.78    0.84
  -6  11   1   14.72    0.93
  -6 -11  -1   13.41    0.61
  -6 -11   1   14.59    0.73
 -11  -6   1   14.58    0.59
 -11   6  -1   14.05    0.94
   6 -11  -1   14.99    0.90
 -11   6  -1   14.52    0.75
  11  -6  -1   15.50    0.81
  -6  11  -1   15.82    0.97
  11  -6  -3    0.44    0.27
 -11   6  -3    0.23    0.34
  -6  11  -3    0.18    0.33
 -11  -6   3    0.43    0.32
   6 -11  -3    0.21    0.29
 -11   6  -3    0.31    0.14
 -11  -6   5   18.69    1.09
   6 -11  -5   20.33    1.17
 -11   6  -5   17.35    1.05
  -6  11  -5   18.78    1.10
  11  -6  -5   18.50    1.09
  -6  11  -7   13.04    0.91
   6 -11  -7   13.45    1.02
  11  -6  -7   13.10    0.95
 -11  -6   7   12.95    0.93
  11  -6  -9    3.64    0.60
   6 -11  -9    4.28    0.64
  -6  11  -9    5.28    0.61
   6 -11 -11   14.12    1.12
  11  -6 -11   11.25    0.99
  11  -6 -13    7.94    0.89
   6 -11 -13    8.76    0.97
  11  -6 -15    0.97    0.47
   6 -11 -15    0.85    0.53
  11  -6 -17    2.98    0.66
   6 -11 -17    4.35    0.75
   6 -11 -19    3.86    0.81
  11  -6 -19    4.78    0.82
  -7 -11 -22    0.34    0.44
  -7 -11 -20    0.42    0.41
  -7 -11 -18    0.79    0.41
  -7 -11 -16    0.24    0.37
 -11  -7 -16    0.03    0.31
  -7 -11 -14    1.07    0.42
 -11  -7 -14    1.58    0.35
  -7 -11 -12    2.44    0.50
   7 -11   8    1.00    0.18
 -11   7   6    0.32    0.36
   7 -11   6   -0.09    0.18
 -11   7   4    0.66    0.36
 -11   7   4    1.54    0.41
   7 -11   4    1.11    0.27
  -7  11   2    2.40    0.45
  -7  11   2    2.77    0.32
 -11   7   2    2.85    0.54
   7 -11   2    2.06    0.34
 -11   7   0    2.85    0.54
  -7 -11   0    1.95    0.18
  -7 -11   0    2.74    0.35
  -7  11   0    2.95    0.52
   7 -11   0    3.08    0.43
 -11  -7   0    2.64    0.23
  11  -7   0    3.49    0.40
  -7  11  -2    1.89    0.46
  11  -7  -2    2.51    0.39
   7 -11  -2    2.18    0.43
 -11  -7   2    2.54    0.45
 -11  -7   2    2.02    0.16
  -7 -11   2    2.40    0.34
 -11   7  -2    2.31    0.48
 -11   7  -2    2.39    0.28
  11  -7  -4    1.12    0.35
 -11  -7   4    1.42    0.43
   7 -11  -4    1.27    0.42
 -11   7  -4    1.25    0.39
  -7  11  -4    1.69    0.45
  11  -7  -6    0.34    0.36
 -11  -7   6    0.10    0.38
  -7  11  -6    0.92    0.45
 -11   7  -6   -0.21    0.35
   7 -11  -6   -0.16    0.37
  11  -7  -8    0.62    0.39
   7 -11  -8    0.90    0.43
  -7  11  -8    1.27    0.43
  11  -7 -10    3.82    0.62
   7 -11 -10    4.32    0.69
  11  -7 -12    2.28    0.54
   7 -11 -12    3.29    0.69
   7 -11 -14    1.98    0.60
  11  -7 -14    1.91    0.63
  11  -7 -16   -0.74    0.50
   7 -11 -16    1.15    0.53
  11  -7 -18    0.92    0.52
   7 -11 -18    0.88    0.54
   7 -11 -20    1.40    0.62
  11  -7 -20    1.38    0.57
  -8 -11 -21    0.74    0.47
  -8 -11 -19    2.66    0.60
  -8 -11 -17    0.71    0.42
 -11  -8 -17    1.52    0.44
  -8 -11 -15    2.50    0.53
 -11  -8 -15    2.72    0.50
 -11  -8 -13    0.21    0.30
  -8 -11 -13    0.67    0.36
 -11   8   7    1.45    0.38
 -11   8   5   12.19    0.83
   8 -11   5   11.47    0.62
 -11   8   3    8.20    0.66
  -8  11   3    7.22    0.50
  -8  11   3    6.53    0.66
   8 -11   3    7.08    0.55
 -11   8   3    7.73    0.75
  -8 -11  -1   10.19    0.65
   8 -11   1   10.48    0.72
  -8  11   1    9.38    0.58
  11  -8   1    9.73    0.60
  -8  11   1    9.38    0.79
 -11   8   1    9.60    0.82
 -11   8  -1   10.58    0.86
  -8 -11   1   10.22    0.65
   8 -11  -1    9.25    0.73
 -11  -8   1    9.30    0.72
  -8  11  -1    9.25    0.81
  11  -8  -1    8.25    0.61
 -11  -8   1    7.58    0.33
  -8 -11   3    7.79    0.60
 -11  -8   3    8.21    0.70
  -8  11  -3    7.76    0.73
   8 -11  -3    6.81    0.69
  11  -8  -3    7.49    0.66
 -11   8  -3    6.40    0.69
 -11  -8   5   13.41    0.90
   8 -11  -5   13.49    1.01
  11  -8  -5   12.14    0.90
  -8  11  -5   12.92    0.92
 -11   8  -5   13.33    0.94
  11  -8  -7    1.21    0.44
   8 -11  -7    1.71    0.50
 -11   8  -7    1.71    0.45
  -8  11  -7    2.22    0.48
  11  -8  -9    1.81    0.52
  -8  11  -9    1.71    0.46
   8 -11  -9    2.25    0.60
  11  -8 -11    1.59    0.50
   8 -11 -11    1.72    0.52
  11  -8 -13    0.57    0.48
   8 -11 -13    0.62    0.51
  11  -8 -15    3.90    0.71
   8 -11 -15    3.12    0.68
   8 -11 -17    0.17    0.48
  11  -8 -17    1.16    0.54
  11  -8 -19    2.85    0.70
   8 -11 -19    2.86    0.74
  -9 -11 -22    3.42    0.71
  -9 -11 -20    1.79    0.59
  -9 -11 -18    0.44    0.40
 -11  -9 -18   -0.15    0.35
 -11  -9 -16    0.53    0.37
  -9 -11 -16    0.81    0.38
  -9 -11 -14    3.35    0.60
 -11  -9 -14    5.41    0.66
  -9 -11 -12    1.20    0.46
 -11   9   6    7.08    0.64
  -9  11   4    0.75    0.26
   9 -11   4    0.45    0.21
 -11   9   4    0.61    0.36
   9 -11   2    9.44    0.65
  -9  11   2    8.32    0.59
  -9  11   2    7.66    0.76
  11  -9   2    9.16    0.54
 -11   9   2    9.03    0.68
 -11   9   2    8.24    0.80
 -11   9   0   42.53    1.87
   9 -11   0   39.20    1.70
  -9 -11   0   42.36    1.62
  11  -9   0   41.84    1.59
  -9  11   0   42.96    1.88
  -9  11  -2    9.91    0.88
  -9 -11   2   10.30    0.73
   9 -11  -2    8.56    0.75
 -11  -9   2    9.72    0.75
 -11   9  -2    8.93    0.82
  11  -9  -2    9.19    0.72
 -11   9  -4    0.69    0.44
  11  -9  -4    0.12    0.33
 -11  -9   4    0.60    0.35
   9 -11  -4    0.31    0.35
  -9  11  -4    0.49    0.39
  11  -9  -6    6.90    0.75
 -11  -9   6    7.24    0.71
  -9  11  -6    6.45    0.71
   9 -11  -6    7.00    0.79
 -11   9  -6    6.92    0.73
   9 -11  -8    9.71    0.93
  -9  11  -8    8.88    0.78
 -11   9  -8    9.08    0.82
  11  -9  -8    9.57    0.89
   9 -11 -10    6.74    0.85
  11  -9 -10    6.78    0.84
  -9  11 -10    6.63    0.71
  11  -9 -12    1.47    0.51
   9 -11 -12    0.76    0.50
  11  -9 -14    5.10    0.83
   9 -11 -14    3.71    0.70
  11  -9 -16    1.25    0.61
   9 -11 -16    0.26    0.46
  11  -9 -18    0.10    0.54
   9 -11 -18    0.48    0.52
 -10 -11 -21    0.02    0.43
 -11 -10 -19    8.10    0.89
 -10 -11 -19    7.05    0.88
 -10 -11 -17    5.45    0.75
 -11 -10 -17    6.40    0.79
 -10 -11 -15    7.03    0.80
 -11 -10 -15    6.02    0.72
 -11 -10 -13    8.12    0.81
 -10 -11 -13    8.75    0.86
 -10  11   5   33.33    1.40
 -11  10   5   34.36    1.47
  10 -11   3    5.98    0.49
 -10  11   3    5.03    0.67
 -11  10   3    6.44    0.71
  11 -10   3    6.69    0.45
 -10  11   3    6.27    0.53
 -11  10   3    5.83    0.56
 -10  11   1   32.07    1.61
  10 -11   1   32.26    1.38
 -10 -11  -1   33.34    1.41
 -11  10   1   32.75    1.64
  11 -10   1   32.09    1.32
 -10  11  -1   33.00    1.60
 -11  10  -1   33.90    1.65
 -10 -11   1   33.14    1.43
 -11 -10   1   31.93    1.44
  10 -11  -1   30.18    1.46
  11 -10  -1   32.41    1.45
  10 -11  -3    5.62    0.65
 -10 -11   3    6.14    0.59
 -11 -10   3    6.62    0.65
 -10  11  -3    6.41    0.73
 -11  10  -3    5.61    0.70
  11 -10  -3    6.70    0.68
  11 -10  -5   34.91    1.72
  10 -11  -5   33.49    1.72
 -11 -10   5   35.43    1.60
 -10  11  -5   35.47    1.70
 -11  10  -5   34.76    1.70
  10 -11  -7   16.95    1.21
  11 -10  -7   13.50    1.10
 -10  11  -7   16.10    1.08
 -11  10  -7   15.66    1.08
 -11  10  -9   -0.09    0.36
  11 -10  -9   -0.75    0.48
  10 -11  -9    0.20    0.43
 -10  11  -9   -0.63    0.42
  10 -11 -11   14.35    1.22
 -10  11 -11   13.26    1.02
  11 -10 -11   13.88    1.21
  11 -10 -13    8.83    1.01
  10 -11 -13    7.64    0.93
  11 -10 -15    7.07    0.98
  10 -11 -15    7.21    0.95
  10 -11 -17    5.34    0.88
  11 -10 -17    6.17    0.95
 -11 -11 -20    6.73    0.87
 -11 -11 -18    0.17    0.39
 -11 -11 -16    6.38    0.78
 -11 -11 -14   14.47    1.15
 -11  11   6    3.90    0.49
 -11  11   4   25.32    1.20
 -11  11   2   19.49    1.04
 -11  11   2   20.53    1.27
  11 -11   2   20.74    0.98
 -11 -11   0   34.91    1.53
 -11  11   0   36.20    1.75
  11 -11   0   35.40    1.52
  11 -11  -2   18.87    1.14
 -11  11  -2   21.32    1.34
 -11 -11   2   22.90    1.19
  11 -11  -4   20.55    1.25
 -11 -11   4   23.21    1.23
 -11  11  -4   21.55    1.30
 -11  11  -6    3.59    0.58
  11 -11  -6    2.67    0.53
  11 -11  -8   12.87    1.10
 -11  11  -8   16.13    1.11
  11 -11 -10   12.34    1.13
 -11  11 -10   13.10    1.03
  11 -11 -12    0.34    0.48
 -11  11 -12    0.63    0.42
  11 -11 -14   14.66    1.34
  11 -11 -16    9.62    1.13
  11 -11 -18    0.66    0.58
 -12   0   0   91.69    2.88
 -12   0   2    0.04    0.27
 -12   0  -2   -0.43    0.29
   0  12  -2    0.09    0.23
   0  12  -4    8.10    0.40
 -12   0   4    7.60    0.69
 -12   0   4    9.89    0.63
   0  12  -4    8.66    0.59
   0  12  -6   38.26    1.44
 -12   0   6   37.71    1.67
   0 -12  -6   36.93    1.69
   0  12  -8    0.36    0.28
 -12   0   8   -0.22    0.37
   0 -12  -8   -0.11    0.31
   0  12 -10   15.63    0.86
   0 -12 -10   14.33    1.05
   0 -12 -12    2.73    0.56
   0 -12 -14    3.69    0.63
   0 -12 -16    3.40    0.64
   0 -12 -18    1.46    0.55
   0 -12 -20    2.12    0.59
  -1 -12 -21    0.06    0.42
  -1 -12 -19    8.81    1.02
  -1 -12 -17    0.49    0.38
  -1 -12 -15    6.45    0.77
  -1 -12 -13    3.66    0.58
  -1 -12 -11   14.96    1.09
 -12  -1 -11   16.79    0.80
 -12   1   9    3.64    0.56
   1  12  -9    4.62    0.45
  -1 -12  -9    3.16    0.52
 -12   1   7    3.70    0.58
   1  12  -7    3.64    0.38
  -1 -12  -7    2.92    0.49
   1  12  -5   34.85    1.21
 -12   1   5   39.16    1.62
 -12   1   5   37.17    1.47
   1  12  -5   36.64    1.34
 -12   1   3    5.14    0.52
   1  12  -3    4.79    0.42
 -12  -1  -1   26.83    1.14
 -12   1   1   26.19    1.18
 -12  -1   1   25.79    1.10
 -12   1  -1   26.13    1.18
 -12  -1   3    5.49    0.46
  -1  12  -3    5.43    0.48
 -12  -1   3    4.77    0.55
  -1  12  -3    4.02    0.23
  -1  12  -5   37.22    1.43
 -12   1  -5   34.89    1.24
 -12  -1   5   34.82    1.58
   1 -12  -5   36.14    1.63
 -12  -1   7    3.25    0.51
  -1  12  -7    3.20    0.43
   1 -12  -7    3.65    0.51
 -12  -1   9    4.57    0.61
  -1  12  -9    3.56    0.45
   1 -12  -9    3.70    0.57
   1 -12 -11   17.39    1.18
   1 -12 -13    4.83    0.71
   1 -12 -15    4.79    0.70
   1 -12 -17    0.89    0.50
   1 -12 -19    6.34    0.88
   1 -12 -21    0.63    0.53
  -2 -12 -20    3.62    0.71
  -2 -12 -18    5.94    0.81
  -2 -12 -16    0.47    0.38
  -2 -12 -14    2.87    0.57
  -2 -12 -12   10.66    0.93
 -12  -2 -12   10.84    0.68
   2  12 -10    9.74    0.61
  -2 -12 -10    8.87    0.83
  -2 -12  -8    3.12    0.50
 -12   2   8    3.38    0.53
   2  12  -8    3.40    0.35
 -12   2   6   45.50    1.86
   2  12  -6   41.29    1.48
   2  12  -6   46.78    1.52
 -12   2   4    1.51    0.35
 -12   2   4    1.20    0.39
   2  12  -4    0.84    0.22
 -12   2   2    7.18    0.62
 -12   2   0  102.85    3.23
 -12  -2   0  102.10    3.07
   2 -12  -2    6.29    0.61
  -2  12  -2    7.39    0.58
 -12   2  -2    6.82    0.60
 -12  -2   2    6.99    0.51
 -12   2  -4    0.07    0.17
 -12  -2   4    0.35    0.21
 -12  -2   4    0.25    0.33
   2 -12  -4    0.70    0.30
  -2  12  -4    0.88    0.34
 -12  -2   6   45.61    1.87
  -2  12  -6   44.72    1.70
 -12   2  -6   43.30    1.41
   2 -12  -6   44.16    1.88
 -12  -2   8    3.14    0.54
  -2  12  -8    2.95    0.44
   2 -12  -8    3.11    0.56
  -2  12 -10   10.65    0.75
   2 -12 -10   11.19    0.94
   2 -12 -12   10.82    0.95
  12  -2 -12   10.09    0.92
  12  -2 -14    2.17    0.53
   2 -12 -14    3.29    0.64
   2 -12 -16    0.99    0.49
  12  -2 -16    0.23    0.41
  12  -2 -18    5.55    0.82
   2 -12 -18    5.07    0.81
   2 -12 -20    4.10    0.81
  12  -2 -20    2.31    0.68
  -3 -12 -21    1.81    0.61
  -3 -12 -19    3.28    0.65
  -3 -12 -17    0.89    0.43
  -3 -12 -15    0.66    0.41
  -3 -12 -13    1.68    0.49
 -12  -3 -13    1.87    0.33
   3  12 -11    8.13    0.54
  -3 -12 -11    7.40    0.76
  -3 -12  -9    4.14    0.60
 -12   3   9    4.92    0.61
   3  12  -9    4.65    0.39
 -12   3   7    3.66    0.55
   3  12  -7    3.84    0.34
 -12   3   5   28.97    1.36
 -12   3   5   26.59    1.29
  -3 -12  -3   33.86    0.99
 -12   3   3   44.31    1.63
 -12  -3  -1   16.98    0.81
 -12   3   1   16.99    0.97
  -3 -12   1   13.01    0.66
 -12  -3   1   16.54    0.75
 -12   3  -1   16.48    0.94
   3 -12  -1   15.85    0.94
  -3  12  -1   14.70    0.86
 -12   3  -3   40.02    1.49
 -12   3  -3   44.86    1.75
 -12  -3   3   43.10    1.76
   3 -12  -3   43.37    1.78
 -12  -3   3   44.45    1.49
  -3  12  -3   42.76    1.68
 -12  -3   5   29.45    1.40
  -3  12  -5   28.58    1.28
   3 -12  -5   27.49    1.39
 -12   3  -5   26.32    1.01
  -3  12  -7    4.03    0.50
 -12  -3   7    3.28    0.55
  12  -3  -7    4.34    0.56
   3 -12  -7    4.40    0.58
  -3  12  -9    4.49    0.54
  12  -3  -9    4.70    0.64
   3 -12  -9    5.06    0.63
  12  -3 -11    6.99    0.81
   3 -12 -11    7.26    0.76
   3 -12 -13    1.37    0.44
  12  -3 -13    1.28    0.47
   3 -12 -15    1.46    0.52
  12  -3 -15    0.27    0.41
   3 -12 -17   -0.04    0.46
  12  -3 -17   -0.08    0.44
   3 -12 -19    2.23    0.65
  12  -3 -19    2.58    0.68
   3 -12 -21    2.51    0.74
  12  -3 -21    2.29    0.67
  -4 -12 -20    2.19    0.59
  -4 -12 -18    3.73    0.68
  -4 -12 -16    4.05    0.66
  -4 -12 -14    2.40    0.54
 -12  -4 -14    1.88    0.37
 -12  -4 -12    3.60    0.46
  -4 -12 -12    2.43    0.52
   4  12 -10    2.58    0.29
  -4 -12 -10    1.89    0.46
 -12   4   8    6.05    0.66
   4  12  -8    7.20    0.41
 -12   4   6   20.68    1.17
 -12   4   4   15.86    0.99
 -12   4   4   17.26    0.99
   4 -12   2   20.24    1.01
  -4 -12  -2   19.55    0.70
 -12   4   2   20.44    1.10
  -4  12   0   35.79    1.08
 -12   4   0   43.70    1.68
  -4 -12   0   37.36    1.29
   4 -12   0   43.17    1.63
 -12  -4   0   43.13    1.39
  -4  12   0   40.43    1.63
 -12   4  -2   19.77    0.94
   4 -12  -2   18.87    1.07
 -12   4  -2   20.71    1.11
  -4  12  -2   20.74    1.10
 -12  -4   2   21.21    0.85
 -12   4  -4   17.28    0.76
 -12  -4   4   16.32    1.01
 -12   4  -4   16.31    0.98
   4 -12  -4   17.46    1.07
  -4  12  -4   16.28    0.96
  12  -4  -4   17.81    0.98
  12  -4  -6   20.68    1.15
 -12  -4   6   21.83    1.21
  -4  12  -6   18.70    1.07
   4 -12  -6   21.46    1.24
 -12  -4   8    5.76    0.66
  12  -4  -8    7.01    0.73
   4 -12  -8    6.99    0.74
  -4  12  -8    6.74    0.64
  12  -4 -10    1.72    0.49
  -4  12 -10    1.81    0.42
   4 -12 -10    1.33    0.47
  12  -4 -12    2.60    0.54
   4 -12 -12    2.64    0.56
  12  -4 -14    0.93    0.45
   4 -12 -14    1.13    0.48
   4 -12 -16    3.56    0.70
  12  -4 -16    3.03    0.65
  12  -4 -18    2.89    0.69
   4 -12 -18    2.89    0.68
   4 -12 -20    3.55    0.79
  12  -4 -20    2.35    0.69
  -5 -12 -21    0.41    0.45
  -5 -12 -19    3.39    0.66
  -5 -12 -17    3.73    0.64
  -5 -12 -15    0.11    0.35
 -12  -5 -15   -0.35    0.28
  -5 -12 -13    7.97    0.84
 -12  -5 -13    8.23    0.70
  -5 -12 -11    5.78    0.70
 -12   5   7   13.21    0.94
 -12   5   5   14.77    0.94
 -12   5   5   12.95    0.91
 -12   5   3    4.76    0.59
 -12   5   3    4.23    0.53
   5 -12   3    3.95    0.44
  -5 -12  -1   13.52    0.66
 -12   5   1   15.61    0.98
  -5 -12  -1   15.90    0.65
  -5  12   1   13.39    0.53
   5 -12   1   15.27    0.88
  -5  12   1   15.09    0.94
 -12  -5   1   14.30    0.66
 -12   5  -1   14.91    0.94
   5 -12  -1   14.85    0.91
  -5  12  -1   15.57    0.96
  -5  12  -3    3.75    0.53
 -12   5  -3    4.53    0.38
 -12  -5   3    4.78    0.57
 -12   5  -3    4.24    0.55
 -12  -5   3    4.39    0.33
   5 -12  -3    3.62    0.52
  12  -5  -3    4.55    0.51
  -5  12  -5   13.46    0.90
   5 -12  -5   14.03    0.98
 -12   5  -5   13.93    0.94
 -12  -5   5   14.01    0.96
  12  -5  -5   15.28    0.96
 -12  -5   7   10.73    0.85
   5 -12  -7   12.20    0.97
  12  -5  -7   12.04    0.91
  -5  12  -7   11.18    0.86
  12  -5  -9    1.10    0.42
  -5  12  -9    0.26    0.33
   5 -12  -9    0.18    0.37
   5 -12 -11    6.98    0.83
  12  -5 -11    7.16    0.80
  12  -5 -13    5.85    0.77
   5 -12 -13    7.18    0.88
   5 -12 -15    0.81    0.55
  12  -5 -15   -0.03    0.41
  12  -5 -17    3.73    0.75
   5 -12 -17    4.07    0.73
   5 -12 -19    3.91    0.78
  12  -5 -19    4.82    0.82
  -6 -12 -20    1.56    0.57
  -6 -12 -18    1.94    0.57
  -6 -12 -16    0.83    0.45
 -12  -6 -16    2.10    0.44
 -12  -6 -14    6.32    0.64
  -6 -12 -14    4.01    0.66
  -6 -12 -12    9.06    0.86
 -12   6   8    3.59    0.55
   6 -12   8    4.17    0.37
 -12   6   6    2.97    0.50
   6 -12   6    3.36    0.36
 -12   6   4    3.59    0.55
 -12   6   4    5.45    0.59
   6 -12   4    5.35    0.47
  -6  12   2    6.90    0.40
  -6 -12  -2    7.80    0.48
   6 -12   2    8.04    0.61
  -6  12   2    6.81    0.66
  -6 -12  -2    7.18    0.48
 -12   6   2    7.95    0.74
  -6 -12   0    0.38    0.24
 -12   6   0    0.45    0.38
  -6  12   0    0.29    0.37
 -12  -6   0    0.39    0.18
   6 -12   0    0.58    0.32
   6 -12  -2    8.23    0.69
 -12   6  -2    7.12    0.50
 -12   6  -2    7.06    0.71
 -12  -6   2    6.27    0.63
 -12  -6   2    7.95    0.42
  12  -6  -2    7.98    0.62
  -6  12  -2    8.60    0.75
  12  -6  -4    5.84    0.59
  -6  12  -4    4.80    0.58
 -12  -6   4    5.77    0.63
   6 -12  -4    5.66    0.64
 -12   6  -4    5.40    0.62
  12  -6  -6    4.74    0.58
 -12   6  -6    3.59    0.53
 -12  -6   6    3.61    0.55
  -6  12  -6    3.05    0.54
   6 -12  -6    3.11    0.56
  12  -6  -8    3.64    0.62
   6 -12  -8    4.50    0.67
  -6  12  -8    3.29    0.52
   6 -12 -10   11.10    0.99
  -6  12 -10    8.95    0.77
  12  -6 -10    8.73    0.87
   6 -12 -12    8.67    0.91
  12  -6 -12    8.86    0.92
  12  -6 -14    5.02    0.77
   6 -12 -14    5.66    0.83
  12  -6 -16    1.39    0.52
   6 -12 -16    2.27    0.65
  12  -6 -18    1.19    0.53
   6 -12 -18    0.84    0.57
  12  -6 -20    1.56    0.67
   6 -12 -20    3.26    0.76
  -7 -12 -21    0.31    0.42
  -7 -12 -19    1.01    0.46
  -7 -12 -17    2.01    0.55
  -7 -12 -15    1.49    0.48
 -12  -7 -15    1.42    0.41
 -12  -7 -13    1.87    0.41
  -7 -12 -13    1.29    0.45
  -7 -12 -11    2.03    0.48
 -12   7   7    8.95    0.75
   7 -12   7    8.25    0.51
 -12   7   5    2.43    0.45
   7 -12   5    1.26    0.27
 -12   7   3    1.78    0.47
 -12   7   3    1.80    0.41
   7 -12   3    1.57    0.32
  -7  12   1    0.89    0.43
  -7 -12  -1    1.01    0.27
  -7  12   1    1.06    0.24
   7 -12   1    0.55    0.27
 -12   7   1    1.13    0.42
  12  -7  -1    0.99    0.30
 -12  -7   1    1.36    0.19
  -7 -12   1    1.69    0.34
 -12   7  -1    1.35    0.43
  -7  12  -1    0.92    0.41
   7 -12  -1    1.39    0.36
  12  -7  -3    1.54    0.39
  -7  12  -3    0.93    0.41
 -12   7  -3    1.85    0.48
 -12  -7   3    1.52    0.44
   7 -12  -3    1.32    0.41
 -12   7  -5    1.84    0.47
 -12  -7   5    1.99    0.47
   7 -12  -5    2.41    0.52
  -7  12  -5    2.29    0.50
  12  -7  -5    1.83    0.43
   7 -12  -7    9.88    0.92
 -12  -7   7    8.35    0.76
 -12   7  -7    8.11    0.76
  -7  12  -7    7.81    0.75
  12  -7  -7    9.42    0.82
  12  -7  -9    3.28    0.56
  -7  12  -9    2.03    0.48
   7 -12  -9    2.07    0.52
  12  -7 -11    1.76    0.50
  -7  12 -11    1.95    0.43
   7 -12 -11    1.96    0.58
  12  -7 -13    1.02    0.49
   7 -12 -13    2.03    0.64
  12  -7 -15    2.51    0.62
   7 -12 -15    1.87    0.60
   7 -12 -17    3.01    0.71
  12  -7 -17    2.36    0.61
  12  -7 -19    0.93    0.59
   7 -12 -19    1.50    0.67
  -8 -12 -20    0.62    0.42
  -8 -12 -18    0.79    0.44
  -8 -12 -16    0.58    0.37
 -12  -8 -16    0.40    0.32
  -8 -12 -14    1.64    0.48
 -12  -8 -14    2.31    0.50
  -8 -12 -12    1.83    0.51
 -12   8   6    1.24    0.39
 -12   8   4    9.95    0.77
   8 -12   4    8.72    0.60
 -12   8   4    8.77    0.82
  -8  12   2    1.67    0.47
  -8  12   2    1.66    0.29
 -12   8   2    2.14    0.53
   8 -12   2    0.85    0.31
  -8 -12  -2    1.63    0.34
 -12   8   0    1.87    0.47
 -12  -8   0    1.94    0.20
  -8 -12   0    2.34    0.37
  -8  12   0    2.36    0.51
   8 -12   0    1.13    0.34
  12  -8   0    1.52    0.29
  -8 -12   2    2.15    0.38
  12  -8  -2    1.59    0.37
   8 -12  -2    1.47    0.40
 -12  -8   2    2.02    0.43
 -12   8  -2    2.21    0.52
  -8  12  -2    1.84    0.50
 -12  -8   4   10.01    0.83
  -8  12  -4    9.39    0.84
   8 -12  -4    9.21    0.84
 -12   8  -4    9.95    0.86
  12  -8  -4   10.44    0.82
  -8  12  -6    1.30    0.42
 -12   8  -6    0.35    0.37
 -12  -8   6    0.38    0.36
  12  -8  -6    0.41    0.38
   8 -12  -6    0.96    0.46
  12  -8  -8    0.07    0.38
 -12   8  -8    1.39    0.45
   8 -12  -8    1.16    0.46
  -8  12  -8   -0.06    0.40
  12  -8 -10    3.04    0.59
   8 -12 -10    3.62    0.63
  -8  12 -10    2.86    0.50
  12  -8 -12    1.73    0.52
  -8  12 -12    1.44    0.44
   8 -12 -12    1.62    0.57
   8 -12 -14    2.00    0.62
  12  -8 -14    1.35    0.54
  12  -8 -16    0.24    0.46
   8 -12 -16    0.71    0.52
   8 -12 -18    0.67    0.57
  12  -8 -18    0.89    0.59
  -9 -12 -19    4.14    0.75
  -9 -12 -17    0.25    0.39
 -12  -9 -17    0.35    0.32
  -9 -12 -15    2.28    0.53
 -12  -9 -15    2.74    0.53
 -12  -9 -13    0.17    0.35
  -9 -12 -13    0.57    0.41
 -12   9   7    2.38    0.43
 -12   9   5   14.60    0.94
  -9  12   3    6.40    0.50
   9 -12   3    5.73    0.52
 -12   9   3    5.79    0.70
 -12   9   3    5.13    0.58
  -9  12   3    5.53    0.68
  -9  12   1    3.70    0.60
   9 -12   1    3.56    0.47
  -9 -12  -1    4.57    0.49
  -9  12   1    4.99    0.45
 -12   9   1    5.51    0.68
  12  -9   1    4.89    0.45
  12  -9  -1    4.43    0.50
 -12   9  -1    4.37    0.63
  -9 -12   1    4.25    0.49
   9 -12  -1    4.17    0.55
 -12  -9   1    5.30    0.60
  -9  12  -1    4.65    0.66
  -9  12  -3    5.84    0.75
   9 -12  -3    4.56    0.61
 -12  -9   3    5.69    0.64
 -12   9  -3    5.83    0.68
  12  -9  -3    5.32    0.60
   9 -12  -5   14.92    1.09
  12  -9  -5   12.20    0.95
  -9  12  -5   14.11    1.03
 -12   9  -5   13.91    1.03
 -12  -9   5   12.29    0.92
 -12   9  -7    2.91    0.57
  12  -9  -7    2.04    0.46
  -9  12  -7    2.43    0.50
   9 -12  -7    2.83    0.58
  12  -9  -9    1.96    0.54
   9 -12  -9    1.60    0.53
 -12   9  -9    1.54    0.46
  -9  12  -9    1.89    0.52
  12  -9 -11    3.74    0.67
  -9  12 -11    3.30    0.57
   9 -12 -11    4.18    0.71
  12  -9 -13    0.26    0.44
   9 -12 -13   -0.06    0.44
  12  -9 -15    2.35    0.63
   9 -12 -15    0.91    0.53
  12  -9 -17    1.23    0.59
   9 -12 -17   -0.04    0.46
 -10 -12 -20    2.49    0.62
 -10 -12 -18    0.04    0.43
 -12 -10 -18    0.66    0.40
 -10 -12 -16    4.05    0.67
 -12 -10 -16    3.80    0.64
 -10 -12 -14    5.64    0.78
 -12 -10 -14    5.90    0.74
 -12  10   6    2.77    0.49
 -10  12   4   15.04    0.83
 -12  10   4   15.96    0.96
 -12  10   4   13.98    1.09
  10 -12   2    8.18    0.63
 -10  12   2    7.55    0.58
 -10 -12  -2    8.03    0.64
 -10  12   2    6.46    0.74
 -12  10   2    6.69    0.62
 -12  10   2    8.43    0.83
  12 -10   2    7.91    0.53
  10 -12   0    9.39    0.76
 -10 -12   0   10.73    0.75
 -12 -10   0    9.31    0.74
 -10  12   0   11.05    0.93
  12 -10   0    9.90    0.69
 -12  10   0   10.42    0.90
  10 -12  -2    7.09    0.71
 -10 -12   2    8.07    0.68
 -12  10  -2    7.34    0.80
 -12 -10   2    6.70    0.68
 -10  12  -2    7.63    0.79
  12 -10  -2    6.74    0.65
  10 -12  -4   15.93    1.12
 -12 -10   4   14.56    1.01
 -10  12  -4   14.09    1.07
 -12  10  -4   14.78    1.06
  12 -10  -4   14.20    1.01
  10 -12  -6    1.91    0.54
  12 -10  -6    1.93    0.49
 -10  12  -6    2.53    0.52
 -12  10  -8    4.18    0.62
  12 -10  -8    4.83    0.70
  10 -12  -8    5.66    0.77
 -10  12  -8    3.80    0.60
  10 -12 -10   16.11    1.27
 -10  12 -10   14.16    1.08
 -12  10 -10   13.59    1.08
  12 -10 -10   14.01    1.20
  12 -10 -12    0.47    0.49
  10 -12 -12    0.46    0.44
 -10  12 -12    0.39    0.44
  12 -10 -14    4.10    0.77
  10 -12 -14    3.88    0.75
  12 -10 -16    3.39    0.80
  10 -12 -16    3.27    0.72
  12 -10 -18   -0.28    0.56
  10 -12 -18   -0.81    0.64
 -11 -12 -19    1.63    0.53
 -12 -11 -17    2.98    0.59
 -11 -12 -17    2.21    0.49
 -11 -12 -15    7.37    0.88
 -12 -11 -15    6.78    0.81
 -11 -12 -13    3.44    0.62
 -11  12   5   21.98    1.09
 -12  11   5   20.88    1.13
 -12  11   3    1.57    0.48
 -11  12   3    2.53    0.40
 -12  11   3    2.49    0.44
 -11  12   3    2.81    0.57
  11 -12   1   12.33    0.82
 -11 -12  -1   13.92    0.88
 -11  12   1   12.94    0.80
 -12 -11  -1   13.59    0.88
 -11  12   1   13.26    1.05
 -12  11   1   13.72    1.05
  12 -11   1   14.19    0.81
  11 -12  -1   13.16    0.92
 -11 -12   1   14.27    0.91
 -12 -11   1   11.95    0.87
 -11  12  -1   12.88    1.01
  12 -11  -1   13.88    0.90
 -12  11  -1   13.09    1.04
  12 -11  -3    1.94    0.43
  11 -12  -3    1.91    0.46
 -11 -12   3    1.74    0.43
 -12  11  -3    2.48    0.52
 -12 -11   3    1.75    0.44
 -11  12  -3    2.14    0.51
  11 -12  -5   18.39    1.26
 -12 -11   5   22.24    1.25
  12 -11  -5   20.07    1.30
 -11  12  -5   20.61    1.31
 -12  11  -5   19.73    1.28
  11 -12  -7   10.46    0.99
 -11  12  -7   10.59    0.93
 -12  11  -7   10.02    0.94
  12 -11  -7   10.35    0.97
 -12  11  -9    9.51    0.91
  11 -12  -9    8.26    0.96
 -11  12  -9    8.25    0.86
  12 -11  -9    9.41    1.00
 -12  11 -11    3.89    0.66
  12 -11 -11    3.13    0.72
  11 -12 -11    3.82    0.69
 -11  12 -11    3.73    0.64
  12 -11 -13    3.81    0.76
  11 -12 -13    3.69    0.77
 -12  11 -13    2.96    0.62
 -11  12 -13    3.30    0.65
  12 -11 -15    7.77    1.04
  11 -12 -15    7.56    1.02
  12 -11 -17    4.30    0.82
  11 -12 -17    2.20    0.72
 -12 -12 -18    0.87    0.46
 -12 -12 -16    4.23    0.69
 -12 -12 -14    7.15    0.84
 -12  12   4   37.26    1.59
 -12  12   2    6.78    0.82
 -12  12   2    8.53    0.67
 -12 -12  -2   10.04    0.78
 -12 -12   0    0.87    0.38
 -12  12   0    1.47    0.49
  12 -12   0    0.63    0.31
 -12  12  -2   10.09    0.94
 -12 -12   2   11.14    0.86
  12 -12  -2    9.25    0.82
  12 -12  -4   33.49    1.74
 -12 -12   4   36.93    1.70
 -12  12  -4   33.68    1.78
  12 -12  -6    0.87    0.46
 -12  12  -6    1.41    0.49
  12 -12  -8    5.01    0.77
 -12  12  -8    5.66    0.72
 -12  12 -10   25.76    1.56
  12 -12 -10   25.71    1.69
  12 -12 -12    8.26    1.03
 -12  12 -12    7.12    0.83
 -12  12 -14    7.12    0.87
  12 -12 -14    8.56    1.07
  12 -12 -16    5.95    0.95
 -13   0   1    7.42    0.59
 -13   0  -1    6.30    0.57
   0  13  -3    1.83    0.34
 -13   0   3    1.82    0.35
 -13   0   3    1.52    0.42
   0 -13  -5   22.65    1.31
 -13   0   5   25.37    1.31
   0  13  -5   24.00    1.09
   0  13  -7    0.16    0.26
 -13   0   7    1.16    0.46
   0 -13  -7    0.44    0.35
   0  13  -9    1.86    0.38
 -13   0   9    1.94    0.47
   0 -13  -9    1.60    0.44
   0  13 -11    1.87    0.37
   0 -13 -11    1.46    0.45
   0 -13 -13    1.11    0.46
   0 -13 -15    1.13    0.48
   0 -13 -17   -0.16    0.41
   0 -13 -19    4.49    0.80
  -1 -13 -20    0.19    0.46
  -1 -13 -18    3.24    0.66
  -1 -13 -16    2.29    0.57
  -1 -13 -14    3.56    0.63
   1  13 -12    0.06    0.29
  -1 -13 -12    0.18    0.39
   1  13 -10    7.65    0.58
  -1 -13 -10    6.78    0.75
   1  13  -8    7.02    0.55
 -13   1   8    6.52    0.73
  -1 -13  -8    6.53    0.72
  -1 -13  -6    8.86    0.80
 -13   1   6    7.50    0.76
   1  13  -6    9.04    0.59
   1  13  -4    0.71    0.27
 -13   1   4    0.80    0.28
 -13   1   4    1.07    0.41
 -13   1   2    6.35    0.60
 -13  -1  -2    7.08    0.57
 -13   1   0   14.78    0.87
 -13  -1   0   14.10    0.81
 -13   1  -2    7.60    0.63
  -1  13  -2    6.77    0.57
 -13  -1   2    7.43    0.58
   1 -13  -4    0.35    0.31
  -1  13  -4    0.36    0.13
 -13  -1   4    0.29    0.26
  -1  13  -4    0.18    0.27
  -1  13  -6    8.36    0.63
 -13  -1   6    8.01    0.77
   1 -13  -6    8.43    0.77
 -13  -1   8    7.98    0.75
  -1  13  -8    8.35    0.66
   1 -13  -8    7.96    0.80
   1 -13 -10    6.09    0.75
  -1  13 -10    7.26    0.61
  -1  13 -12   -0.44    0.34
   1 -13 -12    0.71    0.38
   1 -13 -14    3.87    0.69
   1 -13 -16    2.63    0.63
   1 -13 -18    2.56    0.63
   1 -13 -20    1.22    0.53
  -2 -13 -19   12.32    1.16
  -2 -13 -17    0.78    0.39
  -2 -13 -15    1.70    0.53
  -2 -13 -13    6.19    0.78
  -2 -13 -11   10.79    0.95
   2  13 -11   12.20    0.72
 -13   2   9    1.73    0.46
   2  13  -9    1.80    0.32
  -2 -13  -9    1.24    0.39
  -2 -13  -7    5.84    0.69
 -13   2   7    6.98    0.73
   2  13  -7    6.66    0.50
 -13   2   5   32.80    1.53
 -13   2   5   31.32    1.41
   2  13  -5   31.87    1.20
 -13   2   3   24.62    1.27
 -13   2   3   23.62    1.18
 -13  -2  -1   23.99    1.08
 -13   2   1   24.26    1.19
 -13  -2   1   22.92    1.03
 -13   2  -1   25.34    1.20
  -2  13  -1   23.52    1.15
 -13   2  -3   23.47    1.18
  -2  13  -3   23.31    1.14
 -13  -2   3   22.87    1.22
   2 -13  -3   23.16    1.24
 -13  -2   3   22.69    1.03
  -2  13  -5   31.84    1.38
 -13  -2   5   30.44    1.47
   2 -13  -5   27.88    1.46
  -2  13  -7    6.82    0.61
 -13  -2   7    6.35    0.71
   2 -13  -7    7.12    0.75
 -13  -2   9    0.89    0.40
  -2  13  -9    2.46    0.42
   2 -13  -9    2.10    0.50
  -2  13 -11   11.24    0.81
   2 -13 -11   12.56    1.04
   2 -13 -13    5.44    0.76
   2 -13 -15    0.81    0.45
   2 -13 -17    1.53    0.55
   2 -13 -19   14.00    1.31
  -3 -13 -20   -0.63    0.51
  -3 -13 -18    5.94    0.83
  -3 -13 -16    2.50    0.59
  -3 -13 -14    2.79    0.59
  -3 -13 -12   10.78    0.96
 -13  -3 -12   11.02    0.74
   3  13 -10    3.70    0.37
  -3 -13 -10    2.47    0.54
  -3 -13  -8   13.61    1.03
 -13   3   8   14.24    1.00
   3  13  -8   14.86    0.70
 -13   3   6   40.39    1.83
   3  13  -6   42.74    1.42
 -13   3   4    2.83    0.47
 -13   3   4    3.08    0.52
 -13   3   2   23.98    1.20
   3 -13   0   88.11    2.97
 -13   3   0   92.04    3.00
 -13  -3   0   87.35    2.73
 -13  -3   2   23.29    1.01
   3 -13  -2   22.29    1.22
 -13   3  -2   25.82    1.24
  -3  13  -2   22.98    1.15
 -13   3  -4    2.73    0.44
 -13  -3   4    3.86    0.57
 -13  -3   4    2.90    0.34
  -3  13  -4    3.62    0.48
   3 -13  -4    3.27    0.48
 -13  -3   6   43.89    1.88
  -3  13  -6   43.03    1.74
   3 -13  -6   41.71    1.90
 -13  -3   8   14.55    1.03
   3 -13  -8   13.38    1.03
  -3  13  -8   13.12    0.87
  -3  13 -10    3.62    0.50
   3 -13 -10    3.35    0.61
  13  -3 -10    4.17    0.63
   3 -13 -12   10.42    0.96
  -3  13 -12    9.61    0.78
  13  -3 -12    9.88    0.94
   3 -13 -14    1.73    0.55
  13  -3 -14    1.59    0.51
  13  -3 -16    1.38    0.51
   3 -13 -16    2.54    0.62
   3 -13 -18    7.84    0.98
  13  -3 -18    5.79    0.88
   3 -13 -20    0.37    0.59
  13  -3 -20   -0.36    0.55
  -4 -13 -19    6.04    0.85
  -4 -13 -17    0.12    0.38
  -4 -13 -15    0.83    0.46
  -4 -13 -13    1.01    0.43
 -13  -4 -13    1.82    0.35
  -4 -13 -11    5.94    0.69
  -4 -13  -9    8.43    0.83
 -13   4   9    8.53    0.82
 -13   4   7    0.89    0.38
 -13   4   5   24.52    1.28
 -13   4   5   24.14    1.26
  -4 -13  -3   32.77    1.02
 -13   4   3   35.59    1.57
 -13   4   3   35.90    1.57
 -13   4   1   21.09    1.15
 -13  -4  -1   19.32    0.88
   4 -13   1   18.36    1.02
 -13  -4   1   20.65    0.83
 -13   4  -1   20.37    1.09
   4 -13  -1   21.27    1.08
  -4  13  -1   19.03    1.03
 -13  -4   3   36.12    1.61
   4 -13  -3   33.62    1.60
 -13  -4   3   34.57    1.25
 -13   4  -3   36.50    1.60
  -4  13  -3   35.07    1.57
  -4  13  -5   25.94    1.28
 -13  -4   5   26.53    1.37
 -13   4  -5   25.17    1.29
   4 -13  -5   23.82    1.35
 -13  -4   7    1.01    0.42
   4 -13  -7    1.02    0.42
  13  -4  -7    1.80    0.44
  -4  13  -7    1.44    0.41
  -4  13  -9    8.51    0.73
   4 -13  -9    9.16    0.88
  13  -4  -9    7.94    0.84
   4 -13 -11    4.80    0.69
  -4  13 -11    4.43    0.57
  13  -4 -11    4.01    0.65
   4 -13 -13    1.65    0.51
  13  -4 -13    0.50    0.45
   4 -13 -15    0.48    0.43
  13  -4 -15    1.00    0.53
   4 -13 -17    0.21    0.45
  13  -4 -17    0.56    0.49
  13  -4 -19    4.82    0.84
   4 -13 -19    4.47    0.82
  -5 -13 -20   -0.29    0.44
  -5 -13 -18   -0.35    0.43
  -5 -13 -16   -0.48    0.49
  -5 -13 -14    1.13    0.47
  -5 -13 -12    0.75    0.43
  -5 -13 -10    3.62    0.60
 -13   5   8    9.62    0.83
 -13   5   6    2.97    0.55
 -13   5   4    0.35    0.34
   5 -13   4    0.21    0.23
 -13   5   4    0.35    0.38
  -5 -13  -2   10.85    0.51
   5 -13   2   10.61    0.75
 -13   5   2   10.65    0.83
 -13   5   0   28.76    1.39
  -5  13   0   23.83    0.80
 -13  -5   0   27.90    1.03
   5 -13   0   25.88    1.28
  -5  13   0   26.19    1.32
   5 -13  -2   11.61    0.84
 -13   5  -2   10.58    0.83
 -13  -5   2   10.29    0.81
 -13  -5   2    9.64    0.53
  -5  13  -2   11.07    0.84
 -13   5  -4    0.69    0.38
  -5  13  -4    0.52    0.36
 -13  -5   4    0.96    0.40
   5 -13  -4    0.37    0.33
  13  -5  -4    0.76    0.33
 -13  -5   6    2.31    0.52
  -5  13  -6    1.72    0.43
   5 -13  -6    1.71    0.48
 -13   5  -6    1.65    0.45
  13  -5  -6    2.29    0.46
 -13  -5   8    9.84    0.87
   5 -13  -8    8.61    0.87
  -5  13  -8    9.95    0.81
  13  -5  -8   10.22    0.89
  13  -5 -10    2.41    0.56
   5 -13 -10    3.10    0.62
  -5  13 -10    2.29    0.44
  13  -5 -12   -0.41    0.43
   5 -13 -12    0.02    0.42
  -5  13 -12   -1.09    0.49
  13  -5 -14    0.20    0.46
   5 -13 -14    2.13    0.64
   5 -13 -16    0.59    0.54
  13  -5 -16   -0.33    0.44
  13  -5 -18   -0.68    0.49
   5 -13 -18    0.13    0.48
  -6 -13 -19    1.86    0.59
  -6 -13 -17    1.02    0.47
  -6 -13 -15    5.76    0.76
 -13  -6 -13    0.80    0.32
  -6 -13 -13    0.19    0.36
  -6 -13 -11    1.04    0.43
 -13   6   7    3.04    0.53
   6 -13   7    3.88    0.40
 -13   6   5    4.94    0.62
   6 -13   5    5.20    0.49
 -13   6   5    3.85    0.58
 -13   6   3    2.68    0.53
  -6 -13  -3    2.90    0.31
 -13   6   3    2.44    0.48
   6 -13   3    2.55    0.38
  -6 -13  -1    2.66    0.32
  -6  13   1    1.82    0.43
  -6  13   1    1.66    0.21
 -13  -6  -1    1.79    0.27
   6 -13   1    2.25    0.42
 -13   6   1    1.93    0.47
 -13  -6   1    2.72    0.30
  -6  13  -1    2.77    0.51
 -13   6  -1    3.53    0.54
   6 -13  -1    2.14    0.41
 -13   6  -3    3.44    0.56
 -13  -6   3    2.99    0.51
   6 -13  -3    3.16    0.51
  13  -6  -3    3.17    0.45
  -6  13  -3    3.52    0.55
  13  -6  -5    5.76    0.63
 -13   6  -5    5.60    0.67
 -13  -6   5    4.80    0.63
  -6  13  -5    4.44    0.62
   6 -13  -5    4.97    0.66
  -6  13  -7    3.24    0.52
 -13  -6   7    3.23    0.57
 -13   6  -7    3.99    0.57
   6 -13  -7    3.46    0.62
  13  -6  -7    4.17    0.61
  13  -6  -9    1.47    0.46
   6 -13  -9    0.76    0.41
  -6  13  -9    0.67    0.38
  13  -6 -11    0.88    0.48
   6 -13 -11    1.05    0.52
  -6  13 -11    0.56    0.36
  13  -6 -13    0.87    0.49
   6 -13 -13    1.11    0.57
  -6  13 -13    0.22    0.36
  13  -6 -15    5.38    0.81
   6 -13 -15    4.00    0.79
  13  -6 -17    0.58    0.48
   6 -13 -17    0.93    0.62
  13  -6 -19    1.02    0.62
   6 -13 -19    1.76    0.66
  -7 -13 -20    1.88    0.63
  -7 -13 -18    0.71    0.45
  -7 -13 -16    2.68    0.60
  -7 -13 -14    1.98    0.53
 -13  -7 -14    2.21    0.45
  -7 -13 -12    4.37    0.67
 -13   7   8    4.42    0.59
 -13   7   6    1.60    0.47
   7 -13   6    0.90    0.25
 -13   7   4   20.95    1.17
   7 -13   4   19.80    1.01
 -13   7   4   20.36    1.22
  -7  13   2   10.46    0.54
  -7 -13  -2   11.07    0.63
   7 -13   2   11.71    0.78
 -13   7   2   10.85    0.89
 -13   7   0    8.97    0.83
  -7 -13   0    9.33    0.59
  -7  13   0    9.63    0.51
 -13  -7   0    9.39    0.49
   7 -13   0   10.04    0.79
  -7  13   0    8.39    0.78
 -13  -7   2   10.49    0.82
 -13   7  -2    9.02    0.81
   7 -13  -2   10.16    0.82
  13  -7  -2   10.68    0.75
  -7  13  -2   10.69    0.88
  -7  13  -4   20.78    1.23
 -13  -7   4   22.20    1.24
   7 -13  -4   19.91    1.25
 -13   7  -4   21.00    1.24
  13  -7  -4   21.59    1.18
  13  -7  -6    2.07    0.45
 -13  -7   6    1.21    0.42
 -13   7  -6    1.49    0.45
   7 -13  -6    2.20    0.53
  -7  13  -6    1.36    0.47
  13  -7  -8    5.29    0.68
  -7  13  -8    5.16    0.63
 -13   7  -8    5.89    0.65
   7 -13  -8    4.29    0.70
  13  -7 -10    6.55    0.81
   7 -13 -10    7.78    0.89
  -7  13 -10    5.69    0.65
  13  -7 -12    4.17    0.74
  -7  13 -12    3.36    0.56
   7 -13 -12    5.22    0.80
  13  -7 -14    2.68    0.69
   7 -13 -14    1.36    0.57
  13  -7 -16    2.58    0.64
   7 -13 -16    3.52    0.76
  13  -7 -18    1.14    0.60
   7 -13 -18    1.89    0.71
  -8 -13 -19    2.27    0.64
  -8 -13 -17    2.38    0.61
  -8 -13 -15    1.63    0.49
 -13  -8 -15    1.52    0.42
  -8 -13 -13    3.46    0.65
 -13   8   7   10.39    0.83
 -13   8   5   22.49    1.21
   8 -13   5   18.71    0.93
 -13   8   3    4.07    0.63
   8 -13   3    5.69    0.54
 -13   8   3    5.26    0.59
  -8 -13  -3    5.01    0.46
  -8 -13  -1   19.05    0.92
  -8  13   1   16.89    0.78
   8 -13   1   15.69    0.97
  -8  13   1   16.28    1.11
 -13   8   1   18.31    1.15
  -8 -13   1   17.58    0.90
 -13   8  -1   16.25    1.10
   8 -13  -1   14.55    1.01
 -13  -8   1   15.33    1.00
  13  -8  -1   18.42    0.98
  -8  13  -1   18.19    1.17
  13  -8  -3    5.43    0.61
 -13  -8   3    4.25    0.58
   8 -13  -3    4.62    0.62
 -13   8  -3    5.06    0.63
  -8  13  -3    4.60    0.66
 -13  -8   5   21.41    1.25
  -8  13  -5   20.45    1.28
   8 -13  -5   22.16    1.38
 -13   8  -5   21.07    1.28
  13  -8  -5   22.43    1.28
 -13   8  -7    9.90    0.85
   8 -13  -7   10.82    0.99
  -8  13  -7    9.51    0.86
 -13  -8   7    7.37    0.75
  13  -8  -7    9.72    0.89
  13  -8  -9    1.35    0.48
   8 -13  -9    0.17    0.41
  -8  13  -9    0.50    0.42
 -13   8  -9    0.73    0.38
  13  -8 -11    1.18    0.48
  -8  13 -11    0.92    0.39
   8 -13 -11    0.75    0.43
  13  -8 -13    3.21    0.65
   8 -13 -13    2.81    0.66
  -8  13 -13    2.93    0.57
   8 -13 -15    0.70    0.53
  13  -8 -15    1.29    0.56
  13  -8 -17    1.64    0.65
   8 -13 -17    3.39    0.73
  -9 -13 -18    1.12    0.50
  -9 -13 -16    0.51    0.44
 -13  -9 -16    0.16    0.34
 -13  -9 -14   -0.04    0.37
  -9 -13 -14    0.73    0.46
  -9 -13 -12    1.21    0.48
 -13   9   6   13.11    0.92
 -13   9   4    4.07    0.64
 -13   9   4    4.69    0.59
  -9  13   2    4.47    0.66
  -9  13   2    4.31    0.42
 -13   9   2    4.12    0.62
   9 -13   2    3.73    0.49
  -9 -13  -2    4.82    0.49
 -13   9   2    5.35    0.59
  -9 -13   0   22.43    1.06
   9 -13   0   18.95    1.12
 -13  -9   0   18.97    1.10
  -9  13   0   17.89    1.18
  13  -9   0   19.58    0.99
 -13   9   0   19.65    1.25
 -13   9  -2    4.67    0.67
   9 -13  -2    4.04    0.58
  13  -9  -2    5.06    0.55
 -13  -9   2    4.10    0.56
  -9  13  -2    6.22    0.74
  13  -9  -4    4.25    0.59
  -9  13  -4    4.89    0.66
 -13  -9   4    3.48    0.53
   9 -13  -4    4.33    0.63
 -13   9  -4    3.82    0.59
 -13  -9   6    9.95    0.88
   9 -13  -6   11.98    1.05
  -9  13  -6   11.70    0.95
 -13   9  -6   11.78    0.97
  13  -9  -6   11.94    0.97
  13  -9  -8    2.23    0.52
  -9  13  -8    1.50    0.49
 -13   9  -8    2.15    0.53
   9 -13  -8    2.16    0.54
  13  -9 -10    0.89    0.49
 -13   9 -10    2.25    0.50
   9 -13 -10    1.97    0.61
  -9  13 -10    1.83    0.49
  13  -9 -12    0.57    0.45
   9 -13 -12    0.58    0.50
  -9  13 -12    1.03    0.49
  13  -9 -14   -0.55    0.47
   9 -13 -14    0.15    0.50
  -9  13 -14    0.66    0.45
   9 -13 -16    0.69    0.52
  13  -9 -16    0.29    0.48
 -10 -13 -19    2.86    0.67
 -10 -13 -17   -0.20    0.48
 -10 -13 -15    1.15    0.50
 -13 -10 -15    0.97    0.46
 -10 -13 -13    1.07    0.54
 -13  10   7    0.95    0.37
 -13  10   5   12.89    0.92
 -13  10   3    2.58    0.57
 -10  13   3    2.72    0.38
 -13  10   3    2.73    0.49
 -10 -13  -1    6.52    0.60
 -10  13   1    6.11    0.53
 -10  13   1    7.03    0.80
  10 -13   1    5.80    0.61
 -13  10   1    6.70    0.77
 -10 -13   1    7.72    0.65
  10 -13  -1    5.43    0.64
 -10  13  -1    6.17    0.73
 -13 -10   1    5.30    0.62
  13 -10  -1    6.87    0.62
 -13  10  -1    7.12    0.81
  13 -10  -3    2.87    0.48
 -10  13  -3    2.04    0.53
  10 -13  -3    2.84    0.56
 -13 -10   3    3.56    0.57
 -13  10  -3    2.27    0.50
 -13 -10   5   13.65    0.99
  10 -13  -5   12.88    1.06
 -10  13  -5   13.06    1.03
 -13  10  -5   12.44    1.01
  13 -10  -5   11.58    0.95
  13 -10  -7    0.00    0.42
  10 -13  -7    0.69    0.41
 -13  10  -7    0.36    0.39
 -10  13  -7    0.60    0.41
  13 -10  -9    1.39    0.49
 -13  10  -9    2.03    0.50
  10 -13  -9    1.63    0.51
 -10  13  -9    1.53    0.47
  13 -10 -11    1.01    0.51
  10 -13 -11    0.11    0.49
 -10  13 -11    1.00    0.48
 -13  10 -11    0.74    0.40
 -10  13 -13    0.50    0.41
  13 -10 -13    0.42    0.47
  10 -13 -13    0.22    0.49
  13 -10 -15    0.08    0.49
  10 -13 -15    0.36    0.51
 -10  13 -15    1.24    0.51
  13 -10 -17    0.82    0.54
  10 -13 -17    0.07    0.52
 -11 -13 -18    0.43    0.43
 -11 -13 -16   -0.14    0.41
 -13 -11 -16   -0.16    0.40
 -13 -11 -14    3.06    0.59
 -11 -13 -14    1.64    0.50
 -13  11   6    0.55    0.37
 -11  13   4    7.11    0.60
 -13  11   4    6.23    0.66
 -11  13   2   -0.18    0.46
 -13  11   2   -0.12    0.45
 -11  13   2    0.39    0.30
 -13  11   2    0.05    0.34
 -11 -13  -2    0.21    0.30
  11 -13   0    2.02    0.41
 -11  13   0    1.85    0.49
 -11 -13   0    2.18    0.45
 -13 -11   0    1.71    0.44
 -13  11   0    1.34    0.49
 -13  11  -2    0.27    0.41
  13 -11  -2    0.04    0.30
 -11 -13   2    0.38    0.34
  11 -13  -2   -0.30    0.34
 -13 -11   2    0.04    0.37
 -11  13  -2   -0.12    0.41
 -13 -11   4    8.42    0.79
  13 -11  -4    6.26    0.71
 -11  13  -4    5.53    0.76
  11 -13  -4    5.73    0.72
 -13  11  -4    7.52    0.85
  13 -11  -6    0.27    0.39
  11 -13  -6    0.81    0.45
 -11  13  -6    1.08    0.50
 -13  11  -6    0.86    0.44
 -11  13  -8    0.14    0.41
  13 -11  -8    0.75    0.49
  11 -13  -8    0.49    0.48
 -13  11  -8    1.07    0.48
 -13  11 -10    4.06    0.67
  13 -11 -10    4.56    0.71
  11 -13 -10    3.84    0.73
 -11  13 -10    4.95    0.70
 -13  11 -12    0.01    0.41
 -11  13 -12    0.85    0.47
  11 -13 -12    1.24    0.59
 -11  13 -14    2.54    0.58
  13 -11 -14    1.34    0.60
 -13  11 -14    2.33    0.59
  11 -13 -14    2.46    0.73
  13 -11 -16   -0.84    0.60
  11 -13 -16    0.40    0.56
 -11  13 -16   -0.74    0.49
 -12 -13 -17   -0.17    0.47
 -13 -12 -17    0.74    0.39
 -12 -13 -15   13.19    1.19
 -13 -12 -15   11.59    1.10
 -12 -13 -13    1.06    0.49
 -13  12   5    1.11    0.37
 -12  13   3   15.92    0.95
 -13  12   3   15.93    0.99
 -12  13   3   13.30    1.14
 -13  12   3   14.71    1.15
 -12  13   1    0.14    0.42
 -13  12   1    0.45    0.44
 -12 -13  -1    0.06    0.31
 -12  13   1    0.32    0.30
 -13 -12  -1    0.52    0.37
 -13  12   1   -0.44    0.36
  12 -13  -1    0.25    0.32
 -12 -13   1    0.97    0.41
 -13 -12   1    0.13    0.36
 -12  13  -1    0.06    0.48
 -13  12  -1    0.21    0.45
 -12  13  -3   16.41    1.21
  12 -13  -3   11.76    0.99
 -13  12  -3   14.25    1.14
 -12 -13   3   14.96    1.00
 -13 -12   3   16.22    1.07
  13 -12  -3   13.81    1.01
  13 -12  -5    0.01    0.36
  12 -13  -5    0.69    0.38
 -12  13  -5    1.14    0.49
 -13  12  -5    0.95    0.49
  13 -12  -7    2.26    0.59
  12 -13  -7    1.55    0.51
 -12  13  -7    0.62    0.46
 -13  12  -7    1.65    0.52
  12 -13  -9   17.33    1.38
 -12  13  -9   20.71    1.36
 -13  12  -9   18.08    1.30
  13 -12  -9   19.30    1.43
  13 -12 -11    2.28    0.65
  12 -13 -11    1.85    0.63
 -12  13 -11    2.07    0.59
 -13  12 -11    1.44    0.53
  13 -12 -13    1.49    0.59
  12 -13 -13    0.28    0.51
 -12  13 -13    0.47    0.44
 -13  12 -13    1.09    0.50
 -12  13 -15    9.80    1.03
 -13  12 -15   11.84    1.12
  13 -12 -15   13.45    1.34
  12 -13 -15   13.73    1.36
 -13 -13 -16    1.48    0.49
 -13 -13 -14   11.24    1.13
 -13  13   2    2.80    0.63
 -13  13   2    3.93    0.52
 -13 -13  -2    3.57    0.54
 -13  13   0    2.39    0.55
 -13 -13   0    1.54    0.43
 -13  13   0    1.79    0.42
 -13 -13   2    3.63    0.56
 -13  13  -2    4.56    0.73
 -13  13  -4    7.24    0.90
  13 -13  -4    7.82    0.83
  13 -13  -6    6.21    0.82
 -13  13  -6    6.09    0.81
  13 -13  -8    5.80    0.83
 -13  13  -8    5.38    0.74
  13 -13 -10   10.32    1.10
 -13  13 -10   10.52    1.04
 -13  13 -12    9.43    1.01
  13 -13 -12   10.37    1.16
  13 -13 -14   11.08    1.22
 -13  13 -14    9.25    1.01
 -14   0   0    0.07    0.28
 -14   0   2    3.13    0.43
 -14   0  -2    2.30    0.41
 -14   0   4   14.78    1.04
   0  14  -4   14.47    0.83
 -14   0   4   14.03    0.85
 -14   0   6    1.47    0.49
   0  14  -6    1.28    0.33
   0 -14  -6    0.23    0.33
   0  14  -8    4.08    0.47
 -14   0   8    2.87    0.57
   0 -14  -8    3.95    0.62
   0  14 -10   19.08    1.01
   0 -14 -10   19.54    1.32
   0  14 -12    1.23    0.35
   0 -14 -12    1.89    0.53
   0  14 -14    1.76    0.38
   0 -14 -14    2.71    0.58
   0 -14 -16    1.61    0.49
   0 -14 -18   -0.37    0.44
  -1 -14 -19    2.46    0.65
  -1 -14 -17    1.90    0.59
  -1 -14 -15    4.99    0.73
  -1 -14 -13    1.18    0.51
   1  14 -11    3.39    0.42
  -1 -14 -11    4.38    0.63
 -14   1   9   15.28    1.08
   1  14  -9   16.60    0.86
  -1 -14  -9   14.08    1.10
 -14   1   7    3.41    0.60
   1  14  -7    2.87    0.38
  -1 -14  -7    2.79    0.53
 -14   1   5    7.48    0.73
 -14   1   5    6.52    0.59
   1  14  -5    7.77    0.56
 -14  -1  -3    6.37    0.58
 -14   1   3    5.45    0.58
 -14   1   3    5.69    0.67
 -14   1   1    7.58    0.66
 -14  -1  -1    7.91    0.63
 -14  -1   1    6.69    0.57
 -14   1  -1    6.82    0.63
   1 -14  -3    4.19    0.57
  -1  14  -3    5.92    0.53
 -14  -1   3    4.50    0.49
 -14   1  -3    4.98    0.56
 -14  -1   3    5.54    0.66
 -14  -1   5    7.35    0.76
   1 -14  -5    6.62    0.70
  -1  14  -5    6.99    0.61
  -1  14  -7    4.10    0.48
 -14  -1   7    2.07    0.50
   1 -14  -7    3.75    0.60
 -14  -1   9   15.40    1.11
  -1  14  -9   14.94    0.90
   1 -14  -9   15.25    1.12
  -1  14 -11    3.14    0.48
   1 -14 -11    3.49    0.60
  -1  14 -13    1.29    0.40
   1 -14 -13    1.93    0.52
   1 -14 -15    5.14    0.78
   1 -14 -17    0.82    0.48
   1 -14 -19    2.16    0.62
  -2 -14 -18    1.53    0.56
  -2 -14 -16    2.97    0.61
  -2 -14 -14    5.95    0.78
  -2 -14 -12    0.42    0.37
   2  14 -10    7.87    0.56
  -2 -14 -10    7.55    0.82
 -14   2   8    6.04    0.72
   2  14  -8    7.16    0.52
  -2 -14  -8    6.36    0.75
 -14   2   6   13.01    0.98
   2  14  -6   14.57    0.74
 -14   2   4    2.72    0.44
 -14   2   4    2.69    0.49
 -14  -2  -2    7.49    0.59
 -14   2   2    6.81    0.64
 -14   2   0   27.62    1.30
 -14  -2   0   25.37    1.16
   2 -14  -2    6.11    0.67
  -2  14  -2    6.30    0.59
 -14   2  -2    7.32    0.67
 -14  -2   2    7.06    0.55
 -14  -2   4    2.21    0.34
 -14   2  -4    3.00    0.46
  -2  14  -4    3.33    0.47
 -14  -2   4    1.92    0.45
   2 -14  -4    2.18    0.42
  -2  14  -6   15.21    0.93
 -14  -2   6   13.48    0.99
   2 -14  -6   13.38    1.01
  -2  14  -8    6.51    0.63
 -14  -2   8    5.98    0.72
   2 -14  -8    7.38    0.78
   2 -14 -10    8.28    0.86
  -2  14 -10    8.35    0.70
  -2  14 -12    1.10    0.40
   2 -14 -12    1.05    0.44
   2 -14 -14    5.71    0.79
  -2  14 -14    5.03    0.62
   2 -14 -16    2.54    0.62
   2 -14 -18    1.62    0.63
  -3 -14 -19    2.79    0.66
  -3 -14 -17    2.12    0.52
  -3 -14 -15   -0.23    0.38
  -3 -14 -13    0.83    0.43
  -3 -14 -11    8.75    0.89
 -14   3   9    2.51    0.53
  -3 -14  -9    1.87    0.49
 -14   3   7    3.10    0.55
   3  14  -7    1.80    0.27
 -14   3   5   19.68    1.18
 -14   3   5   17.56    1.06
 -14   3   3   20.33    1.17
 -14   3   3   20.26    1.13
 -14   3   1    8.01    0.72
 -14  -3  -1    7.01    0.56
 -14  -3   1    8.18    0.57
 -14   3  -1    7.52    0.69
  -3  14  -1    7.03    0.64
   3 -14  -1    6.90    0.67
 -14  -3   3   21.44    1.19
   3 -14  -3   19.02    1.17
 -14  -3   3   20.05    0.93
  -3  14  -3   19.20    1.08
 -14   3  -3   22.13    1.18
  -3  14  -5   19.40    1.09
 -14  -3   5   19.65    1.20
 -14   3  -5   20.94    1.14
   3 -14  -5   18.77    1.18
 -14  -3   7    1.71    0.47
  -3  14  -7    1.91    0.39
   3 -14  -7    2.69    0.51
  -3  14  -9    2.37    0.46
 -14  -3   9    2.28    0.53
   3 -14  -9    1.69    0.49
   3 -14 -11    8.64    0.89
  -3  14 -11    8.12    0.73
  -3  14 -13    0.58    0.41
   3 -14 -13    0.48    0.45
   3 -14 -15    0.23    0.41
   3 -14 -17    0.66    0.55
   3 -14 -19    2.24    0.65
  -4 -14 -18    0.88    0.51
  -4 -14 -16    1.66    0.56
  -4 -14 -14    2.11    0.55
  -4 -14 -12    2.12    0.52
  -4 -14 -10    1.77    0.46
 -14   4   8    6.20    0.72
 -14   4   6    0.99    0.42
 -14   4   4    0.52    0.34
 -14   4   4    1.49    0.42
 -14  -4  -2    5.90    0.50
 -14   4   2    6.52    0.67
   4 -14   2    7.72    0.66
 -14   4   0   25.96    1.34
 -14  -4   0   25.89    1.08
   4 -14   0   25.14    1.29
 -14   4  -2    7.21    0.70
  -4  14  -2    6.36    0.65
 -14  -4   2    7.36    0.71
   4 -14  -2    6.32    0.67
 -14  -4   2    7.16    0.50
 -14   4  -4    1.21    0.43
 -14  -4   4    1.73    0.44
  -4  14  -4    1.34    0.42
   4 -14  -4    1.10    0.41
 -14   4  -6    1.93    0.43
  -4  14  -6    2.22    0.50
 -14  -4   6    2.29    0.53
   4 -14  -6    1.85    0.47
 -14  -4   8    7.75    0.79
   4 -14  -8    6.31    0.77
  -4  14  -8    6.65    0.67
  -4  14 -10    1.99    0.45
   4 -14 -10    0.90    0.40
  14  -4 -10    1.15    0.47
  -4  14 -12    0.98    0.36
   4 -14 -12    1.27    0.53
  14  -4 -12    2.02    0.57
   4 -14 -14    1.88    0.59
  14  -4 -14    2.39    0.61
  -4  14 -14    1.81    0.44
   4 -14 -16    1.26    0.61
  14  -4 -16    0.70    0.51
   4 -14 -18    0.57    0.58
  14  -4 -18   -0.19    0.47
  -5 -14 -19    0.43    0.47
  -5 -14 -17    6.52    0.87
  -5 -14 -15    3.89    0.70
  -5 -14 -13    1.14    0.50
  -5 -14 -11    2.97    0.57
 -14   5   9    0.48    0.41
 -14   5   7   18.06    1.16
   5 -14   5    4.84    0.50
 -14   5   5    6.14    0.68
 -14   5   5    4.30    0.59
 -14   5   3    6.49    0.68
 -14   5   3    5.65    0.65
   5 -14   3    5.77    0.57
 -14  -5  -1    1.16    0.29
   5 -14   1    1.24    0.32
 -14   5   1    0.45    0.36
 -14  -5   1    1.42    0.28
  -5  14  -1    1.00    0.40
 -14   5  -1    2.34    0.47
   5 -14  -1    2.15    0.43
 -14   5  -3    6.75    0.70
  -5  14  -3    5.51    0.63
 -14  -5   3    5.20    0.63
 -14  -5   3    5.55    0.41
   5 -14  -3    5.52    0.64
  -5  14  -5    4.40    0.60
 -14   5  -5    4.60    0.58
 -14  -5   5    4.21    0.58
   5 -14  -5    5.99    0.72
 -14  -5   7   17.11    1.15
  -5  14  -7   16.34    1.07
   5 -14  -7   18.45    1.22
 -14   5  -7   15.95    1.06
  14  -5  -7   17.37    1.12
  -5  14  -9    0.52    0.37
   5 -14  -9    0.65    0.40
  14  -5  -9    1.42    0.46
   5 -14 -11    2.70    0.62
  -5  14 -11    1.73    0.46
  14  -5 -11    1.84    0.52
   5 -14 -13    1.90    0.59
  -5  14 -13    1.57    0.47
  14  -5 -13    1.42    0.51
   5 -14 -15    5.38    0.86
  14  -5 -15    5.83    0.81
   5 -14 -17    6.14    0.95
  14  -5 -17    6.52    0.94
  -6 -14 -18    5.41    0.84
  -6 -14 -16    1.01    0.48
  -6 -14 -14    5.63    0.78
  -6 -14 -12   12.52    1.10
  -6 -14 -10   10.43    0.99
 -14   6   8    6.10    0.70
 -14   6   6   10.62    0.90
   6 -14   6   10.12    0.68
 -14   6   4   16.39    1.06
   6 -14   4   15.00    0.89
 -14   6   4   16.16    1.09
   6 -14   2    8.64    0.69
 -14   6   2   10.02    0.84
  -6  14   0   -0.33    0.35
 -14   6   0   -0.13    0.37
 -14  -6   0    0.27    0.20
   6 -14   0    0.40    0.32
 -14  -6   2    7.84    0.74
 -14   6  -2    9.24    0.81
   6 -14  -2    9.13    0.79
  -6  14  -2   10.13    0.85
  -6  14  -4   15.73    1.04
 -14  -6   4   15.61    1.07
   6 -14  -4   15.23    1.08
 -14   6  -4   14.06    1.03
 -14  -6   6   12.64    0.96
  -6  14  -6    9.98    0.86
 -14   6  -6   10.70    0.90
   6 -14  -6   10.47    0.94
  14  -6  -6   11.24    0.90
 -14   6  -8    6.16    0.68
 -14  -6   8    6.09    0.72
   6 -14  -8    5.64    0.74
  -6  14  -8    5.79    0.68
  14  -6  -8    6.91    0.80
   6 -14 -10   10.20    1.02
  -6  14 -10    8.06    0.79
  14  -6 -10    8.46    0.90
  -6  14 -12   10.33    0.92
   6 -14 -12   11.57    1.12
  14  -6 -12   13.04    1.13
  14  -6 -14    5.82    0.84
   6 -14 -14    6.56    0.93
  -6  14 -14    5.00    0.69
   6 -14 -16    1.85    0.65
  14  -6 -16    0.90    0.53
  14  -6 -18    5.43    0.93
   6 -14 -18    5.69    0.93
  -7 -14 -17    8.78    1.00
  -7 -14 -15    5.26    0.78
  -7 -14 -13   11.17    1.06
  -7 -14 -11    7.09    0.83
 -14   7   7   22.80    1.30
 -14   7   5   15.43    1.05
   7 -14   5   15.11    0.86
 -14   7   5   15.37    1.09
 -14   7   3    1.41    0.43
   7 -14   3    1.02    0.33
   7 -14   1   26.12    1.31
  -7  14   1   26.05    1.44
 -14   7   1   26.04    1.43
 -14   7  -1   29.05    1.52
   7 -14  -1   28.83    1.45
 -14  -7   1   28.51    1.43
  -7  14  -1   28.26    1.50
 -14  -7   3    0.80    0.35
   7 -14  -3    0.56    0.33
  -7  14  -3    1.40    0.46
  14  -7  -3    1.24    0.37
 -14   7  -3    0.96    0.41
  -7  14  -5   14.80    1.07
 -14  -7   5   15.85    1.08
   7 -14  -5   16.09    1.15
 -14   7  -5   14.94    1.06
  14  -7  -5   17.87    1.12
 -14  -7   7   25.57    1.45
 -14   7  -7   23.53    1.38
   7 -14  -7   25.06    1.56
  -7  14  -7   26.11    1.42
  14  -7  -7   26.59    1.50
  14  -7  -9    1.98    0.52
  -7  14  -9    1.74    0.50
   7 -14  -9    2.36    0.58
 -14   7  -9    2.67    0.56
  14  -7 -11    6.49    0.84
   7 -14 -11    7.72    0.95
  -7  14 -11    6.75    0.77
  14  -7 -13    9.62    1.03
   7 -14 -13   11.88    1.20
  -7  14 -13   10.96    0.96
  14  -7 -15    4.36    0.80
  -7  14 -15    4.65    0.69
   7 -14 -15    4.53    0.77
  14  -7 -17    6.66    1.00
   7 -14 -17    9.14    1.11
  -8 -14 -18    1.02    0.54
  -8 -14 -16    5.39    0.81
 -14  -8 -14    6.54    0.73
  -8 -14 -14    5.30    0.74
  -8 -14 -12    3.97    0.69
 -14   8   8   15.69    1.09
 -14   8   6    0.79    0.40
 -14   8   4   27.21    1.38
   8 -14   4   23.42    1.16
 -14   8   4   25.05    1.44
   8 -14   2   24.99    1.25
 -14   8   2   24.99    1.32
 -14   8   2   25.86    1.48
  -8  14   0    1.71    0.49
   8 -14   0    1.11    0.35
 -14   8   0    0.90    0.45
 -14   8  -2   24.11    1.41
 -14  -8   2   23.40    1.31
   8 -14  -2   26.33    1.43
  14  -8  -2   26.48    1.27
  -8  14  -2   24.82    1.43
  -8  14  -4   27.71    1.50
   8 -14  -4   24.93    1.45
 -14   8  -4   24.17    1.40
  14  -8  -4   26.85    1.35
  14  -8  -6    0.17    0.39
 -14  -8   6    0.82    0.41
   8 -14  -6   -0.27    0.40
  -8  14  -6    0.42    0.42
 -14   8  -6   -0.79    0.43
   8 -14  -8   15.96    1.25
 -14   8  -8   14.14    1.08
  -8  14  -8   15.84    1.12
  14  -8  -8   14.77    1.14
   8 -14 -10   14.37    1.27
 -14   8 -10   12.96    1.01
  -8  14 -10   12.44    1.02
  14  -8 -10   11.31    1.08
  -8  14 -12    3.16    0.64
  14  -8 -12    2.79    0.64
   8 -14 -12    2.97    0.69
  14  -8 -14    6.16    0.90
  -8  14 -14    4.79    0.73
   8 -14 -14    5.30    0.87
  14  -8 -16    4.36    0.84
   8 -14 -16    3.72    0.79
  -8  14 -16    3.16    0.69
  -9 -14 -17    1.48    0.56
  -9 -14 -15    1.87    0.56
 -14  -9 -15    1.73    0.47
  -9 -14 -13    3.54    0.66
 -14   9   7   11.19    0.90
 -14   9   5   16.32    1.08
 -14   9   3   10.03    0.82
 -14   9   3    8.88    0.87
   9 -14   1   19.62    1.15
  -9  14   1   18.89    1.26
 -14   9   1   20.66    1.32
 -14   9  -1   18.66    1.24
   9 -14  -1   17.44    1.15
 -14  -9   1   17.73    1.11
  -9  14  -1   17.76    1.20
  14  -9  -1   18.31    1.01
 -14  -9   3    8.75    0.80
   9 -14  -3    8.91    0.87
 -14   9  -3    8.17    0.84
  -9  14  -3    8.23    0.84
  14  -9  -3   10.27    0.80
  -9  14  -5   17.71    1.21
 -14  -9   5   18.51    1.20
   9 -14  -5   17.57    1.26
 -14   9  -5   15.60    1.17
  14  -9  -5   15.94    1.09
 -14  -9   7    9.55    0.88
   9 -14  -7   10.81    1.04
  -9  14  -7   11.05    0.96
 -14   9  -7   10.22    0.93
  14  -9  -7    9.37    0.92
  14  -9  -9    0.72    0.41
  -9  14  -9    1.05    0.43
   9 -14  -9    1.16    0.54
 -14   9  -9    0.82    0.45
  14  -9 -11    2.89    0.62
   9 -14 -11    3.03    0.70
 -14   9 -11    1.89    0.53
  -9  14 -11    2.69    0.56
  -9  14 -13    4.28    0.70
   9 -14 -13    3.31    0.75
  14  -9 -13    3.29    0.73
  14  -9 -15    0.31    0.53
  -9  14 -15    0.81    0.50
   9 -14 -15    1.59    0.65
  14  -9 -17    2.45    0.69
  -9  14 -17    1.81    0.59
 -10 -14 -16    0.34    0.46
 -14 -10 -14    1.35    0.46
 -10 -14 -14    1.26    0.55
 -14  10   6    9.46    0.81
 -14  10   4    3.58    0.55
 -14  10   4    3.39    0.62
 -14  10   2    4.06    0.65
 -14  10   2    4.78    0.60
 -10  14   2    4.72    0.70
  10 -14   0    7.84    0.76
 -14 -10   0    9.52    0.81
 -10  14   0    8.64    0.88
 -14  10   0    7.67    0.84
  14 -10  -2    6.16    0.63
 -14  10  -2    5.00    0.70
  10 -14  -2    4.80    0.66
 -14 -10   2    5.21    0.64
 -10  14  -2    5.93    0.77
 -10  14  -4    4.06    0.65
  14 -10  -4    4.67    0.62
 -14 -10   4    4.49    0.65
  10 -14  -4    4.18    0.67
 -14  10  -4    3.61    0.60
 -14 -10   6    8.50    0.84
  10 -14  -6    8.18    0.93
 -10  14  -6    7.60    0.86
 -14  10  -6   10.17    0.92
  14 -10  -6    8.45    0.86
  14 -10  -8    2.18    0.59
  10 -14  -8    2.55    0.64
 -14  10  -8    2.09    0.53
 -10  14  -8    2.13    0.55
  14 -10 -10    3.20    0.65
 -10  14 -10    2.65    0.59
  10 -14 -10    4.63    0.77
 -14  10 -10    4.16    0.68
  14 -10 -12    1.21    0.52
  10 -14 -12    0.04    0.49
 -14  10 -12    0.41    0.47
 -10  14 -12    0.23    0.41
  14 -10 -14    0.95    0.52
  10 -14 -14    0.90    0.51
 -10  14 -14    0.37    0.50
  14 -10 -16    0.18    0.53
  10 -14 -16    0.02    0.59
 -10  14 -16    0.38    0.53
 -11 -14 -15    0.90    0.50
 -14 -11 -15   -0.14    0.44
 -11 -14 -13    1.19    0.48
 -14  11   7    1.48    0.44
 -14  11   5    4.59    0.60
 -14  11   3    0.19    0.44
 -14  11   3    0.08    0.35
 -11  14   1    0.49    0.45
 -14  11   1    1.51    0.55
 -14 -11  -1    1.30    0.41
 -14  11   1    0.90    0.35
  11 -14  -1    1.13    0.39
 -11  14  -1    0.45    0.44
 -14 -11   1    1.71    0.44
 -14  11  -1    1.04    0.51
  14 -11  -3    0.06    0.33
 -14  11  -3    0.41    0.48
  11 -14  -3    0.77    0.43
 -14 -11   3    0.52    0.38
 -11  14  -3    0.91    0.48
  14 -11  -5    3.90    0.61
 -11  14  -5    4.39    0.71
 -14 -11   5    3.60    0.62
  11 -14  -5    3.05    0.57
 -14  11  -5    4.43    0.72
  14 -11  -7    1.47    0.48
  11 -14  -7    0.75    0.45
 -11  14  -7    1.06    0.51
 -11  14  -9    4.38    0.69
  14 -11  -9    3.36    0.65
  11 -14  -9    5.31    0.81
 -14  11  -9    3.32    0.64
  14 -11 -11    0.75    0.47
 -14  11 -11    0.84    0.49
  11 -14 -11    1.29    0.60
 -11  14 -11    1.94    0.57
  14 -11 -13    0.77    0.55
 -14  11 -13    0.35    0.47
  11 -14 -13    1.19    0.63
 -11  14 -13    1.60    0.57
  14 -11 -15    0.48    0.51
  11 -14 -15    0.94    0.59
 -11  14 -15    1.55    0.58
 -14 -12 -16    3.17    0.65
 -14 -12 -14    4.64    0.74
 -12 -14 -14    5.13    0.80
 -14  12   6   -0.17    0.35
 -14  12   4    9.44    0.80
 -14  12   2    1.50    0.55
 -14  12   2    2.54    0.50
 -14 -12  -2    3.13    0.51
 -12  14   2    1.51    0.48
 -12  14   0   -0.48    0.51
 -14  12   0   -0.10    0.50
 -14 -12   0    0.31    0.36
  12 -14  -2    1.14    0.42
 -14 -12   2    1.61    0.45
 -12  14  -2    1.61    0.55
 -14  12  -2    2.11    0.56
 -14 -12   4    9.16    0.84
  14 -12  -4    7.01    0.76
 -14  12  -4    8.91    0.92
  12 -14  -4    7.89    0.85
 -12  14  -4    9.14    0.94
  14 -12  -6   -0.42    0.42
  12 -14  -6    0.19    0.43
 -12  14  -6   -0.10    0.48
 -14  12  -6    0.05    0.43
 -14  12  -8    2.27    0.61
  14 -12  -8    3.92    0.70
  12 -14  -8    2.15    0.61
 -12  14  -8    2.03    0.56
  12 -14 -10   11.88    1.23
 -12  14 -10   13.15    1.13
 -14  12 -10   11.40    1.05
  14 -12 -10   10.50    1.10
  14 -12 -12    2.68    0.69
  12 -14 -12    2.37    0.66
 -12  14 -12    2.94    0.64
 -14  12 -12    4.18    0.74
  14 -12 -14    4.81    0.87
  12 -14 -14    5.17    0.96
 -12  14 -14    4.49    0.76
 -14 -13 -15    9.68    1.06
 -13 -14 -13    3.05    0.71
 -14 -13  -3    4.37    0.59
 -14  13   3    3.81    0.67
 -13  14   1    1.85    0.60
 -14  13   1    2.06    0.57
 -14 -13  -1    3.34    0.55
 -14 -13   1    2.89    0.51
 -13  14  -1    3.33    0.66
 -14  13  -1    3.67    0.71
 -14 -13   3    4.51    0.65
 -13  14  -3    4.06    0.69
 -14  13  -3    2.98    0.66
 -13  14  -5    4.80    0.76
  14 -13  -5    4.34    0.66
  13 -14  -5    5.46    0.77
 -14  13  -5    5.42    0.80
  14 -13  -7    5.31    0.77
  13 -14  -7    4.90    0.75
 -13  14  -7    5.53    0.81
 -14  13  -7    4.78    0.74
 -13  14  -9   10.06    1.01
 -14  13  -9    9.18    1.01
  14 -13  -9    9.28    1.06
  13 -14  -9   10.74    1.16
  14 -13 -11    4.31    0.80
 -13  14 -11    5.14    0.79
  13 -14 -11    5.14    0.90
 -14  13 -11    3.86    0.68
  14 -13 -13    3.92    0.81
  13 -14 -13    2.37    0.73
 -14  14   2    2.07    0.56
 -14  14   0    8.07    0.95
 -14  14  -2    2.70    0.66
 -14  14  -4    7.01    0.89
  14 -14  -6    0.23    0.41
 -14  14  -6    0.85    0.55
  14 -14  -8    2.18    0.58
 -14  14  -8    1.05    0.53
  14 -14 -10    7.96    1.03
 -14  14 -10    8.11    0.94
  14 -14 -12    1.47    0.64
 -15   0   1    8.33    0.68
 -15   0  -1    8.42    0.69
 -15   0  -3   21.98    1.14
 -15   0   3   19.65    1.22
 -15   0   3   20.74    1.09
   0 -15  -5    0.10    0.35
   0  15  -5    0.34    0.27
 -15   0   5   -0.14    0.41
 -15   0   7    2.67    0.51
   0  15  -7    4.30    0.49
   0 -15  -7    3.37    0.58
   0  15  -9   32.71    1.41
 -15   0   9   31.76    1.68
   0 -15  -9   31.11    1.70
   0  15 -11    4.81    0.53
   0 -15 -11    4.30    0.69
   0 -15 -13    3.90    0.70
   0 -15 -15   12.22    1.17
   0 -15 -17    3.13    0.69
  -1 -15 -18    3.50    0.75
  -1 -15 -16    0.53    0.42
  -1 -15 -14    4.59    0.79
  -1 -15 -12   19.64    1.38
 -15   1  10   10.06    0.94
   1  15 -10    9.34    0.69
  -1 -15 -10    9.75    0.95
 -15   1   8    7.54    0.81
  -1 -15  -8    8.53    0.86
   1  15  -8    8.89    0.64
  -1 -15  -6   13.82    1.05
 -15   1   6   15.13    1.07
   1  15  -6   13.10    0.77
 -15   1   4   12.66    0.96
 -15   1   4   13.34    0.86
 -15  -1  -2    5.81    0.58
 -15   1   2    5.89    0.61
 -15   1   0   19.02    1.08
 -15  -1   0   19.54    1.03
 -15   1  -2    5.24    0.57
 -15  -1   2    5.41    0.52
 -15  -1   4   14.37    1.01
 -15   1  -4   11.17    0.83
   1 -15  -4   13.93    0.99
 -15  -1   4   13.47    0.81
  -1  15  -4   13.57    0.85
 -15  -1   6   13.88    1.02
   1 -15  -6   13.20    1.05
  -1  15  -6   15.53    0.92
  -1  15  -8   10.16    0.75
 -15  -1   8    8.51    0.84
   1 -15  -8    8.59    0.90
  -1  15 -10    9.79    0.76
   1 -15 -10    9.49    0.93
   1 -15 -12   16.26    1.27
  -1  15 -12   18.66    1.08
   1 -15 -14    4.81    0.75
  -1  15 -14    4.42    0.58
   1 -15 -16   -0.37    0.49
   1 -15 -18    3.80    0.80
  -2 -15 -17    2.48    0.64
  -2 -15 -15    2.86    0.67
  -2 -15 -13    1.48    0.51
  -2 -15 -11    1.39    0.48
 -15   2   9    5.03    0.70
  -2 -15  -9    4.03    0.64
  -2 -15  -7    1.14    0.42
   2  15  -7    1.11    0.30
 -15   2   7    1.54    0.50
 -15   2   5    2.71    0.52
 -15   2   5    1.61    0.37
 -15  -2  -3    0.12    0.28
 -15   2   3    0.25    0.29
 -15   2   3    0.18    0.36
 -15   2   1    0.81    0.37
 -15  -2  -1    0.91    0.33
 -15  -2   1    0.94    0.31
 -15   2  -1    0.96    0.38
  -2  15  -3   -0.17    0.34
 -15  -2   3    0.10    0.25
 -15  -2   3   -0.17    0.40
 -15   2  -3    0.64    0.35
   2 -15  -3   -0.02    0.31
  -2  15  -5    2.13    0.44
 -15  -2   5    1.76    0.45
 -15   2  -5    1.42    0.40
   2 -15  -5    1.79    0.46
 -15  -2   7    1.05    0.45
   2 -15  -7    1.03    0.43
  -2  15  -7    2.05    0.45
 -15  -2   9    4.11    0.65
  -2  15  -9    3.94    0.53
   2 -15  -9    3.79    0.65
  -2  15 -11    1.00    0.41
   2 -15 -11    0.71    0.42
  -2  15 -13    1.28    0.42
   2 -15 -13    0.96    0.42
  -2  15 -15    2.98    0.53
   2 -15 -15    4.33    0.74
   2 -15 -17    2.81    0.71
  -3 -15 -18    1.40    0.61
  -3 -15 -16    1.89    0.57
  -3 -15 -14    0.47    0.43
  -3 -15 -12    2.66    0.57
  -3 -15 -10    2.45    0.54
  -3 -15  -8    3.70    0.62
 -15   3   8    3.53    0.58
 -15   3   6    0.46    0.43
 -15   3   4    3.04    0.50
 -15   3   4    4.25    0.60
 -15  -3  -2    6.54    0.55
 -15   3   2    5.10    0.60
 -15   3   0    9.44    0.79
 -15  -3   0    9.30    0.64
   3 -15   0    8.16    0.74
  -3  15  -2    5.92    0.61
 -15   3  -2    7.35    0.71
 -15  -3   2    6.68    0.52
   3 -15  -2    6.19    0.68
 -15   3  -4    3.43    0.52
  -3  15  -4    3.93    0.54
 -15  -3   4    3.97    0.60
   3 -15  -4    3.88    0.56
 -15  -3   6    0.57    0.41
 -15   3  -6    0.15    0.34
  -3  15  -6    0.15    0.31
   3 -15  -6   -0.30    0.35
 -15  -3   8    3.71    0.63
  -3  15  -8    4.03    0.54
   3 -15  -8    3.87    0.61
   3 -15 -10    2.35    0.58
  -3  15 -10    2.83    0.51
  -3  15 -12    2.99    0.53
   3 -15 -12    2.15    0.57
  -3  15 -14    1.26    0.42
   3 -15 -14    1.14    0.52
  -3  15 -16   -0.16    0.42
   3 -15 -16    1.47    0.61
   3 -15 -18    0.07    0.50
  -4 -15 -17    2.53    0.63
  -4 -15 -15    3.94    0.72
  -4 -15 -13    0.77    0.49
  -4 -15 -11    0.19    0.38
  -4 -15  -9    2.27    0.56
 -15   4   9    0.90    0.41
 -15   4   7   12.59    0.99
 -15   4   5    4.07    0.60
 -15   4   5    3.67    0.54
   4 -15   3    2.58    0.42
 -15   4   3    3.32    0.51
 -15   4   3    2.80    0.52
 -15  -4  -1    1.37    0.33
 -15   4   1    0.88    0.40
   4 -15   1    0.81    0.33
 -15  -4   1    1.35    0.30
 -15   4  -1    0.99    0.41
  -4  15  -1    0.72    0.35
   4 -15  -1    0.58    0.32
 -15  -4   3    2.87    0.34
 -15   4  -3    2.21    0.48
  -4  15  -3    3.15    0.49
 -15  -4   3    2.10    0.47
   4 -15  -3    3.08    0.52
 -15   4  -5    4.49    0.59
 -15  -4   5    4.50    0.65
  -4  15  -5    4.52    0.55
   4 -15  -5    4.38    0.61
  -4  15  -7   11.87    0.91
 -15  -4   7   12.20    1.00
 -15   4  -7   10.60    0.89
   4 -15  -7   13.25    1.05
 -15  -4   9    0.12    0.43
   4 -15  -9    1.11    0.45
  -4  15  -9    0.75    0.38
  -4  15 -11    1.12    0.43
   4 -15 -11    0.13    0.41
   4 -15 -13   -0.03    0.45
  -4  15 -13    0.67    0.40
   4 -15 -15    3.32    0.75
  -4  15 -15    3.31    0.58
  -4  15 -17    2.12    0.51
   4 -15 -17    4.37    0.82
  -5 -15 -16    0.86    0.46
  -5 -15 -14    5.22    0.75
  -5 -15 -12   14.36    1.19
  -5 -15 -10    7.31    0.87
 -15   5   8    3.57    0.60
 -15   5   6    7.90    0.79
 -15   5   4    1.37    0.42
 -15   5   4    1.65    0.48
   5 -15   4    1.43    0.34
 -15  -5  -2    0.69    0.24
 -15   5   2    1.35    0.42
   5 -15   2    0.77    0.29
 -15   5   0    0.20    0.36
 -15  -5   0    0.14    0.21
   5 -15   0   -0.30    0.30
  -5  15  -2    0.83    0.40
 -15  -5   2    1.13    0.40
 -15   5  -2    0.63    0.40
   5 -15  -2    0.64    0.36
 -15   5  -4    2.00    0.47
 -15  -5   4    1.90    0.47
  -5  15  -4    1.89    0.46
   5 -15  -4    2.81    0.53
  -5  15  -6    8.65    0.80
 -15   5  -6    7.90    0.80
 -15  -5   6    7.86    0.81
   5 -15  -6    9.38    0.88
 -15  -5   8    3.15    0.62
  -5  15  -8    2.99    0.55
   5 -15  -8    3.11    0.61
  -5  15 -10    6.46    0.73
   5 -15 -10    6.94    0.87
  15  -5 -10    7.01    0.81
   5 -15 -12   14.17    1.23
  -5  15 -12   12.77    1.00
  15  -5 -12   12.21    1.13
  -5  15 -14    5.46    0.69
   5 -15 -14    4.38    0.78
  15  -5 -14    4.34    0.78
  -5  15 -16    0.82    0.44
   5 -15 -16    0.96    0.60
  15  -5 -16    0.75    0.59
  -6 -15 -17    6.87    0.94
  -6 -15 -15   14.15    1.24
  -6 -15 -13    6.23    0.81
  -6 -15 -11    3.18    0.67
 -15   6   9   16.14    1.16
 -15   6   7   26.99    1.49
 -15   6   5    0.98    0.44
 -15   6   5    0.79    0.36
   6 -15   5    0.95    0.30
 -15   6   3    3.43    0.58
 -15   6   3    2.36    0.50
   6 -15   3    3.26    0.44
 -15   6   1    5.36    0.68
   6 -15   1    4.20    0.54
  -6  15  -1    4.70    0.63
 -15   6  -1    3.83    0.59
   6 -15  -1    4.50    0.60
  -6  15  -3    2.77    0.54
 -15  -6   3    2.29    0.48
   6 -15  -3    3.23    0.55
 -15   6  -3    3.76    0.59
 -15  -6   5    1.83    0.51
 -15   6  -5    1.25    0.48
   6 -15  -5    1.29    0.46
  -6  15  -5    1.20    0.44
 -15  -6   7   29.88    1.59
  -6  15  -7   27.49    1.49
 -15   6  -7   28.06    1.51
   6 -15  -7   28.89    1.66
  15  -6  -7   28.80    1.55
   6 -15  -9   17.49    1.32
  -6  15  -9   16.11    1.14
  15  -6  -9   18.11    1.25
  -6  15 -11    2.93    0.57
   6 -15 -11    2.77    0.66
  15  -6 -11    3.27    0.67
   6 -15 -13    6.37    0.91
  -6  15 -13    5.55    0.71
  15  -6 -13    5.59    0.83
   6 -15 -15   16.54    1.43
  -6  15 -15   13.75    1.10
  15  -6 -15   14.09    1.30
  -6  15 -17    5.05    0.75
  15  -6 -17    5.36    0.90
  -7 -15 -16    2.02    0.60
  -7 -15 -14    3.74    0.70
  -7 -15 -12   15.36    1.24
 -15   7   8    6.18    0.74
 -15   7   6   11.14    0.94
 -15   7   4    8.71    0.80
   7 -15   4    9.09    0.70
 -15   7   4    8.87    0.86
   7 -15   2    7.75    0.68
 -15   7   2    8.64    0.85
  -7  15   0    2.01    0.50
   7 -15   0    2.53    0.49
 -15   7   0    2.58    0.56
  -7  15  -2    7.30    0.76
   7 -15  -2    7.77    0.77
 -15   7  -2    7.46    0.77
 -15  -7   2    6.85    0.72
 -15   7  -4    8.04    0.81
   7 -15  -4    7.94    0.83
 -15  -7   4    6.90    0.73
  -7  15  -4    9.04    0.85
  -7  15  -6    8.88    0.87
 -15  -7   6    8.47    0.85
   7 -15  -6   10.29    0.99
  15  -7  -6   10.76    0.91
 -15   7  -6   10.23    0.91
 -15  -7   8    5.34    0.74
   7 -15  -8    5.48    0.79
  -7  15  -8    5.44    0.71
 -15   7  -8    6.38    0.76
  15  -7  -8    5.24    0.75
 -15   7 -10    8.61    0.87
  -7  15 -10    8.37    0.85
   7 -15 -10    9.34    1.05
  15  -7 -10    9.09    0.97
   7 -15 -12   15.19    1.36
  -7  15 -12   12.59    1.05
  15  -7 -12   14.82    1.25
  15  -7 -14    3.62    0.75
  -7  15 -14    3.51    0.65
   7 -15 -14    3.89    0.79
  15  -7 -16    0.44    0.52
  -7  15 -16    1.87    0.56
   7 -15 -16    2.19    0.69
  -7  15 -18    4.06    0.75
  -8 -15 -15   -0.13    0.48
  -8 -15 -13    3.01    0.64
  -8 -15 -11    3.93    0.66
 -15   8   7    6.07    0.72
 -15   8   5    4.48    0.65
 -15   8   3    0.50    0.38
 -15   8   3    0.27    0.37
   8 -15   3    0.83    0.34
   8 -15   1    7.97    0.73
 -15   8   1    8.37    0.84
  -8  15   1    8.36    0.82
 -15   8  -1    7.77    0.86
  -8  15  -1    7.69    0.82
 -15  -8   1    8.08    0.77
   8 -15  -1    7.60    0.76
 -15  -8   3    0.07    0.38
  -8  15  -3   -0.04    0.40
   8 -15  -3    1.17    0.43
 -15   8  -3    0.28    0.38
  -8  15  -5    6.38    0.76
  15  -8  -5    6.85    0.73
 -15   8  -5    5.44    0.70
 -15  -8   5    5.50    0.70
   8 -15  -5    4.36    0.67
  15  -8  -7    6.61    0.76
 -15  -8   7    5.95    0.76
  -8  15  -7    5.68    0.72
   8 -15  -7    5.24    0.78
 -15   8  -7    5.67    0.72
  15  -8  -9    0.94    0.47
   8 -15  -9    0.50    0.49
 -15   8  -9    0.14    0.46
  -8  15  -9    0.79    0.47
  15  -8 -11    3.87    0.69
 -15   8 -11    4.91    0.71
  -8  15 -11    5.21    0.71
   8 -15 -11    3.97    0.78
  15  -8 -13    2.61    0.64
   8 -15 -13    3.73    0.76
  -8  15 -13    2.62    0.62
  15  -8 -15   -0.72    0.56
  -8  15 -15    0.23    0.45
   8 -15 -15    0.21    0.50
  -8  15 -17    3.43    0.72
  -9 -15 -16    1.41    0.58
  -9 -15 -14    1.38    0.58
  -9 -15 -12    0.46    0.40
 -15   9   8    2.76    0.53
 -15   9   6    7.72    0.79
 -15   9   4    0.24    0.41
 -15   9   4    0.28    0.36
 -15   9   2    7.94    0.83
 -15   9   2    7.73    0.75
   9 -15   0    8.85    0.83
 -15  -9   0   11.11    0.87
  -9  15   0   10.24    0.96
 -15   9   0   12.16    1.00
 -15   9  -2    7.86    0.85
 -15  -9   2    8.58    0.82
   9 -15  -2    8.98    0.88
  -9  15  -2    8.40    0.88
  15  -9  -2    8.80    0.72
 -15  -9   4    0.53    0.43
   9 -15  -4    1.38    0.48
 -15   9  -4    0.90    0.43
  -9  15  -4    0.94    0.50
  15  -9  -4    1.09    0.40
  15  -9  -6    6.06    0.73
 -15   9  -6    5.55    0.73
  -9  15  -6    6.30    0.75
 -15  -9   6    5.71    0.74
   9 -15  -6    5.94    0.81
  15  -9  -8    2.25    0.53
   9 -15  -8    3.96    0.69
  -9  15  -8    3.15    0.64
 -15   9  -8    3.86    0.64
  -9  15 -10    1.70    0.51
  15  -9 -10    1.91    0.63
   9 -15 -10    1.84    0.57
 -15   9 -10    0.54    0.41
  15  -9 -12    0.56    0.50
 -15   9 -12   -0.11    0.42
   9 -15 -12    0.60    0.56
  -9  15 -12   -0.12    0.42
  15  -9 -14    1.95    0.64
   9 -15 -14    1.53    0.67
  -9  15 -14    2.53    0.62
  15  -9 -16    2.37    0.70
  -9  15 -16    1.99    0.61
 -10 -15 -15    0.66    0.50
 -10 -15 -13    1.21    0.56
 -15  10   7    2.09    0.47
 -15  10   5    7.68    0.80
 -15  10   3    4.40    0.69
 -15  10   3    3.73    0.56
 -10  15   1    1.79    0.51
 -15  10   1    2.81    0.61
 -15 -10  -1    1.83    0.46
 -10  15  -1    1.83    0.53
  10 -15  -1    2.40    0.51
 -15 -10   1    1.81    0.48
 -15  10  -1    2.60    0.59
  15 -10  -3    5.19    0.63
 -15  10  -3    4.58    0.70
  10 -15  -3    5.08    0.70
 -15 -10   3    4.60    0.66
 -10  15  -3    4.21    0.69
 -10  15  -5    7.14    0.87
 -15 -10   5    7.40    0.79
  10 -15  -5    7.51    0.89
 -15  10  -5    7.21    0.81
  15 -10  -5    7.68    0.79
  15 -10  -7    1.97    0.54
 -15  10  -7    3.01    0.61
  10 -15  -7    2.11    0.57
 -10  15  -7    1.64    0.53
  15 -10  -9    0.40    0.45
  10 -15  -9    0.05    0.51
 -15  10  -9    0.18    0.41
 -10  15  -9    0.56    0.47
  15 -10 -11    1.69    0.56
 -10  15 -11    2.25    0.59
  10 -15 -11    1.84    0.61
 -15  10 -11    2.22    0.56
  15 -10 -13    0.64    0.53
  10 -15 -13   -0.38    0.49
 -10  15 -13    0.21    0.45
 -15  10 -13    0.42    0.46
 -10  15 -15    0.53    0.49
  15 -10 -15    2.02    0.63
  10 -15 -15    1.30    0.68
 -15 -11 -14    0.10    0.42
 -11 -15 -14    1.10    0.58
 -15  11   6    2.39    0.50
 -15  11   4    0.47    0.41
 -15  11   2    0.82    0.44
 -15  11   2    1.23    0.42
 -11  15   0    1.39    0.54
 -15  11   0    0.85    0.50
 -15 -11   0    0.69    0.43
  11 -15  -2    1.74    0.48
 -15 -11   2    1.18    0.48
 -11  15  -2    1.67    0.60
 -15  11  -2    1.11    0.51
  15 -11  -4    0.52    0.37
 -15 -11   4    0.38    0.40
  11 -15  -4    0.12    0.40
 -15  11  -4    0.91    0.49
 -11  15  -4    0.33    0.46
 -15 -11   6    2.26    0.56
  15 -11  -6    1.64    0.53
 -11  15  -6    2.88    0.66
  11 -15  -6    0.78    0.43
 -15  11  -6    2.58    0.59
  15 -11  -8    0.16    0.44
 -15  11  -8    0.33    0.43
  11 -15  -8    0.08    0.47
 -11  15  -8    0.36    0.44
  15 -11 -10    0.74    0.45
  11 -15 -10    0.93    0.53
 -15  11 -10    0.58    0.49
 -11  15 -10    1.08    0.58
  15 -11 -12    0.41    0.46
 -15  11 -12    0.09    0.44
 -11  15 -12    0.48    0.50
  11 -15 -12    0.12    0.47
  15 -11 -14    0.14    0.51
  11 -15 -14    1.39    0.61
 -11  15 -14    0.81    0.55
 -15 -12 -15    2.51    0.60
 -12 -15 -13    0.68    0.47
 -15  12   5    2.92    0.54
 -15  12   3    0.85    0.41
 -15  12   3   -0.40    0.47
 -12  15   1    0.32    0.45
 -15  12   1    0.11    0.42
 -15 -12  -1   -0.05    0.38
 -15  12   1    0.13    0.34
 -12  15  -1    0.96    0.48
 -15 -12   1   -0.05    0.39
 -15  12  -1    0.15    0.47
 -15 -12   3    0.81    0.49
 -12  15  -3    0.17    0.44
 -15  12  -3    0.86    0.56
 -15 -12   5    3.54    0.60
  15 -12  -5    2.71    0.56
  12 -15  -5    2.41    0.59
 -15  12  -5    2.97    0.64
 -12  15  -5    3.40    0.68
  15 -12  -7    1.09    0.49
  12 -15  -7    1.04    0.49
 -12  15  -7    1.95    0.56
 -15  12  -7    1.25    0.56
  15 -12  -9    2.37    0.60
 -15  12  -9    3.61    0.69
  12 -15  -9    3.31    0.75
 -12  15  -9    3.25    0.68
 -12  15 -11    0.01    0.46
  15 -12 -11    0.73    0.48
  12 -15 -11   -0.07    0.50
 -15  12 -11    1.12    0.58
  15 -12 -13    0.23    0.48
  12 -15 -13    0.99    0.63
 -12  15 -13    0.02    0.46
 -15 -13 -14    0.60    0.47
 -15  13   2    2.10    0.60
 -15 -13  -2    2.03    0.47
 -13  15   0    1.24    0.56
 -15  13   0    1.57    0.56
 -15 -13   0    1.73    0.46
 -15 -13   2    1.96    0.51
 -13  15  -2    2.60    0.69
 -15  13  -2    1.99    0.59
 -15  13  -4    4.40    0.74
 -15 -13   4    4.44    0.69
 -13  15  -4    4.58    0.76
 -13  15  -6   -0.76    0.61
  13 -15  -6    0.33    0.45
 -15  13  -6    0.17    0.44
  15 -13  -8    0.46    0.45
  13 -15  -8    1.28    0.52
 -13  15  -8    1.55    0.59
 -15  13  -8    1.65    0.58
 -15  13 -10    2.56    0.65
  15 -13 -10    2.57    0.65
  13 -15 -10    3.55    0.82
 -13  15 -10    2.33    0.62
  15 -13 -12    0.25    0.57
  13 -15 -12    0.71    0.58
 -14  15   1    4.37    0.77
 -15  14   1    4.94    0.81
 -14  15  -1    6.51    0.90
 -15  14  -1    6.07    0.84
 -14  15  -3    6.28    0.89
 -15  14  -3    5.75    0.85
 -15  14  -5    9.06    1.01
 -14  15  -5    9.08    1.04
 -14  15  -7    1.92    0.60
 -15  14  -7    3.19    0.66
  15 -14  -9   -0.57    0.55
  14 -15  -9    0.55    0.53
  15 -14 -11    0.78    0.59
  14 -15 -11    1.08    0.65
 -15  15   0   32.25    1.93
 -15  15  -2   10.91    1.14
 -15  15  -4    2.24    0.66
  15 -15 -10   -0.33    0.51
 -16   0   0   23.10    1.21
 -16   0  -2    7.12    0.66
 -16   0   2    6.83    0.65
   0 -16  -4   17.15    1.19
 -16   0  -4   18.72    1.07
 -16   0   4   17.01    1.14
 -16   0   4   15.47    0.94
 -16   0   6   15.55    1.14
   0 -16  -6   15.57    1.14
   0  16  -6   16.32    0.92
 -16   0   8   12.52    1.06
   0 -16  -8   12.18    1.08
   0  16  -8   13.50    0.84
 -16   0  10   10.32    0.96
   0 -16 -10   10.16    1.01
   0 -16 -12   21.98    1.54
   0 -16 -14    7.89    1.00
   0 -16 -16    1.42    0.55
  -1 -16 -17    1.78    0.54
  -1 -16 -15   12.12    1.18
  -1 -16 -13    6.04    0.86
  -1 -16 -11    2.78    0.55
 -16   1   9   33.65    1.76
  -1 -16  -9   31.52    1.75
 -16   1   7    7.09    0.80
   1  16  -7    7.05    0.58
  -1 -16  -7    7.37    0.83
  -1 -16  -5    1.47    0.45
 -16   1   5    1.63    0.46
 -16  -1  -3   29.97    1.40
 -16   1   3   31.19    1.59
 -16   1   3   29.86    1.43
 -16   1   1    7.66    0.71
 -16  -1  -1    6.98    0.65
 -16  -1   1    7.76    0.67
 -16   1  -1    7.31    0.68
   1 -16  -3   28.66    1.56
 -16  -1   3   32.30    1.61
 -16  -1   3   30.10    1.35
 -16   1  -3   30.59    1.47
  -1  16  -5    1.75    0.40
 -16   1  -5    1.82    0.42
 -16  -1   5    0.69    0.39
   1 -16  -5    2.09    0.49
 -16  -1   7    9.33    0.88
   1 -16  -7    7.28    0.80
  -1  16  -7    7.55    0.67
  -1  16  -9   37.63    1.62
 -16  -1   9   34.57    1.81
   1 -16  -9   33.50    1.84
  -1  16 -11    2.54    0.45
   1 -16 -11    3.08    0.63
   1 -16 -13    4.13    0.75
   1 -16 -15   12.51    1.20
   1 -16 -17    1.89    0.57
  -2 -16 -16    0.82    0.49
  -2 -16 -14    2.23    0.64
  -2 -16 -12    5.56    0.79
 -16   2  10    3.85    0.69
  -2 -16 -10    5.37    0.76
 -16   2   8    1.54    0.54
  -2 -16  -8    0.23    0.37
 -16   2   6    2.53    0.59
 -16   2   4    4.39    0.56
 -16  -2  -4    4.24    0.50
 -16   2   4    4.66    0.64
 -16  -2  -2    0.21    0.29
 -16   2   2    1.21    0.39
 -16   2   0   -0.39    0.40
 -16  -2   0    0.35    0.26
   2 -16  -2    0.94    0.38
 -16   2  -2    0.36    0.34
 -16  -2   2    0.91    0.31
  -2  16  -4    3.79    0.55
 -16  -2   4    3.65    0.60
 -16  -2   4    4.26    0.46
 -16   2  -4    3.54    0.52
   2 -16  -4    4.51    0.63
 -16   2  -6    3.39    0.53
 -16  -2   6    2.31    0.54
  -2  16  -6    2.99    0.50
   2 -16  -6    3.69    0.60
 -16  -2   8    0.54    0.46
   2 -16  -8    1.12    0.44
  -2  16  -8    1.15    0.42
  -2  16 -10    4.39    0.57
   2 -16 -10    4.62    0.74
   2 -16 -12    5.20    0.78
  -2  16 -12    5.75    0.64
   2 -16 -14    2.22    0.60
   2 -16 -16    0.17    0.47
  -3 -16 -15    1.38    0.49
  -3 -16 -13    1.06    0.50
  -3 -16 -11    1.10    0.49
 -16   3   9    0.74    0.49
  -3 -16  -9   -0.48    0.48
 -16   3   7    4.45    0.69
 -16   3   5    1.41    0.46
 -16   3   5    0.15    0.34
 -16   3   3    5.03    0.62
 -16  -3  -3    4.15    0.50
 -16   3   3    4.18    0.62
   3 -16   1    0.47    0.33
 -16   3   1    0.16    0.31
 -16  -3  -1    1.28    0.35
 -16   3  -1    0.68    0.34
 -16  -3   1    0.65    0.30
   3 -16  -1    0.82    0.39
  -3  16  -3    3.80    0.53
 -16  -3   3    4.81    0.46
 -16   3  -3    3.23    0.53
 -16  -3   3    4.98    0.64
   3 -16  -3    3.32    0.56
 -16   3  -5    0.88    0.35
  -3  16  -5    1.41    0.44
 -16  -3   5    1.34    0.49
   3 -16  -5    0.58    0.36
 -16   3  -7    3.65    0.54
 -16  -3   7    5.49    0.74
  -3  16  -7    5.36    0.63
   3 -16  -7    4.45    0.68
 -16  -3   9    0.29    0.43
  -3  16  -9    0.04    0.35
   3 -16  -9   -0.02    0.40
   3 -16 -11    1.26    0.45
  -3  16 -11    1.11    0.42
  -3  16 -13    1.43    0.43
   3 -16 -13    1.40    0.56
   3 -16 -15    1.73    0.61
  -4 -16 -16    0.23    0.44
  -4 -16 -14    1.83    0.51
  -4 -16 -12    6.01    0.79
  -4 -16 -10    3.79    0.67
  -4 -16  -8    7.36    0.86
 -16   4   8    7.54    0.82
 -16   4   6    2.09    0.53
 -16   4   4   -0.30    0.35
 -16   4   4    0.14    0.37
 -16   4   2    4.94    0.62
 -16  -4  -2    5.90    0.53
   4 -16   2    5.33    0.60
 -16   4   0    0.47    0.32
 -16  -4   0    1.01    0.29
   4 -16   0    1.32    0.40
 -16  -4   2    6.57    0.71
  -4  16  -2    6.08    0.66
 -16   4  -2    4.34    0.58
   4 -16  -2    6.05    0.67
  -4  16  -4   -0.14    0.35
 -16   4  -4    0.14    0.30
 -16  -4   4   -0.05    0.38
   4 -16  -4    0.19    0.36
 -16  -4   6    2.22    0.54
 -16   4  -6    2.41    0.50
  -4  16  -6    1.51    0.45
   4 -16  -6    2.05    0.54
  -4  16  -8    7.65    0.77
 -16  -4   8    8.31    0.88
 -16   4  -8    7.63    0.78
   4 -16  -8    6.28    0.81
  -4  16 -10    3.46    0.57
   4 -16 -10    3.99    0.70
  -4  16 -12    6.07    0.70
   4 -16 -12    5.50    0.84
  -4  16 -14    1.64    0.48
   4 -16 -14    1.06    0.52
  -4  16 -16    0.21    0.44
   4 -16 -16   -0.20    0.48
  -5 -16 -15    5.92    0.84
  -5 -16 -13    6.53    0.88
  -5 -16 -11    4.86    0.76
  -5 -16  -9    4.04    0.65
 -16   5   9    3.49    0.64
 -16   5   7   26.53    1.52
 -16   5   5    2.00    0.51
 -16   5   5    2.04    0.48
   5 -16   5    1.73    0.37
 -16   5   3    0.75    0.38
 -16   5   3    0.18    0.41
 -16  -5  -3    0.73    0.28
   5 -16   3    0.38    0.31
 -16   5   1    3.04    0.53
   5 -16   1    3.81    0.53
 -16   5  -1    3.74    0.56
  -5  16  -1    3.38    0.51
   5 -16  -1    4.96    0.62
  -5  16  -3    0.12    0.36
 -16  -5   3    0.68    0.38
   5 -16  -3    0.51    0.39
 -16   5  -3    0.94    0.40
 -16  -5   5    1.84    0.51
 -16   5  -5    2.28    0.52
  -5  16  -5    2.67    0.55
   5 -16  -5    1.69    0.51
  -5  16  -7   26.86    1.49
 -16  -5   7   27.71    1.57
 -16   5  -7   28.92    1.54
   5 -16  -7   29.65    1.68
 -16  -5   9    2.92    0.62
  -5  16  -9    3.20    0.58
   5 -16  -9    3.34    0.63
   5 -16 -11    4.63    0.76
  -5  16 -11    4.17    0.63
  -5  16 -13    5.92    0.75
   5 -16 -13    6.63    0.94
   5 -16 -15    6.50    0.95
  -5  16 -15    5.54    0.75
  -5  16 -17    5.96    0.83
  -6 -16 -16    0.49    0.50
  -6 -16 -14    2.72    0.65
  -6 -16 -12   28.05    1.73
  -6 -16 -10    5.11    0.78
 -16   6   8    2.31    0.56
 -16   6   6   21.26    1.33
 -16   6   4    3.73    0.63
 -16   6   4    3.91    0.63
   6 -16   4    4.43    0.53
 -16   6   2    2.17    0.50
   6 -16   2    2.32    0.44
   6 -16   0    6.83    0.70
 -16   6   0    5.68    0.71
  -6  16  -2    2.91    0.51
 -16   6  -2    2.71    0.56
 -16  -6   2    2.81    0.56
   6 -16  -2    2.86    0.53
 -16   6  -4    4.90    0.68
  -6  16  -4    4.69    0.65
 -16  -6   4    4.26    0.62
   6 -16  -4    4.61    0.62
  -6  16  -6   22.59    1.35
 -16  -6   6   22.11    1.37
   6 -16  -6   22.50    1.44
 -16   6  -6   21.08    1.32
 -16  -6   8    2.84    0.60
  -6  16  -8    2.56    0.55
   6 -16  -8    2.65    0.62
 -16   6  -8    3.38    0.62
   6 -16 -10    6.11    0.86
  -6  16 -10    4.53    0.64
 -16   6 -10    4.68    0.66
   6 -16 -12   27.20    1.83
  -6  16 -12   29.72    1.60
  16  -6 -12   25.75    1.68
   6 -16 -14    2.59    0.67
  -6  16 -14    2.16    0.57
  16  -6 -14    1.51    0.57
  -6  16 -16    0.34    0.45
   6 -16 -16    1.53    0.68
  16  -6 -16    0.48    0.52
  -6  16 -18    8.83    1.01
  -7 -16 -15    3.33    0.69
  -7 -16 -13    5.73    0.83
  -7 -16 -11    2.46    0.59
 -16   7   9    2.51    0.54
 -16   7   7   14.26    1.09
 -16   7   5    0.37    0.44
 -16   7   3    0.70    0.47
 -16   7   3    0.05    0.42
   7 -16   3    0.57    0.32
 -16   7   1    2.80    0.60
   7 -16   1    3.17    0.50
 -16   7  -1    3.22    0.61
  -7  16  -1    2.27    0.48
 -16  -7   1    2.26    0.46
   7 -16  -1    1.60    0.43
  -7  16  -3    0.50    0.40
 -16  -7   3    0.54    0.40
   7 -16  -3    0.28    0.36
 -16   7  -3    0.11    0.44
 -16   7  -5    0.37    0.39
 -16  -7   5    1.01    0.48
   7 -16  -5    0.58    0.43
  -7  16  -5    0.76    0.43
  -7  16  -7   14.47    1.13
 -16  -7   7   13.56    1.09
   7 -16  -7   15.63    1.23
 -16   7  -7   13.93    1.09
   7 -16  -9    3.43    0.70
  -7  16  -9    2.20    0.54
  16  -7  -9    3.27    0.64
 -16   7  -9    3.10    0.55
   7 -16 -11    3.51    0.78
 -16   7 -11    3.13    0.62
  -7  16 -11    3.55    0.67
  16  -7 -11    3.40    0.67
  -7  16 -13    4.60    0.71
   7 -16 -13    4.71    0.83
  16  -7 -13    4.79    0.81
   7 -16 -15    2.76    0.76
  -7  16 -15    3.56    0.67
  16  -7 -15    3.58    0.80
  -7  16 -17    7.21    0.92
  -8 -16 -14    0.03    0.45
  -8 -16 -12    3.01    0.69
 -16   8   8    1.57    0.49
 -16   8   6    0.64    0.41
 -16   8   4    1.96    0.50
 -16   8   4    1.84    0.50
 -16   8   2    6.16    0.77
 -16   8   2    7.00    0.75
   8 -16   2    6.22    0.65
   8 -16   0    1.17    0.41
 -16  -8   0    0.22    0.36
  -8  16   0    0.09    0.42
 -16   8   0    0.70    0.42
 -16   8  -2    7.03    0.81
  -8  16  -2    6.64    0.77
 -16  -8   2    6.92    0.78
   8 -16  -2    7.33    0.80
 -16  -8   4    1.77    0.49
   8 -16  -4    2.09    0.54
  -8  16  -4    1.33    0.48
 -16   8  -4    2.14    0.52
 -16   8  -6   -0.30    0.41
 -16  -8   6   -0.14    0.41
   8 -16  -6    0.06    0.41
  16  -8  -6    0.16    0.36
  -8  16  -6   -0.39    0.43
 -16  -8   8    1.29    0.48
  -8  16  -8    1.62    0.53
   8 -16  -8    2.63    0.69
 -16   8  -8    1.90    0.49
  16  -8  -8    3.06    0.60
   8 -16 -10    0.38    0.54
  -8  16 -10    0.11    0.44
 -16   8 -10   -0.43    0.44
  16  -8 -10    0.47    0.50
  -8  16 -12    2.60    0.59
   8 -16 -12    3.08    0.74
 -16   8 -12    3.02    0.61
  16  -8 -12    2.73    0.69
   8 -16 -14    0.34    0.55
  -8  16 -14    0.00    0.44
  16  -8 -14    1.37    0.63
  -8  16 -16    0.62    0.51
  -9 -16 -13   -0.42    0.49
 -16   9   7    2.45    0.56
 -16   9   5    6.49    0.76
 -16   9   3   17.44    1.15
 -16   9   3   14.93    1.20
 -16   9   1    1.96    0.57
  -9  16  -1    2.45    0.60
   9 -16  -1    2.04    0.52
 -16  -9   1    1.89    0.50
 -16   9  -1    3.12    0.61
 -16   9  -3   15.17    1.19
 -16  -9   3   16.72    1.17
   9 -16  -3   16.24    1.21
  -9  16  -3   17.32    1.26
 -16  -9   5    4.69    0.70
   9 -16  -5    6.59    0.84
  -9  16  -5    5.00    0.70
 -16   9  -5    5.02    0.72
  16  -9  -5    6.56    0.71
 -16  -9   7    1.06    0.48
  -9  16  -7    1.46    0.51
 -16   9  -7    1.47    0.53
   9 -16  -7    2.14    0.61
  16  -9  -7    1.40    0.49
  16  -9  -9    3.57    0.69
   9 -16  -9    3.75    0.76
  -9  16  -9    3.23    0.65
 -16   9  -9    3.34    0.62
  16  -9 -11   -0.14    0.44
   9 -16 -11    0.76    0.56
 -16   9 -11    0.39    0.43
  -9  16 -11    0.35    0.43
 -16   9 -13   -0.22    0.46
  16  -9 -13   -0.07    0.50
  -9  16 -13    0.18    0.45
   9 -16 -13   -0.12    0.51
  16  -9 -15    1.89    0.67
  -9  16 -15    2.01    0.62
 -10 -16 -12    0.22    0.47
 -16  10   8    0.66    0.44
 -16  10   6    7.37    0.78
 -16  10   4    2.59    0.54
 -16  10   4    0.80    0.44
 -16  10   2    8.22    0.89
 -16  10   2    6.32    0.72
 -16 -10   0    9.46    0.86
 -10  16   0    9.81    0.98
 -16  10   0   11.21    1.04
 -16  10  -2    7.04    0.86
 -10  16  -2    6.73    0.83
  10 -16  -2    6.07    0.78
 -16 -10   2    7.19    0.81
 -16 -10   4    1.52    0.54
 -16  10  -4    1.56    0.55
  10 -16  -4    2.53    0.61
 -10  16  -4    2.23    0.56
 -10  16  -6    7.27    0.87
  16 -10  -6    7.57    0.82
 -16 -10   6    6.89    0.81
  10 -16  -6    6.67    0.89
 -16  10  -6    6.62    0.82
  16 -10  -8    1.57    0.56
 -16  10  -8    1.58    0.57
 -10  16  -8    1.29    0.52
  10 -16  -8    1.26    0.56
  16 -10 -10    0.49    0.46
 -16  10 -10    0.57    0.46
 -10  16 -10    1.07    0.47
  16 -10 -12    0.05    0.48
 -10  16 -12    0.96    0.54
  10 -16 -12    0.93    0.64
 -16  10 -12    0.79    0.46
  16 -10 -14    0.58    0.52
  10 -16 -14    0.84    0.61
 -10  16 -14    0.83    0.54
 -16  11   7    1.26    0.50
 -16  11   5    3.88    0.62
 -16  11   3    1.36    0.53
 -16  11   3    1.27    0.46
 -16  11   1    1.37    0.51
 -16 -11  -1    1.19    0.43
 -16  11   1    1.42    0.45
 -11  16   1    1.24    0.51
 -16 -11   1    0.54    0.45
 -16  11  -1    1.28    0.55
 -16  11  -3    1.89    0.59
  11 -16  -3    1.32    0.53
 -16 -11   3    1.41    0.48
 -11  16  -3    2.96    0.73
 -16 -11   5    3.67    0.64
  11 -16  -5    3.74    0.69
 -16  11  -5    3.55    0.73
 -11  16  -5    3.00    0.65
  16 -11  -7    0.81    0.48
 -11  16  -7    0.42    0.46
  11 -16  -7    0.46    0.47
 -16  11  -7    0.61    0.44
  16 -11  -9   -0.43    0.47
 -16  11  -9    0.34    0.49
  11 -16  -9    0.47    0.52
 -11  16  -9    0.30    0.48
  16 -11 -11    0.93    0.52
  11 -16 -11    1.18    0.61
 -16  11 -11    1.52    0.59
 -11  16 -11    0.12    0.47
  16 -11 -13    1.31    0.65
 -11  16 -13   -0.13    0.52
  11 -16 -13    0.47    0.51
 -16  12   6    0.21    0.38
 -16  12   4    0.02    0.39
 -16  12   2    0.57    0.48
 -16  12   2    0.50    0.37
 -16 -12  -2    0.39    0.37
 -12  16   0    0.20    0.46
 -16  12   0    0.84    0.51
 -16 -12   0    0.22    0.39
 -16  12   0    1.18    0.44
 -12  16  -2    0.65    0.48
 -16 -12   2    0.97    0.47
 -16  12  -2    0.91    0.55
 -16  12  -4    1.68    0.58
 -16 -12   4    0.70    0.43
 -12  16  -4    0.80    0.54
  12 -16  -6   -0.10    0.48
 -16  12  -6   -0.19    0.47
 -12  16  -6    0.37    0.46
  16 -12  -8    1.14    0.50
 -12  16  -8    0.41    0.51
  12 -16  -8    1.38    0.63
 -16  12  -8    0.57    0.55
  16 -12 -10    1.26    0.56
  12 -16 -10    2.44    0.67
 -12  16 -10    2.25    0.65
  16 -12 -12    1.05    0.60
  12 -16 -12    0.20    0.55
 -16 -13  -3   -0.28    0.40
 -16  13   1    0.23    0.46
 -13  16   1    0.24    0.49
 -13  16  -1   -0.41    0.52
 -16 -13   1    0.04    0.41
 -16  13  -1    0.80    0.54
 -16 -13   3    0.08    0.41
 -13  16  -3    0.47    0.51
 -16  13  -3    0.52    0.50
 -16  13  -5    1.67    0.59
 -13  16  -5    1.79    0.60
 -13  16  -7    2.26    0.65
  13 -16  -7    0.88    0.50
 -16  13  -7    1.88    0.61
  16 -13  -9    1.63    0.58
  13 -16  -9    0.67    0.58
 -13  16  -9    0.85    0.57
  16 -13 -11   -0.11    0.53
  13 -16 -11    0.06    0.56
 -16  14   2    3.59    0.77
 -14  16   0    9.14    1.04
 -16  14   0    8.90    1.02
 -14  16  -2    3.30    0.74
 -16  14  -2    4.71    0.85
 -14  16  -4    1.09    0.57
 -16  14  -4    0.47    0.58
  16 -14 -10    0.69    0.55
  14 -16 -10    1.03    0.58
  16 -14 -12   -0.60    0.65
 -17   0  -1    1.61    0.41
 -17   0   1    2.14    0.43
 -17   0   3    1.13    0.36
 -17   0  -3    0.63    0.35
 -17   0   3    0.10    0.40
 -17   0   5   -0.08    0.42
 -17   0  -5   -0.36    0.37
   0 -17  -5   -0.46    0.43
 -17   0   7    5.21    0.75
   0 -17  -7    4.96    0.71
 -17   0   9    6.25    0.79
   0 -17  -9    5.77    0.76
   0 -17 -11    2.64    0.64
   0 -17 -13    3.82    0.76
   0 -17 -15    4.70    0.84
  -1 -17 -14    0.20    0.45
  -1 -17 -12    7.46    0.96
 -17   1  10    2.83    0.62
  -1 -17 -10    1.50    0.55
 -17   1   8    0.39    0.44
  -1 -17  -8   -0.48    0.41
  -1 -17  -6    2.48    0.53
 -17   1   6    4.41    0.71
 -17   1   4    2.66    0.48
 -17  -1  -4    3.43    0.51
 -17   1   4    2.17    0.55
 -17  -1  -2    0.23    0.31
 -17   1   2   -0.10    0.32
 -17   1   0    0.70    0.37
 -17  -1   0    1.35    0.40
   1 -17  -2    0.27    0.36
 -17  -1   2   -0.23    0.31
 -17  -1   2   -0.60    0.48
 -17   1  -2    0.49    0.37
 -17  -1   4    4.47    0.67
 -17   1  -4    3.86    0.57
 -17  -1   4    3.24    0.46
   1 -17  -4    3.42    0.62
  -1  17  -6    3.58    0.48
 -17   1  -6    5.00    0.63
 -17  -1   6    4.55    0.69
   1 -17  -6    3.38    0.64
 -17  -1   8    0.81    0.50
  -1  17  -8   -0.21    0.35
   1 -17  -8    0.22    0.42
 -17  -1  10    3.35    0.67
   1 -17 -10    4.91    0.75
   1 -17 -12    7.26    0.88
   1 -17 -14    1.92    0.65
  -2 -17 -15    0.41    0.52
  -2 -17 -13    2.64    0.65
  -2 -17 -11    4.17    0.72
 -17   2   9    0.84    0.49
  -2 -17  -9    0.21    0.39
  -2 -17  -7    2.24    0.50
 -17   2   7    2.66    0.62
 -17   2   5    2.14    0.57
 -17  -2  -5    2.97    0.48
 -17   2   3    8.48    0.88
 -17   2   3    9.58    0.81
 -17  -2  -3   10.43    0.77
 -17  -2  -1    1.72    0.41
 -17   2   1    1.99    0.47
   2 -17  -1    1.90    0.48
 -17   2  -1    0.95    0.41
 -17  -2   1    1.00    0.34
 -17  -2   3    9.71    0.90
 -17   2  -3    8.85    0.80
   2 -17  -3    7.70    0.81
 -17  -2   3    8.01    0.63
 -17   2  -5    2.75    0.50
  -2  17  -5    2.21    0.43
 -17  -2   5    3.35    0.62
   2 -17  -5    2.16    0.52
 -17   2  -7    2.31    0.49
 -17  -2   7    3.42    0.66
  -2  17  -7    2.81    0.50
   2 -17  -7    2.15    0.54
 -17  -2   9   -0.50    0.48
   2 -17  -9    0.70    0.46
  -2  17  -9    0.18    0.36
   2 -17 -11    4.40    0.76
   2 -17 -13    1.04    0.51
   2 -17 -15    0.19    0.49
  -3 -17 -14    2.86    0.69
  -3 -17 -12    0.41    0.42
 -17   3  10    2.01    0.58
  -3 -17 -10    2.24    0.58
 -17   3   8    6.60    0.83
  -3 -17  -8    8.64    0.91
 -17   3   6    1.79    0.53
 -17   3   4    0.68    0.39
 -17   3   4    0.52    0.42
 -17  -3  -4    0.87    0.33
 -17  -3  -2   12.41    0.83
 -17   3   2   12.94    0.97
 -17   3   0   16.04    1.08
 -17  -3   0   13.45    0.85
   3 -17   0   12.91    0.98
 -17   3  -2   10.31    0.89
 -17  -3   2   13.28    1.00
   3 -17  -2   10.53    0.93
  -3  17  -4    0.81    0.39
 -17   3  -4    0.28    0.36
 -17  -3   4    0.87    0.50
   3 -17  -4    0.09    0.34
 -17   3  -6    2.70    0.53
  -3  17  -6    2.47    0.46
 -17  -3   6    2.25    0.54
   3 -17  -6    2.10    0.55
 -17   3  -8    6.88    0.75
 -17  -3   8    6.88    0.82
  -3  17  -8    7.66    0.75
   3 -17  -8    7.27    0.86
  -3  17 -10    1.77    0.49
   3 -17 -10    1.99    0.58
  -3  17 -12    1.06    0.42
   3 -17 -12    1.26    0.50
   3 -17 -14    2.38    0.67
  -4 -17 -15    0.00    0.48
  -4 -17 -13    1.75    0.55
  -4 -17 -11    3.88    0.72
  -4 -17  -9    0.65    0.41
 -17   4   9    0.90    0.51
 -17   4   7    5.91    0.77
 -17   4   5    4.29    0.66
 -17   4   3   15.20    1.11
   4 -17   3   14.95    1.01
 -17   4   3   14.43    1.04
 -17  -4  -3   15.30    0.90
 -17   4   1    1.89    0.47
   4 -17   1    1.59    0.44
 -17   4  -1    0.60    0.38
   4 -17  -1    1.44    0.44
 -17  -4   3   14.02    1.06
 -17   4  -3   15.80    1.10
   4 -17  -3   13.12    1.05
  -4  17  -3   15.43    1.05
  -4  17  -5    4.73    0.63
 -17  -4   5    4.05    0.64
 -17   4  -5    4.58    0.65
   4 -17  -5    3.40    0.58
 -17  -4   7    6.35    0.79
 -17   4  -7    5.18    0.68
  -4  17  -7    6.01    0.68
   4 -17  -7    5.93    0.81
  -4  17  -9    1.44    0.44
 -17   4  -9    1.34    0.44
 -17  -4   9   -0.01    0.43
   4 -17  -9    0.62    0.42
  -4  17 -11    3.37    0.59
   4 -17 -11    2.91    0.69
   4 -17 -13    3.18    0.69
  -4  17 -13    4.26    0.65
   4 -17 -15    0.26    0.49
  -5 -17 -14    1.95    0.61
  -5 -17 -12    7.81    0.92
  -5 -17 -10    2.70    0.63
 -17   5   8    3.98    0.68
 -17   5   6    1.79    0.54
 -17   5   4    3.93    0.61
 -17   5   4    3.07    0.60
   5 -17   4    4.12    0.54
   5 -17   2    8.20    0.76
 -17   5   2    7.84    0.82
 -17   5   2    9.46    0.90
   5 -17   0    0.01    0.32
 -17   5   0   -0.44    0.44
 -17   5  -2    8.84    0.85
 -17  -5   2    8.86    0.86
   5 -17  -2   10.00    0.91
  -5  17  -2    8.78    0.83
 -17   5  -4    3.82    0.60
  -5  17  -4    3.98    0.61
 -17  -5   4    4.05    0.66
   5 -17  -4    4.36    0.66
 -17  -5   6    1.79    0.55
  -5  17  -6    2.29    0.53
 -17   5  -6    2.22    0.52
   5 -17  -6    1.27    0.48
 -17  -5   8    4.31    0.71
   5 -17  -8    5.34    0.77
 -17   5  -8    4.41    0.66
  -5  17  -8    5.70    0.72
  -5  17 -10    2.71    0.53
   5 -17 -10    3.17    0.66
 -17   5 -10    2.58    0.54
   5 -17 -12    8.32    1.03
  -5  17 -12    7.75    0.84
  -5  17 -14    1.42    0.52
   5 -17 -14    2.37    0.69
  -6 -17 -13    8.33    1.00
  -6 -17 -11    5.50    0.83
 -17   6   9    2.55    0.57
 -17   6   7   20.63    1.38
 -17   6   5    5.36    0.73
 -17   6   3   -0.40    0.43
 -17   6   3    0.05    0.43
   6 -17   3    0.56    0.34
   6 -17   1    9.45    0.83
 -17   6   1   10.99    0.95
 -17   6  -1   11.90    0.99
 -17  -6   1   11.14    0.96
   6 -17  -1   11.44    0.95
  -6  17  -3   -0.36    0.46
 -17  -6   3   -0.31    0.40
 -17   6  -3    0.11    0.41
   6 -17  -3    0.99    0.44
 -17   6  -5    5.49    0.72
 -17  -6   5    4.17    0.68
  -6  17  -5    5.01    0.70
   6 -17  -5    4.48    0.70
 -17  -6   7   21.26    1.39
   6 -17  -7   18.75    1.38
 -17   6  -7   21.46    1.37
  -6  17  -7   20.41    1.30
 -17  -6   9    2.13    0.58
  -6  17  -9    2.23    0.55
   6 -17  -9    2.88    0.66
 -17   6  -9    3.19    0.58
   6 -17 -11    5.04    0.84
  -6  17 -11    4.34    0.66
 -17   6 -11    4.21    0.67
   6 -17 -13    8.64    1.09
  -6  17 -13    8.54    0.91
  -6  17 -15    1.80    0.56
  -7 -17 -12   10.34    1.10
  -7 -17 -10    2.78    0.62
 -17   7   8    3.57    0.63
 -17   7   6    4.68    0.69
 -17   7   4    8.71    0.88
 -17   7   4    8.37    0.87
 -17   7   2    5.97    0.75
 -17   7   2    5.80    0.72
   7 -17   2    5.28    0.63
   7 -17   0    0.07    0.34
 -17   7   0    0.90    0.49
  -7  17  -2    5.43    0.71
 -17   7  -2    5.62    0.73
 -17  -7   2    5.25    0.70
   7 -17  -2    5.61    0.72
   7 -17  -4    8.58    0.90
  -7  17  -4    8.34    0.84
 -17  -7   4    7.09    0.82
 -17   7  -4    7.37    0.80
 -17   7  -6    3.17    0.62
 -17  -7   6    2.99    0.61
   7 -17  -6    3.76    0.67
  -7  17  -6    4.23    0.65
  -7  17  -8    4.33    0.70
 -17  -7   8    4.01    0.69
   7 -17  -8    3.89    0.73
 -17   7  -8    3.06    0.62
  -7  17 -10    2.54    0.60
   7 -17 -10    3.67    0.75
 -17   7 -10    2.75    0.57
   7 -17 -12   10.57    1.21
  -7  17 -12    8.81    0.93
 -17   7 -12    9.33    0.97
  -7  17 -14    0.79    0.54
   7 -17 -14    0.24    0.53
  17  -7 -14    0.24    0.52
  -7  17 -16    0.88    0.56
  -8 -17 -11    0.16    0.44
 -17   8   9    0.31    0.42
 -17   8   7    8.81    0.88
 -17   8   5    7.14    0.83
 -17   8   3    5.09    0.73
 -17   8   3    6.20    0.75
 -17   8   1   10.09    1.01
 -17   8  -1   10.22    0.96
 -17  -8   1    9.45    0.89
   8 -17  -1   10.55    0.93
  -8  17  -1    8.99    0.91
  -8  17  -3    5.73    0.76
 -17   8  -3    4.86    0.74
 -17  -8   3    5.05    0.70
   8 -17  -3    5.50    0.74
 -17  -8   5    6.96    0.83
   8 -17  -5    7.35    0.89
  -8  17  -5    6.29    0.81
 -17   8  -5    6.68    0.80
 -17  -8   7    7.40    0.88
   8 -17  -7    8.16    0.97
 -17   8  -7    9.07    0.92
  -8  17  -7    6.92    0.84
  -8  17  -9    0.26    0.48
   8 -17  -9    0.61    0.51
  17  -8  -9    0.00    0.40
 -17   8  -9   -0.02    0.42
   8 -17 -11    0.31    0.58
  -8  17 -11    1.06    0.56
 -17   8 -11    0.10    0.46
  17  -8 -11    0.34    0.49
   8 -17 -13    1.95    0.66
  17  -8 -13    2.33    0.67
  -8  17 -13    3.93    0.71
  -8  17 -15    0.41    0.48
  -9 -17 -12    0.32    0.48
 -17   9   8    8.02    0.86
 -17   9   6    4.03    0.68
 -17   9   4   11.51    1.00
 -17   9   4   11.95    1.06
 -17   9   2   14.20    1.08
 -17   9   2   12.69    1.12
 -17  -9   0    9.03    0.88
 -17   9   0    9.70    0.96
 -17   9  -2   13.13    1.14
 -17  -9   2   12.47    1.02
   9 -17  -2   13.96    1.14
  -9  17  -2   15.00    1.18
 -17  -9   4   10.33    0.97
 -17   9  -4   12.27    1.07
   9 -17  -4   12.35    1.11
  -9  17  -4   10.66    1.05
 -17  -9   6    5.19    0.77
   9 -17  -6    4.69    0.78
  -9  17  -6    4.42    0.70
 -17   9  -6    5.27    0.78
  -9  17  -8    8.70    0.97
 -17   9  -8    9.06    0.95
   9 -17  -8    8.64    1.03
  17  -9  -8    8.65    0.93
   9 -17 -10    4.12    0.81
  -9  17 -10    4.38    0.73
 -17   9 -10    3.63    0.70
  17  -9 -10    4.02    0.76
   9 -17 -12    0.23    0.58
  -9  17 -12   -0.01    0.46
  17  -9 -12    1.23    0.63
  -9  17 -14    0.09    0.55
  17  -9 -14    1.25    0.62
 -17  10   7    3.18    0.63
 -17  10   5    6.70    0.78
 -17  10   3   11.40    0.98
 -17  10   3   10.28    1.03
 -17  10   1    5.36    0.81
 -17 -10  -1    3.75    0.61
 -17  10   1    4.79    0.68
 -10  17  -1    3.51    0.69
 -17 -10   1    4.30    0.67
 -17  10  -1    4.38    0.72
 -17  10  -3   12.03    1.12
 -17 -10   3   10.98    1.00
  10 -17  -3   10.62    1.03
 -10  17  -3   11.44    1.09
 -17 -10   5    7.99    0.87
  10 -17  -5    6.09    0.82
 -17  10  -5    7.17    0.87
 -10  17  -5    7.30    0.90
 -17 -10   7    2.09    0.58
  10 -17  -7    3.13    0.74
 -17  10  -7    2.21    0.58
 -10  17  -7    2.96    0.65
  17 -10  -7    4.06    0.69
 -10  17  -9    1.91    0.61
 -17  10  -9    2.67    0.62
  10 -17  -9    2.75    0.71
  17 -10  -9    2.23    0.64
  10 -17 -11    2.66    0.74
 -10  17 -11    3.50    0.69
  17 -10 -11    1.66    0.63
  17 -10 -13    1.41    0.64
  10 -17 -13    2.37    0.79
 -10  17 -13    2.69    0.68
 -17  11   6    0.25    0.44
 -17  11   4    1.97    0.54
 -17  11   2    5.86    0.81
 -17  11   2    6.52    0.76
 -17 -11  -2    6.86    0.78
 -17  11   0    3.83    0.74
 -17 -11   0    3.67    0.63
 -11  17   0    2.33    0.61
 -11  17  -2    6.15    0.86
 -17 -11   2    6.19    0.78
 -17  11  -2    6.32    0.86
 -17  11  -4    2.56    0.65
 -17 -11   4    2.19    0.59
 -11  17  -4    3.13    0.73
 -17 -11   6   -0.16    0.49
  11 -17  -6    0.11    0.50
 -17  11  -6   -0.38    0.44
 -11  17  -6    0.52    0.49
 -11  17  -8    3.65    0.74
  11 -17  -8    3.42    0.75
 -17  11  -8    3.31    0.68
  17 -11  -8    3.78    0.72
  17 -11 -10    4.32    0.79
  11 -17 -10    3.88    0.86
 -11  17 -10    3.74    0.75
  17 -11 -12    0.27    0.53
  11 -17 -12    0.47    0.65
 -17  12   3    1.87    0.56
 -17 -12  -3    0.90    0.45
 -17  12   3    0.72    0.53
 -17  12   1    2.05    0.64
 -17 -12  -1    0.68    0.43
 -17  12   1    1.26    0.50
 -12  17  -1    0.43    0.47
 -17 -12   1    0.74    0.46
 -17  12  -1    0.49    0.51
 -12  17  -3    1.27    0.62
 -17 -12   3    0.36    0.47
 -17  12  -3    1.17    0.54
 -17 -12   5    2.03    0.56
 -17  12  -5    1.46    0.58
 -12  17  -5    1.70    0.63
  12 -17  -7    4.42    0.79
 -12  17  -7    3.66    0.69
 -12  17  -9    2.67    0.71
  12 -17  -9    1.27    0.58
  17 -12 -11    4.11    0.80
  12 -17 -11    4.72    0.92
 -17  13   2    1.89    0.62
 -17 -13  -2    1.83    0.51
 -17  13   0    0.86    0.56
 -17 -13   0    0.52    0.45
 -13  17   0    0.20    0.49
 -13  17  -2    1.34    0.64
 -17 -13   2    2.20    0.57
 -17  13  -2    2.46    0.68
 -17 -13   4    0.73    0.50
 -13  17  -4    1.64    0.62
  13 -17 -10    2.59    0.71
 -18   0   0    5.20    0.63
 -18   0   2    0.72    0.36
 -18   0   2    1.51    0.51
 -18   0  -2    1.50    0.44
   0 -18  -4   -0.03    0.39
 -18   0  -4    0.01    0.35
 -18   0   4    0.41    0.44
 -18   0   4    0.05    0.34
 -18   0  -6   -0.54    0.36
 -18   0   6    0.71    0.49
   0 -18  -6    0.23    0.40
 -18   0   8    1.53    0.53
   0 -18  -8    0.75    0.40
 -18   0  10    2.36    0.62
   0 -18 -10    0.71    0.43
   0 -18 -12    3.02    0.66
   0 -18 -14    2.20    0.65
  -1 -18 -13    0.32    0.47
  -1 -18 -11    0.43    0.45
 -18   1   9    1.00    0.55
  -1 -18  -9    0.07    0.41
 -18   1   7    0.69    0.47
  -1 -18  -7    1.68    0.50
  -1 -18  -5    4.21    0.66
 -18  -1  -5    3.91    0.58
 -18   1   5    4.61    0.72
 -18  -1  -3    4.20    0.57
 -18   1   3    3.92    0.55
 -18   1   3    3.64    0.64
 -18  -1  -1    1.62    0.39
 -18   1   1    2.16    0.47
 -18   1  -1    2.63    0.53
 -18  -1   1    1.74    0.43
 -18   1  -3    4.92    0.62
 -18  -1   3    3.13    0.47
 -18  -1   3    3.33    0.62
   1 -18  -3    3.24    0.62
 -18  -1   5    4.53    0.72
 -18   1  -5    4.29    0.63
   1 -18  -5    3.47    0.65
 -18  -1   7    2.81    0.63
 -18   1  -7    2.46    0.52
   1 -18  -7    2.06    0.55
 -18  -1   9    0.40    0.54
   1 -18  -9   -0.23    0.43
   1 -18 -11    1.40    0.53
   1 -18 -13    0.06    0.43
  -2 -18 -12    0.34    0.41
 -18   2  10    3.32    0.68
  -2 -18 -10    1.61    0.53
 -18   2   8    9.42    0.95
  -2 -18  -8   10.74    1.05
  -2 -18  -6    7.00    0.88
 -18   2   6    8.38    0.91
 -18  -2  -6    7.54    0.72
 -18   2   4    2.62    0.51
 -18   2   4    2.51    0.59
 -18  -2  -4    2.29    0.45
 -18  -2  -2   11.24    0.84
 -18   2   2   12.78    1.05
 -18   2   2   13.06    0.98
   2 -18   0   16.74    1.20
 -18   2   0   21.20    1.26
 -18  -2   0   20.46    1.12
 -18   2  -2   13.49    0.99
 -18  -2   2   12.01    1.01
   2 -18  -2   12.40    1.02
 -18   2  -4    3.13    0.59
 -18  -2   4    2.46    0.55
   2 -18  -4    2.06    0.53
  -2  18  -6    8.27    0.74
 -18   2  -6    7.76    0.80
 -18  -2   6    7.67    0.87
   2 -18  -6    7.35    0.86
 -18  -2   8    7.93    0.89
 -18   2  -8    9.49    0.87
   2 -18  -8    9.01    0.97
 -18  -2  10    1.76    0.58
   2 -18 -10    2.19    0.57
   2 -18 -12    0.92    0.52
   2 -18 -14    1.17    0.52
  -3 -18 -13    0.71    0.46
  -3 -18 -11    4.08    0.75
 -18   3   9    9.07    0.95
  -3 -18  -9    9.00    0.99
  -3 -18  -7   -0.49    0.45
 -18   3   7    0.06    0.44
 -18  -3  -5    9.97    0.81
 -18   3   5    9.60    0.94
 -18   3   3   34.91    1.82
 -18  -3  -3   33.94    1.53
 -18   3   3   33.40    1.66
 -18   3   1    3.45    0.58
   3 -18   1    3.07    0.55
 -18   3  -1    2.76    0.53
   3 -18  -1    2.55    0.53
 -18  -3   3   32.27    1.71
 -18   3  -3   32.68    1.65
   3 -18  -3   30.26    1.67
 -18  -3   5    8.50    0.93
  -3  18  -5    9.55    0.85
 -18   3  -5    9.94    0.90
   3 -18  -5    8.43    0.88
  -3  18  -7    0.22    0.37
 -18  -3   7    0.05    0.43
 -18   3  -7    0.33    0.41
   3 -18  -7    0.47    0.44
 -18  -3   9    9.13    0.97
 -18   3  -9    8.35    0.85
  -3  18  -9    8.08    0.79
   3 -18  -9    8.81    0.96
   3 -18 -11    4.61    0.75
   3 -18 -13    0.39    0.52
  -4 -18 -12    0.37    0.46
 -18   4  10    0.55    0.47
  -4 -18 -10    1.33    0.55
  -4 -18  -8    9.08    0.97
 -18   4   8    8.67    0.95
 -18   4   6    3.56    0.65
   4 -18   4    2.56    0.48
 -18   4   4    2.53    0.53
 -18   4   4    3.36    0.62
 -18   4   2   17.19    1.21
   4 -18   2   15.75    1.08
 -18   4   2   17.39    1.20
 -18   4   0    9.45    0.87
   4 -18   0    9.73    0.87
 -18   4  -2   17.57    1.19
 -18  -4   2   19.01    1.27
   4 -18  -2   16.36    1.19
 -18   4  -4    2.73    0.58
 -18  -4   4    2.68    0.61
  -4  18  -4    2.54    0.53
   4 -18  -4    1.84    0.51
  -4  18  -6    3.94    0.63
 -18  -4   6    3.45    0.65
 -18   4  -6    4.13    0.63
   4 -18  -6    3.26    0.65
 -18  -4   8    8.58    0.93
   4 -18  -8    9.29    0.99
 -18   4  -8    8.15    0.86
  -4  18  -8    9.59    0.88
 -18   4 -10    0.94    0.44
   4 -18 -10    0.88    0.47
  -4  18 -10    1.26    0.49
   4 -18 -12    0.38    0.54
  -5 -18 -11    2.21    0.60
  -5 -18  -9    0.81    0.51
 -18   5   9    0.84    0.51
 -18   5   7    2.09    0.61
 -18   5   5    1.03    0.48
 -18   5   3    7.25    0.80
 -18   5   3    7.82    0.86
   5 -18   3    6.08    0.69
 -18   5   1    1.07    0.50
   5 -18   1    0.49    0.36
 -18   5  -1    0.89    0.46
 -18  -5   1   -0.33    0.46
   5 -18  -1    1.14    0.42
 -18   5  -3    8.33    0.87
 -18  -5   3    7.61    0.85
  -5  18  -3    7.48    0.81
   5 -18  -3    7.22    0.83
 -18   5  -5    0.76    0.45
  -5  18  -5    1.84    0.52
 -18  -5   5    0.68    0.47
   5 -18  -5    0.60    0.43
 -18  -5   7    2.82    0.64
  -5  18  -7    2.54    0.56
   5 -18  -7    2.58    0.57
 -18   5  -7    2.74    0.54
 -18  -5   9   -0.25    0.50
   5 -18  -9    0.83    0.49
 -18   5  -9    0.18    0.41
  -5  18  -9    0.81    0.45
 -18   5 -11    0.48    0.46
  -5  18 -11    0.44    0.47
   5 -18 -11    0.79    0.51
   5 -18 -13    2.74    0.73
  -5  18 -13    2.23    0.58
  -6 -18 -12   10.96    1.14
  -6 -18 -10    0.59    0.41
 -18   6   8    2.18    0.59
 -18   6   6    5.00    0.72
 -18   6   4    3.46    0.59
 -18   6   4    3.54    0.61
   6 -18   2    7.38    0.76
 -18   6   2    7.74    0.85
 -18   6   2    9.05    0.90
 -18   6   0    2.67    0.60
   6 -18   0    2.43    0.49
 -18   6  -2    7.48    0.84
 -18  -6   2    9.00    0.87
   6 -18  -2    6.88    0.80
  -6  18  -4    4.71    0.66
 -18  -6   4    4.15    0.66
   6 -18  -4    2.65    0.56
 -18   6  -4    4.26    0.67
 -18   6  -6    4.51    0.72
 -18  -6   6    4.85    0.74
  -6  18  -6    4.81    0.71
   6 -18  -6    5.39    0.80
 -18  -6   8    2.88    0.63
   6 -18  -8    2.38    0.62
  -6  18  -8    3.28    0.61
 -18   6  -8    2.93    0.62
  -6  18 -10    0.34    0.43
   6 -18 -10    0.87    0.52
 -18   6 -10    0.16    0.43
  -6  18 -12    8.30    0.93
   6 -18 -12    8.70    1.10
 -18   6 -12    8.11    0.91
  -6  18 -14    0.14    0.46
  -7 -18 -11    3.04    0.69
 -18   7   9   -0.85    0.51
 -18   7   7    8.32    0.92
 -18   7   5    2.69    0.66
 -18   7   3    1.80    0.56
 -18   7   3    2.75    0.63
 -18   7   1    5.79    0.76
   7 -18   1    5.81    0.70
 -18  -7   1    6.25    0.74
   7 -18  -1    4.71    0.68
 -18   7  -1    6.08    0.80
  -7  18  -3    1.71    0.53
 -18   7  -3    2.59    0.59
 -18  -7   3    3.00    0.61
   7 -18  -3    1.77    0.50
  -7  18  -5    3.09    0.65
 -18  -7   5    2.71    0.58
   7 -18  -5    0.96    0.50
 -18   7  -5    2.91    0.62
 -18   7  -7    8.75    0.90
 -18  -7   7    7.96    0.92
   7 -18  -7    6.64    0.92
  -7  18  -7    8.12    0.89
   7 -18  -9    0.65    0.49
 -18   7  -9    0.25    0.44
  -7  18  -9    0.28    0.44
  -7  18 -11    2.08    0.60
   7 -18 -11    2.54    0.68
 -18   7 -11    1.37    0.53
   7 -18 -13    4.31    0.89
  -7  18 -13    2.85    0.66
  -7  18 -15   -0.13    0.57
  -8 -18 -10    0.73    0.47
 -18   8   8    5.63    0.78
 -18   8   6    0.64    0.46
 -18   8   4    9.13    0.92
 -18   8   4    7.56    0.86
 -18   8   2    9.74    0.95
 -18   8   2   10.40    1.01
 -18   8   0    0.47    0.46
 -18  -8   0    0.86    0.46
 -18   8  -2   10.42    1.00
 -18  -8   2   10.05    0.96
   8 -18  -2    9.20    0.93
  -8  18  -2   10.08    0.99
 -18   8  -4   10.41    1.01
  -8  18  -4    9.12    0.94
 -18  -8   4    8.59    0.91
   8 -18  -4    8.42    0.94
 -18  -8   6    0.81    0.50
  -8  18  -6    0.76    0.52
   8 -18  -6    0.06    0.43
 -18   8  -6    0.42    0.43
 -18  -8   8    6.62    0.84
 -18   8  -8    6.60    0.83
   8 -18  -8    8.33    1.02
  -8  18  -8    6.58    0.82
  -8  18 -10    1.17    0.56
   8 -18 -10    0.78    0.48
 -18   8 -10    1.34    0.52
   8 -18 -12    2.60    0.72
  -8  18 -12    2.59    0.68
  -8  18 -14    0.09    0.48
 -18   9   7    3.45    0.64
 -18   9   5    4.62    0.71
 -18   9   3   11.13    1.01
 -18   9   3   12.36    1.12
 -18   9   1    4.94    0.71
 -18   9   1    5.54    0.72
 -18  -9  -1    4.95    0.69
 -18  -9   1    5.57    0.76
  -9  18  -1    3.75    0.72
 -18   9  -1    4.02    0.71
 -18   9  -3   14.61    1.22
 -18  -9   3   13.46    1.16
   9 -18  -3   13.75    1.17
  -9  18  -3   14.35    1.20
 -18  -9   5    4.48    0.76
  -9  18  -5    4.57    0.76
   9 -18  -5    4.37    0.75
 -18   9  -5    5.13    0.76
 -18  -9   7    3.63    0.66
   9 -18  -7    3.59    0.76
  -9  18  -7    3.45    0.72
 -18   9  -7    3.66    0.70
  -9  18  -9    2.12    0.62
 -18   9  -9    2.65    0.61
   9 -18  -9    1.84    0.59
  -9  18 -11    1.50    0.60
   9 -18 -11    1.00    0.58
  -9  18 -13    0.61    0.51
  18  -9 -13    0.42    0.53
 -18  10   8    3.99    0.68
 -18  10   6    1.14    0.55
 -18  10   4    0.68    0.46
 -18  10   2    5.52    0.85
 -18  10   2    5.67    0.76
 -18 -10  -2    3.98    0.65
 -18  10   0    6.52    0.88
 -18 -10   0    6.03    0.77
 -10  18  -2    4.95    0.80
 -18 -10   2    5.14    0.75
 -18  10  -2    5.23    0.78
 -18  10  -4    1.04    0.53
 -10  18  -4    0.81    0.47
 -18 -10   4    1.20    0.52
  10 -18  -4    0.79    0.52
 -18 -10   6    0.13    0.51
  10 -18  -6    1.10    0.58
 -10  18  -6    0.09    0.46
 -18  10  -6    0.25    0.48
  10 -18  -8    4.76    0.84
 -10  18  -8    4.94    0.79
 -10  18 -10    1.11    0.60
  10 -18 -10    1.42    0.64
  18 -10 -10    2.14    0.63
  18 -10 -12    0.73    0.57
 -18  11   7    4.16    0.70
 -18  11   5    0.86    0.51
 -18  11   3   -0.28    0.44
 -18  11   3   -0.39    0.47
 -18  11   1    0.47    0.50
 -18 -11  -1    0.94    0.47
 -18  11   1    0.32    0.47
 -18 -11   1    1.54    0.52
 -18  11  -1   -0.40    0.56
 -11  18  -1    0.50    0.53
 -11  18  -3    0.78    0.53
 -18 -11   3    1.06    0.52
 -18  11  -3    0.36    0.51
 -18  11  -5    2.23    0.68
 -18 -11   5    0.55    0.49
 -11  18  -5    1.18    0.58
  11 -18  -7    4.25    0.82
 -11  18  -7    4.32    0.78
 -11  18  -9    2.01    0.69
  11 -18  -9   -0.29    0.60
  11 -18 -11    1.32    0.69
  18 -11 -11    1.49    0.65
 -18  12   2    0.10    0.45
 -18 -12  -2    0.86    0.48
 -18 -12   0    2.19    0.55
 -18  12   0    0.23    0.41
 -12  18  -2    0.64    0.49
 -18 -12   2    0.56    0.51
 -18 -12   4    3.14    0.66
 -12  18  -4    2.47    0.68
  12 -18  -8    0.62    0.55
  12 -18 -10    2.74    0.78
 -18 -13   1    0.41    0.49
 -18 -13   3    3.59    0.70
 -19   0  -1    1.54    0.44
 -19   0   1    2.30    0.48
   0 -19  -3    4.83    0.73
 -19   0   3    5.51    0.62
 -19   0   3    5.63    0.80
 -19   0  -3    5.47    0.66
 -19   0   5    1.62    0.56
 -19   0  -5    1.01    0.40
   0 -19  -5    0.83    0.45
 -19   0   7    2.89    0.65
   0 -19  -7    3.11    0.63
 -19   0  -7    2.41    0.51
 -19   0   9    0.49    0.46
   0 -19  -9    0.01    0.45
   0 -19 -11    0.25    0.53
  -1 -19 -12    0.52    0.53
 -19   1  10    2.32    0.60
  -1 -19 -10    2.19    0.58
 -19   1   8    6.12    0.81
  -1 -19  -8    4.63    0.73
 -19  -1  -6    1.44    0.47
 -19   1   6    1.32    0.61
  -1 -19  -6    1.97    0.55
  -1 -19  -4    0.29    0.45
 -19  -1  -4   -0.44    0.33
 -19   1   4   -0.27    0.47
 -19   1   4    0.24    0.33
 -19   1   2    4.86    0.62
 -19   1   2    6.06    0.77
 -19  -1  -2    3.87    0.58
 -19   1   0   13.02    0.99
 -19  -1   0   14.05    0.95
   1 -19  -2    4.33    0.67
 -19   1  -2    5.08    0.66
 -19  -1   2    5.72    0.77
 -19   1  -4    0.02    0.39
 -19  -1   4    0.13    0.47
   1 -19  -4    0.09    0.40
 -19  -1   6    1.62    0.53
   1 -19  -6    0.59    0.41
 -19   1  -6    1.43    0.45
 -19   1  -8    6.46    0.72
 -19  -1   8    5.53    0.80
   1 -19  -8    5.49    0.80
 -19  -1  10    1.70    0.58
   1 -19 -10    1.85    0.58
   1 -19 -12   -0.10    0.46
  -2 -19 -11    2.64    0.66
 -19   2   9    6.12    0.83
  -2 -19  -9    4.89    0.79
 -19   2   7    0.59    0.51
 -19  -2  -7    0.11    0.35
  -2 -19  -7   -0.20    0.41
  -2 -19  -5    8.25    0.92
 -19  -2  -5    8.65    0.80
 -19   2   5    8.54    0.94
 -19   2   3   28.55    1.64
 -19  -2  -3   27.82    1.42
 -19   2   3   25.74    1.43
   2 -19   1    3.78    0.61
 -19   2   1    2.13    0.49
 -19   2  -1    3.73    0.60
 -19  -2   1    3.88    0.66
   2 -19  -1    2.70    0.57
 -19  -2   3   25.45    1.57
 -19   2  -3   28.06    1.50
   2 -19  -3   24.20    1.53
 -19  -2   5    7.62    0.87
 -19   2  -5    9.11    0.87
   2 -19  -5    7.09    0.86
 -19   2  -7   -0.37    0.44
 -19  -2   7    0.94    0.50
   2 -19  -7    1.29    0.53
 -19  -2   9    5.85    0.84
 -19   2  -9    6.61    0.79
   2 -19  -9    5.64    0.83
   2 -19 -11    1.93    0.58
 -19   3  10    1.26    0.55
  -3 -19 -10    0.88    0.52
 -19   3   8    5.99    0.80
  -3 -19  -8    5.03    0.80
  -3 -19  -6   12.87    1.17
 -19   3   6   13.42    1.17
 -19  -3  -6   13.21    0.96
 -19   3   4    4.62    0.73
 -19   3   4    4.12    0.63
 -19   3   2   13.85    1.11
   3 -19   2   10.02    0.91
 -19   3   2   11.95    0.98
   3 -19   0   18.29    1.25
 -19   3   0   21.05    1.29
 -19   3  -2   10.05    0.90
 -19  -3   2   10.74    1.00
   3 -19  -2    9.61    0.92
 -19  -3   4    3.21    0.65
   3 -19  -4    3.37    0.62
 -19   3  -4    4.05    0.65
 -19  -3   6   12.38    1.11
   3 -19  -6   11.52    1.08
  -3  19  -6   11.22    0.93
 -19   3  -6   11.56    0.98
 -19  -3   8    4.91    0.78
 -19   3  -8    5.11    0.71
   3 -19  -8    5.26    0.79
 -19   3 -10    1.63    0.50
   3 -19 -10    2.19    0.63
   3 -19 -12    0.98    0.49
  -4 -19 -11    0.47    0.47
 -19   4   9    6.04    0.83
  -4 -19  -9    6.89    0.90
  -4 -19  -7    0.27    0.39
 -19   4   7    0.15    0.47
 -19   4   5    4.28    0.68
 -19   4   3   24.25    1.49
   4 -19   3   19.31    1.27
 -19   4   3   22.60    1.36
 -19   4   1    0.99    0.46
   4 -19   1    1.21    0.42
 -19   4  -1    0.89    0.45
 -19  -4   1    0.95    0.52
   4 -19  -1    0.95    0.42
 -19  -4   3   22.69    1.45
 -19   4  -3   23.11    1.41
   4 -19  -3   21.01    1.40
 -19   4  -5    5.23    0.72
 -19  -4   5    4.29    0.73
  -4  19  -5    4.58    0.66
   4 -19  -5    5.02    0.75
  -4  19  -7    0.43    0.37
 -19  -4   7    1.52    0.58
 -19   4  -7    1.15    0.49
   4 -19  -7    0.63    0.45
 -19  -4   9    5.86    0.82
 -19   4  -9    6.40    0.81
   4 -19  -9    6.48    0.90
 -19   4 -11    0.36    0.44
   4 -19 -11    0.47    0.51
  -5 -19 -10    1.50    0.57
  -5 -19  -8    1.45    0.52
 -19   5   8    0.69    0.50
 -19   5   6    0.11    0.45
 -19   5   4    1.29    0.50
 -19   5   4    1.21    0.47
 -19   5   2    7.09    0.81
 -19   5   2    7.46    0.86
   5 -19   2    4.94    0.64
 -19   5   0   -0.10    0.40
   5 -19   0    0.46    0.35
 -19   5  -2    5.66    0.74
 -19  -5   2    6.38    0.79
   5 -19  -2    5.71    0.73
 -19  -5   4    1.46    0.50
  -5  19  -4    0.32    0.41
 -19   5  -4    1.59    0.48
   5 -19  -4   -0.28    0.45
 -19   5  -6    0.14    0.45
  -5  19  -6    0.46    0.45
 -19  -5   6    0.70    0.50
   5 -19  -6   -0.63    0.49
 -19  -5   8    1.47    0.56
  -5  19  -8    2.07    0.56
   5 -19  -8    1.33    0.54
 -19   5  -8    0.85    0.47
 -19   5 -10    1.47    0.54
   5 -19 -10    2.27    0.66
  -5  19 -10    1.03    0.46
   5 -19 -12    0.80    0.55
  -6 -19  -9   -0.33    0.47
 -19   6   9    0.89    0.52
 -19   6   7    2.46    0.64
 -19   6   5    0.63    0.49
 -19   6   3   -0.19    0.42
 -19   6   3   -0.26    0.47
 -19   6   1    2.87    0.61
 -19   6   1    2.44    0.58
   6 -19   1    2.83    0.53
 -19  -6   1    2.94    0.61
 -19   6  -1    3.51    0.62
 -19   6  -3    0.39    0.40
 -19  -6   3    0.88    0.50
   6 -19  -3    0.94    0.49
  -6  19  -5    0.10    0.41
 -19  -6   5   -0.35    0.48
   6 -19  -5    0.53    0.47
 -19   6  -5    0.42    0.41
 -19   6  -7    3.36    0.65
 -19  -6   7    2.00    0.62
  -6  19  -7    2.62    0.57
   6 -19  -7    1.89    0.57
 -19  -6   9    0.11    0.49
   6 -19  -9    0.20    0.51
  -6  19  -9    0.32    0.46
 -19   6  -9    0.42    0.47
   6 -19 -11    2.55    0.68
  -6  19 -11    1.86    0.57
 -19   7   8    1.90    0.58
 -19   7   6    0.92    0.55
 -19   7   4    0.43    0.46
 -19   7   4    0.68    0.49
 -19   7   2    1.45    0.53
 -19   7   2    2.14    0.62
 -19   7   0    0.25    0.42
 -19  -7   0    0.85    0.42
 -19   7  -2    1.85    0.55
 -19  -7   2    2.44    0.59
   7 -19  -2    1.41    0.47
  -7  19  -4    0.16    0.44
 -19  -7   4   -0.19    0.44
 -19   7  -4   -0.32    0.47
   7 -19  -4    0.42    0.40
  -7  19  -6    1.73    0.55
 -19  -7   6    0.13    0.44
   7 -19  -6    0.61    0.44
 -19   7  -6    1.48    0.55
 -19  -7   8    0.83    0.53
 -19   7  -8    1.01    0.53
   7 -19  -8    0.87    0.51
  -7  19  -8    0.31    0.45
   7 -19 -10    1.28    0.65
  -7  19 -10    0.59    0.47
  -7  19 -12    5.28    0.82
 -19   8   9   -0.57    0.54
 -19   8   7    4.29    0.72
 -19   8   5    0.62    0.49
 -19   8   3    3.73    0.67
 -19   8   3    3.11    0.61
 -19   8   1    0.29    0.45
 -19   8   1    0.25    0.48
 -19  -8  -1   -0.30    0.45
 -19  -8   1    0.04    0.41
 -19   8  -1    0.02    0.48
 -19   8  -3    3.40    0.68
 -19  -8   3    3.66    0.65
   8 -19  -3    3.02    0.65
  -8  19  -3    3.41    0.67
  -8  19  -5    1.32    0.55
 -19  -8   5    0.91    0.53
   8 -19  -5    1.33    0.53
 -19   8  -5    1.01    0.51
 -19  -8   7    3.51    0.75
  -8  19  -7    3.76    0.73
   8 -19  -7    2.94    0.68
 -19   8  -7    4.54    0.77
   8 -19  -9    0.65    0.62
  -8  19  -9   -0.34    0.52
  -8  19 -11   -0.39    0.51
   8 -19 -11   -0.20    0.51
  -8  19 -13    1.04    0.58
 -19   9   8    3.40    0.67
 -19   9   6    0.31    0.46
 -19   9   4   -0.28    0.48
 -19   9   2    2.81    0.64
 -19   9   2    4.65    0.72
 -19   9   0    9.10    1.01
 -19  -9   0    7.98    0.89
 -19  -9   2    3.85    0.69
  -9  19  -2    4.64    0.76
 -19   9  -2    4.10    0.73
 -19   9  -4    0.41    0.48
  -9  19  -4    0.27    0.45
 -19  -9   4    0.43    0.46
   9 -19  -4    0.03    0.47
 -19  -9   6    0.79    0.47
  -9  19  -6    0.71    0.53
   9 -19  -6    0.23    0.46
 -19   9  -6    0.49    0.51
   9 -19  -8    6.20    0.93
  -9  19  -8    5.16    0.80
   9 -19 -10   -0.07    0.56
  -9  19 -10    0.63    0.56
 -19  10   7    4.60    0.80
 -19  10   5    2.55    0.62
 -19  10   3    4.11    0.66
 -19  10   3    4.85    0.82
 -19  10   1    1.33    0.57
 -19 -10  -1    0.17    0.42
 -19  10   1    0.94    0.51
 -19 -10   1    2.43    0.62
 -19  10  -1    1.58    0.65
 -10  19  -3    4.81    0.82
 -19 -10   3    4.59    0.79
 -19  10  -3    4.48    0.75
 -10  19  -5    1.09    0.59
 -19 -10   5    2.37    0.62
 -19 -10   7    2.40    0.63
  10 -19  -7    3.01    0.74
  10 -19  -9    0.48    0.53
 -10  19  -9    0.88    0.56
 -19  11   6   -0.12    0.48
 -19  11   4    1.84    0.57
 -19  11   2    0.84    0.50
 -19 -11  -2    2.06    0.57
 -19 -11   0   -0.06    0.45
 -19  11   0    0.31    0.44
 -19 -11   2    1.72    0.59
 -11  19  -2    0.47    0.53
 -11  19  -4    4.03    0.73
 -19 -11   4    2.81    0.63
 -19 -11   6    0.71    0.49
  11 -19  -8    0.49    0.54
 -19 -12  -3    2.95    0.63
 -19 -12  -1    1.60    0.54
 -19 -12   1    2.01    0.58
 -19  12  -1    1.71    0.55
 -19 -12   3    2.91    0.67
 -19 -12   5    0.73    0.49
 -19 -13   2   -1.00    0.53
 -19 -13   4    4.30    0.76
 -20   0   0    5.73    0.67
   0 -20  -2   -0.02    0.37
 -20   0  -2    1.29    0.43
 -20   0   2    0.16    0.44
 -20   0  -4    1.53    0.47
 -20   0   4    1.69    0.58
   0 -20  -4    1.49    0.52
 -20   0   6    0.15    0.44
 -20   0  -6    1.08    0.46
   0 -20  -6    0.26    0.41
 -20   0   8    0.42    0.50
 -20   0  -8    0.15    0.42
   0 -20  -8   -0.68    0.48
   0 -20 -10    2.33    0.64
 -20   1   9    1.17    0.61
 -20  -1  -9    0.26    0.39
  -1 -20  -9    0.73    0.46
 -20  -1  -7    3.15    0.60
 -20   1   7    1.96    0.65
  -1 -20  -7    2.59    0.64
 -20  -1  -5    5.15    0.69
 -20   1   5    6.25    0.86
  -1 -20  -5    4.82    0.74
  -1 -20  -3    0.80    0.42
 -20   1   3    0.58    0.36
 -20   1   3    1.51    0.58
 -20  -1  -3    1.23    0.43
 -20   1   1    2.21    0.51
 -20   1   1    1.55    0.56
   1 -20  -1    0.85    0.41
 -20   1  -1    1.63    0.46
 -20  -1   1    1.94    0.57
 -20  -1   3    1.54    0.53
 -20   1  -3    1.80    0.49
   1 -20  -3    1.44    0.50
 -20   1  -5    5.45    0.71
 -20  -1   5    6.84    0.87
   1 -20  -5    5.01    0.78
 -20  -1   7    2.44    0.64
   1 -20  -7    2.36    0.57
 -20   1  -7    2.75    0.61
 -20   1  -9    0.92    0.47
 -20  -1   9    1.18    0.61
   1 -20  -9    0.48    0.49
 -20   2   8    3.29    0.70
 -20  -2  -8    4.07    0.63
  -2 -20  -8    4.27    0.81
 -20   2   6    2.86    0.66
 -20  -2  -6    2.04    0.47
  -2 -20  -6    1.79    0.55
  -2 -20  -4   -0.26    0.46
 -20   2   4    0.17    0.43
 -20   2   4   -0.08    0.36
   2 -20   2    3.82    0.61
 -20   2   2    3.10    0.55
 -20   2   2    4.78    0.75
   2 -20   0    9.28    0.91
 -20   2   0    9.47    0.88
 -20   2  -2    4.95    0.66
 -20  -2   2    3.78    0.66
   2 -20  -2    5.49    0.75
 -20  -2   4   -0.16    0.45
 -20   2  -4    0.22    0.39
   2 -20  -4    0.26    0.38
 -20   2  -6    1.77    0.47
 -20  -2   6    2.58    0.68
   2 -20  -6    1.72    0.51
 -20   2  -8    2.77    0.62
 -20  -2   8    4.81    0.79
   2 -20  -8    3.87    0.73
 -20   2 -10    0.25    0.42
   2 -20 -10    0.52    0.58
 -20   3   9    0.76    0.55
  -3 -20  -9    2.87    0.71
 -20   3   7   -0.62    0.55
  -3 -20  -7    0.04    0.43
 -20   3   5    4.81    0.77
 -20   3   3   12.67    1.13
   3 -20   3   11.21    0.96
 -20   3   3   12.07    0.99
 -20   3   1    1.68    0.47
 -20   3   1    1.64    0.57
   3 -20   1    1.59    0.46
 -20  -3   1    2.06    0.56
   3 -20  -1    1.96    0.52
 -20   3  -1    2.25    0.55
 -20   3  -3   11.94    1.02
 -20  -3   3   12.43    1.10
   3 -20  -3   11.90    1.07
 -20   3  -5    4.64    0.70
 -20  -3   5    4.31    0.75
   3 -20  -5    3.88    0.70
 -20  -3   7    0.45    0.51
 -20   3  -7   -0.39    0.46
   3 -20  -7   -0.17    0.47
 -20   3  -9    1.64    0.54
   3 -20  -9    1.99    0.58
 -20   3 -11    0.41    0.45
 -20   4   8    4.95    0.83
  -4 -20  -8    6.16    0.89
  -4 -20  -6    2.47    0.64
 -20   4   6    2.31    0.65
 -20   4   4    5.01    0.78
 -20   4   4    4.11    0.70
 -20   4   2   10.71    1.02
   4 -20   2    8.10    0.83
 -20   4   2   10.54    0.97
 -20   4   0    2.56    0.60
 -20  -4   0    2.91    0.60
   4 -20   0    2.12    0.50
 -20   4  -2   10.51    0.98
   4 -20  -2    9.19    0.94
 -20  -4   2    9.99    0.98
 -20  -4   4    5.18    0.76
 -20   4  -4    3.66    0.64
   4 -20  -4    5.16    0.78
 -20   4  -6    2.98    0.57
 -20  -4   6    2.73    0.64
   4 -20  -6    2.35    0.60
 -20  -4   8    4.62    0.78
 -20   4  -8    5.16    0.74
   4 -20  -8    3.87    0.75
 -20   4 -10    2.61    0.64
   4 -20 -10    3.35    0.77
 -20   5   9    0.32    0.52
  -5 -20  -7    4.42    0.79
 -20   5   7    4.25    0.77
 -20   5   5    5.54    0.80
 -20   5   3    0.91    0.47
 -20   5   3    1.32    0.55
 -20   5   1    6.50    0.81
 -20   5   1    7.02    0.85
   5 -20   1    5.88    0.73
 -20  -5   1    7.02    0.85
   5 -20  -1    5.68    0.75
 -20   5  -1    7.15    0.85
 -20   5  -3    2.07    0.55
 -20  -5   3    1.25    0.53
   5 -20  -3    0.99    0.47
 -20  -5   5    4.35    0.75
  -5  20  -5    4.63    0.71
   5 -20  -5    5.76    0.81
 -20   5  -5    4.60    0.68
  -5  20  -7    5.35    0.74
 -20   5  -7    4.61    0.74
 -20  -5   7    5.34    0.80
   5 -20  -7    5.07    0.82
   5 -20  -9   -0.51    0.54
 -20   5  -9   -0.63    0.50
 -20   6   8    1.53    0.59
 -20   6   6    2.12    0.64
 -20   6   4    2.78    0.67
 -20   6   4    1.16    0.48
 -20   6   2    5.19    0.76
 -20   6   2    4.68    0.72
 -20   6   0    2.42    0.63
 -20  -6   0    1.85    0.55
 -20   6  -2    5.84    0.80
 -20  -6   2    6.01    0.82
   6 -20  -2    4.82    0.74
 -20   6  -4    2.72    0.65
 -20  -6   4    3.53    0.70
   6 -20  -4    2.19    0.61
  -6  20  -6    1.63    0.54
 -20  -6   6    2.01    0.68
   6 -20  -6    1.80    0.59
 -20   6  -6    0.73    0.51
 -20   6  -8    4.31    0.75
  -6  20  -8    2.27    0.59
   6 -20  -8    3.88    0.76
   6 -20 -10    2.26    0.71
 -20   7   9    0.86    0.61
 -20   7   7    4.86    0.81
 -20   7   5    1.31    0.55
 -20   7   3    1.21    0.55
 -20   7   3    0.95    0.51
 -20   7   1    4.49    0.77
 -20   7   1    3.82    0.71
 -20  -7  -1    3.56    0.66
 -20  -7   1    3.76    0.68
 -20   7  -1    3.52    0.68
 -20   7  -3    0.14    0.46
 -20  -7   3    0.52    0.52
   7 -20  -3    0.76    0.44
  -7  20  -5    1.57    0.56
 -20  -7   5    1.49    0.57
 -20   7  -5    1.37    0.57
   7 -20  -5    1.31    0.56
  -7  20  -7    3.72    0.72
   7 -20  -7    4.17    0.75
  -7  20  -9    0.32    0.49
   7 -20  -9    0.23    0.52
 -20   8   8    5.44    0.84
 -20   8   6    0.21    0.47
 -20   8   4    3.08    0.68
 -20   8   2    3.98    0.73
 -20   8   2    3.50    0.69
 -20   8   0    4.18    0.72
 -20  -8   0    2.09    0.54
 -20   8   0    2.83    0.63
 -20  -8   2    3.54    0.69
 -20   8  -2    5.08    0.77
 -20   8  -4    1.10    0.54
 -20  -8   4    0.80    0.49
   8 -20  -4    1.02    0.48
  -8  20  -4    1.46    0.56
  -8  20  -6   -0.02    0.48
   8 -20  -6   -0.07    0.50
  -8  20  -8    5.99    0.88
   8 -20  -8    5.24    0.89
  -8  20 -10    0.46    0.50
 -20   9   7    2.80    0.68
 -20   9   5    6.01    0.84
 -20   9   3    9.89    1.01
 -20   9   3    8.82    1.00
 -20   9   1    4.30    0.76
 -20   9   1    5.87    0.83
 -20  -9  -1    3.82    0.71
 -20  -9   1    4.06    0.72
 -20   9  -1    5.92    0.88
 -20  -9   3    7.15    0.90
  -9  20  -3    7.01    0.91
  -9  20  -5    6.21    0.87
  -9  20  -7    2.27    0.66
   9 -20  -7    2.50    0.71
   9 -20  -9   -0.03    0.55
  -9  20  -9    1.40    0.56
 -20  10   8    5.10    0.80
 -20  10   6    0.27    0.47
 -20  10   4    4.48    0.74
 -20  10   2    6.93    0.88
 -20 -10  -2    7.30    0.87
 -20 -10   0   10.31    1.04
 -20  10   0   11.23    1.07
 -20 -10   2    6.18    0.86
 -10  20  -4    4.01    0.81
  10 -20  -8    4.67    0.88
 -20  11   5    7.20    0.91
 -20  11   3    0.13    0.52
 -20 -11  -1    5.72    0.79
 -20  11   1    5.50    0.81
 -20 -11   1    4.52    0.77
 -20  11  -1    5.67    0.79
   0 -21  -1    0.36    0.39
 -21   0   1   -0.70    0.50
 -21   0  -3    2.81    0.55
 -21   0   3    2.86    0.69
   0 -21  -3    1.75    0.54
 -21   0  -5    0.69    0.41
 -21   0   5    1.66    0.62
   0 -21  -5    0.16    0.42
 -21   0  -7    6.23    0.76
   0 -21  -7    5.55    0.84
 -21   0  -9   11.40    1.03
 -21   0 -11   -0.11    0.50
 -21  -1 -10    6.01    0.76
 -21  -1  -8   -0.13    0.40
  -1 -21  -6    2.95    0.64
 -21   1   4    4.83    0.82
  -1 -21  -4    6.04    0.85
  -1 -21  -2    0.49    0.43
 -21   1   2    0.64    0.49
   1 -21   0   -0.37    0.42
 -21   1   0    0.27    0.40
 -21   1  -2    0.95    0.48
 -21  -1   2   -0.32    0.50
   1 -21  -2    0.38    0.39
 -21  -1   4    5.28    0.84
 -21   1  -4    6.33    0.78
   1 -21  -4    5.45    0.78
 -21   1  -6    1.41    0.48
   1 -21  -6    2.22    0.57
 -21   1  -8   -0.32    0.47
   1 -21  -8    0.82    0.58
 -21   1 -10    7.04    0.88
  -2 -21  -5    0.42    0.43
 -21   2   5    1.94    0.64
   2 -21   3    0.06    0.37
 -21   2   3   -0.36    0.50
 -21   2   1    0.00    0.42
 -21   2   1    0.45    0.46
   2 -21   1   -0.15    0.36
 -21  -2   1    0.32    0.49
 -21   2  -1   -0.44    0.41
   2 -21  -1    0.08    0.37
 -21   2  -3    0.35    0.39
 -21  -2   3   -0.43    0.44
   2 -21  -3   -0.22    0.41
   2 -21  -5    0.95    0.48
 -21   2  -5    1.98    0.55
 -21   2  -7    3.37    0.64
   2 -21  -7    1.96    0.59
 -21   2  -9    3.18    0.63
  -3 -21  -6   -0.03    0.44
 -21   3   4   -0.34    0.47
 -21   3   2    1.74    0.54
 -21   3   2    1.65    0.56
   3 -21   2    1.35    0.48
 -21   3   0    1.30    0.49
 -21  -3   0    1.01    0.52
   3 -21   0    0.72    0.45
 -21   3  -2    0.50    0.44
 -21  -3   2    0.08    0.46
 -21  -3   4    0.46    0.48
 -21   3  -4   -0.14    0.42
   3 -21  -4   -0.46    0.48
 -21   3  -6   -0.24    0.43
   3 -21  -6   -0.24    0.49
 -21   3  -8    1.19    0.51
   3 -21  -8    0.10    0.45
 -21   4   5    5.23    0.84
 -21   4   3    0.11    0.42
 -21   4   3   -0.13    0.50
 -21   4   1    3.75    0.67
   4 -21   1    3.26    0.61
 -21  -4   1    4.59    0.77
 -21   4  -1    3.55    0.66
   4 -21  -1    3.83    0.65
 -21   4  -3    0.84    0.52
 -21  -4   3    0.34    0.51
   4 -21  -3    0.75    0.47
 -21   4  -5    4.10    0.70
   4 -21  -5    4.02    0.75
 -21   4  -7    2.61    0.61
   4 -21  -7    3.62    0.73
 -21   5   4    5.11    0.84
 -21   5   2    5.55    0.78
 -21   5   2    7.65    0.94
 -21   5   0    1.34    0.56
 -21  -5   0    1.87    0.59
 -21  -5   2    7.95    0.93
   5 -21  -2    7.17    0.88
 -21   5  -2    5.87    0.82
 -21   5  -4    7.65    0.91
   5 -21  -4    6.64    0.89
   5 -21  -6    3.04    0.68
 -21   5  -6    2.34    0.64
   5 -21  -8    4.89    0.83
 -21   6   5    3.58    0.78
 -21   6   3    0.92    0.51
 -21   6   3    0.99    0.53
 -21   6   1    5.89    0.84
 -21   6   1    4.28    0.73
 -21   6  -1    3.62    0.67
 -21   6  -3    1.16    0.55
   6 -21  -3    0.72    0.47
 -21   6  -5    3.75    0.67
   6 -21  -5    2.75    0.63
   6 -21  -7    4.24    0.79
 -21   7   4    2.70    0.67
 -21   7   2    1.20    0.57
 -21   7   2    0.34    0.48
 -21   7   0    0.70    0.47
 -21   7   0    1.63    0.54
 -21   7  -2    1.74    0.58
   7 -21  -4    1.62    0.59
  -7  21  -6    2.54    0.63
   7 -21  -6    1.89    0.65
   7 -21  -8    0.95    0.62
 -21   8   3    2.01    0.62
 -21   8   1    0.37    0.47
  -8  21  -5    1.06    0.56
  -8  21  -7    2.84    0.73
   8 -21  -7    2.87    0.69
  -8  21  -9    0.28    0.56
 -21   9   2    2.35    0.63
 -21   9   0   11.72    1.13
 -21  10   1    3.33    0.73
   0 -22   0    1.90    0.54
   0 -22  -2    1.61    0.56
   0 -22  -4    6.80    0.88
 -22   0  -8    2.74    0.62
  -1 -22  -3    3.87    0.73
   1 -22   1    1.10    0.51
  -1 -22  -1   -0.08    0.44
   1 -22  -1    0.48    0.40
   1 -22  -3    3.96    0.71
 -22   1  -5    2.55    0.61
   1 -22  -5    2.34    0.62
 -22   1  -7    5.34    0.80
   2 -22   2    0.93    0.46
   2 -22   0    0.16    0.39
   2 -22  -2    0.37    0.42
 -22   2  -2    0.97    0.45
 -22   2  -4    6.62    0.81
   2 -22  -4    4.66    0.79
 -22   2  -6    0.51    0.48
 -22   3   1   -0.22    0.39
   3 -22   1   -0.49    0.40
 -22   3  -1   -0.18    0.44
   3 -22  -1    0.07    0.44
 -22   3  -3    0.58    0.48
   3 -22  -3    0.19    0.46
 -22   3  -5    0.74    0.52
   3 -22  -5    0.54    0.43
 -22   4   2    0.55    0.45
 -22   4   0   -0.94    0.57
   4 -22  -2    1.66    0.58
 -22   4  -2    0.22    0.48
 -22   4  -4    0.72    0.45
   4 -22  -4    0.41    0.48
   4 -22  -6    0.52    0.49
 -22   5   3    0.89    0.52
 -22   5   1    1.09    0.54
 -22   5  -1    1.37    0.57
 -22   5  -3    0.21    0.50
   5 -22  -3    1.03    0.51
   5 -22  -5    0.63    0.52
 -22   6   2   -0.25    0.47
   6 -22  -4    0.38    0.48
   6 -22  -6    4.05    0.77
   0 -23   1   -0.59    0.51
   0 -23  -1   -0.93    0.52
   1 -23   2    2.41    0.61
   1 -23   0   -0.11    0.40
   1 -23  -2    1.70    0.57
   2 -23   1    3.55    0.68
   2 -23  -1    2.69    0.65
   3 -23  -2    1.60    0.56
   4 -23  -3    0.04    0.43
   0   0   0    0.00    0.00
;
_shelx_hkl_checksum              39892
loop_
_space_group_symop_operation_xyz
'x, y, z'
'y, -x, -z'
'-x, -y, z'
'-y, x, -z'
'x, -y, -z'
'-x, y, -z'
'-y, -x, z'
'y, x, z'
'x+1/2, y+1/2, z+1/2'
'y+1/2, -x+1/2, -z+1/2'
'-x+1/2, -y+1/2, z+1/2'
'-y+1/2, x+1/2, -z+1/2'
'x+1/2, -y+1/2, -z+1/2'
'-x+1/2, y+1/2, -z+1/2'
'-y+1/2, -x+1/2, z+1/2'
'y+1/2, x+1/2, z+1/2'
loop_
_atom_site_label
_atom_site_type_symbol
_atom_site_fract_x
_atom_site_fract_y
_atom_site_fract_z
_atom_site_U_iso_or_equiv
_atom_site_adp_type
_atom_site_occupancy
_atom_site_site_symmetry_order
_atom_site_calc_flag
_atom_site_refinement_flags_posn
_atom_site_refinement_flags_adp
_atom_site_refinement_flags_occupancy
_atom_site_disorder_assembly
_atom_site_disorder_group
Ag1 Ag 0.5000 0.5000 0.20494(6) 0.0192(3) Uani 1 4 d S T P . .
Ag2 Ag 0.65986(3) 0.52934(3) 0.16683(4) 0.02859(19) Uani 1 1 d . . . . .
Ag3 Ag 0.5000 0.58400(9) 0.0000 0.0244(4) Uani 0.5 2 d S T P B .
S1 S 0.40053(11) 0.59947(11) 0.20033(16) 0.0216(6) Uani 1 2 d S T P . .
C1 C 0.3749(6) 0.6251(6) 0.2853(7) 0.033(3) Uani 1 2 d S T P . .
C2 C 0.4227(6) 0.5773(6) 0.3332(8) 0.040(3) Uani 1 2 d S T P . .
H2A H 0.4729 0.6027 0.3405 0.059 Uiso 0.5 1 calc GR . . A -1
H2B H 0.4313 0.5252 0.3154 0.059 Uiso 0.5 1 calc GR . . A -1
H2C H 0.3948 0.5732 0.3746 0.059 Uiso 0.5 1 calc GR . . A -1
C3 C 0.2893(6) 0.6085(7) 0.2943(6) 0.047(3) Uani 1 1 d . . . . .
H3A H 0.2597 0.6341 0.2597 0.070 Uiso 1 1 calc GR . . . .
H3B H 0.2723 0.6285 0.3367 0.070 Uiso 1 1 calc GR . . . .
H3C H 0.2804 0.5524 0.2925 0.070 Uiso 1 1 calc GR . . . .
S2 S 0.60135(12) 0.60135(12) 0.07258(16) 0.0279(7) Uani 1 2 d S T P . .
C4 C 0.6613(15) 0.6789(15) 0.0319(8) 0.029(7) Uani 0.5 1 d . U . B -1
C5 C 0.7059(17) 0.7224(18) 0.0847(8) 0.023(8) Uani 0.5 1 d . . . B -1
H5A H 0.6723 0.7624 0.1038 0.034 Uiso 0.5 1 calc GR . . B -1
H5B H 0.7518 0.7470 0.0656 0.034 Uiso 0.5 1 calc GR . . B -1
H5C H 0.7220 0.6859 0.1187 0.034 Uiso 0.5 1 calc GR . . B -1
C6 C 0.7052(13) 0.6398(12) -0.0213(11) 0.042(6) Uani 0.5 1 d . . . B -1
H6A H 0.7417 0.6024 -0.0024 0.064 Uiso 0.5 1 calc GR . . B -1
H6B H 0.7340 0.6787 -0.0463 0.064 Uiso 0.5 1 calc GR . . B -1
H6C H 0.6689 0.6127 -0.0500 0.064 Uiso 0.5 1 calc GR . . B -1
C7 C 0.6076(13) 0.7425(13) 0.0032(13) 0.041(5) Uani 0.5 1 d . . . B -1
H7A H 0.5628 0.7180 -0.0178 0.062 Uiso 0.5 1 calc GR . . B -1
H7B H 0.6364 0.7731 -0.0289 0.062 Uiso 0.5 1 calc GR . . B -1
H7C H 0.5896 0.7766 0.0383 0.062 Uiso 0.5 1 calc GR . . B -1
O1 O 0.6922(5) 0.6011(5) 0.2664(4) 0.056(2) Uani 1 1 d . . . . .
C8 C 0.6577(5) 0.6577(5) 0.2866(7) 0.031(3) Uani 1 2 d S T P C .
C9 C 0.6915(6) 0.6915(6) 0.3504(8) 0.054(4) Uani 1 2 d DS T P . .
F1 F 0.6437(8) 0.7316(9) 0.3868(7) 0.081(5) Uani 0.7 1 d D U . C 1
F2 F 0.7448(5) 0.7448(5) 0.3365(9) 0.092(6) Uani 0.7 2 d DS T P C 1
F1B F 0.675(2) 0.7629(12) 0.367(2) 0.098(14) Uani 0.3 1 d D U . C 2
F2B F 0.6555(16) 0.6555(16) 0.3987(17) 0.116(15) Uani 0.3 2 d DS TU P C 2
N1 N 0.7946(3) 0.5154(4) 0.1674(4) 0.0257(15) Uani 1 1 d . . . . .
C10 C 0.8408(5) 0.5756(5) 0.1844(4) 0.026(2) Uani 1 1 d . . . . .
H10 H 0.8166 0.6226 0.1976 0.032 Uiso 1 1 calc R . . . .
C11 C 0.9201(5) 0.5728(5) 0.1839(4) 0.0225(19) Uani 1 1 d . . . . .
H11 H 0.9496 0.6173 0.1955 0.027 Uiso 1 1 calc R . . . .
C12 C 0.9577(4) 0.5033(5) 0.1659(4) 0.0201(15) Uani 1 1 d . . . . .
C13 C 0.9102(5) 0.4406(5) 0.1503(4) 0.0227(19) Uani 1 1 d . . . . .
H13 H 0.9324 0.3920 0.1391 0.027 Uiso 1 1 calc R . . . .
C14 C 0.8301(4) 0.4496(5) 0.1512(4) 0.025(2) Uani 1 1 d . . . . .
H14 H 0.7988 0.4063 0.1396 0.030 Uiso 1 1 calc R . . . .
Br1 Br 1.0000 0.4245(2) 0.0000 0.0659(15) Uani 0.25 1 d S T P D -1
C15 C 1.0000 0.528(2) 0.0000 0.0659(15) Uani 0.25 1 d DS T P D -1
C16 C 0.9336(13) 0.5727(12) 0.0142(11) 0.049(6) Uani 0.5 1 d D U . . .
H16 H 0.8863 0.5471 0.0245 0.059 Uiso 0.5 1 calc R . . D .
C17 C 0.9355(12) 0.6535(13) 0.0137(12) 0.059(7) Uani 0.5 1 d D U . D .
H17 H 0.8885 0.6799 0.0235 0.070 Uiso 0.5 1 calc R . . . .
C18 C 1.0000 0.6988(19) 0.0000 0.057(8) Uani 0.25 1 d DS TU P D -1
H18 H 1.0000 0.7539 0.0000 0.068 Uiso 0.25 1 d RS T P D -1
loop_
_atom_site_aniso_label
_atom_site_aniso_U_11
_atom_site_aniso_U_22
_atom_site_aniso_U_33
_atom_site_aniso_U_23
_atom_site_aniso_U_13
_atom_site_aniso_U_12
Ag1 0.0144(3) 0.0144(3) 0.0287(7) 0.000 0.000 0.0010(5)
Ag2 0.0154(3) 0.0270(3) 0.0434(4) -0.0018(3) 0.0012(3) -0.0034(2)
Ag3 0.0236(8) 0.0192(7) 0.0304(9) 0.000 -0.0094(10) 0.000
S1 0.0193(8) 0.0193(8) 0.0263(16) -0.0023(9) 0.0023(9) 0.0047(11)
C1 0.034(4) 0.034(4) 0.031(8) -0.010(5) 0.010(5) -0.001(6)
C2 0.048(5) 0.048(5) 0.024(7) -0.008(5) 0.008(5) 0.011(6)
C3 0.031(5) 0.062(7) 0.047(7) -0.013(6) 0.010(5) 0.002(5)
S2 0.0311(10) 0.0311(10) 0.0214(16) -0.0009(9) -0.0009(9) -0.0127(13)
C4 0.027(11) 0.034(12) 0.027(7) -0.001(7) 0.004(7) -0.005(10)
C5 0.021(16) 0.016(13) 0.032(8) 0.005(7) -0.002(7) 0.000(14)
C6 0.051(14) 0.036(12) 0.041(13) -0.011(10) 0.015(11) -0.023(11)
C7 0.038(11) 0.036(11) 0.049(14) 0.020(12) -0.002(13) 0.002(9)
O1 0.039(4) 0.064(6) 0.064(6) -0.021(5) -0.010(4) 0.006(4)
C8 0.024(4) 0.024(4) 0.046(8) 0.005(4) 0.005(4) -0.006(6)
C9 0.053(6) 0.053(6) 0.056(12) -0.003(7) -0.003(7) 0.009(9)
F1 0.084(9) 0.094(9) 0.065(8) -0.055(9) -0.011(7) 0.020(8)
F2 0.097(8) 0.097(8) 0.083(12) -0.020(7) -0.020(7) -0.053(11)
F1B 0.11(2) 0.08(2) 0.10(2) -0.012(17) -0.050(19) 0.018(18)
F2B 0.132(18) 0.132(18) 0.08(2) -0.022(15) -0.022(15) -0.02(2)
N1 0.020(3) 0.030(4) 0.026(4) -0.001(4) -0.004(3) -0.005(3)
C10 0.023(4) 0.021(4) 0.036(6) -0.008(4) -0.006(4) 0.000(3)
C11 0.022(4) 0.021(4) 0.024(5) 0.001(4) -0.001(4) -0.004(3)
C12 0.019(4) 0.022(3) 0.019(4) 0.002(5) -0.005(4) -0.002(3)
C13 0.025(4) 0.018(4) 0.025(5) 0.001(4) -0.004(4) 0.000(3)
C14 0.016(4) 0.029(4) 0.031(5) -0.003(4) -0.010(4) -0.006(3)
Br1 0.078(3) 0.091(4) 0.0295(15) 0.006(12) 0.013(3) 0.031(9)
C15 0.078(3) 0.091(4) 0.0295(15) 0.006(12) 0.013(3) 0.031(9)
C16 0.047(10) 0.063(11) 0.037(11) -0.005(9) 0.000(9) 0.001(9)
C17 0.049(10) 0.079(12) 0.048(11) -0.007(10) 0.003(9) 0.007(9)
C18 0.054(12) 0.066(13) 0.050(13) 0.000(14) 0.001(12) 0.000(14)
loop_
_atom_type_symbol
_atom_type_description
_atom_type_scat_dispersion_real
_atom_type_scat_dispersion_imag
_atom_type_scat_source
C C 0.0033 0.0016 'International Tables Vol C Tables 4.2.6.8 and 6.1.1.4'
H H 0.0000 0.0000 'International Tables Vol C Tables 4.2.6.8 and 6.1.1.4'
Ag Ag -0.8971 1.1015 'International Tables Vol C Tables 4.2.6.8 and 6.1.1.4'
Br Br -0.2901 2.4595 'International Tables Vol C Tables 4.2.6.8 and 6.1.1.4'
F F 0.0171 0.0103 'International Tables Vol C Tables 4.2.6.8 and 6.1.1.4'
N N 0.0061 0.0033 'International Tables Vol C Tables 4.2.6.8 and 6.1.1.4'
O O 0.0106 0.0060 'International Tables Vol C Tables 4.2.6.8 and 6.1.1.4'
S S 0.1246 0.1234 'International Tables Vol C Tables 4.2.6.8 and 6.1.1.4'
loop_
_geom_angle_atom_site_label_1
_geom_angle_atom_site_label_2
_geom_angle_atom_site_label_3
_geom_angle
_geom_angle_site_symmetry_1
_geom_angle_site_symmetry_3
Ag2 Ag1 Ag2 66.30(3) 7_665 3_665
Ag2 Ag1 Ag2 148.75(6) 3_665 .
Ag2 Ag1 Ag2 104.89(3) 7_665 .
Ag2 Ag1 Ag2 148.76(6) 7_665 8
Ag2 Ag1 Ag2 104.89(3) 3_665 8
Ag2 Ag1 Ag2 66.30(3) 8 .
S1 Ag1 Ag2 56.16(3) . 8
S1 Ag1 Ag2 122.40(3) . .
S1 Ag1 Ag2 56.16(3) . 3_665
S1 Ag1 Ag2 122.40(3) 3_665 8
S1 Ag1 Ag2 56.16(3) 3_665 .
S1 Ag1 Ag2 122.40(3) . 7_665
S1 Ag1 Ag2 122.40(3) 3_665 3_665
S1 Ag1 Ag2 56.16(3) 3_665 7_665
S1 Ag1 S1 175.52(16) . 3_665
Ag1 Ag2 Ag2 56.850(13) . 8
S1 Ag2 Ag1 52.31(6) 3_665 .
S1 Ag2 Ag2 109.12(6) 3_665 8
S2 Ag2 Ag1 85.03(7) . .
S2 Ag2 Ag2 50.71(5) . 8
S2 Ag2 S1 118.37(10) . 3_665
O1 Ag2 Ag1 94.5(2) . .
O1 Ag2 Ag2 78.73(19) . 8
O1 Ag2 S1 107.9(2) . 3_665
O1 Ag2 S2 119.0(2) . .
N1 Ag2 Ag1 157.38(18) . .
N1 Ag2 Ag2 140.90(16) . 8
N1 Ag2 S1 108.40(18) . 3_665
N1 Ag2 S2 117.0(2) . .
N1 Ag2 O1 79.7(3) . .
Ag3 Ag3 Ag3 90.0 4_655 2_565
Ag3 Ag3 Ag3 45.0 4_655 3_665
Ag3 Ag3 Ag3 44.999(1) 2_565 3_665
Ag3 Ag3 S2 128.64(8) 4_655 .
Ag3 Ag3 S2 128.64(8) 2_565 4_655
Ag3 Ag3 S2 63.77(5) 2_565 .
Ag3 Ag3 S2 63.77(5) 4_655 4_655
S2 Ag3 Ag3 97.41(6) 4_655 3_665
S2 Ag3 Ag3 97.42(6) . 3_665
S2 Ag3 S2 165.17(12) 4_655 .
Ag1 S1 Ag2 71.54(6) . 8
Ag1 S1 Ag2 71.54(6) . 3_665
Ag2 S1 Ag2 129.75(12) 3_665 8
C1 S1 Ag1 107.4(5) . .
C1 S1 Ag2 111.39(13) . 3_665
C1 S1 Ag2 111.39(13) . 8
C2 C1 S1 110.5(9) . .
C3 C1 S1 107.6(8) . .
C3 C1 S1 107.6(8) 7_665 .
C3 C1 C2 110.2(9) . .
C3 C1 C2 110.2(9) 7_665 .
C3 C1 C3 110.6(13) . 7_665
C1 C2 H2A 109.5 . .
C1 C2 H2B 109.5 . .
C1 C2 H2C 109.5 . .
H2A C2 H2B 109.5 . .
H2A C2 H2C 109.5 . .
H2B C2 H2C 109.5 . .
C1 C3 H3A 109.5 . .
C1 C3 H3B 109.5 . .
C1 C3 H3C 109.5 . .
H3A C3 H3B 109.5 . .
H3A C3 H3C 109.5 . .
H3B C3 H3C 109.5 . .
Ag2 S2 Ag2 78.58(10) 8 .
Ag3 S2 Ag2 100.13(6) 2_565 .
Ag3 S2 Ag2 100.13(6) . 8
Ag3 S2 Ag2 137.36(14) . .
Ag3 S2 Ag2 137.36(14) 2_565 8
Ag3 S2 Ag3 52.46(10) . 2_565
C4 S2 Ag2 118.2(8) . .
C4 S2 Ag2 109.2(8) . 8
C4 S2 Ag3 108.6(6) . 2_565
C4 S2 Ag3 102.7(7) . .
C5 C4 S2 108.0(11) . .
C5 C4 C7 103(2) . .
C6 C4 S2 106.5(16) . .
C6 C4 C5 119(2) . .
C6 C4 C7 110.1(19) . .
C7 C4 S2 110.0(16) . .
C4 C5 H5A 109.5 . .
C4 C5 H5B 109.5 . .
C4 C5 H5C 109.5 . .
H5A C5 H5B 109.5 . .
H5A C5 H5C 109.5 . .
H5B C5 H5C 109.5 . .
C4 C6 H6A 109.5 . .
C4 C6 H6B 109.5 . .
C4 C6 H6C 109.5 . .
H6A C6 H6B 109.5 . .
H6A C6 H6C 109.5 . .
H6B C6 H6C 109.5 . .
C4 C7 H7A 109.5 . .
C4 C7 H7B 109.5 . .
C4 C7 H7C 109.5 . .
H7A C7 H7B 109.5 . .
H7A C7 H7C 109.5 . .
H7B C7 H7C 109.5 . .
C8 O1 Ag2 125.3(9) . .
O1 C8 O1 132.0(15) . 8
O1 C8 C9 114.0(8) . .
O1 C8 C9 114.0(8) 8 .
F1 C9 C8 116.4(10) . .
F1 C9 C8 116.4(10) 8 .
F1 C9 F1 109.7(18) . 8
F1 C9 F2 101.1(13) . .
F1 C9 F2 101.1(13) 8 .
F2 C9 C8 109.7(13) . .
F1B C9 C8 119.7(19) 8 .
F1B C9 C8 119.7(19) . .
F1B C9 F1B 109(4) 8 .
F1B C9 F2B 98(2) 8 .
F1B C9 F2B 98(2) . .
F2B C9 C8 106(2) . .
C10 N1 Ag2 120.5(5) . .
C14 N1 Ag2 122.9(5) . .
C14 N1 C10 116.6(7) . .
N1 C10 H10 118.0 . .
N1 C10 C11 124.0(8) . .
C11 C10 H10 118.0 . .
C10 C11 H11 120.3 . .
C10 C11 C12 119.4(7) . .
C12 C11 H11 120.3 . .
C11 C12 C12 121.5(9) . 3_765
C13 C12 C11 116.6(7) . .
C13 C12 C12 121.8(9) . 3_765
C12 C13 H13 120.2 . .
C14 C13 C12 119.7(7) . .
C14 C13 H13 120.2 . .
N1 C14 C13 123.7(7) . .
N1 C14 H14 118.1 . .
C13 C14 H14 118.1 . .
C16 Br1 C15 87.7(10) 3_765 .
C16 Br1 C15 87.7(10) 5_565 .
C16 Br1 C16 175(2) 3_765 5_565
C16 Br1 C17 132.8(14) 5_565 3_765
C16 Br1 C17 51.8(10) 5_565 5_565
C16 Br1 C17 132.8(14) 3_765 5_565
C16 Br1 C17 51.8(10) 3_765 3_765
C17 Br1 C15 139.5(7) 5_565 .
C17 Br1 C15 139.5(7) 3_765 .
C17 Br1 C17 81.0(13) 5_565 3_765
C16 C15 Br1 123.2(15) 6_755 .
C16 C15 Br1 123.2(16) . .
C16 C15 C16 114(3) . 6_755
C15 C16 H16 119.1 . .
C17 C16 C15 122(2) . .
C17 C16 H16 119.1 . .
C16 C17 H17 117.2 . .
C18 C17 C16 126(2) . .
C18 C17 H17 117.2 . .
C17 C18 C17 112(3) 6_755 .
C17 C18 H18 124.2 6_755 .
C17 C18 H18 124.2 . .
loop_
_geom_bond_atom_site_label_1
_geom_bond_atom_site_label_2
_geom_bond_distance
_geom_bond_site_symmetry_2
Ag1 Ag2 2.9076(7) 7_665
Ag1 Ag2 2.9076(7) .
Ag1 Ag2 2.9076(7) 8
Ag1 Ag2 2.9076(7) 3_665
Ag1 S1 2.426(3) 3_665
Ag1 S1 2.426(3) .
Ag2 Ag2 3.1800(12) 8
Ag2 S1 2.5460(14) 3_665
Ag2 S2 2.511(3) .
Ag2 O1 2.454(8) .
Ag2 N1 2.334(6) .
Ag3 Ag3 2.895(3) 3_665
Ag3 Ag3 2.047(2) 4_655
Ag3 Ag3 2.047(2) 2_565
Ag3 S2 2.316(3) .
Ag3 S2 2.316(3) 4_655
S1 Ag2 2.5460(14) 3_665
S1 Ag2 2.5460(14) 8
S1 C1 1.854(14) .
C1 C2 1.52(2) .
C1 C3 1.514(13) .
C1 C3 1.514(13) 7_665
C2 H2A 0.9800 .
C2 H2B 0.9800 .
C2 H2C 0.9800 .
C3 H3A 0.9800 .
C3 H3B 0.9800 .
C3 H3C 0.9800 .
S2 Ag2 2.511(3) 8
S2 Ag3 2.316(3) 2_565
S2 C4 1.884(16) .
C4 C5 1.53(2) .
C4 C6 1.49(3) .
C4 C7 1.55(4) .
C5 H5A 0.9800 .
C5 H5B 0.9800 .
C5 H5C 0.9800 .
C6 H6A 0.9800 .
C6 H6B 0.9800 .
C6 H6C 0.9800 .
C7 H7A 0.9800 .
C7 H7B 0.9800 .
C7 H7C 0.9800 .
O1 C8 1.215(9) .
C8 O1 1.215(9) 8
C8 C9 1.55(2) .
C9 F1 1.309(11) 8
C9 F1 1.309(11) .
C9 F2 1.330(13) .
C9 F1B 1.305(14) 8
C9 F1B 1.305(14) .
C9 F2B 1.322(15) .
N1 C10 1.353(10) .
N1 C14 1.330(11) .
C10 H10 0.9500 .
C10 C11 1.367(12) .
C11 H11 0.9500 .
C11 C12 1.412(11) .
C12 C12 1.462(13) 3_765
C12 C13 1.392(11) .
C13 H13 0.9500 .
C13 C14 1.389(11) .
C14 H14 0.9500 .
Br1 C15 1.78(4) .
Br1 C16 1.18(2) 3_765
Br1 C16 1.18(2) 5_565
Br1 C17 1.77(2) 5_565
Br1 C17 1.77(2) 3_765
C15 C16 1.41(2) .
C15 C16 1.41(2) 6_755
C16 H16 0.9500 .
C16 C17 1.39(2) .
C17 H17 0.9500 .
C17 C18 1.39(2) .
C18 C17 1.39(2) 6_755
C18 H18 0.9497 .
loop_
_geom_torsion_atom_site_label_1
_geom_torsion_atom_site_label_2
_geom_torsion_atom_site_label_3
_geom_torsion_atom_site_label_4
_geom_torsion
_geom_torsion_site_symmetry_1
_geom_torsion_site_symmetry_2
_geom_torsion_site_symmetry_3
_geom_torsion_site_symmetry_4
Ag1 S1 C1 C2 0.000(3) . . . .
Ag1 S1 C1 C3 -120.4(8) . . . .
Ag1 S1 C1 C3 120.4(8) . . . 7_665
Ag2 S1 C1 C2 -76.5(2) 8 . . .
Ag2 S1 C1 C2 76.5(2) 3_665 . . .
Ag2 S1 C1 C3 163.1(7) 8 . . .
Ag2 S1 C1 C3 -163.1(7) 3_665 . . 7_665
Ag2 S1 C1 C3 -43.9(10) 3_665 . . .
Ag2 S1 C1 C3 43.9(10) 8 . . 7_665
Ag2 S2 C4 C5 -39(3) . . . .
Ag2 S2 C4 C5 48(2) 8 . . .
Ag2 S2 C4 C6 90.3(15) . . . .
Ag2 S2 C4 C6 177.4(15) 8 . . .
Ag2 S2 C4 C7 -63.4(15) 8 . . .
Ag2 S2 C4 C7 -150.4(13) . . . .
Ag2 O1 C8 O1 1(2) . . . 8
Ag2 O1 C8 C9 -179.5(8) . . . .
Ag2 N1 C10 C11 -177.7(7) . . . .
Ag2 N1 C14 C13 179.0(7) . . . .
Ag3 S2 C4 C5 -152(2) 2_565 . . .
Ag3 S2 C4 C5 154(2) . . . .
Ag3 S2 C4 C6 -77.0(18) . . . .
Ag3 S2 C4 C6 -22.7(19) 2_565 . . .
Ag3 S2 C4 C7 96.6(16) 2_565 . . .
Ag3 S2 C4 C7 42.2(16) . . . .
O1 C8 C9 F1 155.7(14) 8 . . 8
O1 C8 C9 F1 -155.7(14) . . . .
O1 C8 C9 F1 -23.7(19) . . . 8
O1 C8 C9 F1 23.7(19) 8 . . .
O1 C8 C9 F2 -90.3(11) 8 . . .
O1 C8 C9 F2 90.3(11) . . . .
O1 C8 C9 F1B 20(3) . . . 8
O1 C8 C9 F1B -20(3) 8 . . .
O1 C8 C9 F1B 160(3) . . . .
O1 C8 C9 F1B -160(3) 8 . . 8
O1 C8 C9 F2B -89.7(11) . . . .
O1 C8 C9 F2B 89.7(11) 8 . . .
N1 C10 C11 C12 -1.3(14) . . . .
C10 N1 C14 C13 -0.8(14) . . . .
C10 C11 C12 C12 -178.6(7) . . . 3_765
C10 C11 C12 C13 -0.7(13) . . . .
C11 C12 C13 C14 1.8(13) . . . .
C12 C12 C13 C14 179.8(6) 3_765 . . .
C12 C13 C14 N1 -1.1(14) . . . .
C14 N1 C10 C11 2.1(14) . . . .
Br1 C15 C16 C17 -179.8(17) . . . .
C15 C16 C17 C18 0(4) . . . .
C16 Br1 C15 C16 29(2) 3_765 . . 6_755
C16 Br1 C15 C16 -151(2) 5_565 . . 6_755
C16 Br1 C15 C16 -151(2) 3_765 . . .
C16 Br1 C15 C16 29(2) 5_565 . . .
C16 C15 C16 C17 0.2(17) 6_755 . . .
C16 C17 C18 C17 0.2(19) . . . 6_755
C17 Br1 C15 C16 -151.5(15) 3_765 . . .
C17 Br1 C15 C16 28.5(15) 3_765 . . 6_755
C17 Br1 C15 C16 -151.5(15) 5_565 . . 6_755
C17 Br1 C15 C16 28.5(15) 5_565 . . .
