#------------------------------------------------------------------------------
#$Date: 2019-06-14 11:53:33 +0300 (Fri, 14 Jun 2019) $
#$Revision: 215969 $
#$URL: file:///home/coder/svn-repositories/cod/cif/1/55/14/1551431.cif $
#------------------------------------------------------------------------------
#
# This file is available in the Crystallography Open Database (COD),
# http://www.crystallography.net/
#
# All data on this site have been placed in the public domain by the
# contributors.
#
data_1551431
loop_
_publ_author_name
'Ren-Wu Huang'
'Yong-Sheng Wei'
'Xi-Yan Dong'
'Xiao-Hui Wu'
'Chen-Xia Du'
'Shuang-Quan Zang'
'Thomas C. W. Mak'
_publ_section_title
;
 Hypersensitive dual-function luminescence switching of a
 silver-chalcogenolate cluster-based metal-organic framework
;
_journal_name_full               'Nature Chemistry'
_journal_page_first              689
_journal_page_last               697
_journal_paper_doi               10.1038/nchem.2718
_journal_volume                  9
_journal_year                    2017
_chemical_absolute_configuration ad
_chemical_formula_moiety         'C80 H104 Ag12 F12 N8 O8 S8'
_chemical_formula_sum            'C80 H104 Ag12 F12 N8 O8 S8'
_chemical_formula_weight         3084.63
_space_group_crystal_system      tetragonal
_space_group_IT_number           121
_space_group_name_Hall           'I -4 2'
_space_group_name_H-M_alt        'I -4 2 m'
_atom_sites_solution_hydrogens   geom
_atom_sites_solution_primary     direct
_cell_angle_alpha                90
_cell_angle_beta                 90
_cell_angle_gamma                90
_cell_formula_units_Z            2
_cell_length_a                   17.29649(13)
_cell_length_b                   17.29649(13)
_cell_length_c                   19.8753(3)
_cell_measurement_reflns_used    6384
_cell_measurement_temperature    100.0(2)
_cell_measurement_theta_max      72.1320
_cell_measurement_theta_min      3.3820
_cell_volume                     5946.07(11)
_computing_cell_refinement       'CrysAlisPro 1.171.39.7b (Rigaku OD, 2015)'
_computing_data_collection       'CrysAlisPro 1.171.39.7b (Rigaku OD, 2015)'
_computing_data_reduction        'CrysAlisPro 1.171.39.7b (Rigaku OD, 2015)'
_computing_molecular_graphics    'Olex2 (Dolomanov et al., 2009)'
_computing_publication_material  'Olex2 (Dolomanov et al., 2009)'
_computing_structure_refinement  'ShelXL (Sheldrick, 2015)'
_computing_structure_solution    'ShelXS (Sheldrick, 2008)'
_diffrn_ambient_environment      N~2~
_diffrn_ambient_temperature      100.0(2)
_diffrn_detector                 'CCD plate'
_diffrn_measured_fraction_theta_full 0.995
_diffrn_measured_fraction_theta_max 0.985
_diffrn_measurement_details
;
List of Runs (angles in degrees, time in seconds):

  # Type    Start    End  Width  t~exp~   \w     \q     \k     \f   Frames
--------------------------------------------------------------------------
  1  \w    -31.00  87.00   0.50    2.00    --   45.50 -82.00-180.00  236
  2  \w     29.00 136.00   0.50    7.00    --  100.10 -61.00 120.00  214
  3  \w    114.00 145.00   0.50    7.00    --  100.10  82.00 -60.00   62
  4  \w    116.00 180.00   0.50    7.00    --  100.10  82.00  60.00  128
  5  \w    104.00 186.00   0.50    7.00    --  100.10  82.00  90.00  164
;
_diffrn_measurement_device       'four-circle diffractometer'
_diffrn_measurement_device_type  'XtaLAB Pro: Kappa single'
_diffrn_measurement_method       '\w scans'
_diffrn_orient_matrix_type
'CrysAlisPro convention (1999,Acta A55,543-557)'
_diffrn_orient_matrix_UB_11      -0.0700519000
_diffrn_orient_matrix_UB_12      -0.0123693000
_diffrn_orient_matrix_UB_13      -0.0465463000
_diffrn_orient_matrix_UB_21      0.0549372000
_diffrn_orient_matrix_UB_22      -0.0169135000
_diffrn_orient_matrix_UB_23      -0.0591969000
_diffrn_orient_matrix_UB_31      -0.0007289000
_diffrn_orient_matrix_UB_32      -0.0866351000
_diffrn_orient_matrix_UB_33      0.0182720000
_diffrn_radiation_monochromator  graphite
_diffrn_radiation_probe          x-ray
_diffrn_radiation_type           CuK\a
_diffrn_radiation_wavelength     1.54184
_diffrn_reflns_av_R_equivalents  0.0344
_diffrn_reflns_av_unetI/netI     0.0385
_diffrn_reflns_Laue_measured_fraction_full 0.995
_diffrn_reflns_Laue_measured_fraction_max 0.985
_diffrn_reflns_limit_h_max       21
_diffrn_reflns_limit_h_min       -20
_diffrn_reflns_limit_k_max       12
_diffrn_reflns_limit_k_min       -16
_diffrn_reflns_limit_l_max       23
_diffrn_reflns_limit_l_min       -9
_diffrn_reflns_number            7576
_diffrn_reflns_point_group_measured_fraction_full 0.997
_diffrn_reflns_point_group_measured_fraction_max 0.989
_diffrn_reflns_theta_full        66.750
_diffrn_reflns_theta_max         72.606
_diffrn_reflns_theta_min         3.387
_diffrn_source                   MM007HF-DW
_diffrn_source_type              'Microfocus Rotating Anode X-ray Source'
_exptl_absorpt_coefficient_mu    17.330
_exptl_absorpt_correction_T_max  0.411
_exptl_absorpt_correction_T_min  0.129
_exptl_absorpt_correction_type   analytical
_exptl_absorpt_process_details
;
CrysAlisPro 1.171.39.7b (Rigaku Oxford Diffraction, 2015)
Analytical numeric absorption correction using a multifaceted crystal
			model based on expressions derived by R.C. Clark & J.S. Reid.
(Clark, R. C. & Reid, J. S. (1995). Acta Cryst. A51, 887-897)
Empirical absorption correction using spherical harmonics,
 implemented in SCALE3 ABSPACK scaling algorithm.
;
_exptl_crystal_colour            colourless
_exptl_crystal_colour_primary    colourless
_exptl_crystal_density_diffrn    1.723
_exptl_crystal_description       block
_exptl_crystal_F_000             3008
_exptl_crystal_size_max          0.182
_exptl_crystal_size_mid          0.131
_exptl_crystal_size_min          0.061
_refine_diff_density_max         1.331
_refine_diff_density_min         -2.014
_refine_diff_density_rms         0.224
_refine_ls_abs_structure_details
;
 Refined as an inversion twin.
;
_refine_ls_abs_structure_Flack   0.04(5)
_refine_ls_extinction_coef       .
_refine_ls_extinction_method     none
_refine_ls_goodness_of_fit_ref   1.228
_refine_ls_hydrogen_treatment    constr
_refine_ls_matrix_type           full
_refine_ls_number_parameters     168
_refine_ls_number_reflns         2965
_refine_ls_number_restraints     41
_refine_ls_restrained_S_all      1.229
_refine_ls_R_factor_all          0.0653
_refine_ls_R_factor_gt           0.0650
_refine_ls_shift/su_max          0.000
_refine_ls_shift/su_mean         0.000
_refine_ls_structure_factor_coef Fsqd
_refine_ls_weighting_details
;
 w=1/[\s^2^(Fo^2^)+275.4369P]
 where P=(Fo^2^+2Fc^2^)/3
;
_refine_ls_weighting_scheme      calc
_refine_ls_wR_factor_gt          0.1584
_refine_ls_wR_factor_ref         0.1589
_reflns_Friedel_coverage         0.824
_reflns_Friedel_fraction_full    1.000
_reflns_Friedel_fraction_max     0.993
_reflns_number_gt                2952
_reflns_number_total             2965
_reflns_threshold_expression     'I > 2\s(I)'
_cod_data_source_file            nchem.2718-s8.cif
_cod_data_source_block           ag12bpy_vacuum_100k
_cod_original_cell_volume        5946.06(12)
_cod_database_code               1551431
_chemical_oxdiff_formula         'C80 H104 O8 N8 S8 Ag12'
_chemical_oxdiff_usercomment     st
_shelx_space_group_comment
;
The symmetry employed for this shelxl refinement is uniquely defined
by the following loop, which should always be used as a source of
symmetry information in preference to the above space-group names.
They are only intended as comments.
;
_reflns_odcompleteness_completeness 99.94
_reflns_odcompleteness_iscentric 1
_reflns_odcompleteness_theta     66.97
_olex2_refinement_description
;
1. Twinned data refinement
 Scales: 0.96(5) 0.04(5)
2. Fixed Uiso
 At 1.2 times of:
  All C(H) groups
 At 1.5 times of:
  All C(H,H,H) groups
3. Restrained distances
 C3-C1 = C2-C1 = C5-C4 = C6-C4
 1.53 with sigma of 0.02
 F1-C8 \\sim F2-C8
 with sigma of 0.01
4. Uiso/Uaniso restraints and constraints
Uanis(C6) \\sim Ueq, Uanis(C5) \\sim Ueq, Uanis(C4) \\sim Ueq, Uanis(F2) \\sim
Ueq, Uanis(F1) \\sim Ueq, Uanis(C8) \\sim Ueq: with sigma of 0.01 and sigma for
terminal atoms of 0.02
5. Others
 Fixed Sof: Ag3(0.25) H3A(0.5) H3B(0.5) H3C(0.5) H5A(0.5) H5B(0.5) H5C(0.5)
6.a Aromatic/amide H refined with riding coordinates:
 C9(H9), C10(H10), C12(H12), C13(H13)
6.b Idealised Me refined as rotating group:
 C2(H2A,H2B,H2C), C3(H3A,H3B,H3C), C5(H5A,H5B,H5C), C6(H6A,H6B,H6C)
Comments: The trifluoroacetate and t-butyl mercaptan anions 
were observed to be disordered, however, the related atoms 
were not split but rather had strong restraints applied. 
The geometry and ADPs of the trifluoroacetate were restrained 
using "SADI" and "ISOR", respectively. For the t-butyl mercaptan, 
ADP restraints "ISOR 0.01 0.02" were applied to C4, C5 and C6. 
The C-C distance was restrained by "DFIX 1.53 0.01". The structure 
is slightly twinned. So "TWIN" command was used with a refined BASF
parameter of 0.038.
;
_shelx_res_file
;
TITL Ag12bpy_vacuum_100K.res in I-42m
CELL 1.54184 17.296487 17.296487 19.875295 90 90 90
ZERR 2 0.000128 0.000128 0.000266 0 0 0
LATT -2
SYMM -X,-Y,+Z
SYMM +Y,-X,-Z
SYMM -Y,+X,-Z
SYMM -X,+Y,-Z
SYMM +X,-Y,-Z
SYMM -Y,-X,+Z
SYMM +Y,+X,+Z
SFAC C H Ag F N O S
UNIT 160 208 24 24 16 16 16
DFIX 1.53 C3 C1 C2 C1 C5 C4 C6 C4
SADI 0.01 F1 C8 F2 C8
ISOR 0.01 0.02 C6 C5 C4 F2 F1 C8

L.S. 10
PLAN  20
TEMP -173
BOND $H
list 4
MORE -1
CONF
fmap 2
acta 133.5
TWIN -1 0 0 0 -1 0 0 0 -1 2
OMIT 0 0 4
OMIT 0 4 14
OMIT 0 8 8
OMIT 0 8 2
OMIT 0 4 8
OMIT 7 11 6
REM <olex2.extras>
REM <HklSrc "%.\\Ag12bpy_vacuum_100K.hkl">
REM </olex2.extras>

WGHT    0.000000  275.436890
BASF   0.03856
FVAR       0.09446
AG1   3    0.500000    0.500000    0.292123    10.25000    0.01456    0.01456 =
         0.03479    0.00000    0.00000    0.00245
AG2   3    0.472001    0.339389    0.330243    11.00000    0.02848    0.01551 =
         0.04778   -0.00086   -0.00291   -0.00164
AG3   3    0.416070    0.500000    0.500000    10.25000    0.02177    0.02399 =
         0.03565   -0.00868    0.00000    0.00000
C1    1    0.376024    0.623976    0.211564    10.50000    0.04469    0.04469 =
         0.02500   -0.00694    0.00694    0.01251
C2    1    0.291005    0.608242    0.197552    11.00000    0.04803    0.07043 =
         0.06524    0.00989   -0.03437    0.01540
AFIX 137
H2A   2    0.281195    0.552524    0.200235    11.00000   -1.50000
H2B   2    0.277836    0.626897    0.152426    11.00000   -1.50000
H2C   2    0.259212    0.635170    0.230967    11.00000   -1.50000
AFIX   0
C3    1    0.423465    0.576535    0.160615    10.50000    0.05656    0.05656 =
         0.09142    0.00910   -0.00910    0.01600
PART -1
AFIX 137
H3A   2    0.427031    0.522826    0.176008    10.50000   -1.50000
H3B   2    0.475518    0.598488    0.156844    10.50000   -1.50000
H3C   2    0.398032    0.578104    0.116575    10.50000   -1.50000
AFIX   0
PART 0
C4    1    0.330832    0.330832    0.467442    10.50000    0.02378    0.02378 =
         0.02727    0.00893    0.00893   -0.01156
C5    1    0.288208    0.288208    0.410798    10.50000    0.05751    0.05751 =
         0.05241   -0.00367   -0.00367   -0.04306
PART -1
AFIX 137
H5A   2    0.261040    0.325786    0.382464    10.50000   -1.50000
H5B   2    0.250757    0.252093    0.430322    10.50000   -1.50000
H5C   2    0.325605    0.259523    0.383432    10.50000   -1.50000
AFIX   0
PART 0
C6    1    0.377946    0.272980    0.508774    11.00000    0.05172    0.07427 =
         0.08063    0.06184   -0.01236   -0.01127
AFIX 137
H6A   2    0.407686    0.239685    0.478412    11.00000   -1.50000
H6B   2    0.342919    0.241171    0.535899    11.00000   -1.50000
H6C   2    0.413414    0.301023    0.538488    11.00000   -1.50000
AFIX   0
C7    1    0.339846    0.339846    0.209992    10.50000    0.02057    0.02057 =
         0.03787    0.00286    0.00286   -0.00931
C8    1    0.305259    0.305259    0.144000    10.50000    0.03875    0.03875 =
         0.03884   -0.00800   -0.00800    0.00435
C9    1    0.427198    0.158396    0.314231    11.00000    0.01977    0.01587 =
         0.07441    0.00847   -0.01335    0.00036
AFIX  43
H9    2    0.381203    0.181891    0.297971    11.00000   -1.20000
AFIX   0
C10   1    0.430540    0.080118    0.317056    11.00000    0.02080    0.01711 =
         0.08000   -0.01363   -0.00610   -0.00540
AFIX  43
H10   2    0.387264    0.050115    0.303470    11.00000   -1.20000
AFIX   0
C11   1    0.497946    0.043428    0.340056    11.00000    0.03255    0.01471 =
         0.04464   -0.01003   -0.00224   -0.00233
C12   1    0.559794    0.090733    0.356188    11.00000    0.03150    0.01736 =
         0.08623   -0.00370   -0.02109   -0.00112
AFIX  43
H12   2    0.607993    0.069363    0.369581    11.00000   -1.20000
AFIX   0
C13   1    0.549646    0.169414    0.352323    11.00000    0.02940    0.01283 =
         0.05060   -0.00127   -0.01033    0.00845
AFIX  43
H13   2    0.592220    0.201238    0.364361    11.00000   -1.20000
AFIX   0
F1    4    0.253035    0.253035    0.158766    10.50000    0.09001    0.09001 =
         0.08666   -0.01884   -0.01884   -0.03441
F2    4    0.354611    0.267299    0.106861    11.00000    0.09568    0.15883 =
         0.08290   -0.07287   -0.01135    0.01293
N1    5    0.485698    0.204080    0.333290    11.00000    0.02595    0.02095 =
         0.05620    0.00121    0.00035   -0.00457
O1    6    0.397591    0.306947    0.229331    11.00000    0.05838    0.05986 =
         0.05591   -0.02495   -0.01820    0.01017
S1    7    0.399948    0.600052    0.297374    10.50000    0.01939    0.01939 =
         0.04264    0.00228   -0.00228    0.01468
S2    7    0.398820    0.398820    0.425482    10.50000    0.03217    0.03217 =
         0.03131   -0.00384   -0.00384   -0.01357
HKLF 4

REM  Ag12bpy_vacuum_100K.res in I-42m
REM R1 =  0.0650 for    2952 Fo > 4sig(Fo)  and  0.0653 for all    2965 data
REM    168 parameters refined using     41 restraints

END

WGHT      0.0001    275.3444

REM Highest difference peak  1.331,  deepest hole -2.014,  1-sigma level  0.224
Q1    1   0.3188  0.3188  0.3279  10.50000  0.05    1.33
Q2    1   0.3386  0.6614  0.3237  10.50000  0.05    1.02
Q3    1   0.5000  0.2368  0.0000  10.50000  0.05    0.96
Q4    1   0.3631  0.6369  0.3314  10.50000  0.05    0.95
Q5    1   0.4326  0.5000  0.0000  10.50000  0.05    0.95
Q6    1   0.5000  0.5000  0.2438  10.25000  0.05    0.94
Q7    1   0.4019  0.4196  0.4951  11.00000  0.05    0.93
Q8    1   0.4838  0.3468  0.3795  11.00000  0.05    0.90
Q9    1   0.4961  0.4462  0.3315  11.00000  0.05    0.87
Q10   1   0.5208  0.4792  0.3428  10.50000  0.05    0.87
Q11   1   0.4472  0.5528  0.2865  10.50000  0.05    0.86
Q12   1   0.2817  0.7183  0.2135  10.50000  0.05    0.86
Q13   1   0.3419  0.3419  0.0830  10.50000  0.05    0.85
Q14   1   0.3872  0.4158  0.3705  11.00000  0.05    0.85
Q15   1   0.5000  0.0000  0.2500  10.25000  0.05    0.84
Q16   1   0.5544  0.0000  0.5000  10.50000  0.05    0.83
Q17   1   0.6752  0.0575  0.5227  11.00000  0.05    0.81
Q18   1   0.3411  0.3411  0.6121  10.50000  0.05    0.80
Q19   1   0.4255  0.3718  0.2883  11.00000  0.05    0.79
Q20   1   0.4849  0.3353  0.2809  11.00000  0.05    0.79
;
_shelx_res_checksum              83704
_shelx_hkl_file
;
   0   0   2 5119.60  165.17
   0   0   4  414.63   15.84
   0   0   6 9999.00  323.01
   0   0   8 1315.96   46.11
   0   0  10  169.46    9.13
   0   0  14    7.84    1.59
   0   0  16   26.79    2.62
   0   0  18  352.98   13.93
   0   0  20   10.07    1.61
   0   0  22   27.35    2.06
  -1   0   1 3099.35   99.71
   0  -1   3 1535.68   49.78
  -1   0   3 1420.72   48.08
   0   1   3 1476.53   47.81
   1   0   3 1411.68   48.27
  -1   0   5 2868.20   94.93
   0  -1   5 2953.18   95.99
   0   1   5 2837.24   94.25
   1   0   5 2885.10   95.12
   1   0   7  144.01    8.08
   0   1   7  157.41    7.63
  -1   0   7  156.01    8.24
   0  -1   7  167.75    8.84
   1   0   9  499.63   20.34
   0   1   9  508.52   19.57
  -1   0   9  497.32   20.22
   0  -1   9  505.07   20.82
   1   0  11  925.08   34.82
  -1   0  11  937.55   34.75
   0  -1  11  947.68   35.41
  -1   0  13  153.60    7.19
   1   0  13  146.13    6.98
   0  -1  13  153.73    7.16
   0   1  13  151.92    7.07
   0  -1  15    3.62    1.39
  -1   0  15    1.70    1.24
   1   0  15    0.91    1.12
   0   1  15    1.70    1.10
   0  -1  17   77.56    4.76
   1   0  17   77.61    4.61
  -1   0  17   77.32    4.73
   0   1  17   74.15    4.59
   0  -1  19   81.65    4.74
   0   1  19   77.59    4.51
   1   0  19   70.71    4.38
  -1   0  19   83.51    4.76
   1   0  21   95.58    4.76
   0  -1  21   94.71    4.93
  -1   0  21  100.24    4.97
   0   1  21   92.80    4.67
   0  -1  23   81.57    3.75
   1  -1  22   27.52    2.10
  -1   1  20    0.26    0.80
   1  -1  20   -0.09    1.00
  -1   1  18  118.36    6.26
   1  -1  18  126.59    6.34
   1  -1  16    3.78    1.46
  -1   1  16    3.11    1.34
  -1   1  14   67.28    4.19
   1  -1  14   65.92    4.24
   1  -1  12  116.68    5.86
   1  -1  12  134.46    8.54
   1  -1  10  685.66   26.46
  -1   1  10  645.95   24.91
  -1   1   8  279.11   11.97
   1  -1   8  269.75   12.94
  -1   1   6  451.71   16.92
   1  -1   6  437.31   18.20
   1  -1   4  539.01   20.96
  -1   1   4  563.16   19.27
   1  -1   0 4181.32  134.75
  -1  -1   0 4202.73  134.70
  -1  -1   2  214.26    8.48
  -1  -1   4  560.09   21.45
   1   1   4  595.17   20.44
   1   1   6  630.19   23.61
  -1  -1   6  684.86   25.26
   1   1   8  299.07   12.78
  -1  -1   8  292.92   13.71
   1   1  10  624.48   24.06
  -1  -1  10  639.87   25.37
  -1  -1  12  155.39    9.37
  -1  -1  12  152.24    7.08
  -1  -1  14   56.06    3.90
   1   1  14   58.36    3.70
   1   1  16    1.97    1.12
  -1  -1  16    2.45    1.41
   1   1  18  127.25    6.35
  -1  -1  18  138.87    6.83
  -1  -1  20    0.38    1.05
  -1  -1  22   28.01    2.21
   0  -2   0 1893.19   61.84
   2   0   2  456.42   16.15
   0   2   4   62.49    2.90
   0  -2   4   73.79    5.34
   2   0   4   67.60    4.09
  -2   0   4   66.70    3.96
   0   2   6 1321.23   44.14
  -2   0   6 1298.31   45.79
   0  -2   6 1321.39   47.13
   2   0   6 1355.24   46.28
   0  -2   8  273.50   13.33
   2   0   8  277.92   12.94
   0   2   8  244.73   10.85
  -2   0  10  113.85    7.34
   0  -2  10  110.25    7.76
   2   0  10  113.56    7.46
  -2   0  12   63.18    4.07
   0  -2  12   68.66    6.16
   0  -2  12   68.10    4.15
   2   0  12   63.46    5.50
   0  -2  14  131.87    6.47
   0   2  14  119.13    6.06
   2   0  14  116.06    6.03
  -2   0  14  115.11    6.22
   2   0  16   13.41    2.01
   0  -2  16   14.95    2.29
   0   2  16   11.11    1.89
  -2   0  16   13.82    2.26
  -2   0  18   57.23    3.99
   0   2  18   57.22    3.77
   2   0  18   51.99    3.70
   0  -2  18   60.71    4.04
   2   0  20   17.25    2.04
   0  -2  20   21.78    2.38
  -2   0  20   21.28    2.32
  -2   0  22    8.45    1.38
   0  -2  22   12.49    1.57
   1  -2  23    8.56    1.08
   1  -2  21   19.79    2.03
   2  -1  21   18.88    1.90
  -2   1  21   19.01    1.94
   1  -2  19   97.26    5.40
  -2   1  19   97.45    5.34
  -1   2  19   93.02    5.08
   2  -1  19   96.49    5.24
  -1   2  17   18.65    2.29
   2  -1  17   20.35    2.33
   1  -2  17   19.15    2.45
  -2   1  17   17.65    2.28
   1  -2  15  137.37    6.76
  -2   1  15  125.92    6.65
   2  -1  15  140.00    6.76
  -1   2  15  127.27    6.55
   1  -2  13   94.54    5.26
  -1   2  13   94.77    5.25
   2  -1  13   94.71    7.30
   2  -1  13   97.33    5.22
  -2   1  13   90.41    5.27
   1  -2  13   98.47    7.67
   1  -2  11  169.29   10.18
   2  -1  11  160.18    9.76
  -2   1   9  494.35   19.34
   2  -1   9  483.47   20.66
   1  -2   9  477.39   20.72
  -1   2   7  226.54    9.31
   2  -1   7  224.15   11.41
  -2   1   7  233.68   10.23
   1  -2   7  218.33   11.47
  -2   1   5  467.03   16.92
   1  -2   5  472.68   19.20
   2  -1   5  506.35   18.91
  -1   2   5  447.27   15.84
   2  -1   3  213.88    9.23
   1  -2   1  555.91   20.44
  -1  -2   1  548.54   19.93
   1  -2  -1  588.66   19.53
  -2  -1   3  198.50    8.42
  -1  -2   3  188.64    8.78
   2   1   3  189.11    7.63
  -2  -1   5  526.48   20.45
   1   2   5  536.65   18.86
   2   1   5  521.24   19.47
  -1  -2   5  542.78   21.51
  -2  -1   7  315.81   14.21
   2   1   7  305.99   13.00
  -1  -2   7  302.80   14.40
   1   2   7  287.91   11.94
   1   2   9  478.40   18.66
  -2  -1   9  491.18   20.73
  -1  -2   9  517.25   21.33
   2   1   9  501.96   19.92
  -2  -1  11  157.86    9.41
  -1  -2  11  160.89    9.81
   2   1  11  139.67    8.29
  -2  -1  13  101.48    5.65
  -1  -2  13  115.23    5.89
  -1  -2  13  113.77    8.17
   2   1  13  103.09    5.32
   1   2  15  133.99    6.41
  -2  -1  15  139.03    6.90
  -1  -2  15  135.92    6.79
   2   1  15  124.94    6.32
   2   1  17   20.40    2.22
  -1  -2  17   24.02    2.64
  -2  -1  17   19.36    2.49
  -1  -2  19  107.12    5.82
  -2  -1  19  106.18    5.76
  -2  -1  21   24.70    2.30
  -1  -2  21   20.94    2.19
  -1  -2  23    7.74    1.11
   2  -2  22   38.89    2.53
   2  -2  20  103.95    5.26
  -2   2  20   90.93    4.93
   2  -2  18   42.95    3.33
  -2   2  18   35.87    3.05
  -2   2  16   16.22    2.19
   2  -2  16   20.59    2.40
   2  -2  14  412.69   15.49
   2  -2  14  397.77   19.15
  -2   2  14  385.45   15.43
   2  -2  12  270.46   14.02
   2  -2  12  253.65   10.53
  -2   2  12  250.66   10.63
   2  -2  10  611.79   25.57
   2  -2   8  512.03   21.88
   2  -2   6  337.55   15.43
   2  -2   4  175.82    9.28
   2  -2   2  493.54   18.52
   2  -2   0  140.89    6.10
  -2  -2   4  254.43   11.32
   2   2   4  249.31    9.59
   2   2   6  428.96   15.85
  -2  -2   6  391.83   17.62
   2   2   8  546.34   21.03
  -2  -2   8  570.95   23.47
  -2  -2  10  591.00   24.78
  -2  -2  12  322.30   12.75
  -2  -2  12  321.13   15.99
  -2  -2  14  412.47   15.94
  -2  -2  16   16.59    2.27
  -2  -2  18   38.17    3.24
  -2  -2  20   94.06    5.17
  -2  -2  22   34.44    2.50
   0  -3   1  268.14   11.39
   0  -3  -1  285.34   10.07
   3   0   3 1773.54   59.13
   0  -3   5  668.80   26.36
   3   0   5  661.98   24.40
  -3   0   5  650.17   24.14
   3   0   7  114.95    7.36
  -3   0   7  107.32    6.82
   0  -3   7  114.33    7.83
   0  -3   9  332.07   15.80
   3   0   9  314.40   14.91
  -3   0   9  302.69   14.49
   3   0  11   15.83    2.95
   0  -3  11   14.37    3.10
  -3   0  11   14.60    2.80
  -3   0  13   72.77    4.84
   0  -3  13   73.40    4.76
   0  -3  13   79.43    7.30
   3   0  13   69.33    4.42
   3   0  15   53.87    3.73
   0  -3  15   58.94    4.11
  -3   0  15   55.97    4.07
  -3   0  17   23.33    2.73
   0  -3  17   26.86    2.79
   3   0  17   20.38    2.32
  -3   0  19  130.25    6.60
   3   0  19  113.05    6.01
  -3   0  21    2.30    1.06
   0  -3  21    2.50    1.18
   0  -3  23    4.72    0.92
   1  -3  22   15.17    1.64
   1  -3  20   75.50    4.34
   3  -1  20   66.16    3.99
  -3   1  20   62.45    4.09
   3  -1  18   33.74    2.95
   1  -3  18   30.49    2.94
  -3   1  18   32.78    3.03
  -3   1  16   40.16    3.43
   1  -3  16   40.80    3.43
  -1   3  16   33.69    3.11
   3  -1  16   41.83    3.28
   1  -3  14  189.13    8.61
   3  -1  14  180.52    8.39
  -1   3  14  185.69    8.50
   1  -3  14  197.28   12.01
  -3   1  14  187.72    8.69
   3  -1  12  180.57   10.79
   3  -1  12  179.77    7.73
   1  -3  12  175.81   10.99
   1  -3  12  157.55    7.62
  -3   1  12  162.75    7.85
   3  -1  10  496.75   21.90
   1  -3  10  509.89   22.24
   3  -1   8  277.85   13.84
   1  -3   8  272.64   14.05
   1  -3   6   29.16    4.17
   3  -1   6   49.83    4.39
   3  -1   4  531.09   20.26
   1  -3   2  590.91   23.41
  -1  -3   0  316.44   11.37
   1  -3   0  282.73   12.26
  -1  -3   2  488.39   18.94
   1  -3  -2  506.99   17.09
  -3  -1   4  451.99   17.26
   3   1   4  450.43   16.55
  -1  -3   4  400.52   18.00
   1   3   4  445.06   15.01
   3   1   6   38.30    3.40
   1   3   6   30.48    2.18
  -3  -1   6   39.66    3.91
  -1  -3   6   43.52    4.84
  -1  -3   8  298.29   14.88
   3   1   8  280.95   13.34
  -3  -1   8  302.32   14.47
  -3  -1  10  428.95   19.29
   3   1  10  439.20   18.78
  -1  -3  10  447.70   20.16
  -1  -3  12  161.64    7.37
  -3  -1  12  148.96    9.44
  -1  -3  12  144.97   10.02
  -3  -1  12  156.22    7.42
  -1  -3  14  204.21    9.22
  -1  -3  14  217.20   12.69
  -3  -1  14  200.15    9.15
  -3  -1  16   45.54    3.68
  -1  -3  16   46.29    3.66
  -1  -3  18   29.78    2.89
  -3  -1  18   27.12    2.82
  -1  -3  20   90.17    5.01
  -3  -1  20   85.28    4.95
  -1  -3  22   22.37    2.00
  -3  -1  22   20.93    1.97
   2  -3  23   10.03    1.11
   2  -3  21   67.42    3.85
   3  -2  21   63.40    3.70
   2  -3  19   68.57    4.24
   3  -2  19   61.89    3.99
  -3   2  19   58.78    3.94
  -2   3  19   55.57    3.71
   3  -2  17  202.67    8.93
   2  -3  17  202.19    8.95
  -3   2  17  184.32    8.78
  -2   3  17  188.74    8.67
   3  -2  15  416.97   15.83
  -3   2  15  394.96   15.88
  -2   3  15  391.10   15.73
   2  -3  15  417.81   15.87
   2  -3  13   88.59    5.12
   2  -3  13   82.11    7.52
   3  -2  13   89.68    5.15
  -3   2  13   90.12    5.29
  -2   3  13   80.80    5.09
   3  -2  13   96.54    7.80
   3  -2  11  485.39   22.13
   2  -3  11  495.81   22.36
   3  -2   9 1184.45   44.84
   2  -3   9 1204.32   44.98
   2  -3   7  424.18   19.43
   3  -2   7  437.98   19.32
   3  -2   5   10.72    2.57
   2  -3   5   10.52    2.70
   2  -3   3 1562.47   54.68
   2  -3   1  106.33    6.07
   3  -2   1   99.04    5.42
  -2  -3   1  142.11    6.76
   2  -3  -1  154.31    6.87
  -3  -2   3 1639.40   54.11
   2  -3  -3 1569.44   52.15
   2   3   5   20.85    1.82
   3   2   5   20.27    2.15
  -2  -3   5   24.31    3.33
  -3  -2   5   21.46    3.09
   3   2   7  454.42   17.78
   2   3   7  452.61   16.94
  -3  -2   7  456.94   19.81
  -2  -3   7  442.00   20.35
  -3  -2   9 1217.82   45.16
   3   2   9 1173.96   42.74
  -2  -3   9 1247.02   45.50
  -3  -2  11  528.66   23.17
  -2  -3  11  536.09   23.63
  -3  -2  13   78.09    6.87
  -2  -3  13   84.91    7.39
  -3  -2  13   83.37    4.95
  -2  -3  13   83.29    4.92
  -3  -2  15  451.96   17.33
  -2  -3  15  446.54   17.24
  -3  -2  17  183.60    8.75
  -2  -3  17  193.71    8.80
  -2  -3  19   74.97    4.55
  -3  -2  19   65.70    4.40
  -2  -3  21   54.94    3.51
  -3  -2  21   54.63    3.50
  -2  -3  23   11.47    1.27
   3  -3  22   17.37    1.62
   3  -3  20  153.89    7.03
   3  -3  18  308.54   12.37
  -3   3  18  294.68   12.20
  -3   3  16   20.99    2.54
   3  -3  16   23.29    2.63
  -3   3  14  510.74   19.91
   3  -3  14  547.56   19.82
   3  -3  14  517.30   24.30
  -3   3  12 1221.48   43.22
   3  -3  12 1361.42   48.74
   3  -3  12 1255.37   42.89
   3  -3  10  586.90   25.87
   3  -3   8  309.36   15.92
   3  -3   6 1900.71   67.11
   3  -3   2  126.71    7.27
   3  -3   0   57.15    4.01
   3  -3  -2  157.51    7.01
  -3  -3   2  139.35    7.28
  -3  -3   4 1182.56   42.14
  -3  -3   6 1737.57   62.64
   3   3   6 1799.43   59.50
   3   3   8  270.28   11.89
  -3  -3   8  282.68   14.98
  -3  -3  10  541.39   24.10
  -3  -3  12 1304.63   49.20
  -3  -3  14  550.59   24.48
  -3  -3  16   18.23    2.44
  -3  -3  18  286.60   11.97
  -3  -3  20  149.70    7.11
  -3  -3  22   16.38    1.69
   0  -4   0   40.02    3.01
   0  -4   2  114.39    6.73
   0  -4  -2   87.94    3.83
   4   0   4   20.51    2.48
   0  -4   6  381.05   18.00
   4   0   6  376.63   16.09
   4   0   8  114.35    7.88
   0  -4   8  119.77    8.76
   0  -4  10    1.17    1.89
   4   0  10    3.12    1.71
  -4   0  12   24.55    2.67
   0  -4  12   16.43    3.54
   4   0  12   15.58    3.14
   4   0  12   18.90    2.12
   4   0  14   60.23    4.08
   0  -4  14   62.52    4.42
  -4   0  14   65.47    4.66
   0  -4  14   54.54    6.44
  -4   0  16   16.86    2.49
   4   0  16   15.36    2.02
   0  -4  16   20.18    2.50
   0  -4  18   57.43    4.05
  -4   0  18   52.87    3.98
   0  -4  20   33.72    2.92
  -4   0  20   31.69    2.87
   0  -4  22    1.86    0.93
   1  -4  23    6.30    0.97
   1  -4  21    8.58    1.44
  -4   1  19   89.36    5.24
   4  -1  19   90.33    4.93
   1  -4  19  101.34    5.43
   1  -4  17   34.27    3.11
  -4   1  17   34.41    3.22
   4  -1  17   29.86    2.86
   4  -1  15   45.27    3.47
   1  -4  15   48.53    3.76
  -4   1  15   45.04    3.77
   1  -4  15   48.80    5.95
  -4   1  13   79.82    5.13
   1  -4  13   89.79    8.00
   4  -1  13   92.14    7.63
   4  -1  13   82.97    4.93
   1  -4  13   89.20    5.19
   1  -4  11  118.25    6.06
   1  -4  11  120.41    9.03
   4  -1  11  113.64    8.65
  -4   1  11  113.63    6.19
   1  -4   9  381.49   18.54
   4  -1   9  388.20   18.30
   4  -1   7  286.54   13.85
   1  -4   7  262.62   14.40
   4  -1   5  253.21   12.00
   1  -4   3  152.84    9.45
   4  -1   3  130.16    7.07
  -1  -4  -1   52.98    3.10
   1  -4   1   61.19    5.01
  -1  -4   1   95.99    5.26
   1  -4  -1   81.46    4.70
  -1  -4   3  133.50    7.83
   1   4   5  224.67    8.12
   4   1   5  286.20   10.98
  -4  -1   7  251.77   12.80
   4   1   7  252.46   12.06
  -1  -4   7  273.05   14.39
  -1  -4   9  363.69   17.63
  -4  -1   9  340.03   16.60
   4   1   9  351.89   16.18
  -4  -1  11  112.37    8.14
  -4  -1  11  117.87    6.17
  -1  -4  11  112.17    5.87
   4   1  11  116.28    8.00
  -1  -4  11  131.69    9.42
  -1  -4  13   90.81    8.12
  -4  -1  13   94.44    5.50
  -1  -4  15   31.40    4.80
  -1  -4  15   37.40    3.32
  -4  -1  15   37.17    3.42
  -1  -4  17   29.17    2.94
  -4  -1  17   25.03    2.96
  -1  -4  19  117.95    6.02
  -4  -1  19  104.80    5.90
  -4  -1  21    9.93    1.63
  -1  -4  21    9.12    1.53
  -1  -4  23    9.73    1.16
   2  -4  22    9.46    1.32
   4  -2  20   59.16    3.73
   2  -4  20   70.22    4.08
   2  -4  18   55.83    3.98
   4  -2  18   58.88    3.96
  -4   2  18   55.39    3.99
  -4   2  16   15.48    2.39
   2  -4  16   16.58    2.31
   4  -2  16   14.41    2.13
   4  -2  14  200.65    9.06
  -4   2  14  191.19    9.24
   2  -4  14  215.84   13.46
   4  -2  14  192.56   12.45
   2  -4  14  209.79    9.21
  -2   4  14  203.88    9.30
   2  -4  12  630.07   26.97
   4  -2  12  586.11   21.53
   4  -2  12  629.92   26.75
  -2   4  12  594.50   22.06
  -4   2  12  578.34   21.94
   2  -4  12  577.98   21.65
   2  -4  10  345.25   17.44
   4  -2  10  326.13   17.25
   4  -2   8  236.72   13.32
   2  -4   8  241.39   13.52
   2  -4   6  705.48   29.93
   4  -2   6  781.48   29.64
   2  -4   4  762.18   29.92
   4  -2   4  740.66   28.28
   2  -4   2  278.51   13.40
   4  -2   2  261.91   11.69
  -2  -4   0  199.36    8.59
   2  -4   0  222.07   10.68
   2  -4  -2  257.86   10.81
  -2  -4   2  270.98   11.62
  -4  -2   4  882.62   32.28
   4   2   6  846.61   29.77
  -2  -4   6  854.19   32.98
  -4  -2   6  827.13   31.46
   2   4   6  803.56   27.91
  -4  -2   8  188.29   11.35
  -2  -4   8  219.74   12.75
   4   2   8  196.00   10.12
  -4  -2  10  332.00   16.53
   4   2  10  310.47   14.91
  -2  -4  10  361.23   17.64
  -2  -4  12  675.72   24.54
  -4  -2  12  665.60   28.36
  -2  -4  12  741.86   30.08
  -4  -2  14  230.90   10.25
  -2  -4  14  238.12   14.17
  -2  -4  16   18.22    2.43
  -4  -2  16   15.99    2.36
  -4  -2  16   13.74    2.26
  -2  -4  18   50.57    3.94
  -4  -2  18   58.07    4.10
  -4  -2  20   65.44    4.18
  -2  -4  20   71.19    4.30
  -2  -4  22    7.91    1.32
  -4  -2  22   11.63    1.44
   3  -4  23   32.40    1.95
   4  -3  21    8.15    1.31
   3  -4  21    7.66    1.43
   4  -3  19    6.58    1.51
   3  -4  19    5.77    1.52
   4  -3  17  294.25   12.12
  -4   3  17  289.31   12.10
   3  -4  17  285.57   12.07
   3  -4  15  304.15   17.00
   3  -4  15  315.17   12.58
  -3   4  15  298.34   12.57
   4  -3  15  296.57   12.41
   4  -3  15  270.80   16.25
  -4   3  15  297.14   12.62
   4  -3  13  111.38    9.21
  -4   3  13  105.41    6.10
   4  -3  13  107.69    5.84
  -3   4  13  100.89    6.09
   3  -4  13  103.67    5.78
   3  -4  13  115.85    9.51
   4  -3  11  379.53   19.05
   4  -3  11  350.59   13.92
  -4   3  11  355.70   14.45
   3  -4  11  343.60   13.88
   3  -4  11  356.46   18.57
   3  -4   9  698.08   30.47
   4  -3   9  749.05   30.96
   3  -4   7  532.30   24.06
   4  -3   7  567.33   24.38
   4  -3   3  673.88   26.31
   3  -4   3  695.82   27.42
   4  -3   1  402.80   16.73
   3  -4   1  420.37   17.61
  -3  -4   1  417.80   16.42
   3  -4  -1  432.48   17.40
   4  -3  -1  430.77   17.01
  -3  -4   3  700.19   25.97
   3  -4  -3  670.66   24.35
  -3  -4   5  269.20   13.74
  -4  -3   5  285.39   13.48
   4   3   7  541.87   20.33
  -4  -3   7  513.29   22.85
  -3  -4   7  526.04   23.65
   3   4   7  529.25   19.42
  -4  -3   9  612.95   26.92
   4   3   9  611.07   24.06
  -3  -4   9  646.29   27.64
  -4  -3  11  345.22   13.63
  -3  -4  11  349.52   18.06
  -3  -4  11  331.38   13.39
  -4  -3  11  353.88   17.62
  -3  -4  13   97.43    5.51
  -3  -4  13   98.94    8.48
  -4  -3  13   97.25    8.06
  -4  -3  13   94.10    5.47
  -4  -3  15  309.87   13.34
  -4  -3  17  252.83   11.03
  -3  -4  19    5.08    1.57
  -4  -3  19    5.88    1.65
  -3  -4  21    6.38    1.42
  -4  -3  21    6.18    1.40
  -3  -4  23   35.38    2.16
   4  -4  22   49.25    2.77
   4  -4  20   46.26    3.17
   4  -4  18  153.02    7.35
   4  -4  16   80.94    5.02
   4  -4  14  250.19   10.94
   4  -4  14  274.61   15.91
  -4   4  14  246.07   11.21
   4  -4  12  565.60   21.53
  -4   4  12  579.24   22.19
   4  -4  10  288.63   11.94
   4  -4  10  332.15   17.52
   4  -4   8  529.16   24.45
   4  -4   4 1060.46   40.17
   4  -4   2  888.40   33.65
   4  -4   0   83.95    5.91
   4  -4  -2  755.01   27.89
  -4  -4   2  732.37   27.54
   4  -4  -4 1059.77   37.81
   4   4   6  688.63   24.62
  -4  -4   6  668.28   27.88
  -4  -4   8  362.12   18.52
  -4  -4  10  317.07   12.70
  -4  -4  10  325.98   17.32
  -4  -4  12  621.06   23.84
  -4  -4  12  628.09   18.07
  -4  -4  14  315.58   13.47
  -4  -4  14  267.94   15.76
  -4  -4  14  281.67   12.09
  -4  -4  20   45.70    3.32
  -4  -4  22   66.99    3.57
   0  -5   1  151.21    8.11
   0  -5  -1  158.78    6.98
   0  -5   3  951.56   36.00
   5   0   5  655.31   25.09
   5   0   7  173.76    9.94
   0  -5   7  177.44   11.35
   0  -5   9  191.24   12.47
   5   0   9  213.56   12.16
   0  -5  11   41.11    3.19
   5   0  11   39.86    4.94
   0  -5  11   39.63    5.16
  -5   0  11   34.54    3.22
  -5   0  13   38.50    3.70
   0  -5  13   38.65    5.63
   0  -5  15  210.64   13.53
  -5   0  15  224.44    9.89
   0  -5  15  193.32    9.29
  -5   0  17   16.03    2.40
   0  -5  17   18.73    2.42
  -5   0  19   66.66    4.29
   0  -5  19   64.44    4.23
  -5   0  19   57.25    3.92
   0  -5  21   51.41    3.35
   0  -5  23   39.70    2.29
   1  -5  22    5.77    1.19
  -5   1  20   16.10    1.88
   1  -5  20   17.91    2.14
   5  -1  18   47.28    3.48
  -5   1  18   54.94    4.00
   1  -5  18   56.68    4.01
   1  -5  16   52.19    6.37
   1  -5  16   56.36    4.13
   5  -1  16   53.12    3.86
  -5   1  16   59.31    4.36
   1  -5  14   74.37    4.79
   5  -1  14   68.89    4.50
  -5   1  14   70.73    4.90
   1  -5  14   62.35    7.29
   1  -5  12   37.74    5.49
   5  -1  12   44.69    3.42
  -5   1  12   42.58    3.87
   5  -1  12   44.58    5.67
   1  -5  10  161.16   11.00
   5  -1  10  149.78   10.58
   1  -5   8   67.05    6.91
   5  -1   8   77.22    6.79
   5  -1   6  332.18   15.55
   5  -1   4  149.95    8.52
   1  -5   4  184.85   11.16
  -1  -5  -2  601.58   20.84
   1  -5   2  633.57   24.96
  -1  -5   0  645.39   23.24
   1  -5   0  643.40   24.24
   1  -5  -2  626.98   21.79
  -1  -5   2  637.68   24.28
  -1  -5   4  198.23   11.08
   5   1   6  341.03   14.87
  -1  -5   8   82.76    7.72
   5   1   8   91.75    6.76
  -1  -5  10  158.96   10.96
   5   1  10  155.24    9.95
  -1  -5  12   44.43    3.69
  -1  -5  12   51.77    6.13
  -5  -1  14   87.39    5.45
  -1  -5  14   83.58    8.14
  -5  -1  16   59.92    4.42
  -1  -5  18   57.15    4.04
  -5  -1  18   56.74    3.92
  -5  -1  18   51.04    3.98
  -5  -1  20   16.78    2.20
  -1  -5  20   20.95    2.31
  -1  -5  22   12.33    1.52
   2  -5  23    4.79    0.84
   2  -5  21   13.88    1.76
   2  -5  19   31.18    2.77
   5  -2  19   32.18    2.68
   2  -5  17   61.24    4.32
  -5   2  17   56.96    4.23
   5  -2  17   52.63    3.89
   5  -2  15   28.10    2.91
   2  -5  15   25.47    2.91
   2  -5  15   25.97    4.74
  -5   2  15   24.74    3.03
   2  -5  13   22.32    2.61
  -5   2  13   24.21    2.82
   5  -2  13   23.49    2.64
   5  -2  13   25.15    4.44
   2  -5  13   21.40    4.31
   5  -2  11   86.13    5.11
  -5   2  11   87.27    5.62
   2  -5  11   92.33    8.42
   5  -2  11   98.43    8.60
   5  -2   9   48.81    5.96
   2  -5   9   44.99    5.60
   5  -2   7   34.05    4.62
   2  -5   7   29.60    4.63
   2  -5   5  301.94   15.62
   5  -2   5  271.71   13.70
   2  -5   3  117.35    8.76
   5  -2   1   85.07    5.62
  -2  -5  -1   71.95    4.18
   2  -5   1   76.51    6.39
   2  -5  -1   79.85    5.55
  -2  -5   1   88.31    5.38
  -2  -5   3   76.27    5.76
   2  -5  -3   65.59    3.41
   5   2   5  244.57   11.07
   5   2   7   23.30    3.06
  -2  -5   7   23.81    4.58
  -2  -5   9   57.98    6.47
   5   2   9   42.13    4.46
  -2  -5  11   89.30    8.18
  -5  -2  11   88.38    5.37
  -2  -5  11   86.26    5.05
  -2  -5  13   19.82    4.06
  -2  -5  13   25.09    2.69
  -2  -5  15   25.33    4.48
  -2  -5  15   24.55    2.91
  -5  -2  17   53.78    4.18
  -5  -2  17   55.38    4.06
  -2  -5  19   29.09    2.83
  -5  -2  19   31.87    2.93
  -5  -2  21   12.61    1.77
  -2  -5  21   14.89    1.84
  -2  -5  23    4.36    0.92
   3  -5  22   38.05    2.43
   3  -5  20   12.49    1.75
   5  -3  20   10.35    1.55
   3  -5  18   37.94    3.26
   5  -3  18   40.30    3.25
   3  -5  16   40.19    3.47
  -5   3  16   39.36    3.58
   5  -3  16   38.94    3.39
   3  -5  14   76.78    8.17
   5  -3  14   87.03    8.44
  -5   3  14   95.63    5.85
   5  -3  14   93.90    5.52
   3  -5  14   87.26    5.35
  -5   3  12  361.69   15.29
   3  -5  12  403.50   20.37
   3  -5  12  364.70   14.80
   5  -3  12  410.75   20.62
   5  -3  12  374.02   14.79
  -5   3  10  110.63    6.28
   3  -5  10  111.18    5.92
   5  -3  10  111.12    9.41
   3  -5  10  108.88    9.27
   5  -3   8  129.58    9.70
   3  -5   8  107.88    9.08
   5  -3   6  441.45   20.40
   3  -5   4  183.04   11.42
   3  -5   2  403.05   18.66
   5  -3   2  383.97   17.05
   3  -5   0   62.67    5.86
  -3  -5   0   60.10    4.14
   5  -3   0   66.53    5.30
  -3  -5   2  384.71   15.68
   3  -5  -2  355.63   15.44
   3  -5  -4  114.73    5.28
  -3  -5   4  118.40    7.92
   5   3   6  401.04   15.43
   3   5   6  345.36   13.62
  -5  -3   6  391.14   17.72
  -3  -5   6  373.19   18.15
  -3  -5   8   85.88    8.29
  -5  -3   8   75.23    7.15
   5   3   8   78.10    5.64
  -3  -5  10   89.38    5.00
  -5  -3  10   84.22    5.11
  -3  -5  10   88.62    8.31
  -5  -3  10   91.75    8.01
  -3  -5  12  390.42   20.21
  -5  -3  12  389.50   15.48
  -3  -5  12  391.56   15.26
  -3  -5  14   99.94    8.86
  -5  -3  14  104.35    6.57
  -3  -5  14  107.64    5.97
  -5  -3  14  101.32    5.95
  -3  -5  16   31.67    3.16
  -5  -3  16   31.93    3.30
  -5  -3  18   36.35    3.34
  -3  -5  20    7.51    1.58
  -5  -3  20    8.28    1.68
  -3  -5  22   38.58    2.52
   4  -5  21   34.23    2.47
   5  -4  21   34.85    2.41
  -5   4  21   32.96    2.30
   5  -4  19   98.28    5.31
   4  -5  19  103.05    5.39
   5  -4  17  214.79    9.30
   4  -5  17  192.71    9.10
   4  -5  15   52.75    4.00
   5  -4  15   53.73    6.58
   4  -5  15   50.33    6.53
   5  -4  15   45.32    3.80
   5  -4  13  270.96   11.85
   5  -4  13  297.27   17.36
  -5   4  13  276.65   12.37
   4  -5  13  281.38   11.89
   4  -5  13  281.39   17.05
  -5   4  11  283.05   12.54
   4  -5  11  271.08   11.73
   5  -4  11  273.72   11.63
   4  -5  11  279.78   16.71
   5  -4  11  301.59   17.39
   4  -5   9   36.97    5.45
   5  -4   9   37.73    5.53
   5  -4   7 1981.65   72.03
   4  -5   5  736.71   30.84
   4  -5   3  767.71   31.14
   5  -4   3  745.68   30.10
   5  -4   1  878.34   34.52
   4  -5   1  941.90   35.62
   4  -5  -1 1034.43   38.17
   5  -4  -1  974.82   37.25
  -4  -5   3  692.50   25.97
   5  -4  -3  703.55   26.73
  -5  -4   5  690.57   27.98
   5  -4  -5  688.67   27.65
  -5  -4   7 1697.22   62.09
  -4  -5   7 1631.72   62.40
   5   4   7 1738.04   58.24
  -5  -4   9   39.43    5.52
  -4  -5   9   48.85    6.18
  -5  -4  11  225.85   11.95
  -4  -5  11  277.06   15.20
  -5  -4  11  269.06   14.93
  -5  -4  11  270.07   10.20
  -4  -5  11  257.90   10.02
  -4  -5  13  276.18   15.91
  -4  -5  13  281.51   11.30
  -5  -4  13  269.48   11.36
  -5  -4  13  257.65   12.52
  -4  -5  15   49.19    3.84
  -5  -4  15   47.64    4.23
  -5  -4  15   51.95    3.96
  -5  -4  17  204.38    9.43
  -4  -5  17  210.59    9.47
  -5  -4  21   34.01    2.56
   5  -5  22  119.61    4.99
   5  -5  20   39.71    2.88
   5  -5  18   61.91    4.08
   5  -5  16  209.22    9.46
   5  -5  16  199.43   13.70
   5  -5  14  162.37   12.41
   5  -5  14  143.80    7.53
   5  -5  12  180.52   13.09
   5  -5  12  151.84    7.70
   5  -5  10  681.07   24.95
   5  -5  10  776.96   32.77
   5  -5   8 1266.10   50.07
   5  -5   4 1556.58   57.95
   5  -5   2 1132.13   43.37
   5  -5   0  139.89    9.55
   5  -5  -2 1235.05   46.14
   5  -5  -4 1304.03   46.54
  -5  -5   6  133.31    9.79
   5   5   6  152.84    7.56
  -5  -5   8 1072.48   43.16
  -5  -5  10  679.43   29.77
  -5  -5  10  660.12   23.31
  -5  -5  12  150.51    6.43
  -5  -5  12  138.93   10.36
  -5  -5  14  176.58    9.72
  -5  -5  14  189.19    8.83
  -5  -5  16  217.24    9.92
  -5  -5  16  222.58   10.13
  -5  -5  18   50.88    3.79
   0  -6   0 1300.35   45.00
   0  -6  -2  864.51   29.59
   0  -6   2  885.63   33.02
   0  -6   4  173.03   11.35
   6   0   4  193.70    9.95
   6   0   6 1191.00   43.47
   0  -6   8  402.96   20.37
   6   0   8  402.66   18.81
   0  -6  10   79.15    5.02
   6   0  10   91.37    7.95
   0  -6  10   81.23    7.94
   0  -6  12  138.35   10.89
  -6   0  12  141.60    7.48
   6   0  12  128.00    9.95
   0  -6  12  154.84    7.30
  -6   0  14  206.59    9.59
   0  -6  14  213.19   14.02
   0  -6  14  189.76    9.20
   0  -6  16   86.68    8.88
  -6   0  16  108.84    6.23
  -6   0  18  177.66    8.28
   0  -6  18  166.97    8.10
  -6   0  18  185.82    8.50
   0  -6  20   36.80    2.93
  -6   0  20   38.35    2.78
   0  -6  22    7.86    1.27
   1  -6  23   39.86    2.22
   1  -6  21   65.32    3.73
   1  -6  19   44.09    3.34
  -6   1  19   41.89    3.25
  -6   1  17   94.16    5.75
   6  -1  17   83.60    5.00
   1  -6  15  201.85   14.04
  -6   1  15  226.05   10.33
   6  -1  15  221.85    9.69
   1  -6  13   83.28    8.24
   6  -1  13   76.40    4.62
   6  -1  13   75.54    7.55
  -6   1  13   76.48    5.15
   6  -1  11  167.87   11.78
  -6   1  11  161.20    8.34
   1  -6  11  166.36    7.93
   6  -1  11  153.68    7.50
   6  -1  11  152.10    7.42
   6  -1   9  453.47   21.36
   1  -6   9  424.29   21.36
   6  -1   7  382.69   18.04
   6  -1   5 1067.33   40.55
   1  -6   5 1176.91   44.06
   1  -6   3 2102.07   74.42
  -1  -6  -1  732.50   25.82
   1  -6   1  731.89   28.35
  -1  -6   1  769.18   28.71
   1  -6  -1  780.98   27.83
  -1  -6   3 2273.85   73.30
   1  -6  -3 2068.84   68.10
  -1  -6   5 1028.90   40.58
   6   1   5 1056.84   38.03
   6   1   7  319.80   15.02
   6   1   9  448.67   20.15
  -1  -6   9  426.10   21.59
  -1  -6  11  171.63    7.93
  -1  -6  11  186.49   12.52
   6   1  11  161.92   10.79
  -6  -1  11  148.91    8.12
  -1  -6  13   87.66    5.26
  -1  -6  13   93.84    8.66
  -1  -6  15  212.13   14.10
  -1  -6  15  206.16    9.65
  -6  -1  15  225.85   10.11
  -6  -1  17   99.04    5.86
  -6  -1  17   93.04    5.73
  -6  -1  19   37.61    3.19
  -6  -1  19   38.09    2.97
  -1  -6  21   62.23    3.69
  -1  -6  23   40.81    2.28
   2  -6  22   31.71    2.21
   2  -6  20   10.97    1.65
  -6   2  20    9.45    1.57
   2  -6  18   41.65    3.38
   6  -2  18   38.12    3.06
   6  -2  16  114.98    6.09
   2  -6  16  111.28    6.24
  -6   2  16  115.83    6.58
   6  -2  14   12.81    2.01
   2  -6  14   12.16    3.53
   6  -2  14   16.68    3.75
  -6   2  14   14.22    2.45
  -6   2  12   39.53    3.86
   6  -2  12   39.37    5.90
   6  -2  12   41.22    3.48
   2  -6  12   36.68    5.70
   6  -2  10  147.91   11.06
  -6   2  10  128.06    7.26
   2  -6  10  131.17   10.62
   6  -2  10  136.55    6.85
   2  -6  10  135.70    6.95
   6  -2   8  455.14   21.26
   2  -6   8  407.49   21.04
   2  -6   6  299.49   16.66
   6  -2   6  300.43   15.38
   2  -6   4  623.18   27.73
   6  -2   2 1200.11   42.45
   2  -6   2 1128.32   44.41
  -2  -6   0  830.22   29.49
   2  -6   0  815.23   31.49
   2  -6  -2 1194.75   41.15
  -2  -6   2 1201.09   42.97
  -2  -6   4  592.41   24.78
   6   2   6  256.62   12.16
   6   2   8  394.28   17.83
  -2  -6   8  426.14   21.14
  -6  -2  10  121.58    6.77
  -2  -6  10  124.43   10.28
  -2  -6  10  115.26    6.15
   6   2  10  126.00    8.65
  -2  -6  12   34.94    3.26
  -6  -2  12   34.31    3.43
  -2  -6  12   39.99    5.89
  -2  -6  14   17.81    2.45
  -2  -6  14   14.60    3.71
  -2  -6  16  112.79    6.16
  -6  -2  16  111.37    6.43
  -6  -2  18   37.42    3.34
  -6  -2  18   35.13    3.04
  -6  -2  20    9.58    1.65
  -2  -6  22   32.07    2.29
   3  -6  23    8.26    0.96
  -6   3  21   55.50    3.09
   3  -6  21   49.38    3.11
   3  -6  19   14.47    2.00
   6  -3  19   16.52    1.96
   3  -6  17   83.94    5.26
   6  -3  17   92.43    5.29
   6  -3  15   15.18    2.16
   3  -6  15   14.40    2.27
   3  -6  15    8.64    3.23
   6  -3  13    6.74    2.84
   6  -3  13    6.54    1.80
   3  -6  13    8.56    1.89
   3  -6  13    6.04    2.90
  -6   3  13    8.22    2.13
  -6   3  11   92.46    6.30
   6  -3  11  106.17    5.79
   6  -3  11   98.88    5.83
   3  -6  11  104.35    9.59
   6  -3  11   88.52    9.29
   3  -6   9   28.11    4.87
   6  -3   9   32.44    5.17
   3  -6   9   29.98    2.76
   6  -3   7  297.73   16.15
   3  -6   5  212.17   13.59
   3  -6   3  763.14   32.07
   6  -3   3  739.74   29.57
   3  -6   1   31.82    4.70
   6  -3   1   31.16    4.13
   6  -3  -1   32.11    4.17
  -3  -6   1   33.66    3.36
   3  -6  -1   28.22    3.85
  -3  -6   3  824.30   31.55
   3  -6  -3  815.41   29.06
  -3  -6   5  217.18   12.74
  -3  -6   7  280.33   16.53
   6   3   7  307.81   13.73
   6   3   9   34.78    4.01
  -3  -6   9   36.73    5.84
  -6  -3  11   84.58    5.45
  -3  -6  11   81.24    5.19
  -3  -6  11   98.60    9.13
  -6  -3  13    8.64    2.04
  -3  -6  13    6.33    2.76
  -6  -3  13    9.78    2.46
  -3  -6  13    7.32    1.81
  -3  -6  15   14.16    2.31
  -3  -6  15   13.72    3.51
  -6  -3  15   18.85    2.70
  -6  -3  15   16.56    2.51
  -6  -3  17   90.64    5.43
  -3  -6  17   89.14    5.37
  -3  -6  19   16.06    2.20
  -3  -6  23    7.49    1.01
   4  -6  22   86.55    3.95
   6  -4  20   17.58    1.86
   4  -6  20   19.40    2.05
   6  -4  18   30.54    2.77
   4  -6  18   30.55    2.87
   4  -6  16  125.50    6.76
   6  -4  16  136.13    6.85
   4  -6  14  131.28    7.01
   6  -4  14  129.06    6.94
   4  -6  14  127.64   11.13
   6  -4  14  136.42   11.26
   6  -4  12   64.47    7.65
   4  -6  12   53.31    4.14
   4  -6  12   61.32    7.41
   6  -4  12   56.86    4.22
   6  -4  10  196.05    9.20
   6  -4  10  226.40   14.63
   4  -6  10  192.64   13.52
   6  -4  10  191.85    8.67
   6  -4   8  548.15   26.17
   4  -6   6   30.33    5.08
   6  -4   4  312.95   15.79
   4  -6   4  265.15   15.90
   6  -4   2 1162.65   43.49
   4  -6   2 1133.36   45.04
   6  -4   0 1032.39   39.35
   4  -6   0 1016.54   40.36
  -4  -6   2 1123.61   39.51
   6  -4  -2 1060.37   41.43
   4  -6  -2 1053.61   39.99
   6  -4  -4  180.76   12.79
  -4  -6   4  337.67   14.48
   6   4   6   33.19    3.48
   6   4   8  524.01   21.34
  -4  -6   8  536.52   25.78
  -4  -6  10  168.92   10.15
  -4  -6  10  191.55   13.36
  -6  -4  10  180.05    8.66
  -6  -4  10  189.67   10.60
  -4  -6  10  179.97    8.40
  -6  -4  12   56.20    4.09
  -6  -4  12   52.54    5.07
  -4  -6  12   46.08    3.74
  -4  -6  12   42.13    4.73
  -4  -6  12   40.80    5.89
  -6  -4  14  140.72    8.03
  -6  -4  14  124.78    6.95
  -4  -6  14  133.00    6.93
  -6  -4  16  115.88    6.69
  -4  -6  16  111.78    6.22
  -6  -4  16  117.66    6.43
  -6  -4  18   26.19    2.79
  -6  -4  18   25.91    2.48
  -4  -6  18   30.69    2.87
  -4  -6  20   18.96    2.09
   6  -5  21  128.57    5.47
  -6   5  21  124.69    5.48
   5  -6  21  127.44    5.53
   5  -6  19   52.96    3.55
   6  -5  19   54.19    3.57
   5  -6  17   94.34    5.41
   6  -5  17   86.69    5.23
   6  -5  15   41.16    3.58
   5  -6  15   39.96    6.21
   6  -5  15   41.97    6.18
   5  -6  15   41.51    3.65
   5  -6  13  189.02    9.10
   6  -5  13  189.59    9.04
   5  -6  13  199.77   14.48
   6  -5  13  193.26   14.23
   5  -6  11  121.83   10.69
   5  -6  11  112.94    6.27
   6  -5  11  109.46    6.14
   6  -5  11  115.56   10.53
   6  -5   9  152.09    7.54
   5  -6   9  142.98   11.58
   6  -5   9  137.75    6.75
   6  -5   9  156.30   12.18
   5  -6   7  757.95   33.59
   6  -5   5  669.63   29.33
   5  -6   5  619.04   28.88
   6  -5   3 1509.98   55.42
   5  -6   3 1416.58   55.78
   5  -6   1  603.13   27.14
   6  -5   1  561.48   25.83
   5  -6  -1  572.43   26.12
   6  -5  -1  604.94   26.53
   6  -5  -3 1508.26   52.68
   5  -6  -3 1272.79   48.80
  -5  -6   7  744.65   34.10
   6   5   7  848.53   30.34
  -6  -5   9  129.16    6.76
  -5  -6   9  139.70   11.38
  -5  -6   9  137.91    6.91
  -6  -5   9  137.09    8.59
  -5  -6   9  123.29    8.38
  -5  -6  11  125.30   10.50
  -6  -5  11  121.63    8.44
  -5  -6  11  115.77    6.12
  -6  -5  11  117.57    6.23
  -5  -6  13  202.92    8.61
  -6  -5  13  167.36    9.90
  -6  -5  13  182.30    8.45
  -5  -6  13  192.03   13.16
  -6  -5  15   34.78    3.67
  -5  -6  15   27.14    3.23
  -6  -5  15   33.82    3.26
  -5  -6  15   30.70    3.12
  -5  -6  17   94.07    5.42
  -6  -5  17   93.05    5.38
  -6  -5  17   86.58    5.29
  -5  -6  19   45.63    3.38
  -6  -5  19   47.18    3.42
  -6  -5  21  137.80    6.04
  -5  -6  21  137.38    6.04
   6  -6  20   35.66    2.57
   6  -6  18    1.40    1.23
   6  -6  16  119.23    6.42
   6  -6  14   26.94    2.99
   6  -6  14   25.34    5.18
   6  -6  12    3.63    1.71
   6  -6  12    4.48    2.95
   6  -6  10   71.76    4.59
   6  -6  10   80.23    8.89
   6  -6   8 1114.13   38.03
   6  -6   6  192.41   13.72
   6  -6   4  556.36   26.98
   6  -6   2 1379.19   54.12
   6  -6   0 1428.97   55.80
   6  -6  -2 1321.62   51.23
  -6  -6   8 1233.99   49.55
  -6  -6   8 1243.09   44.56
  -6  -6  10   67.47    6.37
  -6  -6  10   74.72    4.90
  -6  -6  12    7.67    1.87
  -6  -6  12    2.30    2.15
  -6  -6  14   10.53    2.53
  -6  -6  14   15.85    2.34
  -6  -6  16  118.72    6.72
  -6  -6  16  122.88    6.53
  -6  -6  18    1.23    1.19
  -6  -6  20   39.62    2.81
   0  -7   1  324.06   14.76
   0  -7  -1  321.49   13.11
   0  -7   3 1622.67   58.95
   7   0   5  970.69   36.95
   0  -7   5 1014.47   40.16
   7   0   7   46.70    5.15
   0  -7   7   38.76    5.90
  -7   0   9  367.88   14.29
   0  -7   9  357.69   19.54
   0  -7   9  324.90   13.72
   7   0   9  386.65   18.46
   0  -7  11   90.15    8.78
   7   0  11   83.62    8.04
   0  -7  11   89.48    5.36
   0  -7  13   31.88    3.14
   0  -7  13   30.70    5.37
   0  -7  15  176.35   12.96
   0  -7  15  165.41    8.36
  -7   0  15  177.79    8.79
   0  -7  17   24.73    2.76
  -7   0  17   24.31    2.80
  -7   0  19   34.36    2.94
   0  -7  21   70.28    3.87
   0  -7  23   19.89    1.44
   1  -7  22   31.10    2.13
   1  -7  20   21.53    2.16
  -7   1  20   23.55    2.16
  -7   1  16  200.31    9.36
   1  -7  16  159.60   12.65
  -7   1  14   70.89    5.09
   7  -1  14   67.98    4.40
   1  -7  14   63.82    7.75
   1  -7  14   72.94    4.81
   7  -1  12   73.01    4.70
  -7   1  12   77.89    5.44
   7  -1  12   76.25    4.73
   1  -7  12   76.10    4.97
   1  -7  12   71.34    7.96
   7  -1  12   85.63    8.37
   7  -1  10  181.47    8.35
   7  -1  10  202.13   13.12
   1  -7  10  194.73   13.35
   1  -7  10  177.71    8.50
   7  -1  10  180.35    8.11
   7  -1   8  605.64   26.70
   7  -1   6  636.52   26.65
   1  -7   6  642.83   29.30
   7  -1   4  822.90   31.79
   1  -7   4  818.36   34.35
  -1  -7  -2  991.08   34.20
   1  -7   2 1041.53   38.76
  -1  -7   0 1475.44   50.84
   1  -7   0 1471.00   51.66
  -1  -7   2 1131.10   41.12
   1  -7  -2 1108.37   38.03
  -1  -7   4  746.12   30.83
  -1  -7   6  623.26   28.69
   7   1   6  643.91   25.73
   7   1   8  597.59   25.40
   7   1  10  175.53   11.41
  -7  -1  10  172.65    8.50
  -1  -7  10  180.24   12.87
  -1  -7  10  166.56    7.99
  -1  -7  12   95.19    9.07
  -7  -1  12   94.32    5.92
  -1  -7  12   89.44    5.40
  -1  -7  14   75.92    4.90
  -1  -7  14   75.83    8.24
  -7  -1  16  188.51    9.44
  -1  -7  16  182.52   13.24
  -1  -7  16  201.52    9.31
  -7  -1  16  221.74    9.77
  -7  -1  18   47.27    3.73
  -1  -7  18   49.99    3.72
  -7  -1  18   50.89    3.75
  -7  -1  20   24.61    2.14
  -1  -7  22   31.68    2.21
   2  -7  23   13.53    1.14
  -7   2  21   44.16    2.70
   2  -7  21   41.63    2.76
   2  -7  19   33.91    2.88
   7  -2  17  103.03    5.57
   2  -7  15   37.19    5.90
   7  -2  15   41.71    3.43
   2  -7  13  100.39    9.60
   7  -2  13   87.94    8.82
  -7   2  13   93.05    5.99
   7  -2  13   89.59    5.42
   2  -7  13   93.50    5.63
  -7   2  11   48.34    4.29
   7  -2  11   46.77    3.64
   2  -7  11   50.60    6.81
   7  -2  11   47.57    3.88
   2  -7  11   47.35    3.93
   7  -2  11   47.31    6.58
  -7   2   9   46.62    3.80
   7  -2   9   53.41    3.71
   2  -7   9   44.45    3.62
   7  -2   9   48.40    6.25
   2  -7   9   45.47    6.14
   7  -2   7  870.01   35.29
   2  -7   7  856.92   36.46
   7  -2   5  811.38   32.86
   2  -7   5  843.27   35.52
   7  -2   3 1156.68   43.77
   2  -7   3 1228.25   46.65
   2  -7   1 1349.94   51.35
   7  -2   1 1501.74   51.13
  -2  -7  -1 1386.41   47.84
  -2  -7   1 1492.86   52.24
   2  -7  -1 1496.29   52.06
  -2  -7   3 1404.63   51.12
  -2  -7   5  742.79   31.36
   7   2   5  751.47   28.75
   7   2   7  799.21   31.07
  -2  -7   9   41.66    3.28
  -7  -2   9   45.89    3.64
   7   2   9   49.56    5.17
  -2  -7   9   42.02    6.33
  -2  -7  11   67.91    4.56
  -2  -7  11   70.52    7.96
  -7  -2  11   62.29    4.92
  -2  -7  13   90.96    5.37
  -2  -7  13   88.43    8.89
  -7  -2  13   93.32    5.84
  -7  -2  15   30.89    3.32
  -7  -2  15   31.03    3.37
  -2  -7  15   30.82    3.10
  -2  -7  15   20.85    4.42
  -7  -2  17  109.21    6.13
  -2  -7  17  108.31    5.95
  -2  -7  19   24.08    2.50
  -7  -2  19   23.36    2.28
  -7  -2  19   26.05    2.61
   3  -7  22   21.41    1.67
  -7   3  20    6.59    1.38
   3  -7  20    6.51    1.33
   7  -3  18   12.91    1.86
   3  -7  18   14.08    2.07
   3  -7  16   51.65    6.91
   3  -7  16   49.78    4.01
   7  -3  16   60.76    4.16
   7  -3  14   24.03    2.70
   7  -3  14   22.96    4.60
   3  -7  14   22.22    4.73
   3  -7  12  105.53    6.20
   7  -3  12  106.99    6.19
   3  -7  12  118.28   10.31
   7  -3  12  112.01   10.26
   7  -3  10   51.08    6.88
   3  -7  10   46.23    3.92
   3  -7  10   53.27    6.92
   7  -3  10   39.07    3.35
   7  -3  10   44.44    3.73
   7  -3   8  210.67   13.56
   3  -7   8  191.40    8.55
   7  -3   6   59.32    6.67
   3  -7   6   48.66    6.66
   7  -3   4  354.89   17.93
   3  -7   4  397.95   20.58
   3  -7   2  399.87   20.91
   7  -3   2  438.57   19.60
  -3  -7   0  372.40   15.38
   7  -3   0  383.21   18.01
   3  -7   0  355.94   17.62
  -3  -7   2  480.02   20.17
   3  -7  -2  479.66   19.23
  -3  -7   4  354.99   17.50
  -3  -7   6   51.89    6.50
   7   3   6   45.53    4.59
   7   3   8  212.63   11.16
  -7  -3   8  180.82    9.68
  -3  -7   8  206.81   14.21
  -3  -7  10   52.72    6.98
  -7  -3  10   50.62    5.03
  -3  -7  10   44.98    3.65
  -7  -3  10   44.10    3.96
  -3  -7  12   77.13    4.94
  -7  -3  12   82.33    5.40
  -7  -3  12   86.50    6.30
  -3  -7  12   78.42    8.36
  -3  -7  14   16.28    2.36
  -3  -7  14   15.29    3.99
  -7  -3  14   18.24    2.84
  -7  -3  14   17.05    2.71
  -7  -3  16   55.05    4.15
  -3  -7  16   54.00    4.06
  -7  -3  16   53.25    4.26
  -3  -7  16   51.96    6.49
  -3  -7  18   16.98    2.22
  -7  -3  18   12.65    1.94
  -3  -7  20    6.26    1.38
  -3  -7  22   17.55    1.60
  -7   4  21   72.04    3.64
   4  -7  21   69.45    3.64
   4  -7  19    8.17    1.58
   7  -4  19    9.62    1.49
   4  -7  17   62.53    4.45
   7  -4  17   72.92    4.50
   7  -4  15   13.48    3.86
   7  -4  15   12.53    2.31
   4  -7  15   12.47    2.28
   4  -7  15    7.49    3.44
   4  -7  13   34.35    5.83
   7  -4  13   30.46    3.14
   7  -4  13   30.02    5.56
   7  -4  11   63.18    4.41
   7  -4  11   51.98    7.41
   4  -7  11   65.52    7.85
   7  -4  11   63.48    4.65
   4  -7   9  107.18    5.91
   7  -4   9  108.11    5.57
   7  -4   9  121.64   10.50
   7  -4   9  112.17    6.27
   7  -4   7  209.69   14.04
   4  -7   7  210.70   14.24
   7  -4   5  348.76   18.73
   4  -7   5  374.50   20.16
   4  -7   3 1062.44   43.91
   7  -4   3 1057.72   41.67
   4  -7   1   16.71    3.99
   7  -4   1   18.92    3.72
   7  -4  -1   21.81    4.03
   4  -7  -1   16.92    3.39
  -4  -7   3 1085.07   33.31
   7  -4  -3  566.14   32.03
  -4  -7   5  333.26   15.07
   7  -4  -5  120.43   11.35
   7   4   7  246.57   12.26
  -7  -4   9  114.13    7.49
  -4  -7   9  107.24    5.93
  -4  -7   9  120.56   10.86
  -7  -4   9  109.52    6.08
  -4  -7   9  116.17    7.35
  -4  -7  11   52.18    7.05
  -4  -7  11   60.74    5.74
  -4  -7  11   51.86    4.05
  -7  -4  11   64.63    5.88
  -7  -4  11   49.96    4.28
  -4  -7  13   32.11    3.07
  -4  -7  13   33.46    5.48
  -7  -4  13   29.48    3.22
  -7  -4  13   35.63    4.08
  -7  -4  15   14.38    2.62
  -4  -7  15   15.29    3.88
  -7  -4  15   12.37    2.39
  -4  -7  15   13.85    2.27
  -7  -4  17   83.98    5.09
  -4  -7  17   70.85    4.73
  -7  -4  17   78.93    4.95
  -7  -4  19   11.36    1.53
  -7  -4  19   10.41    1.82
  -4  -7  19   12.04    1.76
  -4  -7  21   72.03    3.80
   5  -7  22   48.21    2.47
   7  -5  20   21.44    1.96
   5  -7  20   25.28    2.16
   5  -7  18   10.19    1.86
   7  -5  18   10.19    1.77
   5  -7  16   84.82    5.30
   7  -5  16   86.65    5.25
   5  -7  14   43.75    6.75
   7  -5  14   39.19    3.76
   5  -7  14   42.22    3.81
   7  -5  14   42.53    6.61
   7  -5  12   53.81    4.27
   5  -7  12   56.65    7.66
   7  -5  12   67.42    8.29
   7  -5  10    8.94    3.59
   5  -7  10   11.36    3.79
   7  -5  10   13.51    2.02
   7  -5  10   15.35    2.44
   5  -7   8  404.59   22.62
   7  -5   8  415.62   16.05
   7  -5   8  451.72   23.78
   5  -7   8  456.38   16.52
   7  -5   8  441.65   17.27
   7  -5   6   11.29    3.56
   5  -7   6   11.02    3.66
   5  -7   4   21.81    4.85
   7  -5   4   19.39    4.32
   5  -7   2  825.28   37.26
   7  -5   2  874.88   36.44
   5  -7   0  494.30   24.90
   7  -5   0  540.32   25.41
   5  -7  -2  704.24   28.89
   7  -5  -2  672.73   31.50
   7  -5  -4   28.15    5.29
  -5  -7   4   37.57    4.75
  -5  -7   6   13.24    3.58
  -5  -7   8  424.12   22.41
  -7  -5   8  407.68   15.46
  -7  -5   8  429.93   17.48
  -5  -7   8  444.24   17.66
  -5  -7  10   10.77    2.02
  -5  -7  10   11.47    4.33
  -5  -7  10    9.39    3.03
  -7  -5  10    9.24    3.03
  -7  -5  10    9.82    2.07
  -7  -5  12   67.08    4.73
  -5  -7  12   57.10    7.45
  -5  -7  12   61.76    4.34
  -7  -5  12   65.92    6.00
  -5  -7  14   37.51    4.03
  -5  -7  14   40.31    3.50
  -7  -5  14   35.72    4.09
  -7  -5  14   32.02    3.38
  -7  -5  16   83.77    5.16
  -7  -5  16   77.51    5.21
  -5  -7  16   76.92    4.88
  -7  -5  18   10.10    1.71
  -7  -5  18    9.95    1.92
  -5  -7  18    8.54    1.81
  -7  -5  20   24.12    2.22
  -5  -7  20   22.93    2.16
   7  -6  21   82.27    3.82
   6  -7  21   88.31    3.97
  -7   6  21   88.22    3.98
   7  -6  19   15.15    1.78
   6  -7  19   13.63    1.78
   7  -6  17   29.45    2.85
   6  -7  17   29.47    2.80
   7  -6  15   67.21    4.69
   7  -6  15   62.31    7.78
   6  -7  15   66.90    4.65
   6  -7  15   70.93    8.39
   6  -7  13   86.33    9.53
   6  -7  13   91.14    5.68
   7  -6  13   91.45    9.76
   7  -6  13   87.76    5.64
   6  -7  11   52.30    7.40
   7  -6  11   54.30    7.63
   7  -6  11   52.56    4.08
   6  -7  11   49.56    4.07
   7  -6   9  147.45   12.82
   7  -6   9  160.91    7.56
   7  -6   9  169.30    8.49
   6  -7   7  251.79   16.62
   7  -6   7  254.33   16.81
   6  -7   7  233.94   10.94
   7  -6   7  245.02    9.92
   6  -7   7  249.19   10.07
   7  -6   7  233.52   10.93
   7  -6   5  109.92   10.33
   6  -7   5  100.15    9.84
   6  -7   3 1394.57   56.71
   7  -6   3 1430.02   56.61
   6  -7   1   52.21    7.55
   7  -6   1   43.41    6.79
   6  -7  -1   22.78    5.04
   7  -6  -1   39.83    6.52
   7  -6  -3 1104.82   45.51
  -7  -6   7  263.69   13.43
  -7  -6   7  245.51   11.68
  -6  -7   7  245.34   11.75
  -7  -6   9  161.34    7.88
  -6  -7   9  158.82    7.93
  -6  -7   9  154.27    9.80
  -6  -7   9  183.33   13.75
  -7  -6   9  166.53    9.88
  -6  -7  11   52.79    4.05
  -7  -6  11   61.01    4.47
  -7  -6  11   52.98    5.90
  -7  -6  13   81.51    6.56
  -7  -6  13   85.23    5.31
  -6  -7  13   94.62    5.34
  -7  -6  15   69.80    4.72
  -7  -6  15   69.30    5.23
  -6  -7  15   62.37    4.94
  -6  -7  15   64.77    4.48
  -7  -6  17   24.74    2.60
  -7  -6  17   19.43    2.44
  -6  -7  17   20.79    2.42
  -6  -7  19   16.94    1.95
  -7  -6  19   15.06    1.89
   7  -7  20   27.13    2.05
   7  -7  18   61.30    3.85
   7  -7  16  236.80   10.36
   7  -7  14  206.08    9.69
   7  -7  14  201.95   15.15
   7  -7  12   45.55    3.93
   7  -7  12   36.65    6.41
   7  -7  10  339.39   13.91
   7  -7  10  335.90   20.89
   7  -7   8  645.26   31.73
   7  -7   8  634.27   24.22
   7  -7   6   14.88    2.44
  -7  -7  -6   19.85    2.14
   7  -7   6   13.80    1.81
   7  -7   6   14.94    4.38
   7  -7   4  220.28   10.59
   7  -7   4  240.87   17.01
   7  -7   2 1572.06   64.15
   7  -7   0  322.97   21.60
   7  -7  -2 1304.41   53.01
  -7  -7   4  187.05   10.20
  -7  -7   6   19.86    3.56
  -7  -7   6   18.70    2.60
  -7  -7   8  759.04   28.50
  -7  -7   8  703.06   28.38
  -7  -7  10  301.16   15.86
  -7  -7  10  324.79   13.38
  -7  -7  12   52.61    4.12
  -7  -7  12   34.86    4.90
  -7  -7  14  183.89   10.09
  -7  -7  14  189.32    8.92
  -7  -7  16  222.66    9.87
  -7  -7  16  229.65   10.30
  -7  -7  18   65.35    4.01
   0  -8   0  169.15    9.08
   0  -8   2   92.96    7.55
   0  -8  -2   91.32    5.08
   0  -8   4  222.63   13.86
   8   0   4  231.94   12.38
   8   0   6   23.62    3.77
   0  -8   6   25.89    4.90
  -8   0   8   83.10    5.24
   0  -8   8   78.72    8.62
   8   0   8   88.72    7.94
   8   0  10  307.28   17.01
   0  -8  10  282.45   11.99
   0  -8  10  309.97   18.09
  -8   0  10  289.61   12.60
   8   0  10  286.30   11.73
   0  -8  12   51.40    4.01
   0  -8  12   48.89    6.81
   8   0  12   51.41    6.44
   0  -8  14  138.15    7.31
   0  -8  14  142.16   11.76
   0  -8  16    6.28    1.85
   0  -8  18    4.42    1.50
  -8   0  18    4.21    1.49
  -8   0  20   28.24    2.38
  -8   1  21    3.25    0.94
  -8   1  19   39.87    3.12
   1  -8  17   88.65    5.29
   1  -8  15  130.00    6.93
   1  -8  15  124.88   11.15
   1  -8  13  129.11    6.84
   8  -1  13  109.72   10.04
   1  -8  13  114.15   10.67
   1  -8  11   18.87    2.53
   8  -1  11   18.62    4.27
   8  -1  11   17.44    2.32
   1  -8  11   21.36    4.74
   8  -1   9  202.67   13.24
   1  -8   9  198.78    9.05
   8  -1   9  191.67    8.72
   1  -8   7  751.98   33.75
   8  -1   7  740.79   31.37
   1  -8   5  612.33   28.62
   8  -1   5  613.08   25.90
   1  -8   3   79.87    7.80
  -1  -8  -1  648.07   24.15
   1  -8   1  665.46   26.77
   1  -8  -1  687.55   25.66
  -1  -8   1  684.89   26.87
  -1  -8   3  100.87    8.15
  -1  -8   5  597.03   27.13
   8   1   5  574.37   24.16
   8   1   7  770.16   31.44
  -1  -8   7  797.40   35.20
  -8  -1   9  187.87    8.87
   8   1   9  185.31   11.93
  -1  -8   9  184.87    8.51
   8   1   9  188.06    8.08
  -8  -1  11   14.74    2.69
  -1  -8  11   12.13    2.07
   8   1  11   12.53    3.39
  -1  -8  11   11.18    3.76
  -1  -8  13  117.77    6.50
  -8  -1  13  121.04    7.02
  -1  -8  13  108.49   10.35
  -1  -8  15  117.94   10.81
  -8  -1  15  134.93    7.39
  -1  -8  15  136.92    7.11
  -8  -1  17   95.38    5.57
  -1  -8  17   89.27    5.38
  -1  -8  19   35.60    2.96
  -8  -1  19   39.42    2.99
  -8  -1  21    3.76    0.90
  -1  -8  21    5.18    1.20
   2  -8  22   21.58    1.61
  -8   2  20   36.03    2.66
   2  -8  20   31.18    2.54
   2  -8  16  167.49    8.27
   8  -2  16  176.63    7.99
   2  -8  14  164.78    8.15
   8  -2  14  141.14   11.67
   8  -2  14  159.25    7.83
   2  -8  14  162.73   12.96
   8  -2  12  253.68   16.51
   2  -8  12  259.17   16.73
   8  -2  12  264.06   11.23
   8  -2  12  259.25   11.31
   2  -8  12  247.66   11.29
   8  -2  10  226.19   14.75
   8  -2  10  191.10    8.70
   8  -2  10  202.29    9.25
   2  -8  10  195.55    9.27
   8  -2   8  364.38   19.07
   2  -8   8  366.95   19.94
   2  -8   8  335.20   13.79
   8  -2   8  343.49   13.67
   2  -8   6  188.70   13.82
   8  -2   6  205.04   12.51
   2  -8   4 1136.62   46.13
   2  -8   2  519.94   24.30
   8  -2   2  550.86   23.41
   2  -8   0   50.31    4.95
  -2  -8   0   45.91    4.02
  -2  -8   2  496.70   20.93
   2  -8  -2  467.86   18.27
  -2  -8   4 1082.32   42.34
   8   2   6  210.18   11.45
  -2  -8   6  190.50   13.48
  -8  -2   8  324.03   13.18
   8   2   8  345.68   16.65
  -8  -2  10  210.35   10.06
  -2  -8  10  234.45   15.52
  -8  -2  10  217.96   10.62
   8   2  10  229.05   13.37
  -2  -8  10  223.56    9.69
  -2  -8  12  249.85   16.48
  -8  -2  12  264.85   11.86
  -2  -8  12  256.59   11.08
  -8  -2  14  149.06    8.16
  -8  -2  14  143.87    7.94
  -2  -8  14  164.22    7.80
  -2  -8  14  155.76   12.21
  -8  -2  16  170.78    8.50
  -8  -2  16  172.94    8.60
  -2  -8  16  177.02    8.34
  -8  -2  18   24.50    2.57
  -2  -8  18   24.44    2.58
  -2  -8  20   32.53    2.55
  -8  -2  20   27.89    2.20
  -2  -8  22   18.71    1.54
  -8   3  21    9.11    1.23
   3  -8  21    9.14    1.27
   3  -8  19   14.84    1.93
   8  -3  17   98.46    5.35
   8  -3  15   34.68    3.14
   3  -8  15   30.00    5.50
   3  -8  13   85.68    9.23
   8  -3  13   81.11    5.23
   3  -8  13   74.33    5.19
   8  -3  13   81.59    8.87
   8  -3  11   81.08    8.81
   3  -8  11   83.77    8.82
   8  -3  11   80.51    4.95
   3  -8  11   79.18    5.21
   8  -3  11   73.90    5.09
   8  -3   9  194.82    8.69
   3  -8   9  211.41    9.44
   8  -3   9  199.26    9.44
   8  -3   7  613.22   27.29
   3  -8   7  578.90   27.84
   8  -3   7  581.30   21.03
   3  -8   7  547.16   20.64
   3  -8   5  200.84   14.18
   3  -8   3  127.77   10.81
   8  -3   3  148.45   10.20
   8  -3   1  338.07   16.44
   3  -8   1  256.01   15.27
  -3  -8   1  315.69   14.57
   8  -3  -1  336.63   17.21
   3  -8  -1  313.85   14.93
  -3  -8   3  167.33   10.44
  -3  -8   5  165.82   11.63
  -3  -8   7  561.07   27.80
  -8  -3   7  560.15   21.95
   8   3   7  617.21   24.52
  -8  -3   9  202.76    9.23
  -8  -3   9  196.70   10.54
  -3  -8   9  184.22   14.33
  -3  -8   9  196.73    9.77
   8   3   9  223.97   12.29
  -8  -3   9  208.45   10.48
  -3  -8   9  195.90    8.93
  -3  -8  11   63.19    7.72
  -8  -3  11   65.58    4.78
  -3  -8  11   56.93    4.11
  -8  -3  11   67.57    5.75
  -8  -3  13   95.32    6.09
  -3  -8  13   95.43    5.62
  -3  -8  13   95.11    9.42
  -8  -3  13  106.96    6.77
  -8  -3  15   40.62    3.63
  -3  -8  15   32.71    5.36
  -8  -3  15   40.40    3.84
  -3  -8  15   36.94    3.30
  -8  -3  17  112.14    6.11
  -8  -3  17  105.76    6.03
  -3  -8  17  110.29    5.96
  -3  -8  19   12.02    1.83
  -8  -3  19    8.75    1.48
  -3  -8  21    7.20    1.18
   4  -8  22   11.82    1.13
   4  -8  20    9.59    1.41
  -8   4  20    9.06    1.50
   8  -4  18   31.15    2.68
   4  -8  18   32.30    2.87
   8  -4  16   36.99    3.22
   8  -4  14   29.60    3.17
   8  -4  14   27.11    5.33
   4  -8  14   31.72    5.80
   8  -4  12  194.82   14.93
   4  -8  12  211.64    9.84
   4  -8  12  189.53   14.66
   8  -4  12  206.64    9.67
   8  -4  10    7.73    1.60
   8  -4  10    9.49    3.60
   4  -8  10   12.44    2.27
   8  -4  10    9.94    2.06
   4  -8   8   42.62    3.45
   8  -4   8   46.16    3.16
  -4  -8  -8   39.56    3.17
   4  -8   8   47.12    6.75
   8  -4   8   53.74    7.19
   8  -4   8   44.53    3.79
   4  -8   6   44.07    6.60
   8  -4   4   35.93    5.34
   4  -8   4   51.16    7.28
   8  -4   2  291.29   16.45
   4  -8   2  259.51   16.83
   4  -8   0   41.95    5.38
   8  -4   0   48.28    6.29
   8  -4  -2  224.74   15.22
  -4  -8   2  273.18   13.41
  -4  -8   4   32.53    4.56
   8  -4  -4   18.93    4.45
  -4  -8   6   43.06    5.79
  -8  -4   6   37.07    3.44
   8   4   6   46.69    4.71
  -8  -4   8   51.04    3.62
  -4  -8   8   59.19    4.66
   8   4   8   47.66    5.00
  -8  -4   8   44.87    4.37
  -4  -8  10    8.83    1.82
  -4  -8  10   10.19    3.72
  -8  -4  10    8.88    2.02
  -8  -4  10   12.80    3.05
  -4  -8  10   10.65    2.66
  -8  -4  12  175.00    9.03
  -4  -8  12  175.30   13.44
  -4  -8  12  184.07   10.10
  -8  -4  12  197.39   10.42
  -4  -8  12  172.89    8.41
  -8  -4  14   27.97    3.20
  -4  -8  14   28.73    2.98
  -4  -8  14   26.64    5.13
  -8  -4  14   33.93    3.81
  -4  -8  16   34.35    3.03
  -8  -4  16   29.98    3.11
  -8  -4  16   33.14    3.23
  -8  -4  18   41.19    3.27
  -8  -4  18   36.89    3.04
  -4  -8  18   34.97    3.05
  -4  -8  20   14.29    1.80
  -4  -8  22   11.45    1.16
   5  -8  21   27.64    1.95
  -8   5  21   28.19    1.96
   5  -8  19    3.45    1.27
   8  -5  19    3.73    1.06
   5  -8  17   92.72    5.45
   8  -5  17  103.71    5.49
   8  -5  15   38.95    3.58
   5  -8  15   31.62    3.39
   8  -5  13   89.37    5.66
   5  -8  13   91.19    9.73
   8  -5  13   85.34    9.58
   8  -5  11   90.02   10.08
   5  -8  11   83.00    9.43
   5  -8  11   95.09    6.00
   8  -5  11   88.18    5.48
   8  -5   9   27.39    3.17
   5  -8   9   26.01    2.89
   5  -8   9   29.50    5.63
   8  -5   9   23.84    2.59
   8  -5   9   32.46    5.82
  -5  -8  -7  185.70    8.48
   5  -8   7  201.59    8.57
   5  -8   7  184.82   14.10
   8  -5   7  186.22    8.12
   8  -5   5    9.61    1.95
   8  -5   5    6.83    3.28
   5  -8   5    7.32    1.45
   5  -8   5    8.41    3.84
   5  -8   3   51.59    7.77
   8  -5   3   73.30    8.11
   5  -8   1  153.96   12.48
   8  -5   1  167.24   12.84
   5  -8  -1  121.85    9.46
   8  -5  -1  109.86   10.88
   8  -5  -3    1.71    2.44
  -5  -8   5    8.63    1.72
  -8  -5   5   13.59    2.00
  -5  -8   5   11.58    3.29
  -5  -8   7  170.89   12.61
   8   5   7  191.30   10.07
  -5  -8   7  200.46    8.97
  -8  -5   9   20.04    3.57
  -8  -5   9   24.67    3.86
  -5  -8   9   25.26    2.87
  -5  -8   9   33.17    6.09
  -5  -8   9   31.93    4.15
  -8  -5   9   25.46    2.81
  -5  -8  11   89.35    5.51
  -8  -5  11   95.52    6.02
  -5  -8  11   84.38    7.35
  -8  -5  11  107.70    7.83
  -5  -8  11   92.80    9.84
  -5  -8  13   79.93    6.22
  -8  -5  13   85.55    6.37
  -5  -8  13   75.79    8.56
  -5  -8  13   81.42    5.14
  -8  -5  13   85.50    5.56
  -8  -5  15   34.50    3.40
  -5  -8  15   32.84    3.24
  -8  -5  15   31.08    3.70
  -8  -5  17   98.63    5.65
  -5  -8  17  107.77    5.71
  -8  -5  17   97.76    5.65
  -8  -5  19    3.96    1.03
  -5  -8  19    4.58    1.28
  -5  -8  21   28.16    2.06
   8  -6  20   15.87    1.55
   6  -8  20   15.68    1.66
   6  -8  18   38.13    2.95
   8  -6  18   32.53    2.75
   6  -8  16   64.33    4.42
   8  -6  16   60.40    4.20
   6  -8  14   33.27    6.12
   8  -6  14   42.51    6.75
   6  -8  14   47.19    4.01
   8  -6  14   49.13    3.95
   6  -8  12  193.56   15.07
   8  -6  12  188.09   15.15
   8  -6  12  188.11    9.31
   8  -6  10  110.07   11.02
   8  -6  10   97.72    5.58
   6  -8  10   90.54    5.70
   6  -8   8  151.87    7.43
   8  -6   8  154.21    7.18
  -6  -8  -8  147.59    7.20
   6  -8   8  151.38   13.03
   6  -8   6   96.40    5.11
  -8  -6  -6   90.00    4.96
  -6  -8  -6   94.70    5.31
   8  -6   6   92.76   10.07
   8  -6   6   90.95    5.97
   8  -6   6   86.58    4.76
   6  -8   6   95.14   10.18
   8  -6   4   68.51    8.58
   8  -6   4   52.47    4.24
   6  -8   4   54.86    7.87
   6  -8   4   57.03    4.57
  -6  -8  -4   53.67    3.81
   6  -8   4   55.28    3.38
   8  -6   2  534.59   27.90
   6  -8   2  485.17   28.01
   6  -8   0   33.70    6.32
   8  -6   0   35.29    6.95
   8  -6  -2  467.96   27.58
  -6  -8   4   48.04    4.48
  -6  -8   4   54.37    3.74
  -8  -6   4   51.65    3.66
  -8  -6   4   55.14    5.34
  -6  -8   6  106.17    7.07
  -6  -8   6  101.16    6.17
  -8  -6   8  145.53    8.29
  -6  -8   8  145.22    8.57
  -8  -6  10   89.33    5.63
  -6  -8  10   95.51    5.72
  -6  -8  10   81.59    7.30
  -6  -8  12  211.30    7.73
  -8  -6  12  225.00   10.57
  -8  -6  12  213.53    8.24
  -8  -6  14   51.79    4.07
  -6  -8  14   35.67    3.41
  -8  -6  14   48.66    4.59
  -6  -8  14   40.66    4.21
  -8  -6  16   61.58    4.24
  -8  -6  16   59.69    4.42
  -6  -8  16   58.36    4.08
  -8  -6  18   30.91    2.75
  -6  -8  18   33.63    2.77
  -8  -6  18   28.70    2.48
  -6  -8  20   18.89    1.79
  -8   7  21   28.30    1.79
  -7   8  21   31.82    1.83
   7  -8  21   28.85    1.76
   7  -8  19  156.91    6.63
   8  -7  19  148.26    6.48
   7  -8  17   95.33    5.21
   8  -7  17   91.83    5.17
   8  -7  15   10.24    2.04
   7  -8  15   10.35    2.05
   7  -8  13  418.31   16.98
   8  -7  13  426.51   24.20
   8  -7  13  420.36   16.98
   7  -8  13  419.22   24.10
   8  -7  11  560.46   20.99
   8  -7  11  567.30   29.58
   8  -7   9   11.64    2.09
   7  -8   9   13.08    4.36
   7  -8   7  845.51   39.91
  -7  -8  -7  854.18   29.72
   7  -8   7  815.59   29.58
   8  -7   7  881.14   40.16
   8  -7   7  837.37   30.96
  -8  -7  -7  835.97   29.47
   7  -8   5  513.64   28.11
  -8  -7  -5  484.55   18.14
  -7  -8  -5  487.59   18.31
   8  -7   5  464.12   27.21
   7  -8   5  466.13   19.41
   8  -7   5  494.69   19.62
   7  -8   5  467.69   17.64
  -7  -8  -3  274.77   11.97
  -7  -8  -3  282.29   11.19
  -8  -7  -3  287.21   10.99
   8  -7   3  301.51   20.97
  -8  -7  -3  294.37   11.93
   7  -8   3  277.30   13.24
   7  -8   3  308.07   20.96
   8  -7   3  290.31   13.28
   8  -7   1  779.32   38.79
  -8  -7  -1  725.43   25.25
  -8  -7  -1  725.84   26.42
  -7  -8  -1  721.90   25.35
  -7  -8  -1  705.13   26.42
   7  -8  -1  659.48   34.59
  -7  -8   1  744.17   27.70
   8  -7  -1  792.37   39.81
  -8  -7   1  765.31   26.11
  -7  -8   1  736.58   26.11
  -7  -8   3  238.67   12.08
  -8  -7   3  251.55   12.51
  -8  -7   3  247.15   10.33
  -7  -8   5  489.47   20.77
  -8  -7   5  468.74   21.44
  -7  -8   5  466.45   18.47
  -8  -7   7  833.01   31.47
  -7  -8   7  847.68   31.79
  -8  -7   7  769.22   33.43
  -8  -7   9   12.02    2.75
  -7  -8   9   15.32    3.60
  -8  -7   9   20.98    3.68
  -8  -7  11  586.69   21.35
  -8  -7  11  599.89   24.61
  -7  -8  11  583.27   21.20
  -8  -7  13  422.19   15.72
  -8  -7  13  422.48   17.69
  -7  -8  13  413.45   15.45
  -7  -8  15   10.01    2.11
  -8  -7  15    9.91    2.24
  -8  -7  15    6.88    1.72
  -7  -8  15   10.61    1.98
  -8  -7  17   88.31    4.98
  -7  -8  17   94.28    5.04
  -8  -7  17   85.90    4.95
  -7  -8  19  154.92    6.67
   8  -8  20   31.41    1.98
   8  -8  18   65.49    3.81
   8  -8  16  253.93   10.80
   8  -8  14  325.42   13.74
   8  -8  12  162.77   13.79
   8  -8  12  156.01    8.24
   8  -8  10  789.42   28.80
  -8  -8  -8  669.49   24.32
   8  -8   8  675.12   34.50
  -8  -8  -6    6.56    1.56
   8  -8   6    4.70    1.38
   8  -8   6    8.57    4.17
   8  -8   6    4.23    1.98
   8  -8   4  647.41   33.96
  -8  -8  -4  605.83   22.19
   8  -8   4  561.44   23.72
  -8  -8  -2 1591.09   52.56
  -8  -8  -2 1544.70   53.65
   8  -8   2 1711.58   69.66
   8  -8   2 1530.52   55.77
   8  -8   0   57.08    9.81
  -8  -8   0   57.15    3.64
  -8  -8   2 1480.65   50.22
  -8  -8   2 1504.18   52.61
  -8  -8   4  555.18   23.78
  -8  -8   6    9.82    3.47
  -8  -8   6    9.08    2.25
  -8  -8   8  669.39   26.90
  -8  -8   8  669.35   26.94
  -8  -8  10  835.76   33.50
  -8  -8  12  144.36    7.56
  -8  -8  12  137.92    9.48
  -8  -8  14  294.11   12.46
  -8  -8  14  305.16   13.89
  -8  -8  16  239.18   10.28
  -8  -8  16  256.44   10.81
   0  -9  -1   48.38    4.05
   0  -9   1   50.02    5.04
   9   0   3  312.40   15.92
   0  -9   3  330.24   17.49
   9   0   5   25.12    3.95
   0  -9   5   22.33    4.55
   0  -9   7  314.44   19.17
   9   0   7  286.05   16.06
   9   0   9  605.82   28.32
   0  -9   9  638.35   23.05
   0  -9   9  634.05   30.77
   9   0   9  613.69   22.59
   9   0  11    6.31    1.57
   0  -9  11    5.75    1.72
   9   0  11    6.85    2.98
   0  -9  11   -0.48    2.25
   0  -9  13   31.45    3.35
   0  -9  13   27.46    5.71
   0  -9  15  478.50   25.19
   0  -9  15  495.26   18.85
  -9   0  17   96.08    5.70
   0  -9  17  102.96    5.69
   0  -9  19   45.93    3.24
  -9   0  19   40.86    3.15
   0  -9  21    4.70    1.02
  -9   0  21    3.45    0.84
   1  -9  20   94.14    4.65
  -9   1  20   89.03    4.57
   1  -9  18   63.31    4.26
  -9   1  18   77.30    4.65
   1  -9  16   62.91    4.41
   1  -9  14  461.14   18.08
   1  -9  14  468.15   24.90
   9  -1  12  229.68   15.92
   1  -9  12  250.13   11.13
   1  -9  12  257.75   17.09
   9  -1  12  257.06   11.08
   9  -1  10  481.46   24.08
   1  -9  10  461.06   17.82
   9  -1  10  447.25   17.59
   1  -9   8  156.91    7.93
   9  -1   8  177.48   12.30
   9  -1   8  162.44    7.67
   1  -9   6  249.09   16.86
   9  -1   6  270.32   15.02
   9  -1   4  812.25   33.37
   1  -9   4  849.01   36.04
   9  -1   2  206.27   12.29
   1  -9   2  223.02   13.16
  -1  -9   0  126.38    7.60
   1  -9   0  131.16    8.17
  -1  -9   2  243.03   13.31
   9   1   4  864.88   34.03
  -1  -9   4  860.50   36.18
  -1  -9   6  214.56   15.08
   9   1   6  234.11   13.05
  -1  -9   8  178.12    8.37
   9   1   8  196.64   12.24
  -1  -9   8  186.98   14.53
  -9  -1  10  514.92   19.67
  -1  -9  10  493.75   18.96
   9   1  10  542.18   24.84
   9   1  10  491.92   18.64
  -9  -1  12  297.74   13.42
  -1  -9  12  284.37   18.44
  -1  -9  12  309.86   12.65
  -9  -1  12  298.93   12.84
  -1  -9  14  426.96   23.76
  -9  -1  14  441.21   17.96
  -1  -9  14  458.47   17.47
  -1  -9  16   66.57    4.61
  -9  -1  16   73.44    4.87
  -9  -1  18   79.68    4.71
  -1  -9  18   72.45    4.51
  -9  -1  20   87.84    4.45
  -1  -9  20   92.36    4.63
  -1  -9  22   16.52    1.35
  -9   2  21    6.67    1.01
   2  -9  19   42.81    3.12
  -9   2  19   48.25    3.35
   2  -9  17  155.02    7.59
   2  -9  15  265.50   17.32
   2  -9  15  270.35   11.74
   9  -2  13  130.37   11.34
   9  -2  13  124.29    6.73
   2  -9  13  124.90   11.49
   2  -9  13  124.10    6.93
   9  -2  11  140.54   12.10
   2  -9  11  152.63    7.83
   9  -2  11  150.81    7.70
   9  -2  11  142.34    7.34
   2  -9   9  474.32   18.59
   9  -2   9  494.21   24.88
   2  -9   9  498.57   25.41
   9  -2   9  482.43   17.81
   9  -2   9  474.63   18.47
   2  -9   7  673.62   31.40
   9  -2   7  635.58   22.35
   2  -9   7  631.75   23.28
   9  -2   7  628.60   23.10
   9  -2   7  680.28   29.71
   2  -9   5  612.58   27.84
   9  -2   5  461.46   23.40
   9  -2   3  109.06    8.58
   2  -9   3  103.39    9.35
   9  -2   1  533.45   23.72
  -2  -9  -1  520.75   20.52
   2  -9   1  527.95   23.54
   2  -9  -1  547.58   21.30
  -2  -9   1  495.42   21.61
  -2  -9   3  123.30    9.21
  -2  -9   5  551.35   26.92
   9   2   5  596.29   24.83
  -2  -9   7  635.04   30.40
  -9  -2   7  594.99   23.27
   9   2   7  652.40   26.86
  -9  -2   9  439.47   16.91
  -2  -9   9  439.70   16.54
  -9  -2   9  451.77   18.20
   9   2   9  428.25   20.97
  -9  -2   9  376.13   17.51
   9   2   9  430.58   16.00
  -9  -2  11  125.01    7.05
  -2  -9  11  107.67    6.12
  -9  -2  11  115.12    6.79
  -2  -9  11  111.29   10.73
  -9  -2  11  122.89    7.58
  -9  -2  13  123.12    7.22
  -2  -9  13  120.27    6.54
  -2  -9  13  108.76   10.66
  -9  -2  13  122.52    7.30
  -9  -2  15  248.10   11.21
  -2  -9  15  245.99   10.80
  -9  -2  15  254.24   11.33
  -2  -9  15  243.65   15.98
  -9  -2  17  150.79    7.50
  -2  -9  17  150.70    7.32
  -9  -2  19   37.45    2.84
  -2  -9  19   41.18    3.00
  -2  -9  21   11.68    1.35
   3  -9  22    8.73    0.96
  -9   3  20   33.65    2.46
   3  -9  16   18.09    2.45
   9  -3  16   18.42    2.27
   3  -9  14   99.16    6.07
   9  -3  14  101.18    5.89
   3  -9  14  102.51   10.18
   9  -3  14  102.92    9.87
   9  -3  12  355.37   21.37
   3  -9  12  380.54   21.77
   3  -9  12  357.13   15.20
   9  -3  12  360.67   15.11
   9  -3  12  383.85   15.16
   9  -3  10   80.72    5.23
   9  -3  10   69.13    8.49
   3  -9  10   72.18    5.08
   9  -3  10   71.29    4.59
   9  -3   8   27.77    5.29
   3  -9   8   23.48    5.09
   3  -9   8   25.36    2.77
   9  -3   8   26.77    2.38
   9  -3   8   27.08    2.83
  -3  -9  -6  184.81    8.75
   3  -9   6  190.93    8.41
   3  -9   6  181.34   14.13
   9  -3   6  187.52    7.79
   9  -3   6  193.86    8.70
   9  -3   4  249.66   14.83
   3  -9   4  228.43   16.01
   3  -9   2   43.49    5.89
   9  -3   2   54.12    6.22
   9  -3   0  231.31   14.05
   3  -9   0  216.37   12.52
   9  -3  -2   58.73    6.54
  -3  -9   2   47.75    5.09
  -3  -9   4  240.18   14.34
  -9  -3   6  194.80   10.91
  -3  -9   6  197.94   13.71
   9   3   6  202.77   11.55
  -3  -9   6  176.43    8.44
  -9  -3   6  184.58    8.98
  -9  -3   8   20.74    2.38
  -9  -3   8   21.85    3.52
   9   3   8   22.49    3.68
  -3  -9   8   18.92    4.93
  -9  -3   8   17.21    2.88
  -3  -9   8   16.51    2.45
  -3  -9  10   89.52    5.41
  -9  -3  10  100.51    5.97
   9   3  10   92.93    8.13
  -9  -3  10  106.31    6.80
  -9  -3  10   91.26    6.75
  -9  -3  12  369.82   15.39
  -3  -9  12  352.98   14.37
  -3  -9  12  344.36   20.79
  -9  -3  12  365.12   15.92
  -9  -3  14   91.04    5.98
  -3  -9  14  101.39    5.76
  -3  -9  14   94.03    9.41
  -9  -3  14  107.18    6.46
  -3  -9  16   18.21    2.32
  -9  -3  16   15.42    2.38
  -9  -3  18   42.39    3.23
  -3  -9  18   39.58    3.11
  -3  -9  20   34.11    2.43
  -9  -3  20   32.22    2.20
   4  -9  21   11.46    1.26
  -9   4  21   12.62    1.24
  -9   4  19   37.40    2.91
   9  -4  17   97.25    5.25
   4  -9  15   39.65    3.70
   9  -4  15   45.24    3.72
   9  -4  13  107.12    6.24
   4  -9  13  101.58   10.37
   4  -9  13  102.60    6.24
   9  -4  13  101.86   10.35
   4  -9  11  178.86    8.84
   9  -4  11  167.39    8.72
   9  -4  11  166.91    8.24
   9  -4  11  157.47   13.66
   9  -4   9  214.00   15.73
   4  -9   9  221.44   10.20
   4  -9   9  213.54   15.76
   9  -4   9  218.83    9.58
   9  -4   9  228.26   10.53
   4  -9   7  106.43   10.47
   9  -4   7  101.84    5.19
   4  -9   7  106.66    5.72
   9  -4   7  102.98    6.05
  -4  -9  -7   98.99    5.76
   4  -9   5   45.66    7.02
  -4  -9  -5   37.25    3.30
   9  -4   5   38.41    3.32
   4  -9   5   35.41    2.84
   9  -4   5   45.34    6.46
   9  -4   3   17.78    4.33
   4  -9   3   15.35    4.46
   4  -9   1   95.35    8.97
   9  -4   1  133.41   10.80
   9  -4  -1  116.08   10.56
   9  -4  -3   10.24    3.86
  -4  -9   3   18.79    3.72
  -4  -9   5   44.48    5.92
  -9  -4   5   46.82    3.65
  -9  -4   5   39.84    4.93
  -4  -9   5   50.33    3.66
   9  -4  -5   46.38    7.22
  -9  -4   7   97.33    5.26
   9   4   7  114.56    8.16
  -4  -9   7   92.62    9.49
  -9  -4   7  107.49    8.51
  -4  -9   7  108.39    6.30
  -9  -4   7   93.44    6.23
  -9  -4   9  219.43   10.05
  -9  -4   9  233.89   12.05
  -4  -9   9  228.06   11.44
   9   4   9  232.24   13.34
  -9  -4  11  170.55    8.91
  -4  -9  11  198.43   10.38
  -9  -4  11  195.09   10.63
  -4  -9  11  178.22    8.52
  -4  -9  11  153.62   13.20
  -9  -4  13  100.56    6.24
  -4  -9  13   83.52    9.18
  -4  -9  13   97.91    5.65
  -9  -4  13  108.28    6.92
  -9  -4  15   57.87    4.28
  -9  -4  15   49.91    4.25
  -4  -9  15   44.83    3.63
  -9  -4  17   97.00    5.64
  -4  -9  17  107.44    5.64
  -9  -4  19   38.22    2.66
  -4  -9  19   37.06    2.74
  -4  -9  21   10.24    1.23
  -9   5  20   26.46    2.12
   5  -9  20   29.57    2.13
   5  -9  18   20.76    2.24
   9  -5  18   21.37    2.15
   9  -5  16   79.65    4.90
   5  -9  14   62.31    8.08
   9  -5  14   65.86    4.64
   5  -9  14   68.57    4.86
   9  -5  14   65.23    8.10
   5  -9  12  288.00   12.56
   9  -5  12  272.33   12.18
   5  -9  12  266.05   18.32
   9  -5  12  290.97   19.25
   9  -5  10  105.24   10.95
   5  -9  10  108.99    6.45
   9  -5  10  103.71    5.88
   5  -9  10  113.95   11.05
   9  -5  10  103.54    6.53
  -5  -9  -8   96.16    5.63
   5  -9   8   97.19   10.23
   5  -9   8  101.01    5.85
   9  -5   8  108.27    6.46
   9  -5   8  103.94    5.44
  -5  -9  -6  306.41   12.63
   9  -5   6  299.32   19.09
   5  -9   6  292.82   19.31
   5  -9   6  315.02   12.32
   9  -5   6  303.09   13.05
   9  -5   6  284.53   11.67
   5  -9   4  233.47   17.24
  -9  -5  -4  212.61    9.31
   5  -9   4  214.83    9.13
   9  -5   4  243.99   16.50
   9  -5   4  228.64   10.32
  -5  -9  -4  223.59    9.97
   5  -9   2  177.12   14.28
  -5  -9  -2  194.28    8.11
   9  -5   2  206.52   15.13
  -5  -9  -2  178.22    8.80
  -5  -9   0  420.55   16.74
  -9  -5   0  423.32   16.61
   9  -5   0  422.14   24.43
   5  -9   0  400.20   21.33
  -5  -9   2  196.40    9.25
  -5  -9   2  191.29    7.94
  -5  -9   4  204.04   10.31
  -5  -9   4  207.94   13.19
  -9  -5   4  213.35   11.53
  -5  -9   4  212.91    9.22
  -9  -5   4  204.82    9.06
  -9  -5   6  278.82   15.62
  -5  -9   6  297.37   12.85
   9   5   6  314.85   15.33
  -5  -9   6  307.08   13.36
  -9  -5   6  271.12   12.56
  -5  -9   6  299.25   17.87
  -9  -5   8  119.68    6.08
  -5  -9   8  114.56   10.98
  -5  -9   8  133.24    7.80
  -9  -5  10  118.05    6.71
  -5  -9  10  122.79   11.87
  -5  -9  10  112.25    6.42
  -9  -5  10  125.75    7.86
  -5  -9  10  123.54    8.54
  -9  -5  10  117.18    8.10
  -5  -9  12  278.08   13.97
  -9  -5  12  294.81   12.93
  -5  -9  12  280.38   12.09
  -9  -5  12  300.70   14.23
  -5  -9  12  279.48   18.25
  -9  -5  14   61.46    4.58
  -5  -9  14   57.38    4.12
  -9  -5  14   62.21    4.96
  -9  -5  16   79.27    5.02
  -5  -9  16   77.97    4.79
  -9  -5  16   84.58    5.26
  -5  -9  18   24.61    2.36
  -9  -5  18   20.87    2.15
  -5  -9  20   27.35    2.05
   6  -9  21    2.22    0.65
  -9   6  21    1.50    0.56
   6  -9  19    6.21    1.24
   9  -6  19    6.13    1.11
   6  -9  17   89.89    5.02
   9  -6  17   78.53    4.66
   9  -6  15   23.25    2.69
   6  -9  13   44.21    6.97
   9  -6  13   50.29    4.11
   9  -6  13   44.07    6.96
   9  -6  11  152.78    8.01
   6  -9  11  174.20    8.72
   9  -6  11  149.62   13.68
  -6  -9  -9   75.96    4.82
   6  -9   9   78.38    5.18
   9  -6   9   79.09    4.83
   9  -6   9   69.02    5.34
   6  -9   9   80.51    9.50
   9  -6   7  112.43   11.69
   6  -9   7  123.94    6.43
   9  -6   7  114.12    6.01
   9  -6   7  118.48    7.21
   6  -9   7  126.59   12.12
  -6  -9  -7  122.86    6.54
   9  -6   5   42.02    4.28
   9  -6   5   45.43    7.73
   6  -9   5   51.86    8.38
  -9  -6  -5   42.48    3.52
  -6  -9  -5   50.78    4.00
   6  -9   5   44.72    3.45
   9  -6   3   12.70    2.42
  -9  -6  -3   12.64    1.97
   6  -9   3   13.79    5.43
  -6  -9  -3   15.13    2.34
   9  -6   3   11.69    4.44
   9  -6   1  208.19   17.59
  -9  -6  -1  226.87    9.11
  -9  -6  -1  211.67   10.02
  -6  -9  -1  240.70    9.51
   9  -6   1  212.35   11.03
   6  -9   1  209.37   16.41
  -9  -6   1  240.42    9.30
  -6  -9   1  245.78   10.99
   9  -6  -3    8.90    4.80
  -6  -9   3   11.09    2.61
  -9  -6   3   11.39    2.93
  -9  -6   3   12.36    1.86
  -6  -9   3    9.90    1.75
  -6  -9   5   48.72    5.01
  -9  -6   5   35.03    5.64
  -6  -9   5   46.89    3.96
  -9  -6   5   41.29    3.76
  -6  -9   7  146.47    7.73
  -6  -9   7  143.88    7.92
  -9  -6   9   75.51    4.77
  -9  -6   9   64.53    5.99
  -9  -6   9   79.17    6.28
  -6  -9   9   75.09    6.65
  -9  -6  11  156.48    8.31
  -6  -9  11  172.85    8.30
  -9  -6  11  185.93   10.63
  -6  -9  13   55.60    4.05
  -9  -6  13   55.36    4.39
  -9  -6  13   63.39    5.47
  -9  -6  15   23.97    2.73
  -9  -6  15   24.21    3.04
  -6  -9  15   21.00    2.42
  -6  -9  17   85.54    4.78
  -9  -6  17   86.10    4.97
  -9  -6  19    5.22    1.00
  -6  -9  19    6.39    1.19
   7  -9  20   15.57    1.39
   9  -7  20   12.45    1.18
  -9   7  20   15.99    1.45
   9  -7  18   35.90    2.62
   7  -9  18   30.14    2.61
   9  -7  16   83.99    4.96
   7  -9  16   86.40    5.10
   9  -7  14   96.39    5.82
   9  -7  12  170.72    8.56
   7  -9  12  144.02   13.39
   9  -7  12  150.60   13.61
   7  -9  10  266.16   12.12
   7  -9  10  271.15   18.92
   9  -7  10  284.17   11.99
  -7  -9  -8  217.03    9.92
   7  -9   8  224.61   10.11
   9  -7   8  222.18    9.80
   9  -7   8  216.20   10.94
   7  -9   8  240.23   17.79
   9  -7   8  227.19   17.51
  -9  -7  -6   81.25    5.08
   9  -7   6   79.53   10.46
   7  -9   6   89.10    5.26
   9  -7   6   82.02    6.16
   9  -7   6   83.31    4.82
   7  -9   6   89.43   11.12
  -7  -9  -6   86.33    5.42
   7  -9   4  167.96   15.58
  -9  -7  -4  156.98    7.69
   9  -7   4  155.60    8.99
   9  -7   4  173.49   15.68
   7  -9   4  147.16    7.06
  -7  -9  -4  152.96    7.87
   7  -9   2  483.21   29.84
   9  -7   2  474.58   29.62
   7  -9   2  465.69   19.94
  -7  -9  -2  459.84   16.81
  -9  -7  -2  454.40   16.52
  -9  -7  -2  430.35   17.48
   9  -7   2  424.40   19.18
  -7  -9  -2  448.03   17.88
   7  -9   0   77.12   10.02
  -7  -9   0   82.55    5.95
  -9  -7   0   88.29    6.05
   9  -7   0   51.01   10.50
  -7  -9   0   91.87    5.07
  -9  -7   0   92.87    4.87
   9  -7   0   65.56    6.31
  -7  -9   2  396.28   17.41
  -9  -7   2  403.06   15.35
  -9  -7   2  433.15   17.89
  -9  -7   4  151.60    9.86
  -7  -9   4  134.50    8.81
  -9  -7   4  131.90    7.00
  -7  -9   4  137.68    7.15
  -7  -9   6  123.79    8.57
  -7  -9   6  111.67    6.94
  -9  -7   8  190.92    9.42
  -7  -9   8  213.76    9.34
  -7  -9   8  193.57    9.99
  -9  -7  10  256.26   12.13
  -9  -7  10  251.26   13.12
  -9  -7  12  163.79    7.61
  -7  -9  12  169.27    7.32
  -9  -7  12  179.13    9.81
  -9  -7  14   98.44    5.69
  -7  -9  14   80.84    6.13
  -9  -7  14  112.87    6.86
  -7  -9  14   95.03    5.47
  -7  -9  16   79.03    4.57
  -9  -7  16   77.83    4.93
  -7  -9  18   25.13    2.20
  -9  -7  18   27.40    2.15
   9  -8  19   87.07    4.06
   8  -9  19   89.79    4.15
   9  -8  17   52.75    3.49
   8  -9  17   58.90    3.70
   8  -9  15   27.50    2.91
   9  -8  15   29.49    2.92
   9  -8  13  196.71    9.51
   8  -9  13  194.07    9.45
   9  -8  11  237.42   10.79
   8  -9  11  203.55   16.62
   8  -9   9   61.95    8.87
   8  -9   9   56.68    4.38
   9  -8   9   57.76    4.31
   9  -8   9   54.57    8.54
   9  -8   7  343.26   23.95
  -8  -9  -7  377.90   15.22
  -9  -8  -7  382.07   15.09
   8  -9   7  381.29   15.05
   9  -8   7  367.40   16.51
   8  -9   7  359.86   24.35
   8  -9   5  311.16   22.52
  -9  -8  -5  290.04   12.31
   9  -8   5  297.51   22.09
   9  -8   5  296.26   14.17
   8  -9   5  299.51   11.95
   9  -8   5  275.42   11.68
  -8  -9  -5  279.06   12.43
  -9  -8  -3   13.72    2.35
  -8  -9  -3   14.69    2.44
  -9  -8  -3   17.00    1.98
   8  -9   3   15.53    5.91
   9  -8   3   19.87    6.71
   8  -9   3    9.02    2.80
   9  -8   3   21.28    3.63
   8  -9   1  494.10   31.71
  -9  -8  -1  481.94   19.35
   9  -8   1  450.07   32.22
  -9  -8  -1  498.28   18.08
  -8  -9  -1  483.62   19.50
  -8  -9  -1  506.11   18.23
   9  -8   1  444.16   21.58
  -8  -9   1  497.60   20.04
  -8  -9   1  474.66   17.98
  -9  -8   1  474.52   17.91
  -9  -8   3    9.61    1.82
  -9  -8   3    7.38    2.88
  -8  -9   3    7.43    1.66
  -8  -9   3    7.50    2.87
  -9  -8   5  265.72   15.27
  -8  -9   5  286.62   12.52
  -8  -9   5  286.11   15.15
  -9  -8   5  259.63   12.00
  -8  -9   7  420.15   17.72
  -8  -9   7  384.14   16.09
  -9  -8   7  374.31   15.77
  -9  -8   9   58.65    5.55
  -9  -8   9   61.53    5.99
  -8  -9   9   72.20    6.55
  -9  -8  11  234.08   12.76
  -8  -9  11  185.97   12.26
  -9  -8  13  181.91    8.70
  -8  -9  13  184.94    8.57
  -9  -8  13  196.81   10.35
  -9  -8  15   27.82    2.69
  -8  -9  15   31.28    2.76
  -8  -9  15   33.09    3.25
  -9  -8  15   34.80    3.38
  -8  -9  17   50.84    3.21
  -9  -8  17   52.25    3.32
   9  -9  18   13.99    1.54
   9  -9  16   20.56    2.26
   9  -9  14  108.70    6.15
   9  -9  12   68.94    5.07
   9  -9  10  162.77   14.66
  -9  -9  -8   93.06    5.67
   9  -9   8  109.48   12.49
   9  -9   6    7.19    1.73
   9  -9   6    5.65    4.42
  -9  -9  -6    7.13    1.77
  -9  -9  -4   80.31    5.40
   9  -9   4   77.96    6.75
   9  -9   4   88.26    4.97
  -9  -9  -2   82.02    5.62
   9  -9   2   73.38    7.03
  -9  -9  -2   83.54    4.78
  -9  -9   0  353.77   13.97
  -9  -9   2  100.91    7.44
  -9  -9   2   97.89    5.60
  -9  -9   4  103.61    8.57
  -9  -9   4  114.12    6.48
  -9  -9   6   11.68    3.95
  -9  -9   8   93.82    7.56
  -9  -9   8  111.34    7.78
  -9  -9  10  157.88   10.33
  -9  -9  12   65.95    5.99
  -9  -9  14   91.42    6.08
  -9  -9  16   15.50    1.93
   0 -10   0  142.04    8.65
   0 -10   2   27.18    4.36
  10   0   4  718.83   30.73
   0 -10   4  751.12   33.13
   0 -10   6  242.92   16.71
  10   0   6  253.90   14.78
  10   0   8   26.10    4.70
   0 -10   8   25.56    5.95
   0 -10   8   23.93    2.68
  10   0   8   18.77    2.37
  10   0  10  413.97   22.13
   0 -10  10  420.76   16.21
   0 -10  10  421.33   23.86
  10   0  10  391.76   15.91
   0 -10  12  159.75    7.82
  10   0  12  144.98   11.94
   0 -10  12  155.88   12.95
  10   0  12  148.87    7.61
   0 -10  14  504.58   27.01
   0 -10  14  538.34   20.21
   0 -10  16   19.73    2.50
 -10   0  16   19.85    2.65
   0 -10  18   44.93    3.24
 -10   0  18   45.56    3.37
   0 -10  20   78.06    3.95
 -10   0  20   72.86    3.89
 -10   1  21    9.11    1.06
   1 -10  21    9.40    1.17
   1 -10  19   57.12    3.55
 -10   1  19   58.72    3.68
   1 -10  17  112.48    6.06
 -10   1  17  118.46    6.28
   1 -10  15  511.39   19.49
  10  -1  13   96.77    9.61
   1 -10  13  106.83    6.19
   1 -10  13  106.30   10.48
  10  -1  13  101.05    5.87
  10  -1  11  105.52   10.38
   1 -10  11  115.12    6.47
  10  -1  11  110.51    6.37
  10  -1   9  629.67   30.09
   1 -10   9  647.00   23.69
   1 -10   9  659.52   31.74
  10  -1   9  625.72   23.46
  10  -1   7  277.24   16.24
   1 -10   7  250.36   11.21
  10  -1   7  258.79   10.93
   1 -10   5  186.37   14.05
  10  -1   5  193.97   12.66
   1 -10   3  258.95   15.75
   1 -10   1  191.99   11.58
  -1 -10   1  152.41    9.63
  -1 -10   3  311.31   17.13
 -10  -1   5  172.61    8.27
  -1 -10   5  166.22   12.80
  10   1   5  183.85   11.58
  10   1   7  303.81   16.85
  -1 -10   7  313.00   19.77
  10   1   9  637.28   28.75
  -1 -10   9  606.20   22.68
  10   1   9  606.37   22.41
  10   1  11  122.15   10.47
  -1 -10  11  125.88    6.59
 -10  -1  11  121.54    6.95
  10   1  11  116.84    6.34
  -1 -10  13  119.52    6.39
  -1 -10  13  108.87   10.59
 -10  -1  13  103.89    6.08
 -10  -1  13  107.71    6.69
 -10  -1  15  478.54   19.12
  -1 -10  15  505.73   18.80
  -1 -10  17  116.14    6.12
 -10  -1  17  125.22    6.44
  -1 -10  19   60.11    3.59
 -10  -1  19   55.31    3.49
 -10  -1  21    5.69    0.87
  -1 -10  21    9.51    1.12
   2 -10  20   51.05    3.04
 -10   2  20   54.41    3.10
   2 -10  18   13.80    1.92
 -10   2  18   16.28    2.13
   2 -10  16   23.73    2.75
   2 -10  14  214.37   15.68
   2 -10  14  229.36   10.39
   2 -10  12  178.09    8.82
  10  -2  12  169.12   13.71
  10  -2  12  173.88    8.77
  10  -2  12  179.38    8.65
   2 -10  10  350.62   14.32
   2 -10  10  297.38   19.80
  10  -2  10  335.25   13.59
  10  -2  10  350.25   20.76
  10  -2  10  338.96   14.15
   2 -10   8   40.81    3.65
  10  -2   8   41.32    6.35
  10  -2   8   42.84    3.12
  10  -2   8   41.69    3.48
   2 -10   8   48.58    7.05
   2 -10   6  133.96    6.72
   2 -10   6  145.10   12.81
  10  -2   6  141.86   11.01
  10  -2   6  125.71    5.90
  -2 -10  -4  572.78   21.37
   2 -10   4  503.69   27.02
  10  -2   2  194.80   12.42
   2 -10   2  178.66   12.27
  -2 -10  -2  180.07    9.00
  -2 -10   0   73.18    5.70
  10  -2   0   71.93    7.17
   2 -10   0   83.17    6.61
 -10  -2   2  158.71    8.41
  -2 -10   2  186.41   11.16
  -2 -10   4  471.44   22.89
 -10  -2   4  409.98   18.21
 -10  -2   4  453.66   16.76
 -10  -2   6   98.60    7.14
  -2 -10   6   93.02    5.36
  10   2   6  107.82    8.51
  -2 -10   6  106.66   10.28
 -10  -2   6   98.55    5.88
  -2 -10   8   27.00    5.68
 -10  -2   8   23.46    3.65
  10   2   8   20.20    3.90
 -10  -2   8   26.89    3.30
 -10  -2  10  326.89   14.03
  -2 -10  10  305.82   12.78
  10   2  10  324.69   18.11
 -10  -2  10  304.91   14.26
  10   2  10  308.68   12.55
 -10  -2  12  165.78    8.37
  -2 -10  12  161.69   13.38
 -10  -2  12  145.71    8.66
  -2 -10  12  171.58    8.04
  -2 -10  14  187.27    8.61
  -2 -10  14  161.14   13.00
 -10  -2  14  180.81    9.14
  -2 -10  16   26.77    2.72
 -10  -2  16   29.76    3.03
  -2 -10  18   16.63    2.06
 -10  -2  18   14.04    1.94
  -2 -10  20   55.17    3.09
 -10  -2  20   52.38    2.95
 -10   3  21    8.84    1.05
   3 -10  19   20.55    2.07
 -10   3  19   26.22    2.32
   3 -10  17   33.34    3.00
  10  -3  15   77.97    4.77
   3 -10  15   74.40    5.01
  10  -3  13   20.10    2.73
   3 -10  13   25.10    3.00
  10  -3  13   18.43    4.63
   3 -10  13   24.66    5.35
   3 -10  11   34.32    3.51
  10  -3  11   32.52    3.24
   3 -10  11   31.71    5.91
  10  -3  11   28.87    5.70
  10  -3  11   35.13    3.56
   3 -10   9  265.06   18.04
  10  -3   9  282.20   18.35
   3 -10   9  274.62   12.13
  10  -3   9  268.10   11.29
  10  -3   9  274.08   12.04
   3 -10   7   89.93    5.31
  10  -3   7   73.48    8.62
   3 -10   7   83.29    9.58
  10  -3   7   83.01    4.51
  10  -3   7   76.06    5.02
  -3 -10  -5  100.80    6.03
   3 -10   5   91.72   10.18
   3 -10   5   97.15    5.30
   3 -10   3   79.63    8.83
  10  -3   3  112.90    9.72
  10  -3   1   70.44    7.49
  -3 -10  -1   55.26    4.30
   3 -10   1   52.88    6.15
  -3 -10   1   53.30    5.23
 -10  -3   1   54.64    4.21
  -3 -10   1   47.36    4.10
  -3 -10   1   52.84    3.50
  -3 -10   3   87.50    5.07
  -3 -10   3   98.89    8.39
  10  -3  -3  105.76    9.51
 -10  -3   3   95.79    5.06
  -3 -10   3   82.41    5.92
 -10  -3   5   88.74    5.29
 -10  -3   5   89.68    6.80
  -3 -10   5   87.28    5.18
  10   3   5   97.28    7.88
  -3 -10   5   84.57    8.72
  -3 -10   7   65.08    4.77
  -3 -10   7   73.11    8.62
 -10  -3   7   88.91    7.09
 -10  -3   7   78.57    5.41
  10   3   7   75.70    7.10
  -3 -10   9  288.43   19.40
  -3 -10   9  241.63   11.71
 -10  -3   9  238.82   12.21
  10   3   9  267.09   15.34
 -10  -3   9  284.25   13.09
 -10  -3  11   37.46    3.81
  -3 -10  11   36.16    3.21
  -3 -10  13   20.06    2.55
  -3 -10  13   13.59    4.11
 -10  -3  13   22.10    3.21
  -3 -10  15   68.13    4.50
 -10  -3  15   74.47    5.06
 -10  -3  17   23.00    2.54
  -3 -10  17   24.98    2.44
  -3 -10  19   20.59    1.95
 -10  -3  19   16.20    1.77
  -3 -10  21    8.43    1.06
 -10   4  20   40.23    2.51
   4 -10  18    3.70    1.30
  10  -4  16   74.78    4.54
   4 -10  16   72.33    4.77
   4 -10  14  123.54    6.84
  10  -4  14  115.50    6.46
  10  -4  12  146.96   13.15
   4 -10  12  168.86    8.57
  10  -4  12  159.66    8.22
  10  -4  12  161.79    8.45
  10  -4  10  243.95   17.91
   4 -10  10  274.07   12.32
   4 -10  10  241.60   17.56
  10  -4  10  271.69   11.61
  10  -4  10  276.87   12.28
   4 -10   8  283.96   11.89
   4 -10   8  268.51   18.23
  10  -4   8  257.96   17.78
  10  -4   8  261.53   10.95
  10  -4   8  259.11   11.87
   4 -10   6   34.13    6.53
  -4 -10  -6   33.42    3.38
   4 -10   6   31.07    2.91
  10  -4   6   26.15    2.41
   4 -10   4  464.90   26.45
  -4 -10  -4  497.34   19.17
 -10  -4  -4  496.76   18.17
  10  -4   4  500.50   25.63
   4 -10   4  472.44   18.01
  10  -4   4  499.27   18.97
 -10  -4  -2  437.38   16.83
   4 -10   2  407.34   22.79
 -10  -4   0   49.47    4.01
  -4 -10   0   47.56    4.14
  -4 -10   0   55.43    3.60
  10  -4   0   53.87    7.23
  10  -4  -2  461.52   24.77
  -4 -10   2  423.04   17.90
 -10  -4   2  434.86   18.11
  -4 -10   2  433.29   16.58
 -10  -4   2  456.61   16.33
  -4 -10   4  494.06   20.16
 -10  -4   4  509.16   21.12
  10  -4  -4  528.79   27.47
  -4 -10   4  494.74   24.14
  -4 -10   4  480.43   18.66
 -10  -4   4  505.13   18.65
 -10  -4   6   14.28    3.70
  -4 -10   6   13.45    4.05
  10   4   6   18.38    3.61
  -4 -10   6   19.54    2.70
 -10  -4   6   13.20    2.42
 -10  -4   8  306.41   14.87
  -4 -10   8  253.69   18.26
 -10  -4   8  287.81   13.06
  -4 -10   8  264.74   12.84
  10   4   8  301.20   15.99
  -4 -10  10  259.58   13.23
 -10  -4  10  280.35   13.18
  -4 -10  12  129.11   11.74
  -4 -10  12  131.92    6.76
 -10  -4  12  125.69    7.96
  -4 -10  14  105.16    5.84
 -10  -4  14  109.01    6.66
 -10  -4  16   75.71    4.92
  -4 -10  16   76.59    4.60
 -10  -4  18    4.63    1.25
  -4 -10  18    5.24    1.28
  -4 -10  20   38.27    2.34
 -10  -4  20   37.54    2.21
 -10   5  19   83.01    4.34
  10  -5  17   91.05    4.87
   5 -10  15   15.66    2.43
  10  -5  15   21.05    2.47
   5 -10  13  277.87   11.99
  10  -5  13  268.65   11.74
   5 -10  13  222.94   16.85
  10  -5  13  230.90   17.01
  10  -5  11  260.91   18.87
   5 -10  11  297.59   13.00
  10  -5  11  288.59   12.35
   5 -10  11  281.08   19.08
  10  -5  11  278.27   12.85
   5 -10   9  205.57    9.80
  10  -5   9  195.91   15.72
   5 -10   9  195.60   15.52
  10  -5   9  193.94    9.05
  10  -5   9  209.39   10.11
   5 -10   7  365.65   14.55
   5 -10   7  362.34   22.52
  10  -5   7  344.34   13.80
  -5 -10  -7  358.64   14.76
  -5 -10  -5  499.72   19.43
 -10  -5  -5  512.36   18.57
  10  -5   5  525.91   27.46
   5 -10   5  497.37   28.66
   5 -10   5  476.73   18.57
  10  -5   5  495.70   19.72
  10  -5   3   60.45    8.36
   5 -10   3   47.39    7.73
 -10  -5  -3   57.83    3.98
  -5 -10  -3   56.23    4.45
   5 -10   3   56.14    3.64
  10  -5   3   61.00    4.73
  -5 -10  -1  616.25   23.43
 -10  -5  -1  583.01   22.74
 -10  -5  -1  632.65   21.61
  10  -5   1  660.00   32.86
   5 -10   1  580.20   28.95
  -5 -10   1  545.38   21.81
 -10  -5   1  570.23   21.88
 -10  -5   1  556.28   19.99
  -5 -10   1  558.94   20.40
  10  -5  -1  551.87   30.67
  -5 -10   3   43.33    4.43
  -5 -10   3   49.91    3.66
 -10  -5   3   50.46    5.02
 -10  -5   3   48.36    3.44
  10  -5  -3   35.10    7.16
  -5 -10   5  479.38   24.73
  -5 -10   5  493.19   19.11
 -10  -5   5  478.59   21.98
 -10  -5   5  481.70   18.91
  -5 -10   5  518.68   20.66
  10   5   7  367.43   18.46
 -10  -5   7  385.64   18.99
  -5 -10   7  369.06   16.01
 -10  -5   7  360.44   15.58
  -5 -10   7  355.35   21.27
  -5 -10   9  191.85   15.22
 -10  -5   9  175.40   10.52
  -5 -10   9  178.23   10.33
  -5 -10  11  255.83   18.17
 -10  -5  11  263.77   12.47
  -5 -10  11  283.01   14.03
 -10  -5  11  256.15   13.29
  -5 -10  13  231.48   10.37
 -10  -5  13  252.72   11.91
  -5 -10  15   25.60    2.56
 -10  -5  15   23.43    2.94
  -5 -10  17   88.82    4.79
 -10  -5  17   83.87    4.90
  -5 -10  19   80.65    3.99
 -10  -5  19   76.73    3.85
   6 -10  20   16.21    1.41
 -10   6  20   18.08    1.52
  10  -6  18   16.19    1.80
  10  -6  16   41.20    3.25
   6 -10  14   41.28    3.68
  10  -6  14   39.19    3.56
   6 -10  12  208.16    9.91
  10  -6  12  186.20    9.32
  10  -6  10   70.73    9.52
   6 -10  10   83.87    5.76
  10  -6  10   84.04    5.28
   6 -10  10   75.44    9.54
  10  -6  10   86.69    5.92
   6 -10   8   87.45   10.57
  10  -6   8  104.60   11.54
  -6 -10  -8   97.27    5.98
   6 -10   8  108.92    6.18
  10  -6   8  101.24    5.62
  -6 -10  -6  126.05    7.17
 -10  -6  -6  110.95    6.28
   6 -10   6  124.06    6.68
   6 -10   6  138.73   13.51
  10  -6   6  123.37    7.73
  10  -6   6  124.04    6.23
  10  -6   6  130.46   13.57
  -6 -10  -4  291.03   12.47
 -10  -6  -4  280.70   11.75
  10  -6   4  304.59   20.99
   6 -10   4  272.16   11.47
   6 -10   4  276.09   21.21
  10  -6   4  277.15   13.08
 -10  -6  -2  212.39    9.76
 -10  -6  -2  220.35    8.77
  -6 -10  -2  213.60   10.27
  10  -6   2  201.54   17.61
   6 -10   2  181.68   15.93
  10  -6   2  214.38   11.03
  -6 -10   0  209.23   10.14
 -10  -6   0  197.03    9.82
 -10  -6   0  198.77    8.35
  10  -6   0  149.67   16.31
  -6 -10   0  194.87    8.70
  10  -6   0  153.33   10.02
  -6 -10   2  212.11   10.82
  -6 -10   2  221.32    9.29
 -10  -6   2  219.44    9.04
  -6 -10   4  291.98   14.14
 -10  -6   4  292.79   15.09
 -10  -6   4  281.54   12.08
  -6 -10   4  286.30   12.31
  -6 -10   6  144.45    8.90
 -10  -6   6  115.44    9.91
  -6 -10   6  138.49    8.03
  10   6   6  127.12    9.53
 -10  -6   6  130.34    7.55
 -10  -6   8   83.01    7.60
  -6 -10   8  109.21    7.58
 -10  -6  10  100.56    6.91
  -6 -10  10   83.71    7.35
 -10  -6  10   90.49    7.00
 -10  -6  12  193.33   10.30
  -6 -10  12  142.40    9.53
  -6 -10  14   29.45    3.24
 -10  -6  14   24.13    3.14
  -6 -10  14   24.23    2.53
  -6 -10  16   40.90    3.05
 -10  -6  16   42.98    3.46
  -6 -10  18   20.24    1.90
 -10  -6  18   20.40    1.99
   7 -10  19   10.70    1.31
  10  -7  19   10.61    1.19
 -10   7  19   12.58    1.44
   7 -10  17   49.78    3.50
  10  -7  17   50.40    3.33
  10  -7  15   25.92    2.77
   7 -10  13   44.29    3.94
  10  -7  13   36.53    3.61
   7 -10  11   81.58    5.68
  10  -7  11   60.35    8.85
  10  -7  11   71.62    5.08
   7 -10  11   76.21    9.77
  10  -7   9  105.40   12.03
   7 -10   9  108.64    6.60
  10  -7   9  112.16    6.24
   7 -10   9  104.15   11.70
   7 -10   7  122.50    6.69
  10  -7   7  118.53    6.32
  10  -7   7  112.56    7.57
   7 -10   7  116.57   12.82
 -10  -7  -7  113.08    6.27
  10  -7   7  118.57   12.92
  -7 -10  -7  124.46    6.89
  10  -7   5   99.60   12.28
  -7 -10  -5   75.03    5.45
 -10  -7  -5   85.03    5.25
   7 -10   5   76.59   10.98
   7 -10   5   75.77    4.90
  10  -7   5   82.04    6.44
  10  -7   5   85.00    4.85
  10  -7   3   15.43    3.12
  10  -7   3    9.39    5.42
  -7 -10  -3   15.30    2.54
 -10  -7  -3   15.21    2.37
   7 -10   3   18.63    2.09
   7 -10   3   20.23    6.72
 -10  -7  -3   14.94    1.76
 -10  -7  -1   59.34    3.77
   7 -10   1   49.78    8.53
  -7 -10  -1   58.53    4.07
 -10  -7  -1   54.07    4.66
  10  -7   1   27.90    8.13
  10  -7   1   37.56    5.12
  -7 -10   1   63.69    5.46
  -7 -10   1   53.64    3.97
 -10  -7   1   53.00    3.72
 -10  -7   3   15.95    2.20
  -7 -10   3   14.58    3.34
 -10  -7   3   15.26    3.46
  -7 -10   3   15.80    2.29
 -10  -7   5   78.39    7.87
 -10  -7   5   90.02    5.69
  -7 -10   5   80.51    5.84
  -7 -10   5   89.74    7.53
  -7 -10   7  142.17    8.51
  -7 -10   7  124.17    8.09
 -10  -7   9   75.55    6.67
 -10  -7   9   94.34    7.08
  -7 -10   9   89.64    7.73
 -10  -7  11   73.46    6.40
  -7 -10  11   34.90    5.21
 -10  -7  13   39.49    4.27
  -7 -10  13   27.26    3.72
  -7 -10  15   22.56    2.36
 -10  -7  15   27.80    3.06
  -7 -10  15   23.98    2.70
  -7 -10  17   49.83    3.08
 -10  -7  17   46.26    3.26
   8 -10  18   25.87    2.10
  10  -8  18   22.93    1.95
   8 -10  16    7.88    1.67
  10  -8  16    8.19    1.62
  10  -8  14   47.26    3.79
   8 -10  12   89.79    5.99
  10  -8  12   91.84    5.90
   8 -10  10   97.58    6.17
  10  -8  10   92.49    5.84
   8 -10  10   81.29   10.34
  10  -8  10   96.41   11.19
   8 -10   8   65.58    9.79
  10  -8   8   67.12    9.90
   8 -10   8   66.06    4.89
  10  -8   8   69.43    4.70
  -8 -10  -8   68.89    4.86
  -8 -10  -6   32.44    3.56
   8 -10   6   30.98    7.46
   8 -10   6   34.72    3.32
  10  -8   6   31.06    7.62
  10  -8   6   32.04    4.28
 -10  -8  -6   30.94    3.28
   8 -10   4  103.97   13.77
  -8 -10  -4   85.69    5.78
 -10  -8  -4   90.52    5.68
  10  -8   4   88.77    7.11
   8 -10   4   84.59    5.11
  10  -8   4   92.75   13.05
  10  -8   2   38.34    5.28
 -10  -8  -2   51.56    4.36
 -10  -8  -2   53.66    3.59
   8 -10   2   51.90   10.06
  -8 -10  -2   54.70    4.59
  -8 -10   0   73.76    4.75
 -10  -8   0   88.29    6.16
 -10  -8   0   84.84    4.77
  -8 -10   2   56.38    5.57
 -10  -8   2   60.81    5.73
  -8 -10   2   50.42    3.97
 -10  -8   2   55.63    3.95
 -10  -8   4   98.13    8.34
  -8 -10   4   93.85    8.01
 -10  -8   4   97.55    5.84
  -8 -10   6   41.97    5.59
 -10  -8   6   29.93    5.71
  -8 -10   6   40.34    4.47
 -10  -8   6   32.68    3.87
  -8 -10   8   78.17    6.00
  -8 -10   8   74.08    6.47
 -10  -8   8   61.66    5.61
 -10  -8  10   99.32    6.59
  -8 -10  10   79.34    7.47
 -10  -8  10   84.33    6.97
  -8 -10  12   37.63    4.88
 -10  -8  12  101.06    7.03
  -8 -10  14   42.40    4.13
 -10  -8  14   46.14    4.10
  -8 -10  16    8.98    1.50
 -10  -8  16    6.61    1.54
 -10  -8  18   20.51    1.66
   9 -10  19   18.09    1.35
  10  -9  17   24.95    2.11
   9 -10  17   26.79    2.20
  10  -9  15   40.78    3.26
   9 -10  15   39.96    3.22
  10  -9  13    8.24    2.06
  10  -9  11   49.33    4.16
   9 -10   9   23.86    6.20
  10  -9   9   20.26    5.54
  -9 -10  -9   25.27    2.94
   9 -10   9   27.38    3.25
  -9 -10  -7  110.57    6.51
 -10  -9  -7  112.36    6.33
   9 -10   7  106.67    6.32
   9 -10   7   99.70   12.94
  10  -9   7  110.26   13.28
  -9 -10  -5  129.02    7.37
  10  -9   5  109.78   14.41
  10  -9   5  121.39    8.74
   9 -10   5  131.75    6.87
  10  -9   5  128.56    6.77
 -10  -9  -5  130.12    7.25
   9 -10   5  141.80   16.35
  -9 -10  -3   59.99    4.84
 -10  -9  -3   63.84    4.90
   9 -10   3   55.80   11.63
  10  -9   3   49.33    5.88
   9 -10   3   66.51    4.24
 -10  -9  -1  181.29    9.41
  -9 -10  -1  166.59    9.28
  -9 -10  -1  171.04    7.95
 -10  -9  -1  177.01    7.88
  -9 -10   1  176.73   10.14
 -10  -9   1  157.51    7.89
  -9 -10   1  170.54    8.08
  -9 -10   3   61.91    6.77
 -10  -9   3   62.78    6.65
  -9 -10   3   61.78    4.56
 -10  -9   3   60.07    4.44
  -9 -10   5  142.94   10.89
 -10  -9   5  143.42    7.89
 -10  -9   5  131.71   10.54
  -9 -10   7   93.01    7.54
  -9 -10   7  105.12    6.96
  -9 -10   9   24.49    3.57
 -10  -9   9   24.69    3.59
 -10  -9   9   21.82    3.89
  -9 -10   9   26.56    4.40
 -10  -9  11   51.92    5.40
  -9 -10  11   38.31    5.23
  -9 -10  13   10.43    2.60
 -10  -9  13   12.52    2.70
  -9 -10  15   32.82    2.94
 -10  -9  15   32.73    3.02
 -10  -9  17   27.09    2.04
  10 -10  18   20.84    1.54
  10 -10  16   83.17    4.38
  10 -10  14  117.16    6.22
 -10 -10  -8  204.67    9.76
  10 -10   8  215.35    9.99
  10 -10   8  206.04   18.47
 -10 -10  -6   30.00    3.28
  10 -10   6   28.08    3.01
 -10 -10  -4  372.66   15.34
  10 -10   4  371.46   14.53
 -10 -10  -2  419.22   17.69
 -10 -10   0  971.31   34.12
 -10 -10   2  371.06   18.27
 -10 -10   2  377.23   15.19
 -10 -10   4  339.98   14.41
 -10 -10   4  327.97   17.97
 -10 -10   6   18.18    4.54
 -10 -10   8  124.11    9.11
 -10 -10   8  179.74    9.91
 -10 -10  10  325.60   15.94
 -10 -10  12   12.58    2.82
 -10 -10  14  107.61    6.15
 -10 -10  16   75.66    3.97
   0 -11   1  194.60   11.58
 -11   0  -1  182.14    8.47
   0 -11   3   30.46    5.24
 -11   0   5  252.60   11.06
   0 -11   5  231.04   16.40
  11   0   5  273.16   15.63
   0 -11   7  160.31   14.04
  11   0   7  151.68   11.70
  11   0   9  229.62   15.23
   0 -11   9  225.91   16.81
   0 -11   9  206.06    9.60
  11   0   9  209.35    9.64
  11   0  11   55.54    7.43
   0 -11  11   51.11    3.96
   0 -11  11   56.41    7.95
  11   0  11   54.99    4.14
   0 -11  13    6.73    1.84
 -11   0  13    6.93    1.85
   0 -11  13    3.08    2.74
  11   0  13    5.76    1.57
   0 -11  15  161.27    7.75
 -11   0  15  154.08    7.97
   0 -11  17   13.48    1.91
 -11   0  17   13.53    2.08
 -11   0  19   71.19    3.85
   0 -11  19   67.62    3.75
   1 -11  20   27.08    1.97
 -11   1  20   28.80    2.01
   1 -11  18   10.03    1.66
 -11   1  18    9.31    1.68
   1 -11  16   18.95    2.35
 -11   1  16   21.13    2.60
 -11   1  14  184.90    8.82
   1 -11  14  203.94    9.22
   1 -11  12   30.12    3.21
  11  -1  12   24.05    2.90
  11  -1  12   18.59    4.88
   1 -11  10  303.81   12.98
  11  -1  10  300.76   19.11
   1 -11  10  315.74   20.07
  11  -1  10  306.97   13.06
   1 -11   8   31.77    6.30
  11  -1   8   30.92    5.46
   1 -11   8   27.05    2.91
  11  -1   8   25.96    2.80
  11  -1   6   18.70    4.35
   1 -11   6   27.98    5.82
   1 -11   4  304.93   18.73
  -1 -11  -2  228.17   10.86
  11  -1   2  220.62   13.80
   1 -11   2  217.24   13.76
 -11  -1  -2  210.41    9.31
  -1 -11   0  506.85   20.37
 -11  -1   0  498.53   19.13
  -1 -11   2  233.04   13.53
 -11   1  -2  217.75    9.33
 -11  -1   2  199.04   10.21
  -1 -11   2  229.37   11.11
  -1 -11   4  313.33   18.55
  11   1   4  294.00   16.78
 -11  -1   4  315.43   12.63
  11   1   6    9.02    3.01
  -1 -11   6    8.51    3.84
 -11  -1   6   12.91    2.30
  11   1   8   26.99    4.98
 -11  -1   8   30.17    3.59
  -1 -11   8   38.85    6.94
  11   1   8   31.51    2.94
  -1 -11  10  277.30   11.86
 -11  -1  10  286.63   13.33
 -11  -1  10  281.77   12.75
  -1 -11  10  275.55   19.08
  11   1  10  292.51   17.69
  11   1  10  277.42   11.86
  -1 -11  12   26.69    2.97
 -11  -1  12   25.03    2.99
 -11  -1  12   22.49    3.29
  11   1  12   23.87    2.67
  -1 -11  14  193.43    8.76
 -11  -1  14  176.34    9.08
  -1 -11  16   20.30    2.39
 -11  -1  16   26.43    2.80
  -1 -11  18    8.80    1.54
 -11  -1  18    8.49    1.63
  -1 -11  20   35.02    2.22
 -11  -1  20   33.48    2.19
   2 -11  19   60.26    3.48
 -11   2  19   64.86    3.66
   2 -11  17   12.97    1.97
 -11   2  17   11.69    2.03
   2 -11  15   59.04    4.28
  11  -2  13   55.12    7.57
   2 -11  13   68.04    4.72
  11  -2  11  187.09   14.97
   2 -11  11  227.80   10.19
   2 -11  11  196.79   15.43
  11  -2  11  203.41    9.93
   2 -11   9   50.77    4.24
  11  -2   9   56.03    7.71
  11  -2   9   58.25    3.99
   2 -11   9   56.80    8.05
  11  -2   9   58.32    4.37
  11  -2   7   10.74    1.98
  11  -2   7    8.93    3.50
  11  -2   7   10.06    1.56
   2 -11   7    5.58    3.68
   2 -11   7   10.56    2.10
   2 -11   5  390.60   23.02
 -11  -2  -3   71.57    4.40
   2 -11   3   68.73    7.96
  11  -2   3   73.39    7.82
  -2 -11  -1  175.57    9.28
  11  -2   1  169.86   12.16
 -11  -2  -1  180.23    8.39
   2 -11   1  182.27   11.73
  -2 -11   1  150.70    9.74
 -11  -2   1  153.73    7.96
  11  -2  -1  147.75   11.34
  -2 -11   1  151.81    8.42
  -2 -11   3   68.51    5.51
 -11  -2   3   65.61    4.09
 -11  -2   3   60.96    5.19
  -2 -11   3   66.46    4.36
  -2 -11   3   66.82    7.11
  11   2   5  454.34   21.54
  -2 -11   5  435.13   23.42
 -11  -2   5  408.86   18.14
  -2 -11   5  410.49   16.31
 -11  -2   5  427.93   16.62
 -11  -2   7   20.47    3.63
  -2 -11   7   19.09    5.17
 -11  -2   7   20.28    2.92
  11   2   7   25.14    4.50
 -11  -2   9   61.99    5.23
  11   2   9   70.84    7.77
  -2 -11   9   48.95    8.19
 -11  -2   9   58.72    5.07
  11   2   9   61.11    4.17
  -2 -11  11  172.46   14.52
 -11  -2  11  186.21    9.39
  -2 -11  11  188.46    8.77
 -11  -2  11  192.66   10.20
  -2 -11  13   58.09    4.08
  -2 -11  13   48.23    7.07
 -11  -2  13   63.19    4.39
  -2 -11  15   57.00    3.95
 -11  -2  15   62.41    4.50
  -2 -11  17   11.59    1.82
 -11  -2  17   10.64    1.83
  -2 -11  19   68.22    3.64
 -11  -2  19   67.27    3.68
   3 -11  20   13.52    1.36
 -11   3  20   15.08    1.43
   3 -11  18   41.42    2.92
 -11   3  18   42.22    3.14
   3 -11  16   42.06    3.43
   3 -11  14   24.86    2.82
  11  -3  14   24.66    2.66
   3 -11  12   62.27    4.68
  11  -3  12   57.39    4.36
  11  -3  12   56.50    7.84
  11  -3  12   56.42    4.53
   3 -11  12   54.96    7.71
   3 -11  10  141.12    7.85
   3 -11  10  153.16   13.37
  11  -3  10  144.18    7.42
  11  -3  10  156.28    8.16
  11  -3  10  145.53   13.10
  11  -3   8   71.72    8.74
   3 -11   8   74.18    5.09
  11  -3   8   64.79    4.27
  11  -3   8   64.50    4.84
   3 -11   8   66.84    9.05
   3 -11   6  148.89    7.40
  11  -3   6  144.87    6.62
  11  -3   6  127.45    7.20
   3 -11   4  242.42   17.56
  11  -3   4  278.53   17.51
 -11  -3  -4  283.16   11.34
  -3 -11  -4  270.41   12.45
 -11  -3  -2  152.06    7.49
   3 -11   2  148.78   11.68
  -3 -11  -2  151.80    8.35
  11  -3   2  153.23   12.11
  11  -3   0  375.49   20.55
 -11  -3   0  351.67   14.54
  -3 -11   0  347.26   15.20
  -3 -11   2  185.54   11.65
  -3 -11   2  174.11    9.46
 -11  -3   2  171.34    9.17
  -3 -11   2  176.39    8.20
 -11  -3   2  171.86    7.66
  11  -3  -2  179.64   13.38
  -3 -11   4  256.68   11.25
  -3 -11   4  276.44   16.54
 -11  -3   4  226.41   12.48
  11  -3  -4  277.88   17.54
 -11  -3   4  274.96   11.21
  -3 -11   4  283.67   12.72
  11   3   6  135.04   10.21
  -3 -11   6  142.90   12.29
 -11  -3   6  131.99    8.77
  -3 -11   6  126.14    7.06
 -11  -3   6  136.88    7.40
  -3 -11   8   70.84    9.26
 -11  -3   8   70.01    6.31
  -3 -11   8   61.10    4.94
 -11  -3   8   60.92    5.28
  11   3   8   76.59    7.72
 -11  -3  10  151.32    8.56
  -3 -11  10  145.52   13.39
 -11  -3  10  139.77    8.60
  -3 -11  12   56.86    4.12
 -11  -3  12   63.68    4.65
 -11  -3  14   23.81    3.00
  -3 -11  14   19.75    2.40
  -3 -11  16   33.31    2.81
 -11  -3  16   32.09    3.03
  -3 -11  18   41.58    2.84
 -11  -3  18   40.58    2.91
  -3 -11  20   14.68    1.37
 -11  -3  20   16.27    1.38
   4 -11  19   77.33    3.92
 -11   4  19   77.66    4.02
   4 -11  17   34.97    2.95
   4 -11  15   40.65    3.48
  11  -4  15   35.86    3.12
   4 -11  13  198.94    9.50
  11  -4  13  190.19    9.17
  11  -4  11  118.41   11.86
   4 -11  11  117.90    6.97
   4 -11  11  117.90   11.75
  11  -4  11  117.11    6.64
  11  -4  11  118.74    7.07
  11  -4   9   50.63    7.97
   4 -11   9   58.92    4.86
  11  -4   9   56.62    4.11
  11  -4   9   57.80    4.76
   4 -11   9   48.83    7.79
   4 -11   7  377.43   15.60
   4 -11   7  401.56   24.42
  11  -4   7  388.58   14.84
  -4 -11  -5  546.67   20.98
 -11  -4  -5  532.00   19.64
  11  -4   5  562.52   28.49
   4 -11   5  536.59   29.71
   4 -11   5  506.46   19.90
  11  -4   5  546.33   20.73
 -11  -4  -3  203.75    9.14
  11  -4   3  195.17   15.05
   4 -11   3  191.69   14.95
   4 -11   3  198.26    8.80
  -4 -11  -1  504.72   20.58
 -11  -4  -1  520.81   19.82
  11  -4   1  547.76   27.92
  -4 -11   1  510.16   21.11
 -11  -4   1  510.19   20.73
  -4 -11   1  534.68   19.76
 -11  -4   1  538.09   19.12
  11  -4  -1  560.31   28.57
  11  -4  -3  191.27   15.25
  -4 -11   3  182.54   10.06
  -4 -11   3  192.52   12.76
  -4 -11   3  193.47    8.83
 -11  -4   3  178.68    8.37
  -4 -11   5  539.60   21.46
 -11  -4   5  546.54   22.88
  11   4   5  577.42   25.41
  -4 -11   5  545.29   27.06
  -4 -11   5  497.78   20.37
 -11  -4   5  539.26   20.41
  -4 -11   7  426.77   24.55
  -4 -11   7  412.77   17.98
 -11  -4   7  432.25   17.99
  11   4   7  452.31   21.97
 -11  -4   9   74.93    6.16
  -4 -11   9   56.51    5.27
  -4 -11   9   51.35    8.36
 -11  -4   9   54.81    5.22
 -11  -4  11  119.70    7.29
  -4 -11  13  175.09    8.29
 -11  -4  13  189.59    9.59
  -4 -11  15   43.95    3.29
 -11  -4  15   40.07    3.62
 -11  -4  17   28.97    2.66
  -4 -11  17   27.51    2.35
  -4 -11  19   72.11    3.63
 -11  -4  19   77.89    3.78
 -11   5  20   43.44    2.38
   5 -11  18   24.56    2.20
 -11   5  18   23.49    2.26
  11  -5  16  149.23    6.93
   5 -11  16  153.52    7.29
   5 -11  14   99.07    6.06
  11  -5  14  105.63    6.00
   5 -11  12   86.64    5.64
  11  -5  12   63.32    8.77
  11  -5  12   83.35    5.39
   5 -11  12   77.93    9.43
   5 -11  10  412.16   16.70
   5 -11  10  384.90   23.68
  11  -5  10  391.91   15.90
  11  -5  10  396.64   16.69
  11  -5  10  377.60   23.85
   5 -11   8  276.88   12.35
   5 -11   8  274.09   19.61
  11  -5   8  276.31   11.62
   5 -11   6   72.78   10.35
  -5 -11  -6   72.78    5.29
  11  -5   6   66.99    9.18
   5 -11   6   70.00    4.85
  11  -5   6   71.37    4.38
  11  -5   6   71.09    5.42
  11  -5   4  851.61   39.43
 -11  -5  -4  797.00   28.28
   5 -11   4  703.22   38.01
   5 -11   4  770.73   28.08
  -5 -11  -4  805.65   29.44
  11  -5   4  811.61   29.53
 -11  -5  -2  629.46   23.69
   5 -11   2  584.82   30.71
   5 -11   2  616.46   22.90
 -11  -5   0   57.66    4.83
  -5 -11   0   57.41    4.24
  11  -5   0   60.53    9.02
 -11  -5   0   60.62    3.75
  -5 -11   0   49.48    4.92
  -5 -11   2  596.99   24.56
  -5 -11   2  628.07   22.88
 -11  -5   2  602.49   24.51
 -11  -5   2  635.86   22.45
  11  -5  -2  631.53   34.36
  -5 -11   4  778.99   30.39
  -5 -11   4  758.31   28.45
 -11  -5   4  807.70   28.22
 -11  -5   4  780.56   30.96
  -5 -11   6   79.20    5.85
  11   5   6   81.11    7.73
 -11  -5   6   79.17    7.49
  -5 -11   6   73.50    5.59
 -11  -5   6   79.77    5.49
  -5 -11   8  254.33   13.33
 -11  -5   8  281.14   13.15
  -5 -11   8  268.68   19.06
 -11  -5  10  440.70   18.32
  -5 -11  10  404.36   24.89
  -5 -11  10  397.70   18.77
 -11  -5  12   78.53    5.34
  -5 -11  12   84.30    6.05
 -11  -5  12   82.62    6.18
  -5 -11  14   81.45    4.86
 -11  -5  14   90.13    5.82
 -11  -5  16  147.07    7.10
  -5 -11  16  140.63    6.62
  -5 -11  18   20.86    1.84
 -11  -5  18   22.41    2.02
 -11   6  19   69.21    3.52
   6 -11  17   48.83    3.30
  11  -6  17   48.80    3.04
   6 -11  15   14.02    2.18
  11  -6  15   12.70    1.96
   6 -11  13  184.16    9.18
  11  -6  13  186.68    9.03
  11  -6  11  161.89   14.53
   6 -11  11  165.63   14.59
   6 -11  11  187.78    9.43
  11  -6  11  180.41    8.86
   6 -11   9   50.49    8.07
   6 -11   9   58.91    4.72
  11  -6   9   60.21    4.26
  -6 -11  -7  288.28   12.95
  11  -6   7  292.20   20.64
   6 -11   7  295.49   12.71
   6 -11   7  290.66   21.38
  11  -6   7  285.38   12.02
  11  -6   7  289.40   13.56
  -6 -11  -5  252.15   11.60
 -11  -6  -5  248.62   10.75
  11  -6   5  257.11   19.79
   6 -11   5  251.08   20.55
   6 -11   5  232.11   10.65
  11  -6   5  244.56   12.11
  11  -6   3    7.72    2.50
   6 -11   3    5.43    3.63
 -11  -6  -3    8.76    1.98
  11  -6   3   11.99    5.13
  -6 -11  -3   10.51    2.58
   6 -11   3   13.75    1.93
  -6 -11  -1  274.49   12.97
 -11  -6  -1  270.30   12.29
  11  -6   1  255.43   21.41
 -11  -6  -1  282.91   11.01
  11  -6   1  269.39   13.61
  -6 -11   1  269.00   13.05
 -11  -6   1  277.61   12.80
  -6 -11   1  262.42   11.26
 -11  -6   1  275.63   10.89
  11  -6  -1  225.33   20.81
  11  -6  -1  223.63   12.91
  -6 -11   3   13.88    3.42
 -11  -6   3    9.54    3.30
  -6 -11   3   12.90    2.33
 -11  -6   3   13.13    2.05
 -11  -6   5  213.48   13.30
  -6 -11   5  230.98   12.61
  -6 -11   5  236.98   11.18
 -11  -6   5  236.16   10.72
  -6 -11   7  338.85   14.73
  -6 -11   7  310.26   15.07
 -11  -6   7  341.01   17.76
 -11  -6   7  309.22   14.24
 -11  -6   9   70.24    6.18
  -6 -11   9   60.55    6.09
 -11  -6  11  168.70    9.07
  -6 -11  11  163.54   10.40
 -11  -6  11  173.97    9.99
  -6 -11  13  163.33    9.14
 -11  -6  13  191.42    9.61
 -11  -6  15   24.76    2.80
  -6 -11  15   20.50    2.13
  -6 -11  17   39.03    2.57
 -11  -6  17   39.68    2.90
 -11  -6  19   58.32    2.87
  11  -7  18   20.92    1.71
   7 -11  16   10.83    1.77
  11  -7  16   12.58    1.75
   7 -11  14   40.89    3.60
  11  -7  14   44.07    3.57
   7 -11  12   79.67    5.52
  11  -7  12   73.67    5.15
   7 -11  10   47.39    7.92
   7 -11  10   63.60    4.90
  11  -7  10   59.34    4.53
   7 -11   8   42.25    7.85
   7 -11   8   36.05    3.68
  11  -7   8   38.79    3.43
  11  -7   8   32.70    7.10
  11  -7   8   29.22    3.92
  -7 -11  -8   36.18    3.76
  -7 -11  -6   46.74    4.50
   7 -11   6   50.91    9.55
   7 -11   6   55.10    4.31
  11  -7   6   56.62    5.40
  11  -7   6   53.71    4.03
 -11  -7  -6   45.32    3.91
  11  -7   6   44.18    8.77
  11  -7   4   32.79    4.27
  11  -7   4   28.64    7.41
   7 -11   4   34.76    8.43
 -11  -7  -4   39.04    3.53
  -7 -11  -4   29.04    3.56
   7 -11   4   27.17    2.98
  -7 -11  -2   70.69    5.47
  11  -7   2   51.68   10.28
 -11  -7  -2   62.03    3.92
 -11  -7  -2   68.76    4.93
  11  -7   2   62.42    6.07
   7 -11   2   64.78    4.27
  -7 -11   0   99.69    6.97
 -11  -7   0   94.71    6.45
  -7 -11   0   89.41    5.45
  11  -7   0   37.04    9.81
 -11  -7   0   98.47    5.16
  11  -7   0   50.15    6.24
  -7 -11   2   78.21    6.49
 -11  -7   2   61.74    4.28
  -7 -11   4   16.87    3.88
 -11  -7   4   17.26    4.05
 -11  -7   4   22.33    2.79
  -7 -11   4   20.03    2.85
  -7 -11   6   53.00    5.99
 -11  -7   6   49.07    6.74
  -7 -11   6   53.68    5.23
 -11  -7   6   56.83    4.84
 -11  -7   8   28.93    4.73
  -7 -11   8   35.96    4.98
 -11  -7   8   27.64    3.96
 -11  -7  10   65.83    5.49
  -7 -11  10   58.53    6.37
 -11  -7  10   63.26    5.70
 -11  -7  12   72.17    5.75
  -7 -11  12   28.83    4.18
  -7 -11  14   34.00    3.47
 -11  -7  14   40.39    3.73
 -11  -7  16    9.02    1.68
 -11  -7  18   24.33    1.88
   8 -11  19   21.38    1.46
  11  -8  17   35.37    2.45
  11  -8  15   50.05    3.59
   8 -11  13   16.02    2.51
  11  -8  13   13.70    2.42
   8 -11  11   21.35    2.95
  11  -8  11   30.56    3.27
   8 -11   9   63.84    9.70
  11  -8   9   48.90    8.57
  11  -8   9   66.50    4.78
   8 -11   9   62.84    4.98
 -11  -8  -7   76.02    4.93
   8 -11   7   71.27   10.83
  11  -8   7   69.81   10.70
   8 -11   7   74.83    5.23
  -8 -11  -7   80.02    5.46
  11  -8   7   70.96    4.86
  11  -8   7   81.43    6.42
 -11  -8  -5  139.06    7.29
  11  -8   5  132.62   15.42
   8 -11   5  133.39    7.11
   8 -11   5  126.83   15.56
  11  -8   5  133.87    8.93
  -8 -11  -5  128.71    7.66
  -8 -11  -3  196.76   10.13
 -11  -8  -3  190.52    9.54
  11  -8   3  181.71   19.91
   8 -11   3  186.89   19.38
  11  -8   3  162.74   11.20
   8 -11   3  205.60    9.05
 -11  -8  -1  104.04    6.02
 -11  -8  -1  104.88    4.72
  -8 -11   1  108.18    7.97
  -8 -11   1  112.95    6.29
 -11  -8   1  111.05    6.00
  -8 -11   3  202.60   12.09
 -11  -8   3  194.71   11.74
 -11  -8   3  187.78    9.06
  -8 -11   5  111.54    9.12
 -11  -8   5   94.32    8.77
 -11  -8   5  103.67    6.34
  -8 -11   5  103.64    6.90
  -8 -11   7   65.00    6.01
 -11  -8   7   50.18    6.58
  -8 -11   7   62.81    5.95
 -11  -8   7   63.44    5.42
  -8 -11   9   51.96    6.02
 -11  -8   9   43.48    5.03
 -11  -8  11   30.26    3.21
 -11  -8  11   34.22    4.28
  -8 -11  13    7.30    2.27
 -11  -8  13   14.91    2.69
  -8 -11  15   37.24    3.13
 -11  -8  15   49.74    3.64
 -11  -8  17   35.11    2.40
  11  -9  18   12.02    1.16
 -11   9  18   14.19    1.36
  11  -9  16   28.44    2.32
  11  -9  14   81.95    4.93
  11  -9  12    3.44    1.77
   9 -11  12    7.32    2.00
   9 -11  10  147.66    7.96
  11  -9  10  148.01    7.82
 -11  -9  -8  123.92    6.70
   9 -11   8  128.12    7.17
  11  -9   8  115.88    6.79
   9 -11   8  112.01   13.63
  11  -9   8  118.62   13.57
  -9 -11  -8  130.36    7.18
  -9 -11  -6   70.75    5.17
 -11  -9  -6   61.93    4.71
   9 -11   6   60.78   10.67
  11  -9   6   73.15   11.68
   9 -11   6   61.74    4.65
  11  -9   6   63.77    6.16
   9 -11   4   33.43    9.44
  11  -9   4   18.63    7.39
   9 -11   4   23.55    2.82
 -11  -9  -4   28.45    3.35
  11  -9   4   28.44    2.91
  -9 -11  -4   26.47    3.44
  11  -9   4   17.16    3.92
  -9 -11  -2  206.00    8.64
 -11  -9  -2  191.06    7.97
   9 -11   2  190.95    6.66
 -11  -9   0  604.24   24.38
  -9 -11   0  602.67   22.54
 -11  -9   0  606.27   22.27
  -9 -11   2  154.23   10.59
 -11  -9   2  165.98   10.54
  -9 -11   2  163.36    8.24
 -11  -9   2  154.59    7.99
  -9 -11   4   22.00    4.93
 -11  -9   4   17.20    4.50
 -11  -9   4   22.55    2.99
  -9 -11   6   75.10    7.66
 -11  -9   6   56.80    7.20
  -9 -11   6   70.15    5.98
 -11  -9   6   69.35    5.43
  -9 -11   8  111.93    7.59
  -9 -11   8  109.94    7.92
 -11  -9  10  149.82    8.26
  -9 -11  10  119.12    9.16
 -11  -9  10  133.93    8.62
  -9 -11  12    5.11    2.36
 -11  -9  12    9.10    2.45
  -9 -11  14   74.53    4.98
 -11  -9  14   86.33    5.20
 -11  -9  16   25.51    2.18
  10 -11  17   35.59    2.22
  11 -10  17   36.76    2.19
  10 -11  15   93.42    4.86
  11 -10  15   94.79    4.87
  11 -10  13  155.91    7.63
  10 -11  11  174.96    8.74
  11 -10  11  171.04    8.62
  10 -11   9   32.13    3.41
 -10 -11  -7  319.97   13.78
  10 -11   7  327.99   13.68
  11 -10   7  303.66   13.39
 -11 -10  -7  333.82   13.75
 -11 -10  -5  555.30   21.67
 -10 -11  -5  578.79   21.97
  10 -11   5  593.39   21.43
  11 -10   5  581.49   21.20
 -10 -11  -3   82.62    5.97
 -11 -10  -3   70.31    5.47
  10 -11   3   82.36    5.21
  11 -10   3   84.53    5.10
 -11 -10  -1  510.60   19.37
 -10 -11  -1  512.98   21.42
 -11 -10  -1  504.79   21.07
 -10 -11   1  543.13   22.87
 -10 -11   1  498.71   19.65
 -11 -10   1  512.62   19.57
 -11 -10   3   89.55    8.08
 -10 -11   3   82.24    8.02
 -10 -11   3   84.66    5.62
 -11 -10   3   80.18    5.40
 -11 -10   5  470.43   23.92
 -10 -11   5  438.94   23.75
 -11 -10   7   95.12    8.98
 -10 -11   7  125.25    9.62
 -10 -11   9   40.40    4.20
 -11 -10   9   36.99    4.23
 -10 -11   9   32.59    4.58
 -11 -10   9   35.48    4.30
 -10 -11  11  149.95    9.44
 -11 -10  11  156.70    9.35
 -10 -11  13  145.67    7.84
 -11 -10  13  152.45    7.83
 -10 -11  15   72.70    4.10
 -11 -10  15   77.65    4.27
  11 -11  16  126.94    5.36
  11 -11  14  220.65    9.18
 -11 -11  -8  207.32    9.74
  11 -11   8  213.29    9.94
 -11 -11  -6   37.64    3.71
  11 -11   6   39.70    3.62
 -11 -11  -4  500.34   19.99
  11 -11   4  493.42   19.20
 -11 -11  -2  353.11   15.95
  11 -11   2  365.44   14.73
 -11 -11   0  578.86   21.80
 -11 -11   2  321.81   13.82
 -11 -11   2  353.18   17.31
 -11 -11   4  462.99   23.22
 -11 -11   4  490.95   19.42
 -11 -11   6   24.37    4.87
 -11 -11   8  169.48   10.40
 -11 -11   8  190.81   10.45
 -11 -11  10  259.25   12.95
 -11 -11  12    4.00    1.88
 -11 -11  14  201.73    8.66
 -12   0   0 1203.32   42.12
 -12   0  -2   42.16    3.33
   0 -12   2   36.70    5.30
  12   0   4   60.31    7.01
   0 -12   4   63.39    7.91
 -12   0   4   60.01    4.17
   0 -12   6  334.04   21.97
 -12   0   6  382.21   15.45
  12   0   6  368.34   20.57
  12   0   8   21.76    2.59
  12   0   8   23.98    4.84
   0 -12   8   25.91    6.18
 -12   0   8   19.83    3.13
   0 -12  10  144.01   13.47
  12   0  10  131.98   11.97
 -12   0  10  140.40    7.91
   0 -12  10  142.54    7.31
 -12   0  10  146.81    8.49
  12   0  10  141.97    7.50
   0 -12  12   28.15    2.91
 -12   0  12   27.89    3.10
   0 -12  12   20.99    5.04
 -12   0  12   26.87    3.45
  12   0  12   27.49    2.99
 -12   0  14   41.81    3.42
   0 -12  14   42.25    3.40
   0 -12  16    9.33    1.67
 -12   0  16    8.32    1.85
   0 -12  18   53.75    3.30
 -12   0  18   61.83    3.60
 -12   0  20    6.76    0.92
   0 -12  20    6.33    0.85
 -12   1  19   70.22    3.65
   1 -12  19   68.18    3.51
   1 -12  17    9.04    1.55
 -12   1  17    7.71    1.59
   1 -12  15   45.32    3.55
   1 -12  13   75.76    4.94
 -12   1  13   85.31    5.29
 -12   1  13   81.15    5.55
  12  -1  13   72.43    4.99
  12  -1  11  237.37   17.12
   1 -12  11  250.19   11.12
   1 -12  11  252.21   17.84
 -12   1  11  255.22   12.15
  12  -1  11  256.07   11.42
   1 -12   9   44.65    3.77
  12  -1   9   41.34    6.78
   1 -12   9   46.25    7.63
  12  -1   9   42.09    3.80
  12  -1   7   79.80    8.80
 -12   1   7   68.65    5.22
   1 -12   7   56.14    8.79
  12  -1   7   72.51    4.88
   1 -12   5  612.35   31.70
 -12   1   5  650.18   23.80
  12  -1   5  631.82   30.05
   1 -12   3  126.22   10.76
 -12  -1  -3  122.45    6.21
  12  -1   1  450.02   22.79
 -12  -1  -1  440.94   17.25
  -1 -12   1  454.10   19.41
 -12  -1   1  433.40   18.09
 -12   1  -1  464.15   17.58
  -1 -12   3  109.23    7.31
  -1 -12   3  119.39   10.12
  12   1   3  120.30    9.82
 -12  -1   3  113.10    7.27
 -12  -1   3  112.92    5.82
  12   1   5  638.10   29.50
  -1 -12   5  605.63   31.06
 -12  -1   5  638.98   23.62
  -1 -12   7   89.13   10.67
 -12  -1   7   79.99    6.47
 -12  -1   7   78.00    5.63
  12   1   7   86.54    8.83
 -12  -1   9   52.22    4.76
  -1 -12   9   54.58    8.62
 -12  -1   9   51.13    4.77
  12   1   9   46.39    6.86
  12   1   9   51.08    4.02
  12   1  11  196.76   14.62
  -1 -12  11  194.66    9.14
 -12  -1  11  208.03    9.94
  -1 -12  11  190.65   15.39
 -12  -1  11  219.10   10.86
  12   1  11  201.88    9.48
  -1 -12  13   73.80    4.75
 -12  -1  13   90.62    5.80
 -12  -1  13   76.65    5.07
  -1 -12  15   48.57    3.50
  -1 -12  17    4.04    1.15
 -12  -1  17    3.73    1.30
 -12  -1  19   87.67    4.11
  -1 -12  19   77.09    3.82
 -12   2  20    4.67    0.83
   2 -12  20    4.55    0.78
   2 -12  18   84.25    4.36
 -12   2  18   89.29    4.60
   2 -12  16   21.99    2.34
 -12   2  14   37.92    3.27
   2 -12  14   36.34    3.32
 -12   2  14   35.81    3.53
  12  -2  12   96.45   10.26
   2 -12  12  111.83    6.24
   2 -12  12   83.49    9.77
  12  -2  12  106.61    6.30
   2 -12  10  235.52   10.71
  12  -2  10  237.26   17.18
   2 -12  10  223.64   17.07
  12  -2  10  236.92   11.03
  12  -2   8   87.20    9.65
   2 -12   8   91.80   10.96
   2 -12   8   89.11    5.60
  12  -2   8   86.49    5.05
  12  -2   8   90.48    5.69
   2 -12   6  514.46   29.22
  12  -2   6  550.27   27.69
  12  -2   6  535.77   19.55
  12  -2   6  545.78   20.60
  12  -2   4    6.39    3.39
   2 -12   4    6.77    3.23
  -2 -12  -2  239.48   11.69
 -12  -2  -2  234.97   10.28
  12  -2   2  204.38   14.61
  -2 -12   0 1394.08   49.79
  12  -2   0 1439.53   55.65
 -12  -2   0 1397.96   48.48
  -2 -12   2  224.37   13.81
 -12  -2   2  223.13   11.13
 -12   2  -2  240.72   10.19
  12  -2  -2  238.21   15.71
  -2 -12   2  232.74   11.89
  -2 -12   4   10.15    2.48
  12   2   4   18.88    4.18
  -2 -12   4   14.90    3.89
 -12  -2   4   14.29    2.09
  -2 -12   6  539.96   28.27
 -12  -2   6  500.13   21.78
  -2 -12   6  497.84   19.96
 -12  -2   6  536.40   20.42
  12   2   6  566.65   26.02
  -2 -12   8   81.13   10.18
 -12  -2   8   89.72    6.69
  12   2   8   81.82    8.63
 -12  -2   8   90.70    6.15
  -2 -12  10  194.62   16.22
 -12  -2  10  205.71   10.43
  12   2  10  209.89   14.71
 -12  -2  10  200.21   10.62
  12   2  10  219.74    9.57
  -2 -12  12  110.21    6.08
  -2 -12  12  120.96   11.39
 -12  -2  12  113.93    6.57
 -12  -2  12  126.09    7.42
  -2 -12  14   28.46    2.67
  -2 -12  16   21.74    2.23
 -12  -2  16   26.97    2.65
 -12  -2  18  101.26    4.88
  -2 -12  18   92.93    4.56
 -12   3  19   40.07    2.49
   3 -12  19   37.50    2.35
   3 -12  17   34.19    2.70
 -12   3  15   33.57    3.00
   3 -12  15   40.62    3.32
 -12   3  15   35.20    3.39
   3 -12  13   18.35    2.52
  12  -3  11  176.60   14.54
   3 -12  11  186.49    8.95
   3 -12  11  171.78   14.52
  12  -3  11  178.66    8.61
  12  -3  11  170.38    8.99
  12  -3   9   76.16    9.83
   3 -12   9   80.61    5.56
   3 -12   9   89.96   10.73
  12  -3   9   84.51    5.22
  12  -3   9   73.19    5.54
   3 -12   7   51.88    4.16
  12  -3   7   47.00    7.36
  12  -3   7   47.95    3.51
   3 -12   7   45.75    8.20
  12  -3   7   50.21    4.14
   3 -12   5  508.41   28.92
  12  -3   5  557.42   28.07
 -12  -3  -3  681.06   24.67
   3 -12   3  653.04   31.98
  12  -3   3  681.99   32.43
 -12  -3  -1  274.72   11.97
  -3 -12  -1  271.85   13.02
  12  -3   1  278.42   17.73
  -3 -12   1  277.90   13.35
  12  -3  -1  265.63   17.66
 -12  -3   1  278.43   12.58
  -3 -12   3  597.92   24.26
  -3 -12   3  637.28   28.27
 -12  -3   3  562.06   23.71
 -12  -3   3  608.25   21.86
  12  -3  -3  605.11   30.00
  -3 -12   5  548.35   21.63
  12   3   5  599.65   26.76
  -3 -12   5  536.94   27.86
  12  -3  -5  565.71   28.80
 -12  -3   5  549.52   22.84
  -3 -12   5  517.18   20.96
 -12  -3   5  561.32   20.96
 -12  -3   7   44.39    5.24
  -3 -12   7   34.28    3.66
  -3 -12   7   29.39    6.21
 -12  -3   7   43.19    4.11
  12   3   7   44.63    6.09
  -3 -12   9   96.18   11.11
  12   3   9   73.39    8.24
 -12  -3   9   79.95    6.02
  12   3   9   77.01    4.95
 -12  -3   9   77.23    6.29
  -3 -12  11  144.61   13.15
 -12  -3  11  140.67    7.96
 -12  -3  11  155.26    8.84
  -3 -12  13   13.62    1.92
 -12  -3  13   16.83    2.24
  -3 -12  15   28.93    2.60
 -12  -3  15   28.80    3.01
  -3 -12  17   34.11    2.47
 -12  -3  17   34.41    2.76
  -3 -12  19   38.45    2.24
 -12  -3  19   42.74    2.49
   4 -12  18   37.43    2.56
   4 -12  16   52.17    3.69
 -12   4  16   56.09    3.85
   4 -12  14   25.81    2.73
  12  -4  14   19.02    2.38
   4 -12  12   73.44    5.09
  12  -4  12   73.70    4.96
  12  -4  12   70.66    5.11
  12  -4  10   91.04   10.58
   4 -12  10   82.77    5.84
   4 -12  10   76.01    9.81
  12  -4  10   95.32    5.58
  12  -4  10   81.84    5.85
  12  -4   8  157.90   14.42
   4 -12   8  183.97    9.06
   4 -12   8  173.67   15.57
  12  -4   8  161.91    7.96
  12  -4   8  168.28    8.96
  12  -4   6  312.48   20.63
   4 -12   6  330.37   23.04
   4 -12   6  319.05   13.72
  12  -4   6  337.92   13.05
  -4 -12  -4  343.20   14.99
 -12  -4  -4  346.73   13.68
  12  -4   4  346.65   21.43
   4 -12   4  321.94   13.49
  12  -4   4  348.68   14.46
  -4 -12  -2  419.09   17.77
 -12  -4  -2  418.67   16.65
  12  -4   2  425.02   24.54
  -4 -12   0  654.81   25.75
 -12  -4   0  656.56   24.97
  12  -4   0  679.76   33.53
 -12  -4   2  372.24   16.60
 -12  -4   2  389.05   14.76
  -4 -12   2  387.32   17.15
  12  -4  -2  367.18   23.02
  12  -4  -4  349.15   22.09
  -4 -12   4  327.93   15.52
  -4 -12   4  333.49   14.12
  12   4   4  343.74   18.65
 -12  -4   4  328.36   13.65
  12   4   6  320.69   17.81
  -4 -12   6  286.98   19.22
 -12  -4   6  307.76   15.27
  -4 -12   6  284.33   13.34
 -12  -4   6  305.92   13.22
  -4 -12   8  142.56   13.71
 -12  -4   8  173.37   10.17
  -4 -12   8  147.23    8.87
 -12  -4   8  165.79    9.02
  12   4   8  144.75   11.63
  -4 -12  10   87.47    6.41
  -4 -12  10   80.36   10.27
 -12  -4  10   90.96    6.39
 -12  -4  10   74.57    5.99
 -12  -4  12   59.84    4.45
 -12  -4  14   18.81    2.73
 -12  -4  16   50.95    3.60
  -4 -12  16   46.96    3.07
  -4 -12  18   45.35    2.61
 -12  -4  18   48.77    2.92
   5 -12  19   72.45    3.39
 -12   5  19   70.39    3.45
   5 -12  17   24.30    2.19
 -12   5  17   23.67    2.26
   5 -12  15   19.87    2.36
  12  -5  15   19.36    2.22
   5 -12  13  122.55    6.94
  12  -5  13  134.06    6.92
   5 -12  11   89.11    5.81
  12  -5  11   90.11    5.52
  12  -5  11   81.50    5.79
   5 -12   9   31.67    3.68
  12  -5   9   30.38    3.18
  12  -5   9   30.62    6.86
   5 -12   9   27.15    6.58
  12  -5   9   26.12    3.56
  12  -5   7  219.84   17.87
   5 -12   7  233.68   19.29
   5 -12   7  238.62   11.11
  12  -5   7  242.82   10.35
  -5 -12  -5  290.44   13.31
 -12  -5  -5  297.75   12.21
  12  -5   5  307.00   20.99
   5 -12   5  281.92   21.36
   5 -12   5  269.92   12.18
  12  -5   5  294.33   13.31
   5 -12   3   58.05    8.49
 -12  -5  -3   77.89    4.99
   5 -12   3   67.77    4.52
  12  -5   3   65.76    9.53
  12  -5   3   71.13    5.57
 -12  -5  -1  288.48   13.12
  12  -5   1  311.93   21.73
  -5 -12  -1  316.87   14.30
  12  -5   1  312.71   14.03
  -5 -12   1  261.57   13.14
 -12  -5   1  269.16   12.69
 -12  -5   1  269.08   10.96
  12  -5  -1  281.70   20.91
  -5 -12   3   78.54    6.63
  -5 -12   3   77.90    5.35
 -12  -5   3   75.31    4.77
  12  -5  -3   75.25   10.74
  -5 -12   5  300.43   14.58
 -12  -5   5  308.37   15.51
  12   5   5  316.88   17.72
  -5 -12   5  290.45   13.53
 -12  -5   5  313.54   13.23
  -5 -12   7  240.38   12.36
 -12  -5   7  234.78   11.70
  12   5   7  245.33   15.42
 -12  -5   9   33.35    4.41
 -12  -5   9   30.66    4.09
  -5 -12   9   33.94    4.52
 -12  -5  11  100.20    6.40
  -5 -12  11   96.89    6.83
 -12  -5  13  115.75    6.99
 -12  -5  15   17.43    2.40
 -12  -5  17   21.45    2.05
 -12  -5  19   68.06    3.15
   6 -12  18   23.36    1.86
 -12   6  18   20.84    1.84
   6 -12  16   24.41    2.27
  12  -6  16   21.35    1.97
 -12   6  16   21.43    1.98
   6 -12  14   72.77    4.63
  12  -6  14   64.29    4.33
   6 -12  12  110.17    6.45
  12  -6  12   99.85    6.08
  12  -6  10  153.80   14.24
   6 -12  10  166.00    8.81
   6 -12  10  134.85   13.59
  12  -6  10  176.27    8.36
  12  -6  10  163.09    8.91
   6 -12   8   63.16    9.83
   6 -12   8   72.87    5.28
  12  -6   8   77.76    5.01
  12  -6   8   79.10   10.33
   6 -12   6   87.85   12.30
  -6 -12  -6   84.99    6.15
  12  -6   6   76.65   11.00
 -12  -6  -6   71.88    4.91
   6 -12   6   78.95    5.29
  12  -6   6   76.03    4.89
  12  -6   6   73.63    6.03
  -6 -12  -4  124.69    7.76
 -12  -6  -4  133.07    7.19
   6 -12   4  126.94   14.02
   6 -12   4  135.35    7.10
  12  -6   4  140.57    8.55
 -12  -6  -2   94.48    6.06
  12  -6   2  114.12   13.40
   6 -12   2  104.37    5.76
  12  -6   2  104.74    7.37
  -6 -12   0   82.33    6.59
 -12  -6   0   80.56    5.86
 -12  -6   0   73.81    4.53
  12  -6   0   85.57   12.59
   6 -12   0   65.98    4.55
  12  -6   0   75.79    6.49
  -6 -12   2  139.15    8.96
 -12  -6   2  124.92    8.23
 -12  -6   2  129.32    6.53
  -6 -12   2  119.74    6.97
  12  -6  -2  132.83    8.75
  -6 -12   4  112.57    8.56
 -12  -6   4  107.31    8.33
  -6 -12   4  116.59    7.02
 -12  -6   4  115.31    6.51
  -6 -12   6   78.55    6.36
  12   6   6   66.23    7.44
 -12  -6   6   78.97    7.69
  -6 -12   6   73.94    6.07
 -12  -6   6   62.00    5.21
 -12  -6   8   92.01    7.39
  -6 -12   8   79.72    6.88
 -12  -6   8   73.81    5.92
 -12  -6  10  162.42    8.99
  -6 -12  10  167.13   10.35
 -12  -6  12   85.30    5.42
  -6 -12  12   89.02    6.27
 -12  -6  12   87.50    6.31
 -12  -6  14   59.50    4.40
 -12  -6  16   21.26    2.15
 -12  -6  18   21.29    1.71
   7 -12  17   26.25    2.06
  12  -7  17   21.70    1.73
 -12   7  17   22.13    2.01
  12  -7  15   26.58    2.43
   7 -12  15   25.55    2.56
  12  -7  13   14.53    2.42
   7 -12  13   20.42    2.73
   7 -12  11   34.13    3.53
  12  -7  11   34.20    3.41
   7 -12   9   55.83    9.23
   7 -12   9   62.07    4.83
  12  -7   9   51.35    8.48
  12  -7   9   67.45    4.64
  12  -7   9   54.20    4.95
   7 -12   7  101.44   13.34
   7 -12   7  116.25    6.81
  12  -7   7  120.68    6.47
  12  -7   7  117.52    7.70
  12  -7   7   99.90   12.47
  -7 -12  -7  123.54    7.33
   7 -12   5  109.36   14.65
 -12  -7  -5  100.92    5.99
  12  -7   5  112.65   13.67
  -7 -12  -5   99.55    6.62
   7 -12   5   97.78    6.01
  12  -7   5  100.09    7.56
  12  -7   5  105.69    5.77
  12  -7   3   40.87    9.35
 -12  -7  -3   43.30    3.90
  -7 -12  -3   38.47    4.38
   7 -12   3   39.58    3.51
  12  -7   3   45.79    5.26
  -7 -12  -1   46.00    4.96
 -12  -7  -1   46.67    4.34
  12  -7   1   44.47   10.27
 -12  -7  -1   47.09    3.42
   7 -12   1   40.74    3.55
  12  -7   1   48.01    5.49
  12  -7  -1   46.32    5.61
 -12  -7   1   45.77    4.77
 -12  -7   1   48.47    3.66
  -7 -12   1   46.87    5.30
  -7 -12   3   62.78    6.58
 -12  -7   3   52.86    5.77
  -7 -12   3   59.87    4.72
 -12  -7   3   52.81    4.11
  -7 -12   5   88.37    7.66
 -12  -7   5   78.59    7.49
  12   7   5   76.46    7.84
  -7 -12   5   76.89    6.06
 -12  -7   5   83.62    5.65
  -7 -12   7  122.24    7.85
 -12  -7   7  126.76    9.63
  -7 -12   7  110.19    8.11
 -12  -7   7   97.41    6.81
 -12  -7   9   67.88    5.88
  -7 -12   9   58.56    6.27
 -12  -7   9   51.25    4.94
 -12  -7  11   30.42    3.28
  -7 -12  11   18.81    3.59
  -7 -12  13   17.61    2.83
 -12  -7  13   21.93    2.96
 -12  -7  15   24.71    2.51
 -12  -7  17   23.10    1.89
 -12   8  18   13.78    1.27
   8 -12  16    9.55    1.44
  12  -8  16    8.11    1.27
   8 -12  14   48.40    3.66
  12  -8  14   45.44    3.51
   8 -12  12   25.44    2.92
  12  -8  12   23.69    2.96
   8 -12  10   75.33    5.45
  12  -8  10   69.92    5.00
   8 -12   8   32.89    7.67
  12  -8   8   35.11    7.50
   8 -12   8   35.19    3.64
  12  -8   8   27.53    3.10
  12  -8   8   31.87    3.89
   8 -12   6   16.35    6.25
   8 -12   6   21.25    2.88
 -12  -8  -6   25.52    2.82
  -8 -12  -6   23.57    3.24
  12  -8   6   21.27    6.54
  12  -8   6   23.40    2.70
  12  -8   6   18.83    3.59
  -8 -12  -4  230.83   11.24
 -12  -8  -4  225.93   10.54
   8 -12   4  217.57   10.23
  12  -8   4  220.30   12.68
  12  -8   4  223.62    9.95
  12  -8   4  204.01   20.74
  -8 -12  -2   84.08    6.48
 -12  -8  -2   84.21    5.92
 -12  -8  -2   83.44    4.83
  12  -8   2   76.61    7.52
   8 -12   2   90.40    5.51
  -8 -12   0   58.83    5.75
 -12  -8   0   71.09    5.65
 -12  -8   0   62.23    4.12
  12  -8   0   58.15    6.77
  -8 -12   2   79.56    7.36
 -12  -8   2   75.71    4.93
  -8 -12   4  211.04   13.31
  -8 -12   4  199.41   10.47
 -12  -8   4  213.58    9.94
 -12  -8   4  208.33   12.60
  -8 -12   6   41.79    5.35
 -12  -8   6   30.62    5.44
  -8 -12   6   39.45    4.61
 -12  -8   6   35.18    3.83
  -8 -12   8   24.92    3.52
 -12  -8   8   21.97    3.93
  -8 -12   8   24.95    4.46
 -12  -8   8   27.26    3.63
 -12  -8  10   80.31    5.68
  -8 -12  10   51.77    6.22
  -8 -12  12    7.37    2.31
 -12  -8  12   24.21    3.34
  -8 -12  14   34.38    3.07
 -12  -8  14   40.18    3.34
 -12  -8  16   11.57    1.49
  12  -9  17    4.17    0.81
 -12   9  17    4.59    0.91
   9 -12  15   43.53    3.12
  12  -9  15   48.76    3.16
   9 -12  13    7.78    1.76
  12  -9  13    4.86    1.54
   9 -12  11   54.45    4.32
  12  -9  11   51.42    4.15
   9 -12   9   75.11    5.42
  12  -9   9   86.99    5.56
 -12  -9  -7   63.22    4.42
   9 -12   7   58.36    4.61
  12  -9   7   58.93    4.38
  -9 -12  -7   64.12    4.84
  12  -9   5  239.04   22.39
  -9 -12  -5  248.02   11.90
 -12  -9  -5  246.65   11.38
   9 -12   5  267.52   11.55
  12  -9   5  244.51   13.63
 -12  -9  -3  128.31    7.57
   9 -12   3  135.71    7.34
  -9 -12  -3  145.21    8.39
 -12  -9  -1   79.49    6.01
 -12  -9  -1   82.73    4.96
   9 -12   1   89.15    5.41
  -9 -12   1   59.53    6.25
  -9 -12   1   69.76    4.88
 -12  -9   1   64.75    4.41
 -12  -9   3  149.28   10.18
  -9 -12   3  153.56   11.18
 -12  -9   3  141.24    7.65
  -9 -12   5  268.19   15.96
 -12  -9   5  238.03   14.56
  -9 -12   5  274.37   12.86
 -12  -9   5  258.95   11.94
  -9 -12   7   53.99    5.67
 -12  -9   7   63.42    6.47
  -9 -12   7   55.43    5.56
 -12  -9   7   56.35    4.95
 -12  -9   9   67.30    5.76
  -9 -12   9   60.39    6.46
  -9 -12  11   40.64    4.88
 -12  -9  11   65.16    5.26
  -9 -12  13    4.21    1.53
 -12  -9  13    2.55    1.47
  -9 -12  15   37.14    2.62
 -12  -9  15   44.35    3.00
  12 -10  16   58.49    3.02
  10 -12  14   57.87    3.71
  12 -10  14   67.13    3.84
  10 -12  12   11.65    2.01
  12 -10  12   10.10    1.96
  10 -12  10  258.16   11.53
  12 -10  10  253.16   11.36
 -12 -10  -8   86.70    5.32
  10 -12   8   98.35    6.01
 -12 -10  -6   41.00    3.81
  10 -12   6   44.84    3.92
 -10 -12  -6   48.17    4.21
  10 -12   4  279.50   12.47
  12 -10   4  293.71   12.31
 -10 -12  -4  277.45   13.14
 -12 -10  -4  300.44   13.02
 -10 -12  -2  136.08    8.50
 -12 -10  -2  138.22    8.18
  10 -12   2  142.30    7.48
 -12 -10   0  142.66    7.34
 -12 -10   0  144.85    9.03
 -10 -12   2  154.87    8.28
 -10 -12   2  163.19   11.05
 -12 -10   2  157.69   10.29
 -10 -12   4  268.88   16.25
 -12 -10   4  282.52   15.70
 -12 -10   4  279.06   12.43
 -12 -10   6   34.17    5.66
 -10 -12   6   34.41    4.12
 -12 -10   6   37.73    3.89
 -10 -12   8   80.42    6.50
 -12 -10   8   92.04    7.01
 -10 -12   8   93.05    7.07
 -12 -10  10  236.53   10.88
 -10 -12  10  236.07   12.61
 -12 -10  10  229.48   11.62
 -10 -12  12    9.40    2.25
 -12 -10  12   12.29    2.26
 -10 -12  14   61.90    3.80
 -12 -10  14   66.06    3.95
 -12 -10  16   50.05    2.63
  12 -11  15   88.87    4.14
  12 -11  13   82.77    4.56
  11 -12  11   45.29    3.66
  11 -12   9  194.00    9.32
 -11 -12  -7  209.80   10.08
 -12 -11  -7  210.15    9.92
  11 -12   7  220.26   10.13
  12 -11   7  229.48   10.21
 -12 -11  -5  300.97   13.30
 -11 -12  -5  298.25   13.42
  11 -12   5  318.40   13.24
  12 -11   5  308.43   13.01
 -11 -12  -3   50.71    4.77
 -12 -11  -3   60.25    4.89
  11 -12   3   56.34    4.33
  12 -11   3   58.79    4.25
 -11 -12  -1  216.50   11.63
  11 -12   1  214.57   10.08
 -12 -11  -1  221.89   11.44
 -11 -12   1  235.30   13.21
 -12 -11   1  225.52   10.36
 -11 -12   3   57.10    6.73
 -12 -11   3   58.05    6.40
 -11 -12   3   46.71    4.22
 -12 -11   3   53.53    4.28
 -12 -11   5  294.10   16.30
 -12 -11   5  306.40   13.09
 -12 -11   7  181.69   10.46
 -11 -12   7  202.21    9.90
 -11 -12   9  176.10    9.16
 -12 -11   9  188.01    9.46
 -11 -12   9  178.86   10.15
 -12 -11   9  174.05    9.62
 -11 -12  11   38.86    4.00
 -12 -11  11   36.64    3.77
 -11 -12  13   70.37    4.34
 -12 -11  13   74.55    4.37
 -11 -12  15   78.00    3.69
 -12 -11  15   87.35    3.86
  12 -12  14   97.29    4.49
  12 -12  10  260.61   11.19
  12 -12   8   54.39    4.18
 -12 -12  -6   32.22    3.22
  12 -12   6   37.51    3.35
 -12 -12  -4  479.76   19.68
  12 -12   4  511.93   19.31
 -12 -12  -2  136.82    8.29
  12 -12   2  147.36    7.53
  12 -12   0   12.15    2.17
 -12 -12   2  125.69    9.20
 -12 -12   2  121.74    6.85
 -12 -12   4  483.20   23.14
 -12 -12   4  511.16   19.89
 -12 -12   6   27.47    4.54
 -12 -12   6   29.33    3.53
 -12 -12   8   48.72    4.55
 -12 -12   8   54.83    4.77
 -12 -12  10  227.01   10.94
 -12 -12  12  102.06    5.53
 -12 -12  14   98.73    4.44
 -13   0  -1  130.46    7.03
 -13   0   1  126.67    7.52
  13   0   1  134.52   11.13
 -13   0  -3   37.82    3.19
 -13   0   3   34.22    4.15
   0 -13   5  440.18   26.05
 -13   0   5  504.67   18.99
  13   0   5  477.39   25.34
  13   0   7   20.52    4.94
 -13   0   7   26.75    4.14
   0 -13   7   20.51    6.08
 -13   0   7   26.63    3.32
  13   0   7   27.38    3.06
 -13   0   9   46.81    4.54
  13   0   9   50.37    7.51
   0 -13   9   50.47    8.60
 -13   0   9   45.47    4.47
  13   0   9   50.59    4.08
   0 -13  11   28.12    2.79
 -13   0  11   27.46    3.17
 -13   0  11   29.99    3.64
  13   0  11   32.25    3.22
   0 -13  13   38.59    3.21
 -13   0  13   44.09    3.65
 -13   0  13   43.38    4.00
  13   0  13   39.57    3.44
   0 -13  15   13.32    1.79
 -13   0  15   10.73    1.92
   0 -13  17    6.69    1.22
 -13   0  19   42.85    2.44
   1 -13  18   66.54    3.47
 -13   1  18   75.37    3.80
   1 -13  16   48.99    3.28
   1 -13  14   68.04    4.36
 -13   1  14   73.93    4.56
 -13   1  14   71.11    4.80
   1 -13  12   25.59    2.71
 -13   1  12   26.52    3.05
 -13   1  12   29.49    3.46
  13  -1  12   27.57    2.98
   1 -13  10  203.07    9.53
  13  -1  10  231.29   16.62
 -13   1  10  220.36   10.52
   1 -13  10  209.34   16.88
 -13   1  10  207.00   10.71
  13  -1  10  212.30   10.21
   1 -13   8  134.95   13.74
  13  -1   8  116.78   11.54
 -13   1   8  122.26    7.50
  13  -1   8  138.20    7.31
   1 -13   6  213.59   17.03
  13  -1   6  224.65   15.95
 -13   1   6  227.57   10.55
   1 -13   4   51.51    7.31
  13  -1   2  119.66   10.71
 -13  -1  -2  128.77    6.85
  13  -1   0  417.13   22.71
 -13  -1   0  421.10   16.98
 -13   1   0  411.57   16.90
 -13   1  -2  111.37    6.08
 -13  -1   2  104.26    6.90
  13  -1  -2  103.17   10.08
  13   1   4   74.02    8.30
  -1 -13   4   82.54    8.99
 -13  -1   4   68.88    5.90
 -13  -1   4   75.44    4.74
  -1 -13   6  209.30   16.33
 -13  -1   6  206.36   11.29
 -13  -1   6  210.01   10.08
  13   1   6  213.62   14.88
  -1 -13   8  101.57   11.74
 -13  -1   8  108.92    7.35
  13   1   8   98.90   10.26
 -13  -1   8  104.38    6.83
  13   1   8  122.24    6.49
  -1 -13  10  180.54   15.92
 -13  -1  10  203.70   10.10
  13   1  10  192.42   14.73
 -13  -1  10  198.52   10.48
  13   1  10  212.22    9.67
  -1 -13  12   25.28    2.59
 -13  -1  12   28.71    3.03
 -13  -1  12   24.67    3.36
  13   1  12   24.09    2.74
  -1 -13  14   76.54    4.54
 -13  -1  14   83.17    4.85
 -13  -1  14   85.94    5.36
  -1 -13  16   44.70    2.95
  -1 -13  18   71.57    3.55
 -13  -1  18   81.61    3.98
   2 -13  19   96.34    4.14
 -13   2  19  103.85    4.35
   2 -13  17   27.15    2.19
   2 -13  15   16.83    2.10
 -13   2  15   18.08    2.10
 -13   2  15   21.49    2.48
   2 -13  13  101.95    5.77
 -13   2  13  106.57    6.06
 -13   2  13  106.06    6.32
   2 -13  11  178.16    8.57
 -13   2  11  179.22    9.41
  13  -2  11  173.24    8.90
   2 -13   9   32.01    3.24
  13  -2   9   41.17    7.05
 -13   2   9   38.76    4.08
   2 -13   9   28.06    6.40
  13  -2   9   39.43    3.76
   2 -13   7  111.41   12.64
  13  -2   7  127.23   12.06
 -13   2   7  125.26    7.30
  13  -2   7  121.63    6.28
  13  -2   7  136.85    7.25
   2 -13   5  416.79   25.27
  13  -2   5  447.15   16.47
 -13  -2  -3  364.99   14.60
  13  -2   3  348.37   20.91
  13  -2   1  435.57   23.70
 -13  -2  -1  438.97   17.48
  -2 -13   1  387.04   17.96
  13  -2  -1  380.20   22.22
 -13  -2   1  399.38   16.85
 -13   2  -1  418.59   16.26
  -2 -13   3  387.82   16.65
  -2 -13   3  347.71   19.54
  13   2   3  356.00   20.22
  13  -2  -3  317.72   20.35
 -13  -2   3  347.94   15.83
 -13  -2   3  355.99   14.00
  13   2   5  561.22   27.12
  -2 -13   5  515.35   27.71
  13  -2  -5  504.40   27.67
 -13  -2   5  554.21   20.81
  -2 -13   7  109.45   11.80
 -13  -2   7  128.90    8.54
 -13  -2   7  116.77    7.27
  13   2   7  136.05   11.44
 -13  -2   9   43.96    4.40
  -2 -13   9   44.48    7.60
 -13  -2   9   42.18    4.27
  13   2   9   41.66    6.45
  13   2   9   39.84    3.52
 -13  -2  11  177.06    9.28
 -13  -2  11  205.03   10.21
  13   2  11  197.80    9.02
 -13  -2  13  103.81    5.90
 -13  -2  13  110.27    6.51
  -2 -13  15   15.64    1.76
  -2 -13  17   27.05    2.04
 -13  -2  17   29.25    2.37
 -13  -2  19  107.02    4.53
   3 -13  18   82.06    3.89
   3 -13  16   19.22    2.01
 -13   3  16   21.69    2.25
   3 -13  14   52.98    3.89
 -13   3  14   53.34    3.88
 -13   3  14   59.75    4.27
   3 -13  12  145.08    7.44
 -13   3  12  146.76    7.95
  13  -3  12  145.04    7.76
  13  -3  10   75.63    9.51
   3 -13  10   76.58    5.24
  13  -3  10   88.05    5.16
   3 -13  10   68.74    9.53
  13  -3  10   85.73    5.70
  13  -3   8  227.83   17.22
   3 -13   8  251.67   19.52
   3 -13   8  211.65   10.20
  13  -3   8  215.93    9.66
  13  -3   8  227.38   10.67
   3 -13   6  600.07   33.84
 -13   3   6  634.65   24.22
  13  -3   6  664.05   23.37
 -13  -3  -4   30.39    2.99
  13  -3   4   25.54    5.69
   3 -13   4   35.56    6.46
  -3 -13  -2  381.16   17.20
 -13  -3  -2  390.63   15.73
  13  -3   2  395.56   22.89
  -3 -13   0 1454.86   52.57
 -13  -3   0 1501.79   51.29
  13  -3   0 1438.54   59.47
  13  -3  -2  409.47   23.47
  -3 -13   2  403.87   18.09
 -13  -3   2  389.99   17.16
  -3 -13   4   26.21    3.80
  13   3   4   27.44    5.09
  -3 -13   4   21.17    5.00
 -13  -3   4   27.27    2.89
  13  -3  -4   22.73    5.60
  -3 -13   6  587.26   31.16
 -13  -3   6  584.53   25.03
 -13  -3   6  642.11   23.63
  13   3   6  627.56   29.57
  -3 -13   8  190.96   16.52
 -13  -3   8  241.60   12.07
 -13  -3   8  217.16   10.86
  13   3   8  209.50   14.96
 -13  -3  10   66.79    5.22
  -3 -13  10   55.42    8.58
 -13  -3  10   65.78    5.29
  13   3  10   66.38    4.39
 -13  -3  12  125.79    6.95
 -13  -3  12  131.33    7.63
 -13  -3  16   19.65    2.13
 -13  -3  18   97.78    4.54
   4 -13  17    2.19    0.87
 -13   4  17    2.68    0.99
 -13   4  15   25.34    2.43
   4 -13  15   25.66    2.52
 -13   4  15   27.81    2.71
  13  -4  13    9.46    1.72
   4 -13  13    7.57    1.79
   4 -13  11   63.59    4.68
  13  -4  11   71.10    4.65
  13  -4  11   68.85    5.01
  13  -4   9  136.73   13.28
   4 -13   9  153.34    8.00
   4 -13   9  144.75   14.17
  13  -4   9  137.94    7.24
  13  -4   9  146.16    8.24
   4 -13   7   32.64    3.52
  13  -4   7   26.91    2.79
   4 -13   7   21.50    6.48
  13  -4   5  328.34   21.61
   4 -13   5  315.19   22.25
   4 -13   5  321.73   13.96
  13  -4   5  361.21   13.48
  13  -4   5  332.12   14.57
 -13  -4  -3  667.12   24.71
  13  -4   3  668.02   34.05
  13  -4   3  668.86   25.31
  -4 -13  -1  225.35   11.89
 -13  -4  -1  233.97   10.90
  13  -4   1  220.22   17.06
  -4 -13   1  204.76   11.58
 -13  -4   1  226.02   11.02
  13  -4  -1  224.98   17.21
  -4 -13   3  668.90   26.62
 -13  -4   3  614.14   25.64
 -13  -4   3  659.01   23.65
  13  -4  -3  621.47   33.34
  -4 -13   5  345.22   15.64
  13   4   5  374.05   20.21
 -13  -4   5  335.96   16.39
  -4 -13   5  332.29   15.10
 -13  -4   5  364.26   14.68
 -13  -4   7   33.00    4.78
  -4 -13   7   32.41    3.96
  -4 -13   7   27.50    6.24
 -13  -4   7   27.88    3.46
  13   4   7   26.59    5.03
 -13  -4   9  167.15    9.38
  -4 -13   9  161.03    9.21
 -13  -4   9  151.87    8.81
  13   4   9  159.69    7.68
 -13  -4  11   58.19    4.59
 -13  -4  11   60.93    5.03
 -13  -4  13   13.15    1.97
 -13  -4  15   24.26    2.60
 -13  -4  17    2.95    0.99
   5 -13  18   10.41    1.23
 -13   5  18   15.31    1.46
   5 -13  16    8.31    1.42
 -13   5  16    6.30    1.35
   5 -13  14   35.42    3.01
  13  -5  14   31.44    2.76
   5 -13  12   19.34    2.57
  13  -5  12   19.43    2.55
   5 -13  10   52.22    4.28
  13  -5  10   50.25    3.97
  13  -5  10   52.11    4.45
   5 -13   8  192.29   17.43
   5 -13   8  208.17   10.04
  13  -5   8  189.28    9.08
  13  -5   6   35.96    7.24
   5 -13   6   44.93    4.11
  13  -5   6   51.35    3.80
  13  -5   6   44.46    4.56
   5 -13   6   39.61    8.37
 -13  -5  -4   31.89    3.26
  -5 -13  -4   25.98    4.06
   5 -13   4   29.48    3.19
  13  -5   4   36.30    4.10
  -5 -13  -2  204.42   10.93
 -13  -5  -2  189.98    9.64
  13  -5   2  218.57   17.66
  13  -5   2  206.35   10.44
  -5 -13   0  379.91   17.69
 -13  -5   0  402.81   16.81
  13  -5   0  409.49   26.08
  -5 -13   2  215.31   12.05
 -13  -5   2  222.46   11.50
 -13  -5   2  211.84    9.44
  13  -5  -2  210.77   18.09
  13   5   4   34.15    5.65
  -5 -13   4   32.93    4.61
  -5 -13   4   32.08    3.79
 -13  -5   4   35.62    3.39
  -5 -13   6   45.75    4.67
 -13  -5   6   50.14    5.82
  13   5   6   48.49    6.66
  -5 -13   6   47.16    4.90
 -13  -5   6   53.87    4.61
 -13  -5   8  217.23   11.85
  -5 -13   8  216.27   11.56
 -13  -5   8  198.52   10.47
 -13  -5  10   51.96    4.61
  -5 -13  10   50.92    4.99
 -13  -5  10   46.45    4.63
 -13  -5  12   12.85    2.17
 -13  -5  14   30.20    3.07
 -13  -5  16    7.43    1.36
 -13  -5  18   12.23    1.27
   6 -13  17   31.80    2.17
 -13   6  17   31.59    2.23
   6 -13  15   32.93    2.71
 -13   6  15   34.96    2.67
  13  -6  15   34.76    2.53
 -13   6  15   33.68    2.76
   6 -13  13   34.28    3.20
  13  -6  13   34.32    3.16
  13  -6  11    6.84    1.84
   6 -13  11    7.12    1.94
   6 -13   9   24.21    3.13
  13  -6   9   24.98    2.82
  13  -6   7  111.30   13.00
   6 -13   7  141.17   15.94
   6 -13   7  133.63    7.54
  13  -6   7  126.90    6.84
  13  -6   7  126.19    8.06
  -6 -13  -5   70.43    5.79
 -13  -6  -5   68.80    4.81
  13  -6   5   78.96   10.97
   6 -13   5   72.26    5.10
  13  -6   5   69.02    5.86
  13  -6   5   79.99    4.79
 -13  -6  -3   93.80    5.76
  13  -6   3   77.87   11.31
   6 -13   3   88.76    5.56
  13  -6   3   96.97    6.91
  -6 -13  -1   69.32    6.18
 -13  -6  -1   69.66    5.30
  13  -6   1   76.96   11.60
  13  -6   1   75.17    6.30
  -6 -13   1   53.29    5.67
 -13  -6   1   54.07    5.17
 -13  -6   1   52.28    3.80
  13  -6  -1   54.01    9.95
  13  -6  -1   54.71    5.51
  -6 -13   3   93.57    7.70
  -6 -13   3   92.50    6.23
 -13  -6   3   98.36    5.64
  -6 -13   5   85.48    7.04
  13   6   5   76.15    8.24
 -13  -6   5   83.01    7.27
  -6 -13   5   80.19    6.29
 -13  -6   5   86.66    5.71
 -13  -6   7  140.91    9.96
  -6 -13   7  140.32    9.21
 -13  -6   7  136.50    8.05
 -13  -6   9   26.60    3.68
  -6 -13   9   24.46    4.08
 -13  -6   9   24.71    3.44
 -13  -6  11    4.27    1.70
  -6 -13  11    5.07    1.97
 -13  -6  11    4.23    2.20
 -13  -6  15   28.75    2.55
 -13  -6  17   27.79    2.01
   7 -13  16   40.14    2.64
 -13   7  16   39.97    2.42
  13  -7  16   39.76    2.40
 -13   7  16   43.79    2.75
  13  -7  14   58.74    3.68
   7 -13  14   52.03    3.63
   7 -13  12   82.27    5.20
  13  -7  12   83.75    5.25
   7 -13  10  115.07    6.86
  13  -7  10  126.32    6.73
   7 -13   8  127.84    7.47
  13  -7   8  133.80    7.10
  13  -7   8  138.62    8.16
  -7 -13  -6   78.30    5.78
 -13  -7  -6   71.25    4.84
   7 -13   6   77.88    5.42
  13  -7   6   72.86    4.87
  13  -7   6   84.34    6.38
  13  -7   6   64.82   10.39
  -7 -13  -4  431.17   18.64
 -13  -7  -4  451.53   17.74
  13  -7   4  458.85   30.19
   7 -13   4  427.48   17.60
  13  -7   4  474.37   20.01
  13  -7   4  445.06   17.13
 -13  -7  -2  218.73   10.76
  13  -7   2  212.37   20.69
   7 -13   2  227.34   10.42
  13  -7   2  248.40   12.97
  -7 -13   0  238.03   12.60
 -13  -7   0  222.02   11.23
 -13  -7   0  233.25    9.79
   7 -13   0  209.42   10.21
  13  -7   0  239.88   13.06
  -7 -13   2  262.68   14.15
 -13  -7   2  243.84   12.82
 -13  -7   2  250.58   10.89
  -7 -13   4  472.53   21.19
 -13  -7   4  406.81   19.49
  -7 -13   4  430.13   18.08
  13   7   4  403.94   21.82
 -13  -7   4  421.36   16.95
  -7 -13   6   60.06    5.86
 -13  -7   6   63.97    6.58
  -7 -13   6   63.81    5.90
 -13  -7   6   57.66    4.79
 -13  -7   8  149.85    9.28
  -7 -13   8  141.93    9.57
 -13  -7   8  124.69    7.92
 -13  -7  10  111.32    6.71
 -13  -7  10  103.95    6.87
 -13  -7  12   66.44    4.25
  -7 -13  12   59.37    4.89
 -13  -7  14   42.26    3.35
 -13  -7  16   41.29    2.65
   8 -13  17   34.16    2.03
 -13   8  17   34.26    2.00
   8 -13  15   27.71    2.31
  13  -8  15   28.33    2.20
 -13   8  15   29.20    2.36
   8 -13  13   87.59    5.09
  13  -8  13   89.33    5.07
   8 -13  11   10.55    2.14
  13  -8  11   14.46    2.26
   8 -13   9   39.88    3.92
  13  -8   9   39.69    3.63
   8 -13   7  251.47   11.85
  13  -8   7  271.62   11.58
  13  -8   7  270.37   13.13
  13  -8   5  369.93   26.42
 -13  -8  -5  343.41   14.41
  -8 -13  -5  338.40   15.20
   8 -13   5  344.19   14.61
  13  -8   5  342.05   16.38
  13  -8   5  352.90   14.15
  -8 -13  -3  168.15    9.66
  13  -8   3  151.30   17.88
 -13  -8  -3  166.39    8.72
   8 -13   3  170.74    8.58
  13  -8   3  163.10   10.69
 -13  -8  -1  344.14   14.96
 -13  -8  -1  344.10   13.39
   8 -13   1  344.99   14.32
  13  -8   1  346.77   17.51
  -8 -13   1  339.16   17.03
 -13  -8   1  342.40   15.78
 -13  -8   1  350.81   13.86
   8 -13  -1  333.25   14.49
  -8 -13   3  191.49   12.18
  -8 -13   3  178.29    9.50
 -13  -8   3  172.95    8.66
  -8 -13   5  408.80   19.33
 -13  -8   5  330.79   17.58
  -8 -13   5  380.63   16.80
 -13  -8   5  361.44   15.36
  -8 -13   7  259.60   12.90
 -13  -8   7  281.53   14.15
  -8 -13   7  245.10   13.31
 -13  -8   9   34.21    3.97
 -13  -8   9   30.75    3.85
  -8 -13   9   25.63    4.57
 -13  -8  11   15.46    2.19
  -8 -13  11    1.34    1.59
  -8 -13  13   76.53    4.94
 -13  -8  13   80.46    4.97
 -13  -8  15   23.14    2.10
   9 -13  16   25.01    1.78
  13  -9  16   20.99    1.54
 -13   9  16   20.37    1.60
   9 -13  14   16.82    1.94
  13  -9  14   17.73    1.94
   9 -13  12   25.39    2.70
  13  -9  12   23.90    2.59
   9 -13  10   49.29    4.10
  13  -9  10   52.15    4.06
   9 -13   8   53.21    4.34
  13  -9   8   43.27    3.89
  -9 -13  -6  214.62   10.36
 -13  -9  -6  192.76    9.38
   9 -13   6  194.85    9.73
  13  -9   6  212.64    9.58
 -13  -9  -4  128.00    7.34
  -9 -13  -4  125.70    7.89
   9 -13   4  134.70    7.30
  13  -9   4  124.97    9.11
  -9 -13  -2  111.74    7.70
 -13  -9  -2  114.86    7.13
   9 -13   2  122.47    6.88
  13  -9   2  104.63    8.74
 -13  -9   0  317.30   14.88
 -13  -9   0  324.48   13.14
   9 -13   0  317.87   13.84
  -9 -13   0  323.45   16.02
  -9 -13   2  138.29    9.96
 -13  -9   2  118.08    6.67
  -9 -13   4  121.85    9.98
 -13  -9   4  104.15    8.42
  -9 -13   4  121.54    7.61
 -13  -9   4  113.74    6.65
  -9 -13   6  190.39   11.95
 -13  -9   6  216.19   12.54
  -9 -13   6  202.03   11.13
 -13  -9   6  182.22    9.67
  -9 -13   8   54.13    4.89
 -13  -9   8   51.24    5.11
  -9 -13   8   60.73    6.00
 -13  -9   8   44.92    4.44
 -13  -9  10   51.33    4.09
  -9 -13  10   31.05    4.55
  -9 -13  12   14.88    2.50
 -13  -9  12   20.47    2.61
 -13  -9  14   18.63    2.04
 -13  -9  16   22.12    1.63
  10 -13  15   19.41    1.66
  13 -10  15   19.15    1.62
 -13  10  15   17.90    1.52
  13 -10  13   14.71    1.86
  10 -13  13   16.57    1.92
  10 -13  11   12.05    1.97
  13 -10  11   10.14    1.95
  10 -13   9   39.30    3.70
  13 -10   9   40.15    3.51
  10 -13   7   10.43    2.22
 -13 -10  -7    9.23    1.84
 -10 -13  -5  224.56   10.78
 -13 -10  -5  209.90   10.08
  10 -13   5  213.10   10.15
 -13 -10  -3   89.14    6.16
  10 -13   3   97.13    6.07
 -10 -13  -3   93.03    6.69
  13 -10   3   96.74    5.76
 -13 -10  -1   91.01    6.52
  10 -13   1  103.73    6.25
 -10 -13   1   93.02    7.92
 -13 -10   1   89.54    5.43
  10 -13  -1   90.72    5.96
 -10 -13   3   86.87    8.47
 -13 -10   3   84.48    7.35
 -13 -10   3   89.79    5.69
 -13 -10   5  193.41   11.83
 -10 -13   5  210.22   10.41
 -13 -10   5  200.05    9.48
 -10 -13   7    3.86    2.21
 -13 -10   7    8.96    2.93
 -10 -13   7   10.85    3.22
 -13 -10   7   10.27    2.50
 -13 -10   9   44.12    4.07
 -10 -13   9   40.03    4.77
 -10 -13  11   12.18    2.53
 -13 -10  11    6.91    2.02
 -10 -13  13   14.98    1.96
 -13 -10  13   12.55    1.85
 -13 -10  15   23.89    1.79
  11 -13  14   64.71    3.30
  13 -11  14   62.47    3.26
  11 -13  12   19.53    2.13
  13 -11  12   24.46    2.30
  11 -13  10   82.63    4.91
  13 -11  10   77.11    4.84
  11 -13   8   30.26    3.13
 -11 -13  -6   36.01    3.52
 -13 -11  -6   29.81    3.11
  11 -13   6   34.65    3.46
  13 -11   6   36.27    3.41
 -11 -13  -4  112.00    7.06
 -13 -11  -4  113.54    6.77
  11 -13   4  115.05    6.63
  13 -11   4  120.33    6.51
  11 -13   2   10.27    2.14
  13 -11   2   14.19    2.26
 -11 -13  -2   12.63    2.99
 -13 -11  -2    9.20    2.42
 -13 -11   0   61.96    5.48
  11 -13   0   59.00    4.65
  11 -13  -2   13.02    2.46
 -11 -13   2   18.95    4.24
 -13 -11   2   16.59    3.76
 -13 -11   2   14.10    2.37
 -13 -11   4  126.50    9.26
 -11 -13   4  104.44    9.36
 -11 -13   4  117.19    7.18
 -13 -11   4  125.27    6.97
 -13 -11   6   33.71    4.72
 -13 -11   6   33.70    3.63
 -11 -13   6   31.30    3.86
 -13 -11   8   31.44    3.72
 -11 -13   8   27.93    3.50
 -11 -13   8   30.51    3.89
 -13 -11  10   68.58    4.37
 -11 -13  10   77.01    5.69
 -13 -11  10   66.96    4.96
 -11 -13  12   23.69    2.47
 -13 -11  12   25.05    2.49
 -13 -11  14   61.45    3.18
  12 -13  13    6.86    1.11
  13 -12  13    6.24    1.07
  12 -13  11   31.81    2.59
  12 -13   9  271.92   11.28
  13 -12   9  258.85   11.07
  13 -12   7   16.06    2.26
  12 -13   7   13.84    2.19
 -13 -12  -7   16.65    2.20
  12 -13   5   16.37    2.41
  13 -12   5   17.16    2.45
 -12 -13  -5   13.76    2.38
 -13 -12  -5   13.83    2.32
 -12 -13  -3  192.77    9.95
 -13 -12  -3  198.90    9.83
  12 -13   3  201.50    9.44
  13 -12   3  198.97    9.23
  12 -13   1    1.80    1.48
  13 -12   1    1.39    1.20
 -12 -13  -1    2.60    2.29
 -13 -12  -1    2.04    1.96
  12 -13  -1    3.14    1.57
  13 -12  -1    4.35    1.58
 -12 -13   1    3.21    2.66
 -12 -13   3  197.62   12.49
 -13 -12   3  222.53   12.49
 -13 -12   3  220.12   10.09
 -12 -13   5   16.27    3.93
 -13 -12   5   21.06    4.15
 -12 -13   5   17.35    2.84
 -13 -12   5   18.43    2.72
 -12 -13   7   20.18    3.12
 -13 -12   7   20.14    3.20
 -13 -12   7   19.86    2.77
 -13 -12   9  271.78   11.35
 -12 -13   9  263.80   12.17
 -12 -13  11   36.35    3.09
 -13 -12  11   40.10    3.15
 -13 -12  13    6.51    1.09
  13 -13  12   70.74    3.50
  13 -13  10  134.38    6.21
  13 -13   8  124.86    6.27
 -13 -13  -6   55.58    3.91
  13 -13   6   53.41    3.85
 -13 -13  -4  103.93    6.22
  13 -13   4  111.27    6.05
  13 -13   2   84.56    5.08
 -13 -13  -2   70.78    5.35
  13 -13   0    4.20    1.54
 -13 -13   2   85.43    6.87
  13 -13  -2   87.72    5.38
 -13 -13   4  147.84    9.57
  13 -13  -4  142.77    7.39
 -13 -13   6   74.17    5.79
 -13 -13   8  114.54    6.21
 -14   0   0   10.50    2.39
  14   0   0    7.48    3.60
 -14   0  -2   25.29    2.85
 -14   0   2   22.82    3.51
  14   0   2   16.80    4.66
  14   0  -2   26.46    5.43
 -14   0   4  145.77    9.04
  14   0   4  155.77   12.79
  14   0   6    1.57    2.13
   0 -14   6    0.60    2.79
 -14   0   6    1.54    1.54
 -14   0   8   64.16    5.47
   0 -14   8   66.82    9.53
 -14   0   8   74.22    5.37
  14   0   8   60.59    8.20
  14   0   8   70.62    4.97
 -14   0  10  167.11    8.96
 -14   0  10  178.86    9.35
  14   0  10  175.35    8.81
 -14   0  12   43.58    3.75
 -14   0  12   44.23    4.02
  14   0  12   47.74    3.76
   0 -14  14   43.75    2.99
 -14   0  14   45.61    3.32
 -14   0  14   45.05    3.54
   0 -14  16   10.62    1.36
 -14   0  16   13.43    1.78
   1 -14  17    8.84    1.12
 -14   1  17    9.24    1.31
   1 -14  15   47.36    3.00
 -14   1  15   43.98    3.06
 -14   1  15   46.02    3.44
   1 -14  13   39.23    3.06
 -14   1  13   44.75    3.54
 -14   1  13   44.78    3.75
 -14   1  11   40.46    3.77
 -14   1  11   42.24    4.18
  14  -1  11   46.69    3.95
 -14   1   9  260.31   12.19
 -14   1   9  242.48   11.87
  14  -1   9  263.52   11.72
   1 -14   7   85.75   10.99
 -14   1   7   97.31    7.18
  14  -1   7   99.42   10.59
 -14   1   7   96.86    6.13
  14  -1   7   99.13    6.10
 -14   1   5  138.68    8.63
  14  -1   5  128.86   11.95
 -14  -1  -3   88.28    5.33
 -14   1   3   90.28    6.63
  14  -1   3   77.00    9.12
  14  -1   1  140.41   12.19
 -14  -1  -1  137.65    7.66
 -14   1   1  144.81    8.26
  14  -1  -1  128.89   12.08
 -14  -1   1  154.91    8.65
  14   1   1  146.65   12.39
 -14   1  -1  159.68    8.11
  14   1   3   91.31    9.61
 -14  -1   3   92.24    6.77
  14  -1  -3   99.81   10.33
  -1 -14   5  105.12   11.06
  14  -1  -5  101.76   10.70
 -14  -1   5  122.76    6.60
  14   1   5  134.80   11.73
 -14  -1   7   84.73    6.72
  -1 -14   7   71.22    9.60
  14   1   7   81.92    9.37
 -14  -1   7   89.53    5.85
  14   1   7   87.06    5.49
 -14  -1   9  248.69   12.14
 -14  -1   9  250.83   12.03
  14   1   9  265.64   11.49
 -14  -1  11   43.00    3.74
 -14  -1  11   38.58    3.99
  14   1  11   40.06    3.53
 -14  -1  13   42.30    3.46
 -14  -1  13   48.63    3.87
 -14  -1  15   53.70    3.72
 -14   2  18   27.15    1.87
   2 -14  16   51.52    3.06
 -14   2  16   55.40    3.39
   2 -14  14   61.19    3.78
 -14   2  14   63.16    4.05
 -14   2  14   64.83    4.27
   2 -14  12    1.04    1.15
 -14   2  12    2.55    1.58
 -14   2  12    3.09    1.74
  14  -2  12    4.14    1.57
 -14   2  10  154.31    8.27
   2 -14  10  135.50    7.26
 -14   2  10  157.32    8.40
  14  -2  10  161.43    8.29
  14  -2   8  125.09   12.24
   2 -14   8  101.31   12.46
 -14   2   8  117.57    7.09
  14  -2   8  131.72    7.23
   2 -14   6  134.78   13.20
  14  -2   6  112.95   11.75
 -14   2   6  128.80    7.02
  14  -2   6  127.27    6.34
  14  -2   6  136.96    7.45
  14  -2   4   48.97    7.43
 -14  -2  -2  192.62    9.30
  14  -2   2  184.07   14.57
 -14  -2   0  318.78   14.04
 -14   2   0  332.54   13.98
  14  -2  -2  177.20   14.56
 -14  -2   2  186.07   10.32
  14   2   2  215.49   15.16
 -14   2  -2  200.02    9.20
  14   2   4   87.23    9.22
 -14  -2   4   78.89    6.42
 -14  -2   4   84.56    5.02
  -2 -14   6  110.99   11.48
 -14  -2   6  117.49    8.18
 -14  -2   6  120.84    6.90
  14   2   6  121.90   11.05
  -2 -14   8   96.67   11.21
 -14  -2   8  121.47    7.88
  14   2   8  121.19   11.22
 -14  -2   8  114.02    7.06
  14   2   8  131.36    6.77
 -14  -2  10  136.60    7.84
 -14  -2  10  135.99    8.03
  14   2  10  149.70    7.47
 -14  -2  12    1.87    1.35
 -14  -2  12    3.46    1.81
 -14  -2  14   76.14    4.34
 -14  -2  14   74.26    4.67
 -14  -2  18   30.02    1.95
   3 -14  17    3.66    0.81
 -14   3  17    5.13    1.04
   3 -14  15    6.25    1.32
 -14   3  15    4.95    1.34
 -14   3  15    7.47    1.62
   3 -14  13   13.79    1.89
 -14   3  13   15.00    2.11
 -14   3  13   13.88    2.21
   3 -14  11  114.86    6.27
 -14   3  11  124.53    7.14
  14  -3  11  120.71    6.98
  14  -3   9   23.67    3.11
   3 -14   9   22.56    2.72
  14  -3   9   22.14    2.60
 -14   3   9   22.54    3.09
  14  -3   7   45.33    7.44
 -14   3   7   42.62    3.82
   3 -14   7   36.88    7.60
  14  -3   7   46.02    3.39
  14  -3   7   46.66    4.12
  14  -3   5  340.09   21.29
  14  -3   5  333.24   12.71
  14  -3   5  287.48   13.44
 -14  -3  -3  277.60   12.02
  14  -3   3  278.00   19.13
 -14  -3  -1  147.34    8.03
  14  -3   1  146.05   13.16
  -3 -14   1  139.68    9.31
 -14  -3   1  141.27    8.17
 -14   3  -1  140.13    7.45
  14  -3  -1  126.14   12.36
  -3 -14   3  248.57   12.84
  14   3   3  230.19   15.92
 -14  -3   3  243.69   12.25
 -14  -3   3  228.54   10.06
  14  -3  -3  227.69   17.08
 -14  -3   5  348.70   14.42
  14   3   5  343.54   20.21
 -14  -3   7   60.10    5.74
  -3 -14   7   49.31    7.91
 -14  -3   7   58.18    4.67
  14   3   7   66.39    7.95
  14   3   9   18.83    2.40
 -14  -3   9   20.47    3.16
 -14  -3   9   19.10    2.99
 -14  -3  11  118.19    6.78
 -14  -3  11  121.32    7.25
 -14  -3  13   21.62    2.34
 -14  -3  13   20.38    2.62
 -14  -3  17    3.63    0.92
 -14   4  18    3.76    0.76
   4 -14  16   18.19    1.75
 -14   4  16   19.23    1.90
   4 -14  14   21.22    2.17
 -14   4  14   22.65    2.35
 -14   4  14   18.58    2.23
   4 -14  12   19.24    2.33
 -14   4  12   21.51    2.70
   4 -14  10   57.84    4.33
  14  -4  10   62.44    4.23
 -14   4  10   55.81    4.63
  14  -4  10   56.76    4.76
   4 -14   8   99.82    5.97
 -14   4   8   92.63    6.01
  14  -4   8   95.39    5.48
  14  -4   8  101.28    6.46
  14  -4   6   14.75    2.64
  14  -4   6   13.90    1.98
  14  -4   6    9.37    4.29
  14  -4   4   23.73    3.18
 -14  -4  -4   21.25    2.52
  14  -4   4   16.86    5.08
  -4 -14  -2  123.18    8.38
 -14  -4  -2  123.68    6.99
  14  -4   2  112.30   12.03
  14  -4   2  127.68    7.42
  -4 -14   0  338.82   16.25
 -14  -4   0  343.27   14.97
  14  -4   0  340.14   22.47
  -4 -14   2  115.79    8.44
 -14  -4   2  109.64    7.47
  14  -4  -2  121.88   12.61
  -4 -14   4   22.96    3.81
 -14  -4   4   21.99    2.69
  14   4   4   31.29    5.74
  14   4   6    4.58    2.79
 -14  -4   6    8.43    2.88
 -14  -4   6   11.22    2.29
 -14  -4   8   94.60    7.05
 -14  -4   8  103.13    6.55
  14   4   8   97.23    5.55
 -14  -4  10   59.40    4.85
 -14  -4  10   65.11    5.16
 -14  -4  12   21.62    2.55
 -14  -4  12   21.35    2.89
 -14  -4  16   18.81    1.91
   5 -14  17   54.42    2.81
 -14   5  17   57.01    2.94
   5 -14  15   76.01    4.13
 -14   5  15   76.98    4.12
 -14   5  15   81.74    4.34
  14  -5  13   15.18    1.98
   5 -14  13   18.99    2.30
 -14   5  13   15.97    2.28
 -14   5  13   18.51    2.39
   5 -14  11   31.57    3.06
  14  -5  11   30.42    2.94
 -14   5  11   29.21    3.17
   5 -14   9   58.62    4.47
  14  -5   9   60.54    4.32
 -14   5   9   60.63    4.74
  14  -5   9   68.52    5.13
  14  -5   7  237.74   18.60
   5 -14   7  248.02   11.39
  14  -5   7  248.28   10.66
  14  -5   7  237.35   11.80
 -14  -5  -5   90.97    5.53
  14  -5   5   91.66   11.25
  14  -5   5  101.62    5.50
  14  -5   5   95.59    6.51
 -14  -5  -3   59.61    4.53
  14  -5   3   66.97    9.54
  14  -5   3   59.43    5.03
  14  -5   1   29.95    6.97
 -14  -5  -1   32.08    3.57
  -5 -14  -1   34.67    4.61
  14  -5   1   33.90    3.95
  14  -5  -1   25.33    3.49
  14  -5  -1   16.07    5.79
  -5 -14   1   26.55    4.30
 -14  -5   1   26.05    3.66
  -5 -14   3   58.73    6.06
 -14  -5   3   59.64    5.53
  14   5   3   46.54    6.79
 -14  -5   3   55.26    4.03
  14   5   5   94.05    9.38
  -5 -14   5   93.91    6.96
 -14  -5   5   92.77    7.36
 -14  -5   5   90.54    5.83
 -14  -5   7  279.51   13.95
 -14  -5   7  247.71   11.98
 -14  -5   9   77.52    5.77
 -14  -5   9   66.34    5.32
 -14  -5  11   30.55    3.16
 -14  -5  11   37.28    3.85
 -14  -5  13   10.10    1.70
 -14  -5  13   15.02    2.35
 -14  -5  15   74.32    4.16
 -14  -5  17   54.99    2.88
   6 -14  16   11.22    1.29
 -14   6  16   11.89    1.35
   6 -14  14  114.74    5.58
 -14   6  14  114.07    5.64
  14  -6  14  105.04    5.21
 -14   6  14  122.62    5.74
   6 -14  12  176.92    8.22
  14  -6  12  174.15    8.10
 -14   6  12  170.27    8.23
   6 -14  10  105.92    6.22
  14  -6  10  107.98    6.06
   6 -14   8   98.64    6.21
  14  -6   8  103.28    5.77
  14  -6   8   86.76    6.32
   6 -14   6  224.32   10.56
  14  -6   6  215.46    9.77
  14  -6   6  206.85   10.99
  -6 -14  -4  240.87   12.17
 -14  -6  -4  241.85   10.82
  14  -6   4  238.08   19.52
   6 -14   4  225.57   10.83
  14  -6   4  244.15   12.06
  14  -6   4  240.26   10.34
  -6 -14  -2  170.92    9.90
 -14  -6  -2  149.08    8.24
  14  -6   2  159.32   15.96
  14  -6   2  159.90    9.37
  14  -6   0   33.63    4.38
 -14  -6   0   31.74    3.96
  -6 -14   0   34.47    4.88
  14  -6   0   28.14    7.77
  -6 -14   2  154.74   10.38
 -14  -6   2  148.36    9.14
 -14  -6   2  155.06    7.50
  14  -6  -2  154.22    9.28
  -6 -14   4  268.87   13.97
  14   6   4  225.87   15.32
 -14  -6   4  230.22   10.68
  -6 -14   6  236.63   11.85
 -14  -6   6  214.17   12.28
 -14  -6   6  217.76   10.64
 -14  -6   8  120.03    7.84
  -6 -14   8  114.41    8.35
 -14  -6   8  104.35    6.84
 -14  -6  10  122.63    7.01
 -14  -6  10  115.40    7.14
 -14  -6  12  157.03    7.50
 -14  -6  12  164.32    8.34
 -14  -6  16   12.14    1.35
   7 -14  15   50.51    2.98
 -14   7  15   49.96    2.88
  14  -7  15   46.80    2.66
 -14   7  15   54.64    3.03
   7 -14  13  128.90    6.22
  14  -7  13  124.60    6.10
 -14   7  13  128.21    6.22
   7 -14  11   91.08    5.37
  14  -7  11   84.01    5.20
   7 -14   9   73.58    5.19
  14  -7   9   83.63    5.12
   7 -14   7  434.09   17.73
  14  -7   7  444.58   17.10
  14  -7   7  426.26   18.30
  -7 -14  -5  266.78   12.95
 -14  -7  -5  270.03   11.78
   7 -14   5  258.56   12.13
  14  -7   5  258.36   13.22
  14  -7   5  296.29   11.80
  14  -7   3   30.40    4.19
  14  -7   3   35.37    7.67
   7 -14   3   22.20    2.86
 -14  -7  -3   25.44    3.04
  -7 -14  -1  506.45   22.00
 -14  -7  -1  500.44   20.35
  14  -7   1  524.24   22.19
  -7 -14   1  489.23   22.24
 -14  -7   1  485.32   20.50
 -14  -7   1  487.35   18.55
  14  -7  -1  533.01   22.03
 -14  -7   3   21.63    2.58
  14   7   3   19.28    4.05
  -7 -14   5  290.30   14.70
 -14  -7   5  278.50   12.10
  -7 -14   7  423.84   17.84
 -14  -7   7  444.60   19.30
  -7 -14   7  417.80   19.35
 -14  -7   7  391.79   17.03
 -14  -7   9   85.63    5.93
  -7 -14   9   77.47    6.98
 -14  -7   9   73.87    5.54
 -14  -7  11   80.26    5.05
 -14  -7  11   89.13    5.74
 -14  -7  15   51.59    3.07
   8 -14  16   83.75    3.66
   8 -14  14   54.06    3.19
 -14   8  14   51.70    3.16
  14  -8  14   51.44    3.04
 -14   8  14   52.43    3.09
   8 -14  12   63.37    4.06
  14  -8  12   64.70    4.08
 -14   8  12   59.96    3.89
   8 -14  10  228.28   10.46
  14  -8  10  242.56   10.42
   8 -14   8  231.46   11.00
  14  -8   8  242.54   10.61
   8 -14   6   15.47    2.52
  14  -8   6   14.48    2.26
 -14  -8  -6   12.17    2.20
  14  -8   6   14.15    2.79
  -8 -14  -4  484.39   20.33
 -14  -8  -4  501.84   19.30
   8 -14   4  477.86   19.42
  14  -8   4  494.32   21.19
  14  -8   4  493.45   18.77
 -14  -8  -2  417.93   17.28
   8 -14   2  401.72   17.03
  14  -8   2  439.59   19.43
  -8 -14   0   55.03    5.89
 -14  -8   0   47.00    4.61
 -14  -8   0   50.51    3.60
   8 -14   0   47.84    4.30
  14  -8   0   53.23    5.67
 -14  -8   2  384.13   17.77
 -14  -8   2  403.67   15.83
  -8 -14   2  412.55   19.92
 -14  -8   4  485.11   22.00
 -14  -8   4  509.21   19.79
  -8 -14   6   24.56    4.03
 -14  -8   6   17.07    3.73
  -8 -14   6   16.61    3.68
 -14  -8   6   17.57    2.65
 -14  -8   8  218.45   10.81
  -8 -14   8  185.14   11.76
 -14  -8   8  187.80    9.73
 -14  -8  10  220.18    7.38
 -14  -8  10  198.69    7.46
 -14  -8  14   45.16    3.00
 -14  -8  16   70.62    3.25
   9 -14  15   20.53    1.60
   9 -14  13   59.55    3.49
  14  -9  13   61.27    3.51
 -14   9  13   55.31    3.22
   9 -14  11   43.73    3.42
  14  -9  11   51.15    3.68
   9 -14   9   26.33    2.97
  14  -9   9   24.48    2.80
   9 -14   7  203.09    9.93
  14  -9   7  211.96    9.60
  -9 -14  -5  312.78   14.32
 -14  -9  -5  312.73   13.42
   9 -14   5  324.92   13.92
  14  -9   5  316.21   15.20
  14  -9   5  331.80   13.39
  -9 -14  -3  128.01    8.01
 -14  -9  -3  119.10    7.01
   9 -14   3  129.22    7.29
  14  -9   3  125.58    8.66
  14  -9   3  110.13    6.36
 -14  -9  -1  317.08   14.29
   9 -14   1  310.26   13.96
  14  -9   1  334.78   16.46
 -14  -9   1  297.08   14.50
 -14  -9   1  323.58   12.87
   9 -14  -1  298.80   13.90
  -9 -14   1  321.05   16.51
  -9 -14   3  138.89   10.73
 -14  -9   3  141.32    7.38
  -9 -14   5  291.10   16.04
 -14  -9   5  293.59   15.01
 -14  -9   5  296.90   12.94
  -9 -14   7  172.17    9.95
 -14  -9   7  196.99   10.65
  -9 -14   7  176.93   10.68
 -14  -9   7  173.03    9.05
 -14  -9   9   23.73    2.99
  -9 -14   9   19.96    3.70
 -14  -9   9   21.52    2.86
 -14  -9  11   44.54    3.20
 -14  -9  13   58.81    3.59
 -14  -9  15   14.08    1.30
  14 -10  14    8.83    1.09
  10 -14  14   10.23    1.15
 -14  10  14    7.69    1.08
  10 -14  12   13.51    1.76
  14 -10  12   18.84    2.03
  10 -14  10   58.19    3.96
  14 -10  10   57.16    3.96
  10 -14   8   33.49    3.25
  14 -10   8   32.51    3.15
 -14 -10  -6  141.35    7.13
  10 -14   6  142.00    7.58
  14 -10   6  135.67    7.15
 -10 -14  -4   77.17    5.63
 -14 -10  -4   72.83    5.08
  10 -14   4   75.87    5.25
 -10 -14  -2   93.93    6.90
 -14 -10  -2   91.58    6.03
  10 -14   2   91.56    5.93
  14 -10   2   85.74    5.31
 -10 -14   0  135.24    9.36
 -14 -10   0  125.29    7.93
  10 -14   0  130.49    7.59
 -10 -14   2   82.36    7.84
 -14 -10   2   83.61    5.10
  10 -14  -2   79.06    5.85
 -10 -14   4   56.80    6.80
 -14 -10   4   64.80    6.10
 -14 -10   4   69.22    4.74
 -14 -10   6  142.56    8.84
 -14 -10   6  132.43    6.84
 -10 -14   8   23.38    2.95
 -14 -10   8   23.90    3.09
 -10 -14   8   25.19    3.81
 -14 -10   8   18.71    2.86
 -14 -10  10   44.34    3.31
 -14 -10  12   14.51    1.97
 -14 -10  14   10.09    1.17
  11 -14  13   26.72    1.90
  14 -11  13   25.40    1.88
  14 -11  11   15.77    1.88
  11 -14  11   16.89    1.86
  11 -14   9   86.48    5.03
  14 -11   9   84.46    4.95
 -14 -11  -7   33.06    2.86
  11 -14   7   40.31    3.51
 -11 -14  -5   66.84    4.97
 -14 -11  -5   69.76    4.65
  11 -14   5   74.15    4.98
  11 -14   3    6.08    1.88
  14 -11   3    6.07    1.67
 -11 -14  -3    5.36    2.26
 -14 -11  -3    8.27    1.98
  11 -14   1   19.15    2.68
  14 -11   1   14.65    2.21
 -14 -11  -1   14.94    2.77
  11 -14  -1   22.73    3.07
 -11 -14   1   25.23    4.31
 -14 -11   1   18.51    3.30
  11 -14  -3    6.42    2.02
 -11 -14   3    9.23    3.44
 -14 -11   3    6.08    2.64
 -14 -11   3    6.24    1.78
 -14 -11   5   74.26    6.12
 -14 -11   5   71.76    4.68
 -11 -14   7   26.39    3.49
 -14 -11   7   26.65    3.45
 -14 -11   7   25.84    3.01
 -14 -11   9   58.35    3.98
 -14 -11   9   54.05    4.11
 -14 -11  11   11.76    1.81
 -14 -11  13   21.99    1.77
  12 -14  12   46.18    2.61
  14 -12  12   47.43    2.68
  12 -14  10  128.39    5.95
  12 -14   8   35.74    3.02
  12 -14   6    8.24    1.76
  14 -12   6    7.75    1.65
 -14 -12  -6    5.78    1.47
 -12 -14  -4  113.00    6.45
 -14 -12  -4   93.93    5.85
  12 -14   4  112.21    6.20
  14 -12   4   98.96    5.65
 -12 -14  -2   34.42    3.77
 -14 -12  -2   25.79    3.20
  12 -14   2   34.09    3.27
  14 -12   2   34.28    3.03
  12 -14   0    1.99    1.41
  14 -12   0    1.87    1.32
 -14 -12   0    1.60    1.93
 -14 -12   2   40.76    4.45
 -12 -14   2   39.24    4.99
  12 -14  -2   39.83    3.70
  14 -12  -2   39.84    3.33
 -12 -14   4  111.09    8.50
 -14 -12   4  107.46    7.68
  12 -14  -4  107.63    6.46
 -12 -14   6    4.24    2.11
 -14 -12   6    5.39    2.18
 -14 -12   6    5.87    1.80
 -12 -14   8   30.16    2.79
 -14 -12   8   31.04    2.93
 -14 -12   8   24.96    2.77
  13 -14  11   58.48    2.97
  13 -14   9  131.98    5.81
  14 -13   9  121.07    5.73
  13 -14   7   99.93    5.25
  14 -13   7   95.63    5.10
 -14 -13  -5   90.92    5.10
  13 -14   5   95.52    5.29
  14 -13   5   88.04    5.02
 -13 -14  -3   34.17    3.32
 -14 -13  -3   32.58    3.17
  13 -14   3   37.36    3.20
  14 -13   3   36.77    3.07
 -13 -14  -1   73.12    5.48
 -14 -13  -1   79.95    5.48
  13 -14   1   80.47    5.00
  14 -13   1   79.10    4.78
 -13 -14   1   70.95    5.88
  13 -14  -1   80.42    4.99
  14 -13  -1   76.73    4.71
 -13 -14   3   39.86    4.60
 -14 -13   3   44.09    4.44
  13 -14  -3   44.72    3.59
  14 -13  -3   39.12    3.34
 -13 -14   5   99.06    6.62
 -14 -13   5  101.04    6.64
  13 -14  -5   84.85    5.17
  14 -13  -5   84.01    4.96
 -13 -14   7   95.37    5.40
 -14 -13   7   98.00    5.45
  14 -13  -7   84.66    4.65
  14 -14   8   48.05    2.87
  14 -14   6    8.84    1.43
 -14 -14  -4  113.21    5.95
  14 -14   4  126.87    5.99
 -14 -14  -2   58.94    4.22
  14 -14   2   63.41    3.97
  14 -14   0  120.56    6.13
 -14 -14   2   62.94    4.97
  14 -14  -2   65.68    4.12
 -14 -14   4  123.71    7.14
  14 -14  -4  119.88    5.98
 -14 -14   6    9.24    1.67
  15   0   1  102.62   10.71
  15   0  -1  106.79   11.03
 -15   0  -1  119.54    6.84
 -15   0   1  109.46    7.12
 -15   0   3  441.77   18.54
  15   0  -3  385.05   23.79
 -15   0   5   14.19    3.17
  15   0   5   13.10    4.13
  15   0  -5    9.45    3.95
 -15   0   7   35.59    4.38
 -15   0   7   31.94    3.35
  15   0   7   39.22    3.64
 -15   0   9  621.53   24.16
 -15   0   9  605.50   23.76
  15   0   9  650.06   23.65
 -15   0  11  119.70    6.68
 -15   0  11  123.87    7.06
  15   0  11  121.94    6.59
 -15   0  13   17.29    2.19
 -15   0  13   18.08    2.32
 -15   0  15  183.01    7.82
 -15   0  17   59.40    3.03
 -15   1  16   23.92    1.96
 -15   1  14  138.02    6.38
 -15   1  14  134.54    6.55
 -15   1  12  246.46   10.68
 -15   1  12  246.32   10.94
  15  -1  12  241.98   10.64
 -15   1  10  144.93    8.00
 -15   1  10  144.11    7.98
  15  -1  10  158.92    7.98
 -15   1   8  257.89   12.29
 -15   1   8  233.29   11.13
  15  -1   8  255.64   11.50
 -15   1   6  168.85   10.12
  15  -1   6  203.71   15.63
  15  -1   6  202.88    9.58
 -15   1   4  301.08   14.30
 -15  -1  -2  141.41    7.55
 -15   1   2  150.25    8.61
  15   1  -2  138.76   12.66
  15  -1   2  123.78   12.04
  15  -1   0  274.94   18.88
  15   1   0  266.69   18.55
 -15  -1   0  295.59   13.30
 -15   1   0  306.82   13.23
  15  -1  -2  127.79   12.35
 -15   1  -2  143.07    7.44
 -15  -1   2  147.93    8.71
  15  -1  -4  250.71   17.97
 -15  -1   4  277.55   13.43
  15   1   4  264.37   18.01
 -15  -1   6  220.58   10.10
  15   1   6  205.60   15.64
 -15  -1   8  260.31   12.59
 -15  -1   8  250.68   11.62
  15   1   8  254.33   11.36
 -15  -1  10  120.42    7.05
 -15  -1  10  122.68    7.22
  15   1  10  129.35    6.84
 -15  -1  12  254.04   10.79
 -15  -1  12  249.37   11.13
  15   1  12  242.27   10.47
 -15  -1  14  145.78    6.61
 -15  -1  14  148.02    6.96
 -15  -1  16   21.19    1.84
 -15   2  17   32.49    2.00
 -15   2  15   56.92    3.21
 -15   2  15   54.89    3.40
 -15   2  13   45.88    3.47
 -15   2  13   47.34    3.61
 -15   2  11   52.25    4.12
 -15   2  11   53.71    4.31
  15  -2  11   51.08    4.09
 -15   2   9  128.26    7.52
 -15   2   9  117.20    6.91
  15  -2   9  128.46    7.23
 -15   2   7   76.19    5.12
  15  -2   7   85.40    5.72
 -15   2   5   37.00    4.36
 -15  -2  -3   14.35    2.21
 -15   2   3   17.90    3.19
  15  -2   3   13.72    4.33
 -15  -2  -1   65.87    5.07
 -15   2   1   60.75    5.23
  15  -2   1   53.83    8.19
 -15  -2   1   73.10    5.63
  15  -2  -1   62.28    8.57
 -15   2  -1   64.47    4.80
  15  -2  -3   11.36    3.76
 -15  -2   3   13.70    3.03
  15   2   3   13.45    4.08
 -15  -2   5   32.36    3.13
  15   2   5   28.32    5.53
 -15  -2   7   61.31    5.75
 -15  -2   7   60.00    4.67
  15   2   7   71.19    4.81
 -15  -2   9   98.22    6.40
 -15  -2   9   90.26    6.05
  15   2   9  102.92    5.84
 -15  -2  11   42.34    3.66
 -15  -2  11   42.62    3.88
  15   2  11   41.13    3.34
 -15  -2  13   44.84    3.29
 -15  -2  13   44.82    3.57
 -15  -2  15   56.90    3.49
   3 -15  16   20.64    1.56
 -15   3  16   24.82    1.91
   3 -15  14   24.48    2.14
 -15   3  14   29.52    2.46
 -15   3  14   30.70    2.58
   3 -15  12   49.66    3.42
 -15   3  12   57.38    4.05
 -15   3  12   55.61    4.02
 -15   3  10   80.12    5.46
 -15   3  10   70.00    5.02
  15  -3  10   77.59    5.32
 -15   3   8   30.41    3.18
  15  -3   8   35.58    3.67
  15  -3   6    7.38    1.51
 -15  -3  -4   74.16    4.66
  15  -3   4   71.77    9.22
  15  -3   4   70.31    4.22
  15  -3   4   67.95    5.12
 -15  -3  -2  103.85    6.24
 -15   3   2  100.56    6.75
  15  -3   2   84.48   10.32
 -15  -3   0  146.72    8.32
 -15   3   0  150.94    8.05
  15  -3   0  130.39   12.79
  15   3   2   87.70    9.56
 -15  -3   2   99.45    6.86
  15  -3  -2   78.73    9.91
 -15  -3   4   71.03    5.97
 -15  -3   4   65.33    4.39
  15   3   4   61.34    7.90
 -15  -3   6    4.79    2.50
 -15  -3   6    3.97    1.65
 -15  -3   8   42.94    4.45
 -15  -3   8   40.46    3.90
  15   3   8   39.90    3.42
 -15  -3  10   70.16    5.15
 -15  -3  10   79.25    5.44
  15   3  10   75.41    4.69
 -15  -3  12   50.73    3.72
 -15  -3  12   52.62    4.14
 -15  -3  14   25.05    2.41
   4 -15  15   52.52    2.99
 -15   4  15   57.96    3.11
 -15   4  15   54.19    3.20
   4 -15  13   10.33    1.53
 -15   4  13   11.66    1.82
 -15   4  13    8.57    1.70
   4 -15  11   17.31    2.11
 -15   4  11   19.98    2.61
 -15   4  11   15.13    2.38
  15  -4  11   18.79    2.62
   4 -15   9   32.27    3.01
  15  -4   9   37.96    3.08
 -15   4   9   30.30    3.21
  15  -4   9   38.11    3.61
  15  -4   7  211.16    9.32
  15  -4   5   43.41    3.32
  15  -4   5   40.35    3.94
 -15  -4  -3   33.37    3.27
  15  -4   3   38.92    7.02
  15  -4   3   33.49    3.69
  15  -4   1   15.81    2.68
  15  -4   1   12.93    4.44
 -15  -4  -1   14.12    2.55
 -15   4   1   15.09    2.63
  15   4   1   10.77    3.71
  15  -4  -1   10.39    4.13
 -15  -4   1   18.49    2.95
 -15   4  -1   13.33    2.24
 -15  -4   3   34.95    4.36
 -15  -4   3   33.90    2.92
  15   4   3   28.38    5.46
 -15  -4   5   41.02    3.56
 -15  -4   7  225.20   11.66
 -15  -4   7  204.60   10.14
 -15  -4   9   39.14    3.96
 -15  -4   9   36.23    3.70
  15   4   9   35.79    3.06
 -15  -4  11   19.19    2.44
 -15  -4  11   21.81    2.88
 -15  -4  13    7.99    1.41
 -15  -4  13    8.60    1.77
 -15  -4  15   48.56    3.05
 -15   5  16    4.73    0.84
   5 -15  14  110.82    5.18
 -15   5  14  116.37    5.39
 -15   5  14  110.78    5.29
 -15   5  12  217.42    9.53
   5 -15  12  214.34    9.11
 -15   5  12  215.16    9.39
   5 -15  10   69.69    4.60
  15  -5  10   75.91    4.61
 -15   5  10   74.14    4.90
  15  -5  10   76.21    5.16
   5 -15   8   14.97    2.24
  15  -5   8   12.76    1.99
  15  -5   6  221.48    9.65
  15  -5   6  215.63   10.87
 -15  -5  -4   38.71    3.44
  15  -5   4   33.69    3.75
  15  -5   4   36.31    3.09
  15  -5   2   10.00    2.53
 -15  -5  -2   15.99    2.56
  15  -5   2   11.80    4.41
  15  -5   0   14.85    2.92
  -5 -15   0   18.80    3.95
  15  -5   0   21.29    6.03
  15   5   2    9.22    3.56
  15  -5  -2    9.28    2.37
  -5 -15   2   11.29    3.47
 -15  -5   2    8.63    2.58
  -5 -15   4   32.13    4.29
 -15  -5   4   25.89    2.84
 -15  -5   6  187.78   10.74
 -15  -5   6  197.34    9.49
  15   5   8   14.52    1.96
 -15  -5   8   10.08    2.68
 -15  -5   8   18.04    2.74
 -15  -5  10   68.42    4.81
 -15  -5  10   69.31    5.04
 -15  -5  12  198.01    8.71
 -15  -5  12  206.78    9.40
 -15  -5  14  111.20    5.47
   6 -15  15  128.66    5.23
 -15   6  15  115.34    5.10
 -15   6  15  126.33    5.23
   6 -15  13   48.69    3.15
 -15   6  13   51.99    3.37
  15  -6  13   48.68    2.94
 -15   6  13   45.87    3.16
   6 -15  11  110.52    5.83
  15  -6  11  114.63    5.84
 -15   6  11  112.72    6.03
   6 -15   9  257.11   11.34
  15  -6   9  268.55   11.16
   6 -15   7  457.68   18.24
  15  -6   7  463.51   17.62
  15  -6   7  453.68   18.86
 -15  -6  -5   39.50    3.41
  15  -6   5   41.63    3.45
  15  -6   5   42.14    4.32
 -15  -6  -3   28.75    3.05
  15  -6   3   30.69    3.80
  -6 -15  -1  112.79    8.16
 -15  -6  -1  104.16    6.62
  15  -6   1   99.08    7.09
  -6 -15   1  101.01    8.15
 -15  -6   1   93.22    6.64
  15  -6  -1   92.13    6.81
 -15  -6   3   33.44    4.26
 -15  -6   3   34.32    3.06
  -6 -15   5   41.56    4.70
 -15  -6   5   34.38    4.59
 -15  -6   5   39.75    3.60
 -15  -6   7  502.00   21.12
 -15  -6   7  484.80   19.35
 -15  -6   9  250.34   11.42
 -15  -6   9  237.93   11.17
 -15  -6  11   93.58    5.28
 -15  -6  11   92.88    5.72
 -15  -6  13   45.33    3.33
   7 -15  14   64.45    3.38
 -15   7  14   68.26    3.50
 -15   7  14   62.27    3.27
   7 -15  12  215.29    8.96
  15  -7  12  212.36    8.80
 -15   7  12  213.02    8.82
   7 -15  10   97.63    5.62
  15  -7  10  109.82    5.73
   7 -15   8   61.49    4.62
  15  -7   8   72.67    4.60
  15  -7   8   64.55    5.01
   7 -15   6  232.56   10.83
  15  -7   6  230.89   10.04
  15  -7   6  209.71   11.06
 -15  -7  -4  131.29    7.07
  15  -7   4  130.26    8.14
  15  -7   4  132.67    6.83
  -7 -15  -2  113.33    8.19
 -15  -7  -2  120.64    7.05
  15  -7   2  133.00    8.33
  -7 -15   0   71.17    6.79
 -15  -7   0   66.86    5.34
  15  -7   0   59.37    5.68
  -7 -15   2  137.77    9.93
 -15  -7   2  123.59    8.02
 -15  -7   2  121.11    6.34
  -7 -15   4  165.00   10.63
 -15  -7   4  131.59    7.16
  -7 -15   6  253.12   12.41
 -15  -7   6  223.32   12.08
 -15  -7   6  225.90   10.69
 -15  -7   8   81.83    5.80
 -15  -7   8   64.59    4.90
 -15  -7  10   98.30    5.69
 -15  -7  10   98.12    5.96
 -15  -7  12  198.95    8.36
 -15  -7  12  212.00    9.14
   8 -15  13   44.94    2.79
 -15   8  13   45.37    2.91
  15  -8  13   44.34    2.68
   8 -15  11   55.08    3.64
  15  -8  11   55.51    3.66
   8 -15   9   12.83    2.05
  15  -8   9   14.83    2.11
   8 -15   7  135.87    7.49
  15  -8   7  141.07    7.06
 -15  -8  -5   99.31    5.87
   8 -15   5   98.63    6.39
  15  -8   5  116.69    6.12
  15  -8   5  100.43    6.91
   8 -15   3   14.77    2.48
  15  -8   3   17.64    2.31
 -15  -8  -3   12.90    2.31
  15  -8   3   14.92    2.92
  -8 -15  -1  157.30    9.95
 -15  -8  -1  149.61    8.33
  15  -8   1  155.18    9.49
  -8 -15   1  169.21   11.05
 -15  -8   1  166.31    9.14
 -15  -8   1  149.03    7.35
  -8 -15   3   21.41    4.60
 -15  -8   3   22.31    2.56
  -8 -15   5   96.05    7.82
 -15  -8   5   86.36    6.84
 -15  -8   5   85.95    5.54
 -15  -8   7  129.47    7.90
 -15  -8   7  112.25    6.69
 -15  -8   9   11.36    2.13
 -15  -8   9   11.33    2.17
 -15  -8  11   49.40    3.35
 -15  -8  11   53.94    3.90
   9 -15  12    3.53    0.99
  15  -9  12    2.84    0.99
   9 -15  10   41.63    3.17
  15  -9  10   43.11    3.22
   9 -15   8   47.24    3.87
  15  -9   8   61.54    4.02
 -15  -9  -6   87.70    5.15
   9 -15   6   99.80    6.08
  15  -9   6   95.02    5.48
   9 -15   4   21.96    3.01
 -15  -9  -4   25.90    2.84
  15  -9   4   29.44    2.85
 -15  -9  -2  133.48    7.48
   9 -15   2  126.62    7.64
  15  -9   2  134.69    8.59
  15  -9   2  137.67    6.92
  -9 -15   0  180.71   11.16
 -15  -9   0  166.45    9.18
  -9 -15   2  158.76   11.13
 -15  -9   2  140.47    8.81
 -15  -9   2  160.82    7.58
  -9 -15   4   31.44    5.17
 -15  -9   4   33.64    4.27
 -15  -9   4   35.16    3.21
  -9 -15   6   81.83    6.62
 -15  -9   6   93.55    6.76
 -15  -9   6   85.10    5.44
 -15  -9   8   48.79    4.13
 -15  -9   8   43.26    3.78
 -15  -9  10   33.87    2.80
 -15  -9  10   37.63    3.23
 -15  -9  14   18.34    1.46
 -15  10  13    4.37    0.88
  15 -10  11   13.68    1.66
  10 -15  11   15.57    1.71
  10 -15   9    8.17    1.63
  15 -10   9    8.63    1.69
  15 -10   7   19.76    2.39
  10 -15   7   25.80    2.87
 -15 -10  -5  105.05    5.92
  10 -15   5  117.24    6.65
  15 -10   5  110.36    5.98
 -10 -15  -3   65.64    5.43
 -15 -10  -3   62.28    4.60
  10 -15   3   69.25    5.06
  10 -15   1   15.94    2.70
 -15 -10  -1   15.66    2.75
 -10 -15   1   27.29    4.67
 -15 -10   1   29.03    3.68
 -10 -15   3   43.10    5.91
 -15 -10   3   57.29    3.98
 -15 -10   5  100.62    6.35
 -15 -10   5   98.28    4.84
 -10 -15   7   14.70    2.63
 -15 -10   7   17.92    2.87
 -15 -10   7   18.15    2.49
 -15 -10   9    8.22    1.60
 -15 -10   9    8.11    1.81
 -15 -10  11   10.94    1.58
 -15 -10  13    5.68    0.97
 -15  11  12    5.06    0.97
  11 -15  10   20.06    1.94
  15 -11  10   23.08    2.12
  11 -15   8    9.71    1.79
  15 -11   8   10.95    1.77
 -15 -11  -6   26.57    2.45
  11 -15   6   32.45    3.08
 -15 -11  -4   28.57    2.92
  11 -15   4   27.76    3.14
  11 -15   2   19.08    2.76
 -11 -15  -2   20.60    3.32
 -15 -11  -2   17.44    2.60
  15 -11   2   20.93    2.39
  11 -15   0   22.29    2.94
  15 -11   0   16.36    2.19
 -11 -15   0   21.74    3.78
 -15 -11   0   17.80    2.84
 -11 -15   2   17.74    4.02
 -15 -11   4   34.54    4.08
 -15 -11   4   33.94    3.12
 -15 -11   6   27.78    3.38
 -11 -15   6   19.44    3.09
 -15 -11   6   28.37    2.83
 -15 -11   8    8.50    1.74
 -15 -11   8   10.48    1.93
 -15 -11  10   25.45    2.39
  12 -15   9   78.29    4.00
  15 -12   9   72.26    3.96
  12 -15   7   21.40    2.25
 -15 -12  -5   44.11    3.26
  12 -15   5   53.88    3.80
  15 -12   5   48.43    3.43
  12 -15   3   18.68    2.58
 -12 -15  -3   20.22    2.85
 -15 -12  -3   17.21    2.46
  15 -12   3   23.06    2.41
  12 -15   1    5.65    1.71
  15 -12   1    4.53    1.48
 -15 -12  -1    4.27    1.70
  12 -15  -1    4.48    1.71
  15 -12  -1    3.83    1.42
 -12 -15   1    7.55    2.50
 -15 -12   1    6.15    2.13
 -12 -15   3   21.63    3.84
 -15 -12   3   18.92    3.20
  15 -12  -3   22.02    2.38
 -12 -15   5   41.71    4.35
 -15 -12   5   50.58    4.42
 -15 -12   7   21.61    2.41
 -12 -15   7   18.30    2.28
 -15 -12   9   70.68    3.60
  13 -15   8   20.05    1.74
  15 -13   8   17.53    1.72
  13 -15   6    1.43    1.00
  15 -13   6    0.96    1.00
 -15 -13  -4   80.47    4.62
  13 -15   4   85.99    4.80
  15 -13   4   86.09    4.66
 -13 -15  -2   37.87    3.48
 -15 -13  -2   43.39    3.40
  13 -15   2   36.43    3.13
  15 -13   2   38.50    2.96
 -15 -13   0   42.26    3.70
  13 -15   0   42.00    3.37
  15 -13   0   42.80    3.16
 -13 -15   2   32.39    3.74
 -15 -13   2   27.36    3.12
  13 -15  -2   30.44    2.83
  15 -13  -2   28.90    2.58
 -13 -15   4   90.71    6.00
 -15 -13   4   84.01    5.42
  15 -13  -4   75.31    4.37
  15 -13  -6    2.44    0.90
 -13 -15   6    1.54    1.17
 -15 -13   6    3.68    1.27
  14 -15   5  136.40    5.99
  15 -14   5  134.24    5.94
  14 -15   3   98.39    4.97
  15 -14   3   98.49    4.86
 -14 -15  -1  106.31    5.75
 -15 -14  -1   98.86    5.49
  14 -15   1  107.76    5.26
  15 -14   1  100.59    5.09
 -14 -15   1   91.51    5.59
  14 -15  -1   94.73    4.89
  15 -14  -1   93.81    4.79
 -14 -15   3  103.24    5.83
 -15 -14   3   93.91    5.46
  15 -14  -3   95.96    4.78
 -14 -15   5  137.14    6.60
 -15 -14   5  147.70    6.65
 -15 -15   2  131.99    6.18
  16   0   0  418.71   25.17
 -16   0   0  472.65   18.77
 -16   0  -2  112.87    6.48
 -16   0   2  120.22    7.68
 -16   0   4  205.67   11.06
 -16   0   6  262.97   13.30
  16   0   6  290.18   12.46
 -16   0   8  247.18   11.77
 -16   0   8  222.73   10.50
  16   0   8  251.21   11.01
 -16   0  10   60.89    4.56
 -16   0  10   58.53    4.41
  16   0  10   68.18    4.56
 -16   0  12  319.20   12.48
 -16   0  12  304.13   12.54
  16   0  12  301.71   12.21
 -16   0  14  142.78    6.15
 -16   0  14  140.73    6.33
 -16   0  16    4.17    0.84
 -16   1  15  107.56    4.82
 -16   1  13   38.61    2.90
 -16   1  13   37.92    2.93
 -16   1  11  102.02    5.79
 -16   1  11  101.77    5.83
  16  -1  11  103.64    5.81
 -16   1   9  441.10   17.50
 -16   1   9  400.86   16.63
  16  -1   9  447.30   17.27
  16  -1   7  131.55    7.38
 -16   1   5   56.46    5.30
  16  -1   5   53.91    4.44
 -16   1   3  447.56   19.00
  16   1  -1  176.36   14.83
 -16  -1  -1  200.71    9.70
 -16   1   1  201.96   10.24
  16  -1   1  169.96   14.65
  16   1   1  178.76   14.69
 -16  -1   1  196.69    9.97
 -16   1  -1  185.21    9.12
  16  -1  -1  151.28   14.13
 -16  -1   3  425.12   18.43
 -16  -1   5   54.06    5.17
 -16  -1   7  118.74    7.88
 -16  -1   7  116.11    6.58
  16   1   7  133.33    7.08
 -16  -1   9  423.16   16.94
 -16  -1   9  395.68   16.25
  16   1   9  409.68   16.29
 -16  -1  11  100.53    5.70
 -16  -1  11   98.63    5.85
  16   1  11   98.94    5.47
 -16  -1  13   39.50    2.93
 -16  -1  13   42.63    3.18
 -16  -1  15  106.64    4.83
 -16   2  14   48.10    3.00
 -16   2  14   51.92    3.09
 -16   2  12  117.74    5.99
 -16   2  12  109.29    5.81
 -16   2  10   48.56    4.01
 -16   2  10   45.18    3.68
  16  -2  10   50.01    3.96
  16  -2   8   21.28    2.97
 -16   2   6   80.23    6.30
  16  -2   6   83.46    5.66
 -16   2   4   64.34    5.59
  16  -2   4   66.32    5.02
 -16  -2  -2   39.72    3.64
 -16   2   2   35.51    4.15
 -16   2   0   24.83    3.11
 -16  -2   0   24.26    3.27
 -16  -2   2   41.27    4.41
 -16  -2   4   62.79    5.59
 -16  -2   6   77.91    5.02
  16   2   6   87.19    5.40
 -16  -2   8   23.35    3.41
 -16  -2   8   14.48    2.48
  16   2   8   22.13    2.71
 -16  -2  10   58.91    4.40
 -16  -2  10   53.77    4.26
  16   2  10   58.57    4.07
 -16  -2  12  104.09    5.59
 -16  -2  12  114.18    5.98
 -16  -2  14   37.30    2.48
 -16  -2  14   45.78    2.93
 -16  -2  16    8.03    0.96
 -16   3  15   12.48    1.28
 -16   3  13   33.08    2.68
 -16   3  13   33.44    2.63
 -16   3  11   27.06    2.77
 -16   3  11   25.80    2.64
  16  -3  11   27.65    2.83
 -16   3   9    9.54    2.28
 -16   3   9    8.24    1.75
  16  -3   9    7.76    1.93
 -16   3   7  104.82    7.13
  16  -3   7   95.00    6.21
  16  -3   5   24.45    3.02
 -16   3   5   17.94    3.22
  16  -3   5   20.80    2.20
 -16  -3  -3   64.39    4.39
 -16   3   3   62.13    5.23
  16  -3   3   64.81    3.94
  16  -3   3   60.32    4.83
  16  -3   1   11.76    2.42
 -16  -3  -1   15.53    2.60
 -16   3   1   16.58    2.76
 -16  -3   1   15.26    2.88
 -16   3  -1   12.18    2.06
 -16  -3   3   72.03    5.88
 -16  -3   5   24.98    2.57
 -16  -3   7  117.57    7.63
 -16  -3   7   97.50    6.00
  16   3   7  106.77    5.99
  16   3   9   11.38    1.86
 -16  -3   9   11.49    2.41
 -16  -3   9   12.62    2.26
 -16  -3  11   20.15    2.35
 -16  -3  11   21.34    2.64
 -16  -3  13   30.21    2.40
 -16  -3  13   35.10    2.80
 -16  -3  15   11.64    1.30
 -16   4  14   43.01    2.66
 -16   4  14   42.63    2.58
 -16   4  12   82.09    4.61
 -16   4  12   73.19    4.25
 -16   4  10   71.53    4.75
 -16   4  10   62.29    4.16
  16  -4  10   72.93    4.82
  16  -4   8   95.98    5.08
  16  -4   8   83.57    5.77
 -16   4   6   34.33    4.11
  16  -4   6   39.85    3.07
  16  -4   6   36.55    3.73
 -16  -4  -4   23.69    2.62
 -16   4   4   26.96    3.67
  16  -4   4   28.34    2.63
  16  -4   4   27.91    3.26
 -16  -4  -2  102.46    6.10
 -16   4   2   96.76    6.46
  16  -4   2   91.03    6.20
  16  -4   0   27.12    3.29
 -16   4   0   29.96    3.11
 -16  -4   0   25.44    3.29
 -16  -4   2   91.82    6.49
  16  -4  -2   85.62    5.94
 -16  -4   4   24.36    3.83
 -16  -4   6   33.15    4.27
 -16  -4   6   36.31    3.31
 -16  -4   8   86.13    6.08
 -16  -4   8   81.28    5.38
  16   4   8   82.25    4.92
 -16  -4  10   64.97    4.43
 -16  -4  10   59.83    4.41
 -16  -4  12   69.91    4.08
 -16  -4  12   78.63    4.58
 -16  -4  14   46.95    2.90
 -16   5  13   56.43    3.32
 -16   5  13   50.86    3.03
 -16   5  11  134.32    6.61
 -16   5  11  122.84    6.17
  16  -5   9  101.41    5.34
  16  -5   7  408.72   15.51
  16  -5   7  394.65   16.61
  16  -5   5   77.49    4.65
  16  -5   5   75.63    5.54
  16  -5   3    0.85    1.63
  16  -5   3    1.90    1.18
 -16  -5  -3    3.51    1.42
 -16   5   3    1.54    2.02
 -16  -5  -1   84.30    5.68
 -16   5   1   82.50    5.53
  16  -5   1   80.27    5.84
 -16  -5   1   96.27    6.53
  16  -5  -1   92.84    6.38
  16  -5  -3    1.99    1.59
 -16  -5   3    2.17    2.07
 -16  -5   5   65.58    4.43
 -16  -5   7  427.20   17.73
 -16  -5   7  393.18   16.11
  16   5   7  400.61   15.54
 -16  -5   9  103.05    6.14
 -16  -5   9  106.41    6.13
 -16  -5  11  113.10    5.73
 -16  -5  11  113.31    6.15
 -16  -5  13   52.65    3.33
 -16  -5  15   62.72    3.08
 -16   6  14   61.73    3.11
   6 -16  12  343.50   13.01
 -16   6  12  369.06   13.52
 -16   6  10   67.43    4.39
   6 -16  10   61.79    3.84
  16  -6  10   59.35    3.77
  16  -6   8   35.31    2.94
  16  -6   8   33.63    3.35
  16  -6   6  360.85   14.26
  16  -6   6  365.85   15.44
 -16  -6  -4   88.11    5.26
  16  -6   4   85.03    5.02
  16  -6   4   90.96    6.23
 -16  -6  -2   52.53    4.25
 -16   6   2   55.82    4.49
  16  -6   2   50.44    4.69
 -16  -6   0  132.59    7.66
 -16   6   0  127.72    6.88
  16  -6   0  125.40    7.82
 -16  -6   2   51.66    4.82
  16  -6  -2   54.23    4.72
 -16  -6   4  102.76    5.68
 -16  -6   6  351.75   15.81
 -16  -6   8   30.77    3.42
 -16  -6   8   28.34    3.03
 -16  -6  10   62.50    4.11
 -16  -6  10   61.09    4.23
 -16  -6  12  338.12   12.74
 -16  -6  12  355.58   13.36
 -16  -6  14   62.16    3.21
   7 -16  13   33.00    2.09
 -16   7  13   34.08    2.35
 -16   7  11   89.22    4.77
   7 -16  11   82.37    4.37
  16  -7  11   84.07    4.30
   7 -16   9   73.35    4.38
  16  -7   9   70.93    4.28
  16  -7   7  199.37    8.67
  16  -7   7  181.33    9.27
 -16  -7  -5   17.69    2.26
  16  -7   5   20.75    2.41
  16  -7   5   18.14    2.96
  16  -7   3   13.30    2.00
 -16  -7  -3    9.42    1.99
  16  -7   3    9.29    2.45
 -16  -7  -1   52.43    4.40
 -16   7   1   52.32    4.12
  16  -7   1   50.01    4.74
 -16  -7   1   57.00    5.00
  16  -7  -1   62.43    5.23
 -16  -7   3   15.72    2.99
 -16  -7   3   14.61    2.02
 -16  -7   5   20.28    3.32
 -16  -7   5   19.92    2.47
 -16  -7   7  187.26    9.77
 -16  -7   7  183.77    8.81
 -16  -7   9   61.07    4.22
 -16  -7   9   60.38    4.24
 -16  -7  11   91.93    4.71
 -16  -7  11   95.60    5.18
 -16  -7  13   35.68    2.40
   8 -16  12   40.36    2.47
 -16   8  12   45.89    2.78
  16  -8  12   39.63    2.39
   8 -16  10    9.53    1.52
  16  -8  10    9.68    1.55
   8 -16   8   27.97    2.73
  16  -8   8   30.09    2.69
   8 -16   6    6.51    1.75
  16  -8   6    6.62    1.57
 -16  -8  -4   35.08    3.17
  16  -8   4   32.78    3.76
  16  -8   4   39.77    3.28
 -16  -8  -2   99.89    5.98
  16  -8   2   82.94    6.21
  16  -8   2   99.94    5.49
  -8 -16   0   13.66    3.70
 -16  -8   0   17.80    2.77
  16  -8   0   16.25    2.98
  -8 -16   2  104.08    8.84
 -16  -8   2   98.01    6.70
 -16  -8   2   96.96    5.25
  -8 -16   4   44.86    5.54
 -16  -8   4   33.62    3.11
 -16  -8   6    6.11    2.32
 -16  -8   6    7.81    1.73
 -16  -8   8   32.45    3.14
 -16  -8   8   26.17    2.77
 -16  -8  10    6.67    1.37
 -16  -8  10    8.69    1.65
 -16  -8  12   45.70    2.88
   9 -16  11    4.68    0.96
  16  -9  11    6.15    1.08
 -16   9  11    7.67    1.34
   9 -16   9   32.18    2.64
  16  -9   9   33.73    2.68
   9 -16   7   23.31    2.56
  16  -9   7   21.55    2.32
 -16  -9  -5   94.45    5.16
   9 -16   5   88.12    5.78
  16  -9   5   97.55    5.35
 -16  -9  -3  213.79    9.71
  16  -9   3  210.59    9.38
 -16  -9  -1   35.85    3.59
  16  -9   1   37.12    3.19
 -16  -9   1   30.95    3.65
  -9 -16   1   31.96    5.02
  -9 -16   3  176.33   11.98
 -16  -9   3  184.59    8.32
 -16  -9   5  106.87    6.80
 -16  -9   5  115.87    5.90
 -16  -9   7   27.70    3.05
 -16  -9   7   27.05    2.69
 -16  -9   9   30.61    2.58
 -16  -9   9   29.60    2.66
 -16  -9  11    4.23    1.11
  10 -16  10   17.01    1.64
  16 -10  10   20.32    1.82
  10 -16   8   33.19    2.74
  16 -10   8   36.31    2.78
  10 -16   6   90.69    5.33
  16 -10   6   89.60    4.99
 -16 -10  -4   45.04    3.44
  10 -16   4   43.33    3.88
  16 -10   4   49.09    3.51
 -16 -10  -2  126.22    6.85
 -10 -16   0  135.36    8.90
 -16 -10   0  115.84    6.93
 -10 -16   2  106.81    8.71
 -16 -10   2  110.65    6.83
 -16 -10   4   48.58    4.09
 -16 -10   4   51.67    3.34
 -16 -10   6   98.03    5.97
 -16 -10   6   87.31    5.05
 -16 -10   8   38.84    3.01
 -16 -10   8   37.32    2.97
 -16 -10  10   18.80    1.61
 -16 -10  10   20.95    1.99
  11 -16   9   10.15    1.29
  16 -11   9   11.48    1.48
  11 -16   7   28.82    2.49
  16 -11   7   32.21    2.54
 -16 -11  -5   61.73    3.69
  11 -16   5   63.09    4.28
  16 -11   5   61.42    3.83
 -16 -11  -3   36.98    3.19
  11 -16   3   35.75    3.46
 -16 -11  -1   42.41    3.62
  16 -11   1   40.67    3.13
 -16 -11   1   38.26    3.55
 -11 -16   1   38.54    4.69
  16 -11  -1   31.38    2.77
 -11 -16   3   34.33    4.81
  16 -11  -3   40.60    3.06
 -11 -16   5   53.77    4.83
 -16 -11   5   71.36    4.86
 -16 -11   7   31.41    2.75
 -16  12   8   14.29    1.55
  16 -12   8   15.71    1.55
  12 -16   6    4.53    1.13
 -16 -12  -4   32.84    2.66
  12 -16   4   40.78    3.16
  16 -12   4   38.01    2.84
 -16 -12  -2   24.88    2.57
  12 -16   2   28.32    2.80
  16 -12   2   24.82    2.30
  16 -12   0    8.70    1.49
 -16 -12   0    8.42    1.80
 -12 -16   2   28.44    3.72
  16 -12  -2   27.68    2.46
 -12 -16   4   31.21    3.63
 -16 -12   4   24.91    2.87
  16 -12  -4   28.85    2.42
  16 -12  -6    3.74    1.04
 -16 -12   6    2.83    1.20
  16 -13   5   26.08    2.10
 -16 -13  -3   20.26    2.02
  13 -16   3   17.38    1.97
  16 -13   3   20.44    1.96
 -16 -13  -1   17.25    2.09
  16 -13   1   14.77    1.74
 -16 -13   1   16.82    2.17
  16 -13  -1   18.80    1.87
 -16 -13   3   23.99    2.49
  16 -13  -3   19.59    1.95
 -16 -13   5   20.65    2.10
  16 -13  -5   18.76    1.67
 -16 -14   0  129.15    5.92
 -16 -14   2   59.17    3.59
 -17   0   1   27.24    3.38
 -17   0  -1   20.89    2.72
 -17   0   3   56.02    5.10
  17   0   5    5.97    1.86
 -17   0   5    4.09    2.15
  17   0   7   39.81    3.62
 -17   0   9  122.18    6.86
 -17   0   9  115.07    6.07
  17   0   9  133.32    6.71
 -17   0  11   63.78    4.10
 -17   0  11   59.29    3.86
  17   0  11   60.59    3.86
 -17   0  13    6.76    1.21
 -17   0  13    6.44    1.16
 -17   1  14   26.33    1.80
 -17   1  12  107.42    5.24
 -17   1  12   97.88    4.97
 -17   1  10   48.97    3.79
 -17   1  10   43.42    3.28
  17  -1  10   47.96    3.64
  17  -1   8    5.84    1.79
 -17   1   6   56.15    4.98
  17  -1   6   59.49    4.57
 -17   1   4   99.05    6.81
 -17  -1  -2   27.41    2.94
 -17   1   2   25.26    3.46
 -17  -1   0   37.25    3.85
 -17   1   0   39.21    3.88
 -17  -1   2   22.44    3.42
 -17  -1   4   75.01    5.92
 -17  -1   6   45.29    4.49
  17   1   6   54.90    4.16
  17   1   8    5.44    1.68
 -17  -1   8    6.33    2.17
 -17  -1   8    5.62    1.49
 -17  -1  10   47.96    3.66
 -17  -1  10   43.40    3.35
  17   1  10   42.65    3.31
 -17  -1  12   95.91    4.88
 -17  -1  12   93.14    4.85
 -17  -1  14   26.08    1.85
 -17   2  13   23.96    2.01
 -17   2  13   23.64    1.88
 -17   2  11   36.31    3.01
 -17   2  11   35.05    2.70
 -17   2   9    9.11    2.12
  17  -2   9    8.23    1.88
 -17   2   7   50.58    4.69
  17  -2   7   50.70    4.25
 -17   2   5   60.56    5.15
 -17   2   3  146.51    8.35
  17  -2   3  140.69    7.85
 -17  -2  -1   42.53    3.88
 -17   2   1   40.37    3.98
 -17  -2   1   34.84    3.99
 -17   2  -1   31.95    3.18
 -17  -2   3  160.05    9.11
 -17  -2   5   55.65    5.09
  17   2   5   61.10    4.49
 -17  -2   7   49.40    4.77
 -17  -2   7   54.40    3.81
  17   2   7   55.31    4.11
  17   2   9    6.33    1.57
 -17  -2   9    7.63    1.97
 -17  -2   9    9.00    1.68
 -17  -2  11   33.40    2.77
 -17  -2  11   32.20    2.75
  17   2  11   30.51    2.45
 -17  -2  13   27.48    2.04
 -17  -2  13   26.76    2.17
 -17   3  12    5.87    1.31
 -17   3  12    6.24    1.17
 -17   3  10   39.71    3.22
  17  -3  10   36.72    3.20
  17  -3   8  150.85    7.79
 -17   3   6   48.75    4.61
  17  -3   4   18.73    2.73
 -17   3   4   16.57    2.99
  17  -3   4   15.81    1.86
 -17  -3  -2  247.87   10.90
 -17   3   2  261.04   11.76
  17  -3   2  239.28   10.03
  17  -3   2  247.50   11.50
 -17  -3   0  240.64   11.28
 -17   3   0  235.88   10.66
  17  -3   0  235.38   11.12
 -17  -3   2  248.87   12.08
 -17  -3   4   27.36    3.75
  17   3   6   53.30    3.94
 -17  -3   8  137.91    7.52
 -17  -3   8  124.39    6.56
  17   3   8  135.90    6.67
 -17  -3  10   40.21    3.19
 -17  -3  10   34.22    2.93
  17   3  10   35.51    2.73
 -17  -3  12    4.86    1.13
 -17  -3  12    6.76    1.35
 -17  -3  14   28.43    1.90
 -17   4  13   60.84    3.26
 -17   4  11   72.57    4.27
  17  -4   9   21.32    2.62
 -17   4   7  152.69    8.39
 -17   4   5   99.54    6.46
  17  -4   5   89.02    4.89
  17  -4   5   94.49    6.03
 -17  -4  -3  231.97   10.16
 -17   4   3  231.02   11.05
  17  -4   3  230.35    9.65
  17  -4   3  230.21   10.97
 -17  -4  -1   34.95    3.44
 -17   4   1   37.57    3.50
  17  -4   1   29.46    3.48
 -17  -4   1   44.81    4.29
  17  -4  -1   43.70    3.99
 -17  -4   3  262.63   12.40
  17  -4  -3  247.80   11.56
 -17  -4   7  130.96    7.61
 -17  -4   7  116.78    6.26
  17   4   7  124.20    6.26
 -17  -4   9   17.89    2.38
 -17  -4   9   18.76    2.20
  17   4   9   17.33    1.91
 -17  -4  11   53.48    3.50
 -17  -4  11   62.58    3.82
 -17  -4  13   56.25    3.09
 -17   5  12  129.77    5.78
 -17   5  10   69.46    4.30
 -17   5   8   99.27    5.91
  17  -5   8   86.01    4.66
 -17   5   6   72.10    5.31
  17  -5   6   64.53    4.02
  17  -5   6   73.85    5.08
 -17   5   4  123.21    7.26
  17  -5   4  125.18    6.17
  17  -5   4  121.67    7.23
 -17  -5  -2  181.26    8.82
 -17   5   2  182.20    9.06
  17  -5   2  182.02    9.32
  17  -5   2  185.34    8.20
  17  -5   0    0.96    1.58
 -17  -5   0    0.76    1.53
 -17   5   0   -0.23    1.12
 -17  -5   2  180.31    9.59
  17  -5  -2  181.70    9.26
 -17  -5   4  120.86    7.48
 -17  -5   6   80.87    5.81
 -17  -5   6   81.71    4.73
  17   5   6   75.40    4.55
 -17  -5   8   85.43    5.37
 -17  -5   8   76.81    4.78
  17   5   8   85.17    4.53
 -17  -5  10   65.63    3.98
 -17  -5  10   62.69    3.97
 -17  -5  12  122.53    5.35
 -17  -5  12  129.35    5.71
 -17   6  13   77.30    3.58
 -17   6  11  111.71    5.35
  17  -6   9   47.27    3.03
 -17   6   7  320.39   13.41
  17  -6   7  298.08   11.95
  17  -6   7  304.13   12.88
 -17   6   5   83.39    5.61
  17  -6   5   86.61    4.70
  17  -6   5   71.00    5.24
  17  -6   3   13.22    1.89
 -17  -6  -3   11.31    1.94
 -17   6   3   13.75    2.37
  17  -6   3   12.89    2.36
 -17  -6  -1  176.71    8.86
 -17   6   1  174.34    8.45
  17  -6   1  184.26    9.36
 -17  -6   1  187.61    9.58
  17  -6  -1  187.38    9.48
 -17  -6   3    8.33    2.31
 -17  -6   5   81.99    4.70
 -17  -6   7  319.94   13.30
 -17  -6   7  296.84   12.08
  17   6   7  290.17   11.57
 -17  -6   9   42.86    3.23
 -17  -6   9   42.10    3.16
 -17  -6  11  108.90    5.07
 -17  -6  11  114.81    5.46
 -17  -6  13   74.35    3.47
 -17   7  12  131.05    5.54
  17  -7  10   26.63    2.03
 -17   7   8   50.16    3.82
  17  -7   8   48.07    3.17
 -17   7   6   88.14    5.64
  17  -7   6   94.93    4.98
  17  -7   6   82.59    5.37
 -17  -7  -4  118.02    5.92
 -17   7   4  102.71    6.45
  17  -7   4  118.53    5.95
  17  -7   4  114.49    6.72
 -17  -7  -2   87.35    5.38
 -17   7   2   85.07    5.32
  17  -7   2   79.80    5.60
  17  -7   2  100.41    5.20
 -17  -7   0   19.68    2.81
  17  -7   0   20.58    2.82
 -17  -7   2   78.82    5.57
 -17  -7   4  114.82    5.71
 -17  -7   6   94.21    6.01
 -17  -7   6   94.82    5.09
  17   7   6   86.31    4.57
 -17  -7   8   47.82    3.61
 -17  -7   8   45.51    3.28
 -17  -7  10   25.32    2.13
 -17  -7  10   26.87    2.32
 -17  -7  12  140.68    5.80
 -17   8  11    4.43    0.99
  17  -8   9    7.23    1.19
 -17   8   9    5.09    1.35
 -17   8   7  133.15    6.86
  17  -8   7  126.03    6.06
 -17   8   5   76.91    5.15
  17  -8   5   87.62    4.76
 -17  -8  -3  105.31    5.73
 -17   8   3  104.39    5.87
  17  -8   3   98.47    6.09
  17  -8   3  108.65    5.61
 -17  -8  -1  124.78    6.94
  17  -8   1  121.00    7.06
  17  -8   1  137.80    6.55
 -17  -8   1  133.44    7.43
 -17  -8   3   70.82    5.27
 -17  -8   5   77.16    5.48
 -17  -8   5   84.90    4.62
  17   8   5   78.82    4.17
 -17  -8   7  128.75    6.69
 -17  -8   7  121.37    6.05
 -17  -8   9    4.96    1.18
 -17  -8   9    3.34    1.11
 -17  -8  11    9.48    1.21
 -17   9  10   44.42    2.71
 -17   9   8  118.46    5.80
  17  -9   8  118.97    5.51
 -17   9   6   61.46    4.16
  17  -9   6   62.54    3.80
 -17  -9  -4  173.10    7.76
 -17   9   4  172.55    8.08
  17  -9   4  185.25    7.96
 -17  -9  -2  223.66    9.93
 -17   9   2  216.74    9.40
  17  -9   2  236.38    9.65
 -17  -9   0  131.80    7.05
  17  -9   0  128.35    6.36
 -17  -9   2  206.58    9.87
 -17  -9   6   67.94    4.58
 -17  -9   6   62.08    3.81
 -17  -9   8  114.91    5.44
 -17  -9   8  104.73    5.22
 -17  -9  10   48.56    2.83
 -17  10   9   19.31    1.74
  17 -10   9   18.06    1.57
 -17  10   7   75.49    4.19
  17 -10   7   75.01    4.01
 -17  10   5  122.67    6.10
  17 -10   5  132.87    6.06
 -17 -10  -3  146.05    6.88
 -17  10   3  146.40    6.67
  17 -10   3  153.85    6.90
 -17 -10  -1   97.26    5.48
  17 -10   1   91.59    4.96
 -17 -10   1   99.48    5.87
  17 -10  -3  142.23    6.58
 -17 -10   5  118.29    6.40
 -17 -10   7   69.70    4.00
  17 -11   6    2.81    0.98
 -17  11   6    2.79    1.00
 -17 -11  -4   53.35    3.21
 -17  11   4   55.81    3.30
 -17 -11  -2  112.64    5.68
 -17 -11   0   32.48    2.96
  17 -11   0   32.61    2.60
 -17 -11   2  129.17    6.63
  17 -11  -2  126.31    5.94
 -17 -11   4   60.17    4.12
  17 -11  -4   65.55    3.64
  17 -11  -6    3.29    1.01
 -17 -11   6    4.04    1.19
 -17 -12  -3   28.20    2.20
 -17 -12  -1   26.96    2.37
  17 -12   1   26.65    2.12
 -17 -12   1   31.80    2.65
  17 -12  -1   30.79    2.33
  17 -12  -3   22.18    1.90
 -17 -12   5   29.60    2.35
  17 -12  -5   28.70    2.01
 -18   0   0  107.94    6.23
 -18   0   2   52.69    4.51
 -18   0   4   28.73    3.55
  18   0   4   26.19    3.12
  18   0   6    1.75    1.48
 -18   0   6    3.12    1.92
  18   0   8   28.82    2.83
 -18   0  10   41.73    3.12
  18   0  10   34.77    2.79
 -18   0  12   37.53    2.45
 -18   1  11   40.43    2.88
 -18   1   9    2.82    1.49
  18  -1   9    2.75    1.29
 -18   1   7   65.98    4.87
  18  -1   7   54.41    4.19
 -18   1   5   75.94    5.59
 -18   1   3   86.88    5.98
  18  -1   3   88.96    5.69
 -18  -1  -1   38.89    3.40
 -18   1   1   40.25    3.75
  18  -1   1   37.18    3.77
 -18  -1   1   36.35    3.71
 -18   1  -1   37.42    3.24
 -18  -1   3  102.96    6.52
  18   1   3   95.26    5.92
 -18  -1   5   73.30    5.51
  18   1   5   71.44    4.85
  18   1   7   46.24    3.57
 -18  -1   9    3.88    1.48
  18   1   9    4.42    1.26
 -18  -1  11   36.18    2.59
 -18  -1  11   27.97    2.17
 -18   2  12   14.90    1.54
 -18   2  10   32.11    2.71
  18  -2  10   30.49    2.63
  18  -2   8  154.40    7.57
 -18   2   6  120.93    7.13
 -18   2   4   51.13    4.50
  18  -2   4   53.59    4.37
 -18  -2  -2  197.47    9.18
 -18   2   2  222.40   10.25
  18  -2   2  225.92   10.27
 -18  -2   0  382.94   15.39
 -18   2   0  372.18   14.95
  18  -2   0  370.50   15.44
 -18  -2   2  229.05   10.78
  18  -2  -2  214.56   10.26
 -18  -2   4   65.74    5.22
  18   2   4   61.75    4.41
 -18  -2   6  140.25    7.87
  18   2   6  140.49    7.10
 -18  -2   8  157.65    7.78
  18   2   8  146.96    7.05
 -18  -2  10   32.17    2.62
 -18  -2  10   29.23    2.23
  18   2  10   29.45    2.25
 -18  -2  12   13.26    1.39
 -18   3  11   56.79    3.38
  18  -3   9  146.09    7.04
 -18   3   7   14.36    2.45
 -18   3   5  171.97    8.91
  18  -3   5  182.07    8.85
 -18   3   3  619.37   23.40
  18  -3   3  616.47   23.36
 -18  -3  -1   36.48    3.27
 -18   3   1   35.48    3.30
  18  -3   1   34.18    2.60
  18  -3   1   38.71    3.60
 -18  -3   1   45.74    4.06
  18  -3  -1   42.34    3.83
 -18  -3   3  663.44   24.87
  18  -3  -3  636.34   24.09
 -18  -3   5  173.50    9.07
  18   3   5  175.71    8.16
  18   3   7   12.27    1.91
 -18  -3   9  151.72    6.95
 -18  -3   9  137.03    6.28
  18   3   9  143.61    6.39
 -18  -3  11   70.46    3.61
 -18  -3  11   60.63    3.37
 -18   4  12    1.63    0.74
 -18   4  10   28.28    2.42
 -18   4   8  167.25    8.01
 -18   4   6   69.95    4.81
  18  -4   6   62.07    4.50
 -18   4   4   43.86    3.92
  18  -4   4   38.31    2.78
  18  -4   4   38.02    3.62
 -18  -4  -2  323.47   12.73
 -18   4   2  307.85   13.04
  18  -4   2  295.31   11.99
  18  -4   2  329.15   13.51
 -18  -4   0  175.40    8.60
  18  -4   0  165.98    8.56
 -18  -4   2  323.62   13.51
  18  -4  -2  287.36   12.81
 -18  -4   4   54.98    4.54
  18   4   6   58.36    3.82
 -18  -4   8  135.07    6.36
  18   4   8  145.90    6.52
 -18  -4  10   27.07    2.29
 -18  -4  10   26.48    2.14
 -18   5  11   30.02    2.20
 -18   5   7   71.85    4.74
  18  -5   7   64.69    4.37
 -18   5   5   39.57    3.55
  18  -5   5   34.75    2.68
  18  -5   5   42.72    3.68
 -18  -5  -3  118.55    5.94
 -18   5   3  117.17    6.53
  18  -5   3  119.17    5.77
  18  -5   3  125.93    6.96
 -18  -5  -1   35.81    3.24
 -18   5   1   29.15    2.81
  18  -5   1   35.89    3.59
  18  -5   1   34.61    2.77
 -18  -5   1   33.58    3.46
  18  -5  -1   29.35    3.20
 -18  -5   3  129.03    7.31
 -18  -5   5   39.07    3.84
  18   5   5   39.81    3.08
 -18  -5   7   71.26    4.67
  18   5   7   58.61    3.55
 -18  -5   9    9.26    1.53
 -18  -5   9    7.90    1.27
 -18  -5  11   28.96    2.04
 -18  -5  11   31.57    2.07
 -18   6   8   38.70    3.08
 -18   6   6   63.62    4.40
  18  -6   6   62.74    3.62
  18  -6   6   65.98    4.32
 -18   6   4   76.38    4.80
  18  -6   4   72.53    4.10
  18  -6   4   69.16    4.72
 -18  -6  -2   99.85    5.41
 -18   6   2   96.00    5.38
  18  -6   2   92.61    5.75
  18  -6   2   97.29    5.09
  18  -6   0   16.13    1.95
 -18  -6   0   16.13    2.36
  18  -6   0   15.98    2.37
 -18  -6   2  100.35    6.11
 -18  -6   4   66.65    4.80
 -18  -6   6   69.54    4.72
  18   6   6   69.81    3.86
 -18  -6   8   38.75    2.94
 -18  -6   8   33.39    2.45
 -18  -6  10   13.11    1.51
 -18  -6  10   13.58    1.41
 -18   7   9   11.91    1.57
 -18   7   7  114.82    5.93
  18  -7   7  111.83    5.15
 -18   7   5   31.14    2.93
  18  -7   5   29.26    2.41
 -18  -7  -3   53.14    3.45
 -18   7   3   50.29    3.57
  18  -7   3   51.68    3.38
  18  -7   3   50.11    3.80
 -18  -7  -1   79.49    4.88
  18  -7   1   75.76    4.90
  18  -7   1   82.98    4.55
 -18  -7   1   75.51    5.04
  18  -7  -1   79.21    4.46
 -18  -7   3   37.08    3.51
  18   7   5   29.63    2.27
 -18  -7   7  117.75    5.88
 -18  -7   7  107.06    5.06
 -18  -7   9   10.87    1.40
 -18  -7   9   12.26    1.33
 -18   8   8   60.66    3.55
  18  -8   8   62.71    3.20
  18  -8   6    3.48    1.05
 -18   8   6    4.87    1.35
 -18   8   4   91.46    5.00
  18  -8   4  100.71    4.95
 -18  -8  -2  117.93    6.07
  18  -8   2  131.82    6.05
 -18  -8   0   17.73    2.31
  18  -8   0   22.32    2.16
 -18  -8   2  112.67    6.40
  18  -8  -2  123.44    5.85
  18   8   4   86.77    4.24
 -18  -8   6    6.58    1.60
 -18  -8   8   55.30    3.23
 -18   9   7   57.88    3.37
  18  -9   7   61.63    3.23
 -18   9   5   72.30    4.06
  18  -9   5   79.84    4.04
 -18  -9  -3  218.91    8.97
  18  -9   3  231.36    9.16
 -18  -9  -1   75.79    4.49
  18  -9   1   77.95    4.25
 -18  -9   1   69.55    4.44
  18  -9  -1   68.94    3.97
 -18  -9   3  189.05    8.82
  18  -9  -3  202.44    8.22
 -18  -9   5   68.13    4.26
 -18  -9   7   59.95    3.41
  18 -10   6   10.94    1.30
  18 -10   4   16.24    1.67
 -18 -10  -2   97.12    4.82
  18 -10   2   99.18    4.79
 -18 -10   0  111.81    5.67
  18 -10   0  113.77    5.35
 -18 -10   2   93.52    5.08
  18 -10  -4   15.86    1.63
  18 -10  -6    8.65    1.17
 -18 -10   6    7.77    1.30
  18 -11   3    5.58    1.01
 -18 -11  -1   32.17    2.39
 -18 -11   1   31.18    2.50
  18 -11  -3    7.11    1.09
 -19   0   1   35.54    3.21
  19   0   1   38.25    3.47
 -19   0   3   69.46    4.79
 -19   0   5   38.71    3.59
  19   0   5   36.54    3.20
 -19   0   7   38.74    3.41
  19   0   7   42.38    3.17
 -19   0   9    5.92    1.39
  19   0   9    5.45    1.23
 -19   0  11   10.97    1.30
 -19   1  10   39.09    2.64
  19  -1   8   89.60    4.86
 -19   1   6   20.17    2.62
  19  -1   6   21.62    2.50
 -19   1   4   29.67    3.21
 -19   1   2  106.17    5.99
  19  -1   2  110.57    6.22
 -19  -1   0  222.89    9.60
 -19   1   0  217.83    9.37
  19  -1   0  220.97   10.07
 -19  -1   2   97.63    5.69
  19  -1  -2   87.45    5.39
 -19  -1   4   29.50    3.30
  19   1   4   33.28    3.15
  19  -1  -4   31.23    2.98
 -19  -1   6   21.23    2.76
  19   1   6   22.70    2.45
  19  -1  -6   19.76    2.05
  19   1   8   83.94    4.46
 -19  -1  10   39.82    2.61
 -19   2  11   26.84    1.87
  19  -2   9   71.00    3.95
 -19   2   7   17.62    2.42
  19  -2   7   18.68    2.26
 -19   2   5  177.19    8.51
 -19   2   3  386.54   15.67
  19  -2   3  413.37   15.99
 -19  -2  -1   78.21    4.50
 -19   2   1   75.84    4.65
  19  -2   1   87.08    5.28
 -19  -2   1   78.90    4.96
  19  -2  -1   79.51    5.09
 -19  -2   3  388.00   15.83
  19  -2  -3  385.45   15.47
  19   2   3  410.54   15.56
 -19  -2   5  190.60    8.98
  19   2   5  192.03    8.44
  19  -2  -5  176.56    7.90
  19   2   7   18.16    2.03
 -19  -2   9   63.82    3.60
  19   2   9   54.77    3.13
 -19   3  10    8.64    1.23
 -19   3   8  134.63    6.49
  19  -3   8  140.04    6.48
 -19   3   6  170.86    8.07
 -19   3   4   65.43    4.39
  19  -3   4   63.09    4.44
 -19   3   2  208.71    9.42
  19  -3   2  232.38   10.08
 -19  -3   0  328.30   13.11
  19  -3   0  323.68   13.45
 -19  -3   2  230.46   10.25
  19  -3  -2  224.41    9.99
 -19  -3   4   74.63    4.93
  19  -3  -4   71.35    4.23
  19   3   4   73.97    4.44
 -19  -3   6  196.77    9.02
  19   3   6  190.33    8.21
 -19  -3   8  146.12    6.72
  19   3   8  141.08    6.11
 -19  -3  10    7.75    1.11
 -19   4   9   77.16    4.05
 -19   4   7   18.18    2.19
  19  -4   7   14.18    1.92
 -19   4   5  107.49    5.81
  19  -4   5  105.90    5.77
 -19   4   3  338.11   13.73
  19  -4   3  365.32   14.23
 -19  -4  -1   29.50    2.58
 -19   4   1   26.84    2.41
  19  -4   1   24.08    2.08
  19  -4   1   28.08    2.88
 -19  -4   1   32.90    3.09
  19  -4  -1   28.56    2.89
  19  -4  -1   32.31    2.41
 -19  -4   3  351.12   14.40
  19   4   3  358.09   13.75
 -19  -4   5   95.48    5.65
  19   4   5  101.90    5.08
  19   4   7   12.70    1.49
 -19  -4   9   85.20    4.22
 -19   5   8   35.58    2.68
 -19   5   6    2.76    1.21
  19  -5   6    2.53    1.21
 -19   5   4   21.14    2.38
  19  -5   4   24.10    2.51
 -19  -5  -2  120.85    5.76
 -19   5   2  122.86    5.91
  19  -5   2  123.06    5.57
  19  -5   2  123.52    6.43
  19  -5   0    3.80    1.04
 -19  -5   0    4.35    1.42
  19  -5   0    2.63    1.32
 -19  -5   2  138.29    7.09
 -19  -5   4   23.13    2.77
  19   5   4   27.27    2.35
  19   5   6    1.32    0.85
 -19  -5   8   31.42    2.43
 -19   6   7   39.55    2.86
  19  -6   5   10.07    1.26
 -19   6   5   11.83    1.72
  19  -6   3   11.60    1.43
 -19   6   3   13.83    1.76
  19  -6   3   14.09    1.96
 -19  -6  -1   38.23    2.89
  19  -6   1   39.84    2.67
  19  -6   1   38.46    3.04
 -19  -6   1   50.32    3.66
  19  -6  -1   46.70    3.02
  19   6   3   11.28    1.53
 -19  -6   3   12.47    2.12
  19   6   5    9.42    1.29
 -19  -6   5    9.11    1.76
 -19  -6   7   42.23    2.92
 -19   7   6   26.14    2.19
  19  -7   4    4.48    1.00
 -19   7   4    4.50    1.11
 -19  -7  -2   50.00    3.14
  19  -7   2   57.36    3.24
 -19  -7   0   13.02    1.83
  19  -7   0   12.28    1.55
 -19  -7   2   53.66    3.69
  19  -7  -2   52.72    3.20
  19   7   4    2.59    0.89
  19  -7  -4    3.74    1.01
 -19  -7   4    3.89    1.34
 -19  -7   6   34.40    2.70
  19  -8   3   81.66    4.01
 -19  -8  -1   15.35    1.77
  19  -8   1   15.24    1.68
 -19  -8   1   13.18    1.85
  19  -8  -1   15.55    1.70
 -19  -8   3   70.30    4.06
  19  -8  -3   73.22    3.68
  19   8   3   61.18    3.26
  19  -8  -5   13.52    1.45
  19  -9   2   92.93    4.33
 -19  -9   0  132.74    6.04
  19  -9   0  143.80    5.95
 -19  -9   2   90.79    4.68
  19  -9  -2   96.99    4.43
  19  -9  -4    6.81    1.03
 -19  -9   4    4.82    1.09
  20   0   0   67.59    4.30
  20   0   2   14.74    2.04
  20   0  -2   13.53    2.00
 -20   0   2   13.64    1.76
 -20   0   4   25.90    2.44
  20   0  -4   24.44    2.32
 -20   0   6   31.06    2.60
  20   0   6   30.96    2.52
  20   0   8    0.69    0.69
 -20   1   7   75.57    4.18
  20  -1   7   77.81    4.09
 -20   1   5   55.63    3.64
  20   1  -5   56.90    3.40
 -20   1   3   18.42    2.00
  20  -1   3   17.20    2.16
  20   1  -3   18.20    2.11
  20  -1   1   16.76    2.23
 -20   1   1   13.56    1.65
  20   1  -1   18.15    2.20
  20  -1  -1   15.41    2.03
  20   1   1   14.77    2.06
 -20  -1   1   14.23    1.75
 -20  -1   3   17.72    2.08
  20  -1  -3   20.39    2.15
 -20  -1   5   59.49    3.75
  20   1   5   61.61    3.66
 -20  -1   7   71.60    4.03
  20   1   7   73.18    3.78
 -20   2   8   60.53    3.34
 -20   2   6   32.69    2.64
 -20   2   4    7.44    1.48
  20  -2   4    7.95    1.62
 -20   2   2   60.81    3.64
  20  -2   2   68.23    4.19
 -20  -2   0  147.25    6.55
  20  -2   0  154.13    7.22
  20   2   0  154.52    7.17
 -20  -2   2   63.79    3.95
  20  -2  -2   68.22    4.09
  20  -2  -4    7.15    1.27
  20   2   4    8.87    1.54
 -20  -2   4    6.50    1.51
 -20  -2   6   33.28    2.68
  20   2   6   32.50    2.39
 -20   3   7   12.75    1.55
 -20   3   5   87.99    4.67
  20  -3   5   96.67    4.91
 -20   3   3  184.12    8.03
  20  -3   3  208.34    8.63
  20  -3   1   38.97    3.07
 -20  -3   1   36.83    2.72
  20  -3  -1   32.16    2.75
  20   3   1   34.98    2.78
 -20  -3   3  186.28    8.34
  20   3   3  198.33    8.23
 -20  -3   5   86.26    4.76
  20   3   5   94.26    4.54
 -20   4   6   42.44    2.77
 -20   4   4   62.92    3.66
  20  -4   4   74.97    4.10
  20  -4   2  155.32    7.07
 -20  -4   0   53.81    3.33
  20  -4   0   61.29    3.66
 -20  -4   2  157.82    7.15
  20   4   2  162.92    7.07
 -20  -4   4   57.94    3.65
  20  -4  -4   56.14    2.96
  20   4   4   63.23    3.44
 -20  -4   6   40.82    2.82
  20  -5   3   16.59    1.84
  20  -5   1   87.26    4.53
 -20  -5   1  102.94    4.95
  20   5   1  110.23    5.04
 -20  -5   3   13.87    1.76
  20  -5  -3   13.45    1.35
  20   5   3   14.83    1.60
 -20  -5   5   58.81    3.50
 -20  -6   0   28.60    2.12
  20  -6   0   29.18    1.94
 -20  -6   2   67.30    3.68
  20  -6  -2   59.96    3.19
  20   6   2   68.04    3.49
 -20  -6   4   33.18    2.43
  20   7   1   59.70    3.13
  21   0   1    3.18    1.04
  21   0  -1    2.41    1.00
  21   0   3   68.77    3.72
  21  -1   4   79.47    4.03
  21   1  -2    9.03    1.36
  21  -1   2   10.86    1.51
  21  -1   0    1.41    0.94
  21   1   0    2.23    0.97
  21   1   4   89.63    4.30
  21   2  -3    3.08    0.89
  21  -2   3    4.21    1.06
  21   2  -1    7.24    1.22
  21  -2   1    4.68    1.10
  21   2   3    5.80    1.07
  21   3  -2   21.27    1.86
  21   3   2   22.69    1.87
  21   4   1   51.20    2.89
   0   0   0    0.00    0.00


TITL Ag12bpy_vacuum_100K in I-42m
REM I-42m (#121 in standard setting)
CELL 1.54184  17.296487  17.296487  19.875295  90.0000  90.0000  90.0000
ZERR    3.00   0.000128   0.000128   0.000266   0.0000   0.0000   0.0000
LATT -2
SYMM -x,-y, z
SYMM  y,-x,-z
SYMM -y, x,-z
SYMM -x, y,-z
SYMM  x,-y,-z
SYMM -y,-x, z
SYMM  y, x, z
SFAC C H N O S Ag
UNIT 240.00 312.00 24.00 24.00 24.00 36.00
TREF
HKLF 4
END
_computing_structure_solution     'SHELXT 2014/5 (Sheldrick, 2014)'
;
_shelx_hkl_checksum              46816
loop_
_space_group_symop_operation_xyz
'x, y, z'
'-x, -y, z'
'y, -x, -z'
'-y, x, -z'
'-x, y, -z'
'x, -y, -z'
'-y, -x, z'
'y, x, z'
'x+1/2, y+1/2, z+1/2'
'-x+1/2, -y+1/2, z+1/2'
'y+1/2, -x+1/2, -z+1/2'
'-y+1/2, x+1/2, -z+1/2'
'-x+1/2, y+1/2, -z+1/2'
'x+1/2, -y+1/2, -z+1/2'
'-y+1/2, -x+1/2, z+1/2'
'y+1/2, x+1/2, z+1/2'
loop_
_atom_site_label
_atom_site_type_symbol
_atom_site_fract_x
_atom_site_fract_y
_atom_site_fract_z
_atom_site_U_iso_or_equiv
_atom_site_adp_type
_atom_site_occupancy
_atom_site_site_symmetry_order
_atom_site_calc_flag
_atom_site_refinement_flags_posn
_atom_site_refinement_flags_adp
_atom_site_refinement_flags_occupancy
_atom_site_disorder_assembly
_atom_site_disorder_group
Ag1 Ag 0.5000 0.5000 0.29212(12) 0.0213(5) Uani 1 4 d S T P . .
Ag2 Ag 0.47200(7) 0.33939(7) 0.33024(8) 0.0306(3) Uani 1 1 d . . . . .
Ag3 Ag 0.41607(19) 0.5000 0.5000 0.0271(7) Uani 0.5 2 d S T P . .
C1 C 0.3760(10) 0.6240(10) 0.2116(13) 0.038(7) Uani 1 2 d DS T P . .
C2 C 0.2910(12) 0.6082(16) 0.1976(14) 0.061(7) Uani 1 1 d D . . . .
H2A H 0.2812 0.5525 0.2002 0.092 Uiso 1 1 calc GR . . . .
H2B H 0.2778 0.6269 0.1524 0.092 Uiso 1 1 calc GR . . . .
H2C H 0.2592 0.6352 0.2310 0.092 Uiso 1 1 calc GR . . . .
C3 C 0.4235(14) 0.5765(14) 0.161(2) 0.068(11) Uani 1 2 d DS T P . .
H3A H 0.4270 0.5228 0.1760 0.102 Uiso 0.5 1 calc GR . . A -1
H3B H 0.4755 0.5985 0.1568 0.102 Uiso 0.5 1 calc GR . . A -1
H3C H 0.3980 0.5781 0.1166 0.102 Uiso 0.5 1 calc GR . . A -1
C4 C 0.3308(9) 0.3308(9) 0.4674(10) 0.025(5) Uani 1 2 d DS TU P . .
C5 C 0.2882(11) 0.2882(11) 0.4108(15) 0.056(9) Uani 1 2 d DS TU P . .
H5A H 0.2610 0.3258 0.3825 0.084 Uiso 0.5 1 calc GR . . B -1
H5B H 0.2508 0.2521 0.4303 0.084 Uiso 0.5 1 calc GR . . B -1
H5C H 0.3256 0.2595 0.3834 0.084 Uiso 0.5 1 calc GR . . B -1
C6 C 0.3779(14) 0.2730(15) 0.5088(15) 0.069(8) Uani 1 1 d D U . . .
H6A H 0.4077 0.2397 0.4784 0.103 Uiso 1 1 calc GR . . . .
H6B H 0.3429 0.2412 0.5359 0.103 Uiso 1 1 calc GR . . . .
H6C H 0.4134 0.3010 0.5385 0.103 Uiso 1 1 calc GR . . . .
C7 C 0.3398(10) 0.3398(10) 0.2100(13) 0.026(5) Uani 1 2 d S T P . .
C8 C 0.3053(10) 0.3053(10) 0.1440(13) 0.039(6) Uani 1 2 d DS TU P . .
C9 C 0.4272(10) 0.1584(11) 0.3142(11) 0.037(5) Uani 1 1 d . . . . .
H9 H 0.3812 0.1819 0.2980 0.044 Uiso 1 1 calc R . . . .
C10 C 0.4305(11) 0.0801(11) 0.3171(12) 0.039(6) Uani 1 1 d . . . . .
H10 H 0.3873 0.0501 0.3035 0.047 Uiso 1 1 calc R . . . .
C11 C 0.4979(11) 0.0434(8) 0.3401(9) 0.031(4) Uani 1 1 d . . . . .
C12 C 0.5598(12) 0.0907(11) 0.3562(13) 0.045(6) Uani 1 1 d . . . . .
H12 H 0.6080 0.0694 0.3696 0.054 Uiso 1 1 calc R . . . .
C13 C 0.5496(11) 0.1694(10) 0.3523(10) 0.031(4) Uani 1 1 d . . . . .
H13 H 0.5922 0.2012 0.3644 0.037 Uiso 1 1 calc R . . . .
F1 F 0.2530(9) 0.2530(9) 0.1588(14) 0.089(8) Uani 1 2 d DS TU P . .
F2 F 0.3546(12) 0.2673(14) 0.1069(10) 0.112(7) Uani 1 1 d D U . . .
N1 N 0.4857(8) 0.2041(8) 0.3333(9) 0.034(3) Uani 1 1 d . . . . .
O1 O 0.3976(10) 0.3069(11) 0.2293(8) 0.058(5) Uani 1 1 d . . . . .
S1 S 0.3999(2) 0.6001(2) 0.2974(3) 0.0271(13) Uani 1 2 d S T P . .
S2 S 0.3988(3) 0.3988(3) 0.4255(3) 0.0319(14) Uani 1 2 d S T P . .
loop_
_atom_site_aniso_label
_atom_site_aniso_U_11
_atom_site_aniso_U_22
_atom_site_aniso_U_33
_atom_site_aniso_U_23
_atom_site_aniso_U_13
_atom_site_aniso_U_12
Ag1 0.0146(6) 0.0146(6) 0.0348(12) 0.000 0.000 0.0024(9)
Ag2 0.0285(6) 0.0155(6) 0.0478(7) -0.0009(6) -0.0029(6) -0.0016(4)
Ag3 0.0218(15) 0.0240(16) 0.0357(18) -0.0087(17) 0.000 0.000
C1 0.045(10) 0.045(10) 0.025(13) -0.007(8) 0.007(8) 0.013(13)
C2 0.048(15) 0.070(18) 0.065(16) 0.010(14) -0.034(12) 0.015(12)
C3 0.057(14) 0.057(14) 0.09(3) 0.009(16) -0.009(16) 0.016(17)
C4 0.024(6) 0.024(6) 0.027(9) 0.009(5) 0.009(5) -0.012(8)
C5 0.058(12) 0.058(12) 0.052(16) -0.004(8) -0.004(8) -0.043(14)
C6 0.052(13) 0.074(15) 0.081(16) 0.062(14) -0.012(13) -0.011(11)
C7 0.021(7) 0.021(7) 0.038(13) 0.003(7) 0.003(7) -0.009(10)
C8 0.039(8) 0.039(8) 0.039(11) -0.008(7) -0.008(7) 0.004(10)
C9 0.020(8) 0.016(8) 0.074(15) 0.008(9) -0.013(9) 0.000(7)
C10 0.021(9) 0.017(8) 0.080(17) -0.014(9) -0.006(9) -0.005(6)
C11 0.033(8) 0.015(8) 0.045(10) -0.010(7) -0.002(9) -0.002(7)
C12 0.032(11) 0.017(9) 0.086(18) -0.004(10) -0.021(11) -0.001(8)
C13 0.029(9) 0.013(8) 0.051(12) -0.001(7) -0.010(8) 0.008(7)
F1 0.090(10) 0.090(10) 0.087(15) -0.019(9) -0.019(9) -0.034(12)
F2 0.096(13) 0.159(17) 0.083(11) -0.073(12) -0.011(10) 0.013(12)
N1 0.026(8) 0.021(7) 0.056(9) 0.001(8) 0.000(8) -0.005(6)
O1 0.058(11) 0.060(11) 0.056(10) -0.025(9) -0.018(9) 0.010(9)
S1 0.0194(17) 0.0194(17) 0.043(3) 0.0023(17) -0.0023(17) 0.015(2)
S2 0.032(2) 0.032(2) 0.031(3) -0.0038(18) -0.0038(18) -0.014(3)
loop_
_atom_type_symbol
_atom_type_description
_atom_type_scat_dispersion_real
_atom_type_scat_dispersion_imag
_atom_type_scat_source
C C 0.0181 0.0091 'International Tables Vol C Tables 4.2.6.8 and 6.1.1.4'
H H 0.0000 0.0000 'International Tables Vol C Tables 4.2.6.8 and 6.1.1.4'
Ag Ag 0.1306 4.2820 'International Tables Vol C Tables 4.2.6.8 and 6.1.1.4'
F F 0.0727 0.0534 'International Tables Vol C Tables 4.2.6.8 and 6.1.1.4'
N N 0.0311 0.0180 'International Tables Vol C Tables 4.2.6.8 and 6.1.1.4'
O O 0.0492 0.0322 'International Tables Vol C Tables 4.2.6.8 and 6.1.1.4'
S S 0.3331 0.5567 'International Tables Vol C Tables 4.2.6.8 and 6.1.1.4'
loop_
_exptl_crystal_face_index_h
_exptl_crystal_face_index_k
_exptl_crystal_face_index_l
_exptl_crystal_face_perp_dist
1 -11 2 0.0851
-1 11 -2 0.0873
-11 0 -2 0.0792
11 0 2 0.0594
0 -11 3 0.0846
0 11 -3 0.0846
-1 -1 -13 0.0293
1 1 13 0.0326
11 0 -4 0.0540
-10 1 6 0.0812
loop_
_geom_angle_atom_site_label_1
_geom_angle_atom_site_label_2
_geom_angle_atom_site_label_3
_geom_angle
_geom_angle_site_symmetry_1
_geom_angle_site_symmetry_3
Ag2 Ag1 Ag2 149.92(11) . 2_665
Ag2 Ag1 Ag2 67.49(5) . 8
Ag2 Ag1 Ag2 67.49(5) 2_665 7_665
Ag2 Ag1 Ag2 104.38(6) 2_665 8
Ag2 Ag1 Ag2 104.38(6) . 7_665
Ag2 Ag1 Ag2 149.92(11) 7_665 8
S1 Ag1 Ag2 55.53(5) 2_665 .
S1 Ag1 Ag2 122.95(7) 2_665 8
S1 Ag1 Ag2 122.95(7) . 7_665
S1 Ag1 Ag2 55.53(5) . 2_665
S1 Ag1 Ag2 122.95(7) . .
S1 Ag1 Ag2 122.95(7) 2_665 2_665
S1 Ag1 Ag2 55.53(5) . 8
S1 Ag1 Ag2 55.53(5) 2_665 7_665
S1 Ag1 S1 175.1(3) . 2_665
Ag1 Ag2 Ag2 56.26(3) . 8
N1 Ag2 Ag1 159.4(4) . .
N1 Ag2 Ag2 140.8(3) . 8
N1 Ag2 O1 81.1(6) . .
N1 Ag2 S1 109.2(4) . 2_665
N1 Ag2 S2 116.2(5) . .
O1 Ag2 Ag1 95.3(5) . .
O1 Ag2 Ag2 77.9(4) . 8
O1 Ag2 S1 110.0(5) . 2_665
O1 Ag2 S2 116.7(4) . .
S1 Ag2 Ag1 52.79(12) 2_665 .
S1 Ag2 Ag2 109.00(11) 2_665 8
S2 Ag2 Ag1 83.64(14) . .
S2 Ag2 Ag2 49.52(10) . 8
S2 Ag2 S1 117.9(2) . 2_665
Ag3 Ag3 Ag3 45.0 3_566 2_665
Ag3 Ag3 Ag3 90.001(1) 3_566 4_656
Ag3 Ag3 Ag3 45.0 4_656 2_665
Ag3 Ag3 S2 63.64(10) 3_566 3_566
Ag3 Ag3 S2 63.64(10) 4_656 .
Ag3 Ag3 S2 128.79(17) 4_656 3_566
Ag3 Ag3 S2 128.79(17) 3_566 .
S2 Ag3 Ag3 97.41(13) . 2_665
S2 Ag3 Ag3 97.41(13) 3_566 2_665
S2 Ag3 S2 165.2(3) . 3_566
C2 C1 C2 108(3) . 7_665
C2 C1 C3 107.4(18) 7_665 .
C2 C1 C3 107.4(18) . .
C2 C1 S1 110.7(15) . .
C2 C1 S1 110.7(15) 7_665 .
C3 C1 S1 112(2) . .
C1 C2 H2A 109.5 . .
C1 C2 H2B 109.5 . .
C1 C2 H2C 109.5 . .
H2A C2 H2B 109.5 . .
H2A C2 H2C 109.5 . .
H2B C2 H2C 109.5 . .
C1 C3 H3A 109.5 . .
C1 C3 H3B 109.5 . .
C1 C3 H3C 109.5 . .
H3A C3 H3B 109.5 . .
H3A C3 H3C 109.5 . .
H3B C3 H3C 109.5 . .
C5 C4 S2 106.2(17) . .
C6 C4 C5 109.6(17) 8 .
C6 C4 C5 109.6(17) . .
C6 C4 C6 114(3) . 8
C6 C4 S2 108.5(13) . .
C6 C4 S2 108.5(13) 8 .
C4 C5 H5A 109.5 . .
C4 C5 H5B 109.5 . .
C4 C5 H5C 109.5 . .
H5A C5 H5B 109.5 . .
H5A C5 H5C 109.5 . .
H5B C5 H5C 109.5 . .
C4 C6 H6A 109.5 . .
C4 C6 H6B 109.5 . .
C4 C6 H6C 109.5 . .
H6A C6 H6B 109.5 . .
H6A C6 H6C 109.5 . .
H6B C6 H6C 109.5 . .
O1 C7 C8 113.7(14) 8 .
O1 C7 C8 113.7(14) . .
O1 C7 O1 132(3) 8 .
F1 C8 C7 110(2) . .
F2 C8 C7 114.7(16) 8 .
F2 C8 C7 114.7(16) . .
F2 C8 F1 103.3(19) . .
F2 C8 F1 103.3(19) 8 .
F2 C8 F2 110(3) 8 .
C10 C9 H9 118.5 . .
N1 C9 H9 118.5 . .
N1 C9 C10 123.0(17) . .
C9 C10 H10 120.0 . .
C9 C10 C11 120.0(17) . .
C11 C10 H10 120.0 . .
C10 C11 C11 119.4(19) . 2_655
C12 C11 C10 116.7(15) . .
C12 C11 C11 124(2) . 2_655
C11 C12 H12 120.9 . .
C13 C12 C11 118.3(18) . .
C13 C12 H12 120.9 . .
C12 C13 H13 117.4 . .
N1 C13 C12 125.1(18) . .
N1 C13 H13 117.4 . .
C9 N1 Ag2 120.2(12) . .
C13 N1 Ag2 123.1(11) . .
C13 N1 C9 116.6(15) . .
C7 O1 Ag2 125.8(16) . .
Ag1 S1 Ag2 71.68(12) . 8
Ag1 S1 Ag2 71.68(12) . 2_665
Ag2 S1 Ag2 130.9(2) 2_665 8
C1 S1 Ag1 106.5(8) . .
C1 S1 Ag2 110.4(2) . 8
C1 S1 Ag2 110.4(2) . 2_665
Ag2 S2 Ag2 81.0(2) . 8
Ag3 S2 Ag2 137.0(3) 4_656 8
Ag3 S2 Ag2 98.91(13) . 8
Ag3 S2 Ag2 137.0(3) . .
Ag3 S2 Ag2 98.91(13) 4_656 .
Ag3 S2 Ag3 52.72(19) 4_656 .
C4 S2 Ag2 113.6(5) . 8
C4 S2 Ag2 113.6(5) . .
C4 S2 Ag3 105.8(6) . .
C4 S2 Ag3 105.8(6) . 4_656
loop_
_geom_bond_atom_site_label_1
_geom_bond_atom_site_label_2
_geom_bond_distance
_geom_bond_site_symmetry_2
Ag1 Ag2 2.9199(14) .
Ag1 Ag2 2.9200(14) 8
Ag1 Ag2 2.9200(14) 7_665
Ag1 Ag2 2.9200(14) 2_665
Ag1 S1 2.450(5) 2_665
Ag1 S1 2.450(5) .
Ag2 Ag2 3.244(2) 8
Ag2 N1 2.353(14) .
Ag2 O1 2.448(15) .
Ag2 S1 2.536(3) 2_665
Ag2 S2 2.498(5) .
Ag3 Ag3 2.053(5) 3_566
Ag3 Ag3 2.903(7) 2_665
Ag3 Ag3 2.053(5) 4_656
Ag3 S2 2.312(6) 3_566
Ag3 S2 2.312(6) .
C1 C2 1.52(2) .
C1 C2 1.52(2) 7_665
C1 C3 1.54(2) .
C1 S1 1.80(3) .
C2 H2A 0.9800 .
C2 H2B 0.9800 .
C2 H2C 0.9800 .
C3 H3A 0.9800 .
C3 H3B 0.9800 .
C3 H3C 0.9800 .
C4 C5 1.53(2) .
C4 C6 1.530(18) 8
C4 C6 1.530(18) .
C4 S2 1.86(2) .
C5 H5A 0.9800 .
C5 H5B 0.9800 .
C5 H5C 0.9800 .
C6 H6A 0.9800 .
C6 H6B 0.9800 .
C6 H6C 0.9800 .
C7 C8 1.56(4) .
C7 O1 1.212(19) 8
C7 O1 1.212(19) .
C8 F1 1.31(2) .
C8 F2 1.306(19) .
C8 F2 1.306(19) 8
C9 H9 0.9500 .
C9 C10 1.36(3) .
C9 N1 1.34(2) .
C10 H10 0.9500 .
C10 C11 1.40(3) .
C11 C11 1.50(3) 2_655
C11 C12 1.38(3) .
C12 H12 0.9500 .
C12 C13 1.37(3) .
C13 H13 0.9500 .
C13 N1 1.31(2) .
S1 Ag2 2.536(3) 2_665
S1 Ag2 2.536(3) 8
S2 Ag2 2.498(5) 8
S2 Ag3 2.312(6) 4_656
loop_
_geom_torsion_atom_site_label_1
_geom_torsion_atom_site_label_2
_geom_torsion_atom_site_label_3
_geom_torsion_atom_site_label_4
_geom_torsion
_geom_torsion_site_symmetry_1
_geom_torsion_site_symmetry_2
_geom_torsion_site_symmetry_3
_geom_torsion_site_symmetry_4
C2 C1 S1 Ag1 120.0(16) . . . .
C2 C1 S1 Ag1 -120.0(16) 7_665 . . .
C2 C1 S1 Ag2 163.9(14) 7_665 . . 8
C2 C1 S1 Ag2 -43.8(18) 7_665 . . 2_665
C2 C1 S1 Ag2 -163.9(14) . . . 2_665
C2 C1 S1 Ag2 43.8(18) . . . 8
C3 C1 S1 Ag1 0.000(4) . . . .
C3 C1 S1 Ag2 -76.2(3) . . . 8
C3 C1 S1 Ag2 76.2(3) . . . 2_665
C5 C4 S2 Ag2 45.1(3) . . . 8
C5 C4 S2 Ag2 -45.1(3) . . . .
C5 C4 S2 Ag3 152.52(15) . . . .
C5 C4 S2 Ag3 -152.52(15) . . . 4_656
C6 C4 S2 Ag2 -72.7(19) 8 . . 8
C6 C4 S2 Ag2 -162.8(16) 8 . . .
C6 C4 S2 Ag2 162.8(16) . . . 8
C6 C4 S2 Ag2 72.7(19) . . . .
C6 C4 S2 Ag3 -89.7(17) . . . .
C6 C4 S2 Ag3 34.8(18) 8 . . .
C6 C4 S2 Ag3 89.7(17) 8 . . 4_656
C6 C4 S2 Ag3 -34.8(18) . . . 4_656
C8 C7 O1 Ag2 -179.7(14) . . . .
C9 C10 C11 C11 -177.3(18) . . . 2_655
C9 C10 C11 C12 -3(3) . . . .
C10 C9 N1 Ag2 -177.6(18) . . . .
C10 C9 N1 C13 3(3) . . . .
C10 C11 C12 C13 4(3) . . . .
C11 C11 C12 C13 178.0(16) 2_655 . . .
C11 C12 C13 N1 -1(4) . . . .
C12 C13 N1 Ag2 178.6(18) . . . .
C12 C13 N1 C9 -2(3) . . . .
N1 C9 C10 C11 -1(4) . . . .
O1 C7 C8 F1 -92(2) 8 . . .
O1 C7 C8 F1 92(2) . . . .
O1 C7 C8 F2 152(2) 8 . . .
O1 C7 C8 F2 -152(2) . . . 8
O1 C7 C8 F2 23(3) 8 . . 8
O1 C7 C8 F2 -23(3) . . . .
O1 C7 O1 Ag2 6(5) 8 . . .
loop_
_exptl_oxdiff_crystal_face_indexfrac_h
_exptl_oxdiff_crystal_face_indexfrac_k
_exptl_oxdiff_crystal_face_indexfrac_l
_exptl_oxdiff_crystal_face_x
_exptl_oxdiff_crystal_face_y
_exptl_oxdiff_crystal_face_z
1.0000 -11.0000 2.0000 -0.0271 0.1226 0.9888
-1.0000 11.0000 -2.0000 0.0271 -0.1226 -0.9888
-11.0000 -0.0000 -2.0000 0.8637 -0.4859 -0.0285
11.0000 0.0000 2.0000 -0.8637 0.4859 0.0285
-0.0000 -11.0000 3.0000 -0.0036 0.0085 1.0078
0.0000 11.0000 -3.0000 0.0036 -0.0085 -1.0078
-1.0000 -1.0000 -13.0000 0.6875 0.7315 -0.1502
1.0000 1.0000 13.0000 -0.6875 -0.7315 0.1502
11.0000 0.0000 -4.0000 -0.5844 0.8411 -0.0811
-10.0000 1.0000 6.0000 0.4089 -0.9215 0.0303
