#------------------------------------------------------------------------------
#$Date: 2019-06-14 11:57:47 +0300 (Fri, 14 Jun 2019) $
#$Revision: 215979 $
#$URL: file:///home/coder/svn-repositories/cod/cif/1/55/14/1551441.cif $
#------------------------------------------------------------------------------
#
# This file is available in the Crystallography Open Database (COD),
# http://www.crystallography.net/
#
# All data on this site have been placed in the public domain by the
# contributors.
#
data_1551441
loop_
_publ_author_name
'Ren-Wu Huang'
'Yong-Sheng Wei'
'Xi-Yan Dong'
'Xiao-Hui Wu'
'Chen-Xia Du'
'Shuang-Quan Zang'
'Thomas C. W. Mak'
_publ_section_title
;
 Hypersensitive dual-function luminescence switching of a
 silver-chalcogenolate cluster-based metal-organic framework
;
_journal_name_full               'Nature Chemistry'
_journal_page_first              689
_journal_page_last               697
_journal_paper_doi               10.1038/nchem.2718
_journal_volume                  9
_journal_year                    2017
_chemical_absolute_configuration ad
_chemical_formula_moiety         'C80 H104 Ag12 F12 N8 O8 S8, 2(C8 H10)'
_chemical_formula_sum            'C96 H124 Ag12 F12 N8 O8 S8'
_chemical_formula_weight         3296.94
_space_group_crystal_system      tetragonal
_space_group_IT_number           121
_space_group_name_Hall           'I -4 2'
_space_group_name_H-M_alt        'I -4 2 m'
_atom_sites_solution_hydrogens   mixed
_atom_sites_solution_primary     direct
_cell_angle_alpha                90
_cell_angle_beta                 90
_cell_angle_gamma                90
_cell_formula_units_Z            2
_cell_length_a                   17.2529(3)
_cell_length_b                   17.2529(3)
_cell_length_c                   20.6795(7)
_cell_measurement_reflns_used    9101
_cell_measurement_temperature    100.00(10)
_cell_measurement_theta_max      30.0580
_cell_measurement_theta_min      2.8030
_cell_volume                     6155.5(3)
_computing_cell_refinement       'CrysAlisPro 1.171.39.7b (Rigaku OD, 2015)'
_computing_data_collection       'CrysAlisPro 1.171.39.7b (Rigaku OD, 2015)'
_computing_data_reduction        'CrysAlisPro 1.171.39.7b (Rigaku OD, 2015)'
_computing_molecular_graphics    'Olex2 (Dolomanov et al., 2009)'
_computing_publication_material  'Olex2 (Dolomanov et al., 2009)'
_computing_structure_refinement  'ShelXL (Sheldrick, 2015)'
_computing_structure_solution    'ShelXS (Sheldrick, 2008)'
_diffrn_ambient_environment      N~2~
_diffrn_ambient_temperature      100.00(10)
_diffrn_detector                 'CCD plate'
_diffrn_measured_fraction_theta_full 0.998
_diffrn_measured_fraction_theta_max 0.999
_diffrn_measurement_details
;
List of Runs (angles in degrees, time in seconds):

  # Type    Start    End  Width  t~exp~   \w     \q     \k     \f   Frames
--------------------------------------------------------------------------
  1  \w    -27.00  16.00   0.25    2.00    --   -0.10 -38.00-120.00  172
  2  \w     17.00  88.00   0.25    2.00    --   -0.10  57.00 120.00  284
  3  \w    -13.00  13.00   0.25    2.00    --   -0.10  57.00 120.00  104
  4  \w    -84.00 -40.00   0.25    2.00    --   -0.10 -38.00-120.00  176
;
_diffrn_measurement_device       'four-circle diffractometer'
_diffrn_measurement_device_type  'XtaLAB Pro: Kappa single'
_diffrn_measurement_method       '\w scans'
_diffrn_orient_matrix_type
'CrysAlisPro convention (1999,Acta A55,543-557)'
_diffrn_orient_matrix_UB_11      -0.0321717000
_diffrn_orient_matrix_UB_12      -0.0013551000
_diffrn_orient_matrix_UB_13      -0.0212957000
_diffrn_orient_matrix_UB_21      0.0245746000
_diffrn_orient_matrix_UB_22      0.0097309000
_diffrn_orient_matrix_UB_23      -0.0262810000
_diffrn_orient_matrix_UB_31      0.0071248000
_diffrn_orient_matrix_UB_32      -0.0399372000
_diffrn_orient_matrix_UB_33      -0.0056365000
_diffrn_radiation_monochromator  graphite
_diffrn_radiation_probe          x-ray
_diffrn_radiation_type           MoK\a
_diffrn_radiation_wavelength     0.71073
_diffrn_reflns_av_R_equivalents  0.0297
_diffrn_reflns_av_unetI/netI     0.0185
_diffrn_reflns_Laue_measured_fraction_full 0.998
_diffrn_reflns_Laue_measured_fraction_max 0.999
_diffrn_reflns_limit_h_max       20
_diffrn_reflns_limit_h_min       -20
_diffrn_reflns_limit_k_max       20
_diffrn_reflns_limit_k_min       -19
_diffrn_reflns_limit_l_max       24
_diffrn_reflns_limit_l_min       -22
_diffrn_reflns_number            18392
_diffrn_reflns_point_group_measured_fraction_full 0.998
_diffrn_reflns_point_group_measured_fraction_max 0.999
_diffrn_reflns_theta_full        25.242
_diffrn_reflns_theta_max         25.235
_diffrn_reflns_theta_min         2.361
_diffrn_source                   MM007HF-DW
_diffrn_source_type              'Microfocus Rotating Anode X-ray Source'
_exptl_absorpt_coefficient_mu    2.066
_exptl_absorpt_correction_T_max  1.00000
_exptl_absorpt_correction_T_min  0.20006
_exptl_absorpt_correction_type   multi-scan
_exptl_absorpt_process_details
;
CrysAlisPro 1.171.39.7b (Rigaku Oxford Diffraction, 2015)
Empirical absorption correction using spherical harmonics,
 implemented in SCALE3 ABSPACK scaling algorithm.
;
_exptl_crystal_colour            colourless
_exptl_crystal_colour_primary    colourless
_exptl_crystal_density_diffrn    1.779
_exptl_crystal_description       block
_exptl_crystal_F_000             3240
_exptl_crystal_size_max          0.134
_exptl_crystal_size_mid          0.101
_exptl_crystal_size_min          0.069
_refine_diff_density_max         1.783
_refine_diff_density_min         -0.683
_refine_diff_density_rms         0.157
_refine_ls_abs_structure_details
;
 Flack x determined using 1285 quotients [(I+)-(I-)]/[(I+)+(I-)]
 (Parsons and Flack (2004), Acta Cryst. A60, s61).
;
_refine_ls_abs_structure_Flack   0.029(16)
_refine_ls_extinction_coef       .
_refine_ls_extinction_method     none
_refine_ls_goodness_of_fit_ref   1.149
_refine_ls_hydrogen_treatment    constr
_refine_ls_matrix_type           full
_refine_ls_number_parameters     196
_refine_ls_number_reflns         2936
_refine_ls_number_restraints     61
_refine_ls_restrained_S_all      3.138
_refine_ls_R_factor_all          0.0446
_refine_ls_R_factor_gt           0.0442
_refine_ls_shift/su_max          0.001
_refine_ls_shift/su_mean         0.000
_refine_ls_structure_factor_coef Fsqd
_refine_ls_weighting_details
;
 w=1/[\s^2^(Fo^2^)+(0.0520P)^2^+91.7693P]
 where P=(Fo^2^+2Fc^2^)/3
;
_refine_ls_weighting_scheme      calc
_refine_ls_wR_factor_gt          0.1201
_refine_ls_wR_factor_ref         0.1204
_reflns_Friedel_coverage         0.816
_reflns_Friedel_fraction_full    0.999
_reflns_Friedel_fraction_max     1.000
_reflns_number_gt                2901
_reflns_number_total             2936
_reflns_threshold_expression     'I > 2\s(I)'
_cod_data_source_file            nchem.2718-s24.cif
_cod_data_source_block           ag12bpy_m-xylene
_cod_database_code               1551441
_chemical_oxdiff_formula         'C80 H104 O8 N8 S8 Ag12'
_chemical_oxdiff_usercomment     st
_shelx_space_group_comment
;
The symmetry employed for this shelxl refinement is uniquely defined
by the following loop, which should always be used as a source of
symmetry information in preference to the above space-group names.
They are only intended as comments.
;
_shelx_estimated_absorpt_t_max   0.871
_shelx_estimated_absorpt_t_min   0.769
_reflns_odcompleteness_completeness 99.83
_reflns_odcompleteness_iscentric 1
_reflns_odcompleteness_theta     26.32
_olex2_refinement_description
;
1. Fixed Uiso
 At 1.2 times of:
  All C(H) groups
 At 1.5 times of:
  All C(H,H,H) groups
2. Restrained distances
 C18-C19 = C16-C15 = C16-C19
 1.39 with sigma of 0.01
 C22-C19 = C15-C21
 1.5 with sigma of 0.02
 F2-C9 = C9-F1
 1.34 with sigma of 0.01
 C4-C6 \\sim C4-C7 \\sim C4-C5
 with sigma of 0.01
 C16-C21 \\sim C21-C20 \\sim C18-C22 \\sim C22-C20
 with sigma of 0.01
 F1-C9 \\sim F2-C9
 with sigma of 0.01
3. Restrained planarity
 C20, C15, C19, C21, C22
 with sigma of 0.1
4. Uiso/Uaniso restraints and constraints
Uanis(F1) \\sim Ueq, Uanis(F2) \\sim Ueq, Uanis(O1) \\sim Ueq: with sigma of
0.01 and sigma for terminal atoms of 0.02
Uanis(C4) \\sim Ueq, Uanis(C6) \\sim Ueq, Uanis(C5) \\sim Ueq, Uanis(C7) \\sim
Ueq: with sigma of 0.005 and sigma for terminal atoms of 0.01
5. Others
 Fixed Sof: Ag3(0.25) H2a(0.5) H2b(0.5) H2c(0.5) C5(0.5) H5a(0.5) H5b(0.5)
 H5c(0.5) C6(0.5) H6a(0.5) H6b(0.5) H6c(0.5) H7b(0.5) H7c(0.5) C15(0.25)
 C16(0.25) H16(0.25) C17(0.25) H17(0.25) C18(0.25) H18(0.25) C19(0.25)
 C20(0.25) H20(0.25) C21(0.25) H21a(0.25) H21b(0.25) H21c(0.25) C22(0.25)
 H22a(0.25) H22b(0.25) H22c(0.25)
 Fixed Uiso: C21(0.15)
6.a Riding coordinates:
 C21(H21a,H21b,H21c), C22(H22a,H22b,H22c)
6.b Aromatic/amide H refined with riding coordinates:
 C10(H10), C11(H11), C13(H13), C14(H14), C16(H16), C17(H17), C18(H18), C20(H20)
6.c Fitted hexagon refined as free rotating group:
 C15(C16,C17,C18,C19,C20)
6.d Idealised Me refined as rotating group:
 C2(H2a,H2b,H2c), C3(H3a,H3b,H3c), C5(H5a,H5b,H5c), C6(H6a,H6b,H6c), C7(H7a,
 H7b,H7c)
Comments: The trifluoroacetate, the t-butyl mercaptan anions and the 
m-xylene molecules were found to be disordered. For the anions, 
only half of each was shown in the asymmetric unit, where the 
disordered atoms were not split but treated with strict 
geometrical and thermal vibrational restraints. The guest m-xylene 
was highly disordered due to the high lattice symmetry, geometry 
and rotation. Therefore, only the main part was assigned, which 
can be clearly observed from the difference Fourier map. However, 
because of the serious disorder, the molecule was modelled with 
fixed occupancy of 0.25. "AFIX 66" and "FLAT 0.1" were used 
to constrain the benzene ring. The methyl groups were also 
introduced with geometry restraints. One of the methyl carbon 
groups was refined with a fixed isotropic displacement 
parameter at 0.15 because the free refinement would give a high 
value of approximately 0.4.
;
_shelx_res_file
;
TITL Ag12bpy_m-xylene in I-42m #121
REM reset to I-42m #121
CELL 0.71073 17.252874 17.252874 20.679515 90 90 90
ZERR 2 0.000349 0.000349 0.000682 0 0 0
LATT -2
SYMM +Y,-X,-Z
SYMM -X,-Y,+Z
SYMM -Y,+X,-Z
SYMM +X,-Y,-Z
SYMM -X,+Y,-Z
SYMM -Y,-X,+Z
SYMM +Y,+X,+Z
SFAC C H Ag F N O S
UNIT 192 248 24 24 16 16 16
DFIX 1.39 0.01 C18 C19 C16 C15 C16 C19
DFIX 1.5 C22 C19 C15 C21
DFIX 1.34 0.01 F2 C9 C9 F1
SADI 0.01 C4 C6 C4 C7 C4 C5
SADI 0.01 C16 C21 C21 C20 C18 C22 C22 C20
SADI 0.01 F1 C9 F2 C9
FLAT C20 C15 C19 C21 C22
ISOR 0.01 0.02 F1 F2 O1
ISOR 0.005 0.01 C4 C6 C5 C7

L.S. 100 0 0
PLAN  10
SIZE 0.134 0.101 0.069
TEMP -173
BOND
MORE -1
BOND $H
CONF
fmap 2 53
acta
OMIT 0 50.5
REM <olex2.extras>
REM <HklSrc "%.\\Ag12bpy_m-xylene.hkl">
REM </olex2.extras>

WGHT    0.052000   91.769295
FVAR       0.25507
AG1   3    0.500000    0.500000    0.796314    10.25000    0.01284    0.01284 =
         0.04066    0.00000    0.00000    0.00181
AG2   3    0.340145    0.470934    0.834613    11.00000    0.01376    0.02844 =
         0.05162   -0.00653   -0.00026   -0.00255
AG3   3    0.416176    0.500000    1.000000    10.25000    0.02106    0.04185 =
         0.04636   -0.02133    0.00000    0.00000
S1    7    0.400249    0.599751    0.800644    10.50000    0.01991    0.01991 =
         0.04050    0.00334   -0.00334    0.01031
C1    1    0.376094    0.623906    0.715734    10.50000    0.03918    0.03918 =
         0.03178    0.00722   -0.00722    0.01636
C2    1    0.424596    0.575404    0.670920    10.50000    0.04978    0.04978 =
         0.06891   -0.00233    0.00233    0.00540
PART -1
AFIX 137
H2A   2    0.470263    0.605030    0.657382    10.50000   -1.50000
H2B   2    0.393932    0.561339    0.632793    10.50000   -1.50000
H2C   2    0.441216    0.528219    0.693366    10.50000   -1.50000
AFIX   0
PART 0
C3    1    0.288294    0.606696    0.707013    11.00000    0.05147    0.09139 =
         0.04737    0.01266   -0.01828    0.01838
AFIX 137
H3A   2    0.258136    0.640839    0.735321    11.00000   -1.50000
H3B   2    0.277873    0.552527    0.718318    11.00000   -1.50000
H3C   2    0.273507    0.615869    0.661902    11.00000   -1.50000
AFIX   0
S2    7    0.398246    0.398246    0.928202    10.50000    0.04391    0.04391 =
         0.02597   -0.00798   -0.00798   -0.01145
C4    1    0.329668    0.329668    0.969007    10.50000    0.04821    0.04821 =
         0.03598    0.00322    0.00322   -0.01376
PART -1
C5    1    0.296369    0.369192    1.025455    10.50000    0.06011    0.07147 =
         0.03747   -0.00763    0.01100   -0.01845
AFIX 137
H5A   2    0.282469    0.422428    1.013680    10.50000   -1.50000
H5B   2    0.334522    0.370104    1.060554    10.50000   -1.50000
H5C   2    0.249898    0.341412    1.039790    10.50000   -1.50000
AFIX   0
C6    1    0.378629    0.263129    0.989651    10.50000    0.06935    0.06105 =
         0.04790   -0.01223    0.00740    0.00220
AFIX 137
H6A   2    0.422370    0.282228    1.015345    10.50000   -1.50000
H6B   2    0.398208    0.235939    0.951384    10.50000   -1.50000
H6C   2    0.347559    0.227393    1.015823    10.50000   -1.50000
AFIX   0
PART 0
C7    1    0.287175    0.287175    0.918085    10.50000    0.07038    0.07038 =
         0.06294   -0.00244   -0.00244   -0.03602
PART -1
AFIX 137
H7A   2    0.251339    0.250262    0.938172    10.50000   -1.50000
H7B   2    0.324127    0.259083    0.890771    10.50000   -1.50000
H7C   2    0.257880    0.324001    0.891543    10.50000   -1.50000
AFIX   0
PART 0
O1    6    0.306936    0.397810    0.736453    11.00000    0.05946    0.08560 =
         0.06672   -0.03558   -0.01743    0.00934
C8    1    0.342322    0.342322    0.715792    10.50000    0.02178    0.02178 =
         0.03896   -0.00554   -0.00554   -0.00133
C9    1    0.305574    0.305574    0.657188    10.50000    0.04747    0.04747 =
         0.07251   -0.01785   -0.01785    0.00884
F1    4    0.252205    0.252205    0.671661    10.50000    0.12706    0.12706 =
         0.13539   -0.04216   -0.04216   -0.04318
F2    4    0.261619    0.350596    0.620972    11.00000    0.16943    0.10768 =
         0.09487   -0.01303   -0.08691    0.03289
N1    5    0.205428    0.485016    0.832118    11.00000    0.02303    0.02782 =
         0.05472    0.00587   -0.00930   -0.00319
C10   1    0.159714    0.423919    0.816319    11.00000    0.02477    0.02282 =
         0.05270   -0.00158    0.00231   -0.00260
AFIX  43
H10   2    0.183819    0.376009    0.805912    11.00000   -1.20000
AFIX   0
C11   1    0.081151    0.427975    0.814671    11.00000    0.02163    0.02239 =
         0.05494   -0.00158   -0.00490   -0.00524
AFIX  43
H11   2    0.051650    0.384203    0.801594    11.00000   -1.20000
AFIX   0
C12   1    0.043369    0.497417    0.832441    11.00000    0.01840    0.02832 =
         0.03860    0.00506   -0.00400   -0.00039
C13   1    0.090707    0.560952    0.848053    11.00000    0.02607    0.02490 =
         0.04995   -0.00633   -0.00601   -0.00377
AFIX  43
H13   2    0.068580    0.610012    0.857761    11.00000   -1.20000
AFIX   0
C14   1    0.169263    0.550745    0.848993    11.00000    0.02384    0.02877 =
         0.04541   -0.00957   -0.00305   -0.00185
AFIX  43
H14   2    0.200386    0.593166    0.862542    11.00000   -1.20000
AFIX  66

PART -1
C15   1    0.047660    0.427552    0.994795    10.25000    0.09565
C16   1   -0.021998    0.467174    1.001708    10.25000    0.04417
AFIX  43
H16   2   -0.022589    0.522232    1.001251    10.25000   -1.20000
AFIX  65
C17   1   -0.090792    0.426239    1.009289    10.25000    0.04964
AFIX  43
H17   2   -0.138401    0.453319    1.014013    10.25000   -1.20000
AFIX  65
C18   1   -0.089928    0.345682    1.009958    10.25000    0.09361
AFIX  43
H18   2   -0.136946    0.317705    1.015140    10.25000   -1.20000
AFIX  65
C19   1   -0.020270    0.306059    1.003046    10.25000    0.08503
C20   1    0.048524    0.346993    0.995463    10.25000    0.10366
AFIX  43
H20   2    0.096132    0.319912    0.990738    10.25000   -1.20000
AFIX   0
C21   1    0.121753    0.471481    0.989393    10.25000   10.15000
AFIX   3
H21A  2    0.124473    0.505051    1.026294    10.25000   -1.50000
H21B  2    0.169503    0.443261    0.985303    10.25000   -1.50000
H21C  2    0.113393    0.501971    0.951243    10.25000   -1.50000
AFIX   0
C22   1   -0.019289    0.219650    1.003335    10.25000    0.11815
AFIX   3
H22A  2   -0.066489    0.192550    1.013295    10.25000   -1.50000
H22B  2   -0.002289    0.205580    0.960795    10.25000   -1.50000
H22C  2    0.019971    0.205900    1.034135    10.25000   -1.50000
AFIX   0
HKLF 4

REM  Ag12bpy_m-xylene in I-42m #121
REM R1 =  0.0442 for    2901 Fo > 4sig(Fo)  and  0.0446 for all    2936 data
REM    196 parameters refined using     61 restraints

END

WGHT      0.0514     90.9939

REM Highest difference peak  1.783,  deepest hole -0.683,  1-sigma level  0.157
Q1    1   0.5000  0.5000  0.7575  10.25000  0.05    1.78
Q2    1   0.5000  0.5000  0.5000  10.12500  0.05    1.42
Q3    1   0.4425  0.4425  1.0318  10.50000  0.05    1.38
Q4    1   0.3551  0.3551  0.5963  10.50000  0.05    1.26
Q5    1   0.3389  0.3389  0.7633  10.50000  0.05    0.90
Q6    1   0.3435  0.4758  0.7964  11.00000  0.05    0.90
Q7    1  -0.1160  0.1160  1.0006  10.50000  0.05    0.88
Q8    1   0.0000  0.2571  1.0000  10.50000  0.05    0.79
Q9    1  -0.0432  0.1356  0.9976  11.00000  0.05    0.75
Q10   1  -0.0572  0.1034  1.0014  11.00000  0.05    0.75
;
_shelx_res_checksum              33263
_shelx_hkl_file
;
   0   0   4 66.3831 4.04252   3
   0   0   6 105313. 2771.76   3
   0   0   8 4938.88 134.479   3
   0   0  10 221.810 11.2033   3
   0   0  12 16091.5 415.287   3
   0   0  12 14920.3 415.713   4
   0   0  14 343.753 17.1442   4
   0   0  14 337.162 15.7638   3
   0   0  16 355.006 17.8118   4
   0   0  16 282.790 15.7427   3
   0   0  18 2564.96 78.7971   3
   0   0  18 2648.90 80.7333   4
   0   0  20 44.6379 10.4510   3
   0   0  20 41.5736 11.4859   4
   0   0  22 1202.85 45.0419   3
   0   0  22 1274.89 48.2143   4
   0   0  24 1355.62 52.8840   4
   0   0  26 127.984 18.2418   4
   0   0  28 48.9599 13.9121   2
  -1   0   3 13401.9 364.715   3
   1   0  -3 12997.0 364.511   4
   0  -1   5 13770.7 354.356   3
  -1   0   5 14085.9 355.176   3
   1   0  -5 12671.5 354.838   4
   1   0  -5 13011.7 354.818   3
  -1   0   7 1170.22 33.9209   3
   0   1   7 1182.53 34.1569   3
  -1   0   7 1063.49 33.8937   4
   0  -1   7 1149.16 33.1989   3
   1   0  -7 1110.11 33.6334   4
   0   1   7 1061.24 33.5149   4
   0  -1   9 7107.36 191.745   3
   1   0  -9 6734.43 192.026   4
  -1   0   9 7227.55 192.487   3
   0   1   9 7288.97 192.801   3
  -1   0   9 6949.73 192.829   4
   0   1   9 7436.85 193.048   4
   1   0  11 4276.31 119.381   3
   0   1  11 4078.32 120.056   4
   0  -1  11 4312.83 119.187   3
   0   1  11 4280.93 120.320   3
  -1   0  11 4328.18 120.023   3
  -1   0  11 4647.75 121.221   4
  -1   0  13 1475.97 46.3182   3
  -1   0  13 1524.39 47.4117   4
   0  -1  13 1458.85 45.7205   3
   0   1  13 1466.11 46.3914   3
   1   0  13 1450.92 45.8921   3
   0   1  13 1498.31 46.9616   4
   0  -1  15 33.4791 7.10777   3
   0   1  15 19.5791 6.68779   3
  -1   0  15 20.3092 7.35835   4
   1   0  15 9.97005 7.37990   4
   0   1  15 17.0460 7.18952   4
  -1   0  15 14.0817 6.77276   3
   1   0  15 25.4753 6.98390   3
  -1   0  17 18.4261 8.99159   4
   0   1  17 9.19805 8.55949   4
   1   0  17 4.15350 6.71675   3
   0  -1  17 11.2803 7.30513   3
  -1   0  17 6.53458 7.74731   3
   1   0  17 7.95079 7.99189   4
   0  -1  17 17.2490 8.73092   4
   0   1  17 14.7614 7.60926   3
   1   0  19 900.135 35.1954   4
   0  -1  19 861.880 35.5952   4
   1   0  19 824.428 32.9541   3
  -1   0  19 897.656 34.1928   3
   0   1  19 806.799 34.2446   4
   0  -1  19 936.914 34.0408   3
  -1   0  19 873.134 35.7311   4
   0   1  19 915.451 34.2433   3
   1   0  21 446.239 22.5556   3
  -1   0  21 422.017 24.1881   4
  -1   0  21 436.030 22.7541   3
   0   1  21 442.818 23.0254   3
   0   1  21 432.788 24.1309   4
   0  -1  21 429.682 24.6064   4
   0  -1  21 398.421 21.9508   3
   1   0  21 480.618 24.9235   4
   0   1  23 26.8827 12.7870   4
  -1   0  23 8.68505 12.9052   4
   0  -1  23 11.0077 12.9303   4
   1   0  23 9.43141 12.0100   4
   0   1  23 9.94338 11.2710   3
   1   0  23 12.1847 10.1947   3
   0  -1  25 872.729 39.3840   4
   1   0  25 796.899 34.8851   3
   0   1  25 760.018 35.4538   3
  -1   0  25 752.942 37.8954   4
   0   1  25 751.820 37.2706   4
   1   0  25 796.255 38.1349   4
  -1   0  27 76.8576 15.0677   2
   0  -1  27 113.361 15.1420   2
  -1   1  28 11.0099 13.6582   2
  -1   1  26 31.2792 14.5269   4
   1  -1  26 16.6958 13.4112   4
   1  -1  24 462.746 24.9291   3
  -1   1  24 470.133 28.5140   4
   1  -1  24 478.471 28.7015   4
  -1   1  22 558.981 28.5804   4
   1  -1  22 604.647 27.0201   3
  -1   1  22 571.660 27.9930   3
   1  -1  22 566.335 29.3114   4
  -1   1  20 105.163 13.8154   4
   1  -1  20 153.912 14.8755   4
   1  -1  20 148.692 13.2592   3
  -1   1  20 135.420 13.4272   3
  -1   1  18 296.905 17.4791   3
  -1   1  18 283.456 17.8970   4
   1  -1  18 288.089 16.0973   3
  -1   1  16 27.5376 8.01908   3
   1  -1  16 22.1853 7.06408   3
  -1   1  16 36.2408 8.46069   4
  -1   1  14 629.865 25.7199   4
  -1   1  14 664.679 25.5304   3
   1  -1  14 699.601 24.6804   3
   1   1 -12 459.870 19.1235   4
  -1   1  12 484.678 19.3820   3
   1  -1  12 465.962 18.2113   3
  -1   1  12 497.226 19.7837   4
   1  -1  10 2536.07 71.1857   3
  -1   1  10 2483.34 72.2607   4
   1   1 -10 2480.62 72.1247   4
  -1   1  10 2546.27 72.4520   3
  -1   1   8 1398.39 41.6214   4
   1   1  -8 1306.16 41.4225   4
   1   1  -6 3094.25 81.7500   3
  -1   1   6 3039.08 82.2747   4
   1   1  -4 1627.56 44.2620   3
  -1   1   4 1564.91 44.2539   4
  -1   1   2 1376.23 37.7515   4
   1  -1   2 1418.15 38.0829   4
   1  -1  -2 1447.40 40.9383   4
  -1  -1   2 1650.01 41.7820   2
   1  -1  -4 1663.42 46.0181   4
  -1  -1   6 3480.09 94.9237   3
  -1  -1   8 1602.98 46.6185   3
   1   1  10 2164.84 67.5307   4
  -1  -1  10 2531.15 67.6512   3
  -1  -1  12 443.141 19.8701   4
   1   1  12 488.158 19.9364   4
  -1  -1  12 489.896 18.9675   3
   1   1  12 492.786 19.2638   3
  -1  -1  14 627.514 25.7343   4
   1   1  14 609.999 24.8527   4
  -1  -1  14 671.382 24.6992   3
   1   1  14 642.613 24.4896   3
  -1  -1  16 16.6042 8.61405   4
   1   1  16 12.4169 6.82988   4
  -1  -1  16 16.3257 7.08213   3
   1   1  16 18.7617 7.31911   3
   1   1  18 315.538 18.3907   4
   1   1  18 301.957 17.3826   3
  -1  -1  18 320.716 19.3659   4
  -1  -1  18 333.680 17.8134   3
   1   1  20 132.536 13.0387   3
  -1  -1  20 147.357 15.6807   4
   1   1  20 174.687 15.3489   4
   1   1  22 520.160 25.3267   3
  -1  -1  22 570.966 29.1052   4
   1   1  22 504.018 26.8236   4
   1   1  24 514.619 28.6160   4
  -1  -1  24 508.657 26.9160   2
   1   1  24 458.617 26.2308   3
  -1  -1  24 492.597 29.9413   4
   1   1  26 36.0115 12.6165   3
   1   1  26 19.5086 13.7331   4
  -1  -1  26 51.7837 16.1277   4
  -1  -1  26 39.7926 12.2398   2
  -1  -1  28 24.8260 13.7292   2
   0  -2   0 19970.5 527.199   1
   0  -2   2 758.879 22.1652   4
   0  -2   4 1228.08 31.7876   3
   2   0  -4 1098.71 32.9052   4
  -2   0   4 1062.41 33.2087   4
  -2   0   4 1137.23 33.5546   2
   2   0  -6 14629.2 390.882   4
   2   0  -6 14793.7 391.048   3
   0  -2   6 14962.3 389.702   3
  -2   0   6 14378.2 391.284   4
   2   0  -8 1439.34 39.6339   4
   0   2   8 1332.72 38.8822   4
  -2   0   8 1273.24 39.2338   3
   0   2   8 1299.97 39.5385   3
  -2   0   8 1176.67 39.2070   4
   0  -2   8 1224.98 37.5429   3
   2   0  -8 1337.81 39.0099   3
   0  -2  10 1400.64 42.9561   3
   2   0 -10 1482.46 44.1994   4
  -2   0  10 1457.44 45.0202   4
  -2   0  10 1512.36 44.6929   3
   0   2  10 1438.42 44.7354   3
   0   2  10 1434.90 44.0691   4
   0  -2  12 1401.86 43.0632   3
   2   0 -12 1466.35 44.2701   4
  -2   0  12 1426.86 45.1188   4
  -2   0  12 1351.50 44.1021   3
   0   2  12 1482.98 44.9952   4
   0   2  12 1337.84 44.3202   3
  -2   0  14 649.989 25.2680   3
   0   2  14 653.706 25.4046   4
   0  -2  14 629.027 23.7039   3
   2   0  14 616.240 23.5576   3
   0   2  14 618.787 25.0748   3
  -2   0  14 617.940 25.6839   4
  -2   0  16 71.6296 9.71969   3
  -2   0  16 71.5912 10.4055   4
   0   2  16 60.8533 9.27634   3
   0  -2  16 49.9892 7.92274   3
   2   0  16 68.4190 8.74808   3
   0   2  16 58.7241 8.85974   4
  -2   0  18 332.603 19.4044   4
   0   2  18 306.286 17.7005   3
   0  -2  18 288.845 16.4336   3
   0   2  18 301.505 17.8914   4
   2   0  18 290.508 16.4771   3
   2   0  18 229.423 17.1906   4
   0  -2  20 409.036 21.2531   3
   0  -2  20 377.261 23.4640   4
   0   2  20 380.213 21.4649   3
   2   0  20 405.788 21.0921   3
  -2   0  20 399.728 23.8982   4
   2   0  20 446.376 23.5042   4
   0   2  20 372.847 22.0131   4
   0   2  22 93.2006 13.1964   3
   0  -2  22 121.013 16.1183   4
   2   0  22 85.3264 12.0675   3
   0   2  22 94.2139 13.7946   4
  -2   0  22 98.0530 14.5178   4
   2   0  22 111.522 14.6620   4
   0   2  24 253.208 20.9843   4
   0  -2  24 242.335 21.0008   4
   2   0  24 214.503 17.4471   3
   2   0  24 220.909 19.8036   4
   0   2  24 215.286 18.6550   3
  -2   0  24 224.135 18.8842   2
  -2   0  24 271.546 22.4537   4
   0  -2  26 45.9109 15.8211   4
   0  -2  26 25.4145 12.5154   2
  -2   0  26 18.3132 15.0935   4
   0   2  26 23.9062 14.7509   4
  -2   0  26 18.1317 12.7074   2
   2   0  26 25.6215 11.9657   3
   0   2  26 19.3979 11.9252   3
   2   0  26 22.3374 13.7275   4
  -2   0  28 9.97370 13.9187   2
   1  -2  27 11.3518 11.5624   2
  -2   1  27 14.4656 13.6382   2
   2  -1  25 154.520 16.1571   3
  -2   1  25 158.525 19.0656   4
   2  -1  25 169.481 19.0183   4
  -1   2  25 188.078 18.9671   4
   1  -2  25 198.693 20.4988   4
  -2   1  25 184.337 18.6783   2
   1  -2  23 78.8356 12.4972   3
  -1   2  23 64.2603 13.6496   4
   1  -2  23 35.7804 13.0498   4
  -1   2  23 83.0047 13.3892   3
   2  -1  23 74.5859 12.0347   3
  -2   1  23 54.7569 13.7078   4
   2  -1  23 75.6290 14.0781   4
  -1   2  21 33.0442 10.8378   3
  -2   1  21 19.8784 10.8045   4
   2  -1  21 34.8635 9.82825   3
  -1   2  21 31.3634 11.3736   4
   1  -2  21 30.5430 9.81787   3
   1  -2  19 486.924 22.1725   3
  -1   2  19 479.549 23.9973   4
   2  -1  19 473.892 21.8993   3
  -1   2  19 443.823 23.3556   3
  -2   1  19 477.617 24.5931   4
  -2   1  19 502.671 24.1502   3
  -1   2  17 140.364 12.5079   4
   2  -1  17 138.294 10.8615   3
  -2   1  17 139.200 13.1250   4
  -1   2  17 143.314 12.5385   3
   1  -2  17 147.869 11.4547   3
  -2   1  17 140.960 12.3472   3
  -1   2  15 1317.77 43.3076   4
  -2   1  15 1306.49 43.4676   3
  -1   2  15 1310.52 43.3606   3
   2  -1  15 1248.21 41.2638   3
   1  -2  15 1287.93 41.2823   3
  -2   1  15 1275.63 43.5449   4
  -1   2  13 509.801 20.7127   3
   2   1 -13 486.098 20.1982   4
  -2   1  13 512.899 21.1114   3
   1  -2  13 484.580 19.1937   3
   2  -1  13 477.041 19.0381   3
  -1   2  13 511.014 20.4440   4
   1   2 -13 432.108 19.8154   4
  -2   1  13 487.770 20.5852   4
  -1   2  11 1958.00 57.7430   4
  -2   1  11 1854.07 58.2781   3
   1  -2  11 1946.85 56.2345   3
  -1   2  11 1904.73 58.1376   3
  -2   1  11 1926.88 57.9896   4
   2   1 -11 2065.18 58.2158   4
   2   1  -9 3285.15 89.2062   4
  -1   2   9 3180.16 89.3964   3
  -2   1   9 3147.49 89.5064   3
   2   1  -9 3192.52 88.2028   3
  -1   2   9 3076.26 88.5530   4
  -2   1   9 3293.21 89.0988   4
   1  -2   9 3033.23 87.1078   3
   1   2  -7 1338.82 36.6271   3
  -1   2   7 1294.37 37.4035   4
   2   1  -7 1290.63 37.2125   3
  -2   1   7 1278.80 38.3803   3
  -2   1   7 1271.92 37.6728   4
  -1   2   7 1194.42 38.0491   3
   1  -2   7 1096.96 37.4628   4
   2   1  -7 1319.58 38.0796   4
  -1   2   5 3501.08 89.9871   4
  -2   1   5 2899.20 90.6810   3
  -2   1   5 3439.74 90.3332   4
   1   2  -5 3455.36 89.4845   3
   1  -2   5 3212.96 90.4433   4
   2   1  -5 3428.70 90.3915   3
   2   1  -5 3104.59 90.6501   4
   1   2  -3 1579.64 42.1989   2
   2   1  -3 1492.57 43.1146   2
   1  -2   3 1534.33 42.6455   4
  -2   1   3 1525.94 42.5051   4
   1  -2   1 3963.65 102.708   4
   1   2  -1 3835.18 104.881   2
   2  -1   1 3600.89 104.866   2
  -1   2  -1 4239.53 108.709   4
   1  -2  -1 4113.03 109.251   3
   2  -1  -3 1358.63 39.6163   4
  -2  -1   3 1487.51 41.1079   2
  -1   2  -3 1432.42 40.0648   4
  -1  -2   3 1515.52 40.0307   2
  -1  -2   5 3550.91 95.3067   2
   2  -1  -5 3512.44 95.5572   4
  -2  -1   5 3501.53 96.2926   2
   2  -1  -7 1282.69 38.0976   4
   2  -1  -7 1212.49 38.6545   3
  -2  -1   9 2740.00 87.4810   4
  -1  -2   9 3081.11 86.3361   3
  -1  -2  11 1809.39 53.3502   3
  -2  -1  11 1773.77 55.3209   4
   1   2  11 1837.20 54.2784   4
   1   2  13 488.271 20.4228   4
  -1  -2  13 476.861 19.8701   3
   1   2  13 498.432 20.4045   3
  -2  -1  13 529.704 22.0726   4
   2   1  15 1337.17 45.2498   4
  -1  -2  15 1334.02 43.4402   3
   1   2  15 1388.00 44.5983   3
   1   2  15 1465.13 45.6097   4
  -2  -1  15 1278.24 45.6552   4
   2   1  15 1307.96 43.7038   3
  -2  -1  17 145.704 13.2720   4
  -1  -2  17 111.116 12.6670   4
   2   1  17 157.852 13.0137   4
   1   2  17 129.005 11.9621   3
   1   2  17 152.426 12.8749   4
   2   1  17 143.334 11.8219   3
  -1  -2  19 498.093 25.4391   4
   2   1  19 515.183 23.2822   3
   1   2  19 473.609 23.9207   4
   2   1  19 523.698 24.6345   4
  -2  -1  19 440.537 25.0744   4
   1   2  19 442.288 22.7440   3
  -2  -1  21 10.2962 10.8682   4
   1   2  21 11.6152 10.9609   4
  -1  -2  21 13.6601 11.6950   4
   2   1  21 14.5742 10.4739   4
   2   1  21 16.2779 9.08122   3
   1   2  21 17.2660 10.0594   3
  -2  -1  21 6.90888 10.2683   2
  -1  -2  23 50.4406 13.9132   4
  -1  -2  23 85.1068 12.8886   2
   2   1  23 87.3914 14.1110   4
  -2  -1  23 64.5335 12.5535   2
   1   2  23 49.7443 13.0230   4
   2   1  23 49.7480 11.3127   3
  -2  -1  23 70.3572 14.9936   4
   1   2  23 52.0138 12.0204   3
  -1  -2  25 151.698 19.5569   4
  -2  -1  25 174.747 17.5862   2
  -2  -1  25 170.635 19.8696   4
   2   1  25 192.277 19.7967   4
   1   2  25 145.481 18.3043   4
   2   1  25 139.064 15.7040   3
  -1  -2  25 191.939 17.8401   2
   1   2  25 164.903 16.9212   3
  -1  -2  27 8.88130 12.1418   2
   2   1  27 4.27210 11.5586   3
  -2  -1  27-10.6002 13.7470   2
   1   2  27 7.79097 12.0879   3
  -2   2  26 12.3257 13.8142   4
  -2   2  26 26.9388 13.1280   2
   2  -2  24 102.556 13.0148   3
  -2   2  24 70.2845 14.5517   4
  -2   2  22 261.271 19.9428   4
   2  -2  22 300.739 18.4220   3
  -2   2  20 599.294 27.8551   3
  -2   2  20 637.530 28.7035   4
   2  -2  20 570.173 25.5368   3
  -2   2  18 448.535 21.9486   3
  -2   2  18 396.445 21.1389   4
   2  -2  18 450.193 19.8913   3
  -2   2  16 581.253 25.0417   3
  -2   2  16 583.062 24.8969   4
   2   2 -16 590.498 24.4889   4
   2  -2  16 580.261 22.7516   3
   2   2 -14 1963.03 60.4316   4
  -2   2  14 2015.20 60.7573   4
   2  -2  14 1963.97 58.2933   3
  -2   2  14 1932.21 61.0436   3
   2  -2  12 3579.83 95.7158   3
   2   2 -12 3620.36 97.9915   4
  -2   2  12 3458.76 98.5604   3
  -2   2  12 3345.95 97.3922   4
   2  -2  10 5789.93 158.477   4
  -2   2  10 5754.28 158.887   3
  -2   2  10 5439.40 157.407   4
   2   2 -10 6067.46 156.864   3
   2   2 -10 5739.59 158.185   4
  -2   2   8 2754.27 75.0870   4
   2   2  -8 2654.51 74.2360   3
   2  -2   8 2687.80 75.8362   4
  -2   2   8 2569.18 75.9389   3
  -2   2   6 1989.45 58.7938   4
   2   2  -6 2184.14 59.0590   3
   2  -2   6 2183.60 59.8828   4
   2   2  -4 2099.87 59.1370   2
   2  -2   4 2140.49 59.0956   4
  -2   2   4 2170.36 58.5082   4
   2   2  -2 3196.71 92.8002   2
   2  -2   2 3476.11 92.4172   2
   2  -2   2 3450.11 90.9380   4
  -2   2   0 1116.46 31.8244   2
   2  -2   0 1136.97 31.6529   2
  -2  -2   2 3326.39 86.0772   2
  -2   2  -2 3387.93 85.9307   2
  -2  -2   4 2288.36 61.8482   2
   2  -2  -4 2175.23 60.2774   4
  -2  -2   6 2246.41 63.1355   2
  -2  -2   8 2701.70 76.0288   2
  -2  -2  10 5815.31 158.994   2
   2   2  12 3701.36 104.916   4
   2   2  14 1973.11 60.6440   4
  -2  -2  14 1964.97 62.3930   4
   2   2  16 623.510 25.1337   3
  -2  -2  16 642.267 27.4440   4
   2   2  16 586.760 25.4210   4
  -2  -2  18 475.146 22.7020   2
  -2  -2  18 464.803 24.7263   4
   2   2  18 472.568 22.4342   3
   2   2  18 512.779 23.5456   4
   2   2  20 597.709 26.8344   3
   2   2  20 608.214 28.1909   4
  -2  -2  20 615.183 27.5910   2
  -2  -2  20 597.694 29.9889   4
   2   2  22 230.885 18.5953   4
   2   2  22 264.102 17.9726   3
  -2  -2  22 273.963 18.9048   2
  -2  -2  22 252.018 20.5659   4
   2   2  24 91.2715 13.5973   3
   2   2  24 109.842 15.1184   4
  -2  -2  24 81.9416 16.5579   4
  -2  -2  24 94.0975 14.6098   2
  -2  -2  26 18.8341 12.4525   2
   2   2  26-8.26572 12.8730   4
  -2  -2  26 16.7724 14.5832   4
   2   2  26 20.2451 11.5355   3
   2   2  28 13.8388 13.4286   3
  -2  -2  28 25.7139 14.4307   2
   0  -3   1 999.668 28.5348   1
  -3   0   1 888.707 29.6829   1
   3   0  -1 1001.20 29.3729   1
   0   3  -3 14526.2 388.838   4
  -3   0   3 14671.7 389.495   1
   0  -3   3 14865.6 389.292   4
   0  -3   5 4138.99 112.542   4
  -3   0   5 4272.70 113.177   2
   3   0  -5 3960.73 111.808   4
  -3   0   5 4142.06 112.657   4
   0  -3   7 150.514 9.56230   4
  -3   0   7 161.822 9.95243   2
   0  -3   7 170.570 7.48975   3
   3   0  -7 201.167 9.50391   4
  -3   0   7 177.446 9.94105   4
   3   0  -7 160.284 9.20667   3
   0  -3   9 998.863 36.2310   4
   3   0  -9 1206.25 36.1358   4
   0   3   9 1081.90 35.2727   4
   3   0  -9 1186.47 36.0765   3
  -3   0   9 1204.97 37.2826   4
   0   3   9 1114.48 36.5568   3
   0  -3   9 1225.76 34.5800   3
  -3   0   9 1214.57 37.1057   2
   0  -3  11 17.0587 4.81055   3
   0   3  11 17.6029 5.88065   4
   3   0 -11 20.4612 5.94886   3
  -3   0  11 27.3238 7.21112   4
   0   3  11 28.6118 6.61681   3
   3   0 -11 27.5701 6.07514   4
  -3   0  13 130.362 12.0756   4
   0   3  13 116.199 10.9871   3
   0   3  13 120.594 10.7992   4
   0  -3  13 122.433 9.52839   3
   3   0 -13 123.505 10.6863   4
   0   3  15 311.145 16.5967   3
  -3   0  15 324.533 17.9802   4
   0   3  15 289.158 16.3246   4
   0  -3  15 307.737 14.7514   3
   3   0  17 77.2329 9.83547   3
   0   3  17 86.4934 10.9281   4
  -3   0  17 72.1579 11.9784   4
   0  -3  17 80.6011 9.66190   3
   0   3  17 64.7488 10.3494   3
  -3   0  19 527.509 26.3597   2
   3   0  19 521.690 24.1587   3
  -3   0  19 541.668 27.6151   4
   0   3  19 558.901 26.3996   3
   0   3  19 568.925 26.7146   4
   0   3  21 42.8092 12.1518   4
   3   0  21 62.2873 11.1055   3
   0   3  21 55.5975 11.7418   3
  -3   0  21 42.6713 13.5188   4
  -3   0  21 50.7415 11.5475   2
  -3   0  23 27.3299 13.7422   4
   0   3  23 34.2456 11.8452   3
   0   3  23 4.88842 11.1093   4
   3   0  23 26.5746 10.5586   3
   0  -3  23 27.9901 11.4290   2
  -3   0  23 18.3993 12.1967   2
   3   0  23 19.6346 11.7028   4
  -3   0  25 74.5587 15.6596   2
   3   0  25 66.9478 15.3243   4
   0  -3  25 59.7150 16.6011   4
  -3   0  25 87.2323 17.6505   4
   0   3  25 86.5242 14.9237   3
   3   0  25 74.0914 13.8686   3
   0   3  25 63.9183 15.4788   4
   0  -3  25 62.3055 13.4332   2
  -3   0  27 23.5752 14.1762   2
   3   0  27 11.3764 12.2973   3
   0  -3  27 15.6245 12.4940   2
  -3   1  28 2.62254 13.5211   2
  -3   1  26 3.58335 13.3848   2
   3  -1  26 10.5005 12.0322   3
  -1   3  26 25.8857 14.5928   4
  -3   1  26 41.1872 16.0477   4
   1  -3  26 16.2473 11.5317   2
  -1   3  24-1.03013 11.4988   3
  -3   1  24 8.11891 13.1607   4
   3  -1  24-2.54304 9.61870   3
  -1   3  24 7.39280 11.9837   4
  -3   1  24 4.35651 11.3613   2
  -1   3  22 117.797 14.7083   4
  -3   1  22 124.591 16.0295   4
  -3   1  22 111.549 14.0570   2
   3  -1  22 126.554 13.1491   3
  -1   3  22 115.098 14.3175   3
  -3   1  20 513.574 26.7343   4
   1  -3  20 484.409 23.1484   3
  -1   3  20 517.678 25.6450   4
   3  -1  20 488.439 23.5321   3
  -1   3  20 545.719 26.1792   3
   3  -1  18 373.490 18.6482   3
   1  -3  18 401.128 18.8507   3
  -3   1  18 374.477 20.9514   4
  -1   3  18 382.946 20.1888   4
  -1   3  18 369.974 19.9989   3
  -1   3  16 491.865 22.0984   4
   1  -3  16 509.278 20.3646   3
  -3   1  16 496.579 22.9840   4
   3   1 -16 497.892 21.9085   4
  -1   3  16 496.456 22.6199   3
   3  -1  16 477.281 20.2678   3
  -3   1  14 684.439 27.3501   4
   3   1 -14 698.057 26.5470   4
  -1   3  14 748.791 27.8800   3
   1  -3  14 700.528 25.0462   3
  -1   3  14 657.209 26.0625   4
  -3   1  12 1311.31 42.9596   4
   1  -3  12 1270.47 43.1239   4
   1  -3  12 1336.10 40.3872   3
  -1   3  12 1318.22 43.1679   3
  -1   3  12 1423.57 42.7125   4
   3   1 -12 1328.73 42.6377   4
   3   1 -12 1360.16 41.8141   3
  -1   3  10 3811.61 101.917   4
   3   1 -10 3670.44 102.189   4
  -3   1  10 3698.59 102.675   4
   1  -3  10 3709.52 99.9450   3
   3   1 -10 3711.78 101.713   3
  -1   3  10 3763.28 103.240   3
   1  -3  10 3547.83 102.789   4
   1  -3   8 1377.05 42.8512   4
  -3   1   8 1441.82 42.6389   4
  -1   3   8 1278.61 42.7564   3
   3   1  -8 1451.96 42.8756   4
   3   1  -8 1413.68 42.2877   3
  -1   3   8 1451.87 41.9433   4
   1   3  -8 1432.08 40.5572   3
   3  -1   8 1426.64 42.6459   4
   1  -3   8 1421.63 40.2864   3
   1  -3   6 119.962 5.12507   3
   1   3  -6 111.239 5.42928   3
   1  -3   6 129.310 7.64904   4
   3   1  -6 110.635 7.80521   4
  -3   1   6 114.392 7.19582   4
  -3   1   6 102.522 7.91732   2
   1   3  -4 3221.10 83.9358   2
   1  -3   4 3144.25 85.3758   4
   3   1  -4 3088.91 86.0976   4
  -3   1   4 3060.26 85.1909   4
   3   1  -4 2993.89 85.8960   2
   3   1  -2 3364.96 96.1439   1
  -1   3   2 3329.05 94.6495   3
   1  -3   2 3562.83 94.4097   4
   1   3  -2 3678.77 95.2736   2
  -3   1   2 3482.81 94.8682   1
   3  -1   2 3756.37 99.1823   2
   1   3   0 2219.48 67.5546   1
  -1   3   0 2401.18 64.5564   3
   3  -1   0 2165.99 66.9834   2
   1  -3   0 2423.78 65.0865   1
  -1   3   0 2484.48 64.6279   1
   1  -3   0 2504.45 64.5640   3
   3   1   0 1983.57 68.3530   1
  -1  -3   0 2625.83 68.7037   1
  -1   3  -2 3745.33 96.4003   4
  -3  -1   2 3369.74 99.1233   2
  -1  -3   2 3378.78 98.2364   1
  -1  -3   2 3691.63 98.8525   2
  -1   3  -4 2982.44 80.9688   4
  -3  -1   4 2980.66 82.6504   2
   3  -1  -4 2996.82 80.6647   4
  -1  -3   4 2912.80 80.4242   2
   3  -1  -6 100.278 6.27609   4
  -1   3  -6 98.9335 6.67950   4
  -1  -3   6 101.658 5.67854   2
  -3  -1   6 99.3676 7.36740   2
   3  -1  -8 1477.90 44.4100   3
   3  -1  -8 1633.18 44.1690   4
  -1  -3   8 1437.31 42.6585   2
  -3  -1   8 1471.54 45.3094   4
  -1   3  -8 1385.25 43.7497   4
  -3  -1   8 1460.03 44.6589   2
  -3  -1  10 3714.41 100.217   2
   3  -1 -10 3588.07 98.7710   4
  -3  -1  10 3524.16 100.678   4
   3  -1 -10 3323.87 99.2762   3
   1   3  12 1305.79 41.6869   4
  -3  -1  12 1289.53 43.1578   4
  -3  -1  12 1304.98 42.5054   2
   3  -1 -12 1349.15 41.5397   4
  -3  -1  14 691.963 27.4292   2
   1   3  14 719.122 27.1551   4
  -3  -1  14 732.290 29.1680   4
   1   3  14 741.397 27.8224   3
  -3  -1  16 509.889 23.9059   4
   1   3  16 475.805 22.1998   3
   1   3  16 510.749 22.7688   4
  -3  -1  16 497.862 22.6712   2
   1   3  18 374.499 19.6597   4
   3   1  18 351.071 19.6422   4
  -3  -1  18 341.482 19.5961   2
   1   3  18 351.165 18.8601   3
   3   1  18 313.374 17.7891   3
  -3  -1  18 339.522 20.7187   4
   3   1  20 563.100 27.3820   4
   1   3  20 532.004 25.9202   3
  -3  -1  20 507.828 26.4845   2
  -3  -1  20 515.707 28.2761   4
   1   3  20 567.633 26.6180   4
   3   1  20 517.503 24.8921   3
  -1  -3  20 530.083 24.9543   2
  -3  -1  22 103.773 16.1496   4
   1   3  22 125.794 14.5158   4
  -1  -3  22 118.242 13.8682   2
   3   1  22 118.944 13.1407   3
   1   3  22 111.958 13.6464   3
  -3  -1  22 126.627 14.8994   2
  -1  -3  22 127.912 16.4929   4
   3   1  22 104.539 14.6080   4
  -1  -3  24 1.87196 10.3787   2
   1   3  24 12.9044 10.9697   3
   3   1  24-2.73972 10.3297   3
   1   3  24 2.06973 11.5137   4
  -3  -1  24 24.8702 14.0649   4
  -3  -1  24-1.06776 10.7496   2
  -1  -3  24 7.69648 13.1237   4
   3   1  24 6.47822 11.6856   4
   1   3  26 16.2742 14.0573   4
   1   3  26 4.44006 11.9298   3
  -1  -3  26 1.03685 12.1777   2
  -3  -1  26-9.66517 15.2073   4
   3   1  26 9.08146 12.4432   3
  -3  -1  26 35.3517 13.4592   2
  -3  -1  28-6.52310 14.2188   2
   3   1  28 3.36176 11.9976   3
   3  -2  27 31.5113 11.8239   3
  -3   2  27 30.3637 14.4632   2
  -2   3  27 13.7692 13.0746   2
   3  -2  25 31.4355 11.7651   3
  -2   3  25 31.6416 13.4415   4
  -3   2  25 13.0734 13.1907   4
  -3   2  25 11.5924 12.9100   2
  -2   3  23 81.2717 14.0895   4
  -3   2  23 117.174 16.2614   4
   3  -2  23 95.2140 12.2487   3
  -3   2  23 77.1317 14.3696   2
   2  -3  23 104.792 12.8492   3
  -2   3  21 543.976 27.4981   4
   2  -3  21 557.597 24.7692   3
  -3   2  21 541.675 28.0404   4
  -2   3  21 551.757 27.1841   3
   3  -2  21 539.623 24.4848   3
   3  -2  19 389.993 19.2843   3
  -2   3  19 398.896 21.3946   4
   2  -3  19 351.921 22.0120   4
  -2   3  19 393.680 21.7739   3
  -3   2  19 397.625 22.2390   4
   2  -3  19 392.466 19.1842   3
   3  -2  17 705.865 30.1770   4
  -2   3  17 782.256 30.2793   4
   3   2 -17 803.756 30.3281   4
  -3   2  17 743.172 30.6107   4
   3  -2  17 739.959 28.0263   3
   2  -3  17 761.074 27.8961   3
   2   3 -17 802.947 30.3965   4
  -2   3  17 735.005 30.7702   3
   2  -3  17 769.210 31.2953   4
  -2   3  15 3456.78 97.7888   4
   2  -3  15 3416.38 98.8468   4
   3  -2  15 3437.82 98.5133   4
   3  -2  15 3454.06 95.3906   3
   2  -3  15 3450.15 95.2101   3
   3   2 -15 3177.68 97.2422   4
  -3   2  15 3196.55 97.7175   4
  -3   2  15 3520.08 99.2675   3
  -2   3  15 3518.56 99.2390   3
  -3   2  13 1570.49 50.6823   3
   2  -3  13 1570.49 47.3389   3
  -2   3  13 1563.77 50.9406   3
   2  -3  13 1601.81 50.8095   4
  -2   3  13 1582.18 49.3769   4
  -3   2  13 1594.29 49.9189   4
   3  -2  13 1511.58 50.1574   4
   3   2 -13 1682.93 50.7852   4
   2  -3  11 2884.92 81.6534   3
  -3   2  11 2986.80 84.1421   4
  -2   3  11 2843.16 83.4149   4
   2   3 -11 2981.91 82.3381   3
   3  -2  11 3080.80 85.2441   4
  -3   2  11 2873.03 85.0419   3
   2  -3  11 2858.16 84.7093   4
   3   2 -11 2905.16 84.4128   4
   3   2 -11 2975.85 83.1277   3
  -2   3  11 2952.19 85.4781   3
  -2   3   9 8039.02 210.356   4
  -2   3   9 7505.79 211.898   3
  -3   2   9 7748.11 210.558   4
   3   2  -9 7777.61 211.405   4
   2   3  -9 7704.13 209.248   3
   3  -2   9 7804.15 211.183   4
   2  -3   9 7609.35 211.355   4
   3   2  -9 8005.56 210.264   3
  -3   2   9 7911.87 212.223   3
   3  -2   7 4839.50 129.162   4
  -3   2   7 4774.21 128.692   4
   2  -3   7 4891.71 129.382   4
   3   2  -7 4429.99 129.501   4
   2   3  -7 4737.13 127.761   3
   3   2  -7 4836.67 128.766   3
  -2   3   7 4570.36 128.033   4
   2   3  -5 213.160 8.53061   2
   3   2  -5 209.623 9.61739   2
   3   2  -5 182.256 10.0919   4
  -2   3   5 209.031 8.23795   4
  -3   2   5 231.930 8.81792   4
   2  -3   5 197.691 8.94567   4
   2   3  -3 11925.6 326.586   2
   3   2  -3 12202.0 327.512   2
   2  -3   3 12540.8 325.524   4
  -2   3   3 12423.3 324.502   4
   3  -2   3 12022.3 329.232   2
   2  -3   3 12220.8 325.585   2
   3  -2   1 561.003 18.2785   2
   2   3  -1 536.747 21.2787   2
   2  -3   1 563.914 15.7616   4
   2  -3   1 563.113 16.1938   2
  -3   2   1 489.299 17.9196   2
  -2   3  -1 638.835 18.5609   2
  -3  -2   1 640.914 24.3453   2
  -2   3  -1 626.627 17.5526   4
   3  -2  -1 578.071 19.5140   2
  -3   2  -1 586.065 21.0140   2
   2  -3  -1 654.842 18.9020   3
  -2   3  -3 12089.8 323.676   4
  -3  -2   3 12261.2 327.072   2
  -2  -3   3 12459.7 326.429   2
   3  -2  -3 12502.8 323.140   4
   2  -3  -3 11724.6 324.759   3
  -3  -2   5 263.201 11.6991   2
  -2  -3   5 257.536 10.7966   2
   3  -2  -5 265.145 9.67323   4
  -2   3  -5 268.219 10.4922   4
  -2  -3   7 4822.06 131.968   2
   3  -2  -7 4858.68 131.442   4
  -3  -2   7 4879.64 133.225   2
  -3  -2   9 8011.33 204.847   2
   3  -2  -9 7555.91 204.619   3
   3  -2  -9 7164.39 202.652   4
  -3  -2   9 6813.02 205.427   4
  -2  -3   9 8101.79 203.646   2
  -2  -3  11 3052.14 84.1043   2
  -3  -2  11 3005.67 85.0131   2
  -3  -2  13 1556.88 49.6192   2
   2   3  13 1691.73 49.8973   4
  -2  -3  13 1482.69 48.3705   2
  -3  -2  13 1565.72 51.3766   4
   2   3  15 3470.90 102.083   4
   3   2  15 3519.68 102.449   4
  -3  -2  15 3458.34 104.806   4
  -2  -3  15 3501.02 101.580   2
   2   3  15 3696.35 102.877   3
  -3  -2  15 3518.05 102.661   2
  -3  -2  17 727.067 32.0310   4
   2   3  17 753.838 30.1921   4
  -2  -3  17 765.803 29.5528   2
  -3  -2  17 780.610 30.7003   2
   3   2  17 766.081 30.5199   4
   2   3  17 805.236 30.3016   3
   3   2  17 797.540 30.0793   3
  -2  -3  17 649.973 31.2284   4
   3   2  19 362.130 20.1879   3
   2   3  19 371.233 21.1060   4
  -2  -3  19 405.383 21.0971   2
   2   3  19 388.700 20.9026   3
  -2  -3  19 397.375 23.7763   4
  -3  -2  19 388.080 23.2951   4
   3   2  19 390.482 21.4992   4
  -3  -2  19 379.371 21.0778   2
   2   3  21 538.628 26.3500   3
  -3  -2  21 560.965 28.0009   2
  -2  -3  21 549.936 26.6131   2
  -3  -2  21 541.318 29.3778   4
   3   2  21 524.565 25.9640   3
   3   2  21 600.479 27.6269   4
  -2  -3  21 579.809 29.9598   4
   2   3  21 573.396 27.5855   4
  -3  -2  23 104.073 16.3575   4
   2   3  23 86.3661 13.6139   4
  -2  -3  23 89.6353 16.1147   4
   3   2  23 96.8481 13.1805   3
  -2  -3  23 102.836 13.7482   2
   3   2  23 78.8500 13.6079   4
  -3  -2  23 86.3422 13.8543   2
   2   3  23 106.484 13.6574   3
  -3  -2  25 32.9038 15.0083   4
  -2  -3  25 27.7046 14.5743   4
   2   3  25 25.9036 11.8127   3
   3   2  25 25.9019 12.9179   4
  -2  -3  25 30.2408 12.2990   2
  -3  -2  25 6.70664 11.8106   2
   2   3  25 38.6746 13.1469   4
   3   2  25 18.0015 10.9948   3
  -3  -2  27 24.8271 14.1194   2
  -2  -3  27 46.3509 14.0450   2
   3   2  27 31.8853 12.3932   3
   2   3  27 46.5257 13.5282   3
  -3   3  26 39.0824 15.0327   4
  -3   3  26 61.7526 15.7731   2
   3  -3  24 212.041 16.3853   3
  -3   3  24 198.373 18.7666   4
   3  -3  24 165.152 18.5107   4
  -3   3  22 163.783 16.2327   4
   3  -3  22 147.646 13.2199   3
   3  -3  22 124.815 15.9102   4
   3  -3  20 362.422 21.5021   4
   3  -3  20 338.515 18.1028   3
  -3   3  20 326.687 20.4538   4
   3  -3  18 2938.84 88.7302   4
   3  -3  18 2824.83 84.1621   3
   3   3 -18 2835.99 87.1818   4
  -3   3  18 2891.50 88.5647   3
  -3   3  18 2923.03 87.7417   4
   3  -3  16 462.404 19.5299   3
   3  -3  16 510.825 23.1017   4
   3   3 -16 504.746 22.1842   4
  -3   3  16 466.321 21.9060   4
  -3   3  16 492.271 23.1059   3
   3  -3  14 1297.06 43.6763   4
   3  -3  14 1246.22 40.2284   3
  -3   3  14 1271.02 42.5466   4
  -3   3  14 1317.89 44.2272   3
   3   3 -14 1388.62 44.0521   4
   3  -3  12 9902.16 261.641   4
   3   3 -12 9342.46 258.874   3
   3   3 -12 9124.88 261.143   4
  -3   3  12 9954.96 262.732   3
  -3   3  12 9942.86 260.575   4
   3  -3  10 5783.60 154.512   4
  -3   3  10 5645.40 155.517   3
   3   3 -10 5776.87 152.551   3
  -3   3  10 5712.89 153.395   4
   3   3  -8 808.120 25.5447   3
  -3   3   8 782.973 25.6557   4
   3  -3   8 821.867 26.8606   4
   3  -3   6 12761.3 343.287   4
  -3   3   6 13061.6 342.206   4
   3   3  -6 12793.9 342.980   2
   3  -3   4 9046.24 231.606   4
   3  -3   4 8674.09 234.182   2
   3   3  -4 8925.09 232.970   2
  -3   3   4 8352.86 230.507   4
   3   3  -2 631.987 22.4503   2
   3  -3   2 598.910 17.9568   4
  -3   3   2 626.496 19.9945   2
   3  -3   2 629.555 19.5205   2
   3   3   0 228.429 15.7837   2
   3  -3   0 268.086 9.53320   2
  -3   3   0 234.108 9.96159   2
  -3   3  -2 663.611 22.3131   2
  -3  -3   2 682.005 25.9829   2
   3  -3  -2 667.529 21.0449   3
  -3  -3   4 9045.06 239.230   2
   3  -3  -4 9111.20 234.956   4
  -3  -3   6 12424.1 332.316   2
  -3  -3   8 790.724 26.5465   2
  -3  -3  10 5578.47 153.531   2
  -3  -3  12 8695.84 237.019   2
  -3  -3  14 1365.95 42.9083   2
  -3  -3  14 1174.88 44.1792   4
   3   3  16 431.418 20.3046   4
  -3  -3  16 402.623 19.9986   2
  -3  -3  16 412.303 22.5009   4
  -3  -3  18 2816.45 89.7894   4
   3   3  18 2939.10 87.1122   4
   3   3  18 2792.90 86.3653   3
  -3  -3  18 2863.09 86.6520   2
   3   3  20 376.417 21.3770   4
  -3  -3  20 354.873 23.3742   4
   3   3  20 374.007 20.7614   3
  -3  -3  20 333.820 20.8524   2
   3   3  22 112.700 14.4245   3
  -3  -3  22 110.884 16.4396   4
   3   3  22 121.023 14.7882   4
  -3  -3  22 136.397 15.0384   2
  -3  -3  24 204.856 21.6013   4
  -3  -3  24 215.449 18.9653   2
   3   3  24 215.229 18.7743   4
   3   3  24 213.272 17.8693   3
   3   3  26 45.8566 13.4402   3
  -3  -3  26 44.5142 13.4725   2
   0   4   0 154.369 7.98855   1
   0  -4   0 122.965 8.99200   1
   4   0   0 141.518 10.9080   1
  -4   0   2 59.1599 8.26893   1
   0  -4   2 57.2927 6.03870   1
   4   0   2 73.6409 11.8648   2
   4   0  -2 56.4359 6.52298   1
  -4   0   4 18.8648 5.49749   1
   0   4  -4 23.7837 4.73375   4
  -4   0   4 19.7347 5.39928   2
   0   4  -6 3140.24 85.8982   4
   0  -4   6 3099.23 86.5460   4
   4   0  -6 3035.57 85.5429   4
   0  -4   6 3043.86 82.9889   2
  -4   0   6 3175.75 87.6355   2
   4   0  -8 125.861 9.13041   3
  -4   0   8 135.318 10.2489   2
   0   4  -8 136.784 9.60141   4
  -4   0   8 139.166 10.4703   4
   0  -4   8 150.836 10.6075   4
   4   0  -8 155.990 9.46176   4
   4   0 -10 94.6652 7.96375   3
  -4   0  10 109.909 9.27536   4
   0  -4  10 118.900 9.38678   4
   0   4  10 102.320 8.63989   3
   4   0 -10 106.485 8.06684   4
   0   4 -10 107.107 8.91835   4
  -4   0  10 123.892 9.55531   2
   4   0 -12 82.0062 8.42993   4
   0   4  12 85.6596 9.07545   3
  -4   0  12 90.0809 9.36766   2
  -4   0  12 93.4436 9.77691   4
   0  -4  12 97.8155 10.2210   4
   0   4  12 80.0571 8.02288   4
   4   0 -12 85.9090 7.99718   3
   0   4  14 107.341 11.2292   4
   4   0 -14 104.721 10.8956   4
  -4   0  14 126.651 12.8780   4
   0  -4  14 123.622 13.0795   4
  -4   0  14 102.434 11.6597   2
   0   4  14 119.663 11.9326   3
  -4   0  16 33.1793 9.97640   4
   4   0 -16 26.3349 7.96258   4
   0   4  16 20.8303 8.28837   3
   0   4  16 35.4896 8.14294   4
  -4   0  16 36.3089 9.53539   2
  -4   0  18 142.733 13.9049   2
  -4   0  18 129.804 14.0037   4
   4   0  18 120.153 11.3922   3
   0   4  18 126.518 12.3505   4
   0   4  18 129.352 12.6554   3
  -4   0  20 160.841 17.2775   4
  -4   0  20 188.515 17.3604   2
   0   4  20 162.976 16.3520   4
   4   0  20 195.222 15.6516   3
   0  -4  20 171.381 14.5740   2
   0   4  20 189.164 16.5251   3
   0   4  22-5.46706 10.5699   4
   0  -4  22 6.21193 9.14544   2
  -4   0  22 1.02580 10.0258   2
  -4   0  22-5.53655 12.5645   4
   4   0  22-3.15381 8.68284   3
   0   4  22 3.79140 9.50259   3
  -4   0  24 182.112 19.5058   4
  -4   0  24 167.414 17.4933   2
   0  -4  24 189.350 16.0910   2
   0   4  24 191.312 18.4813   4
   0   4  24 178.337 17.4116   3
   4   0  24 191.027 16.0355   3
  -4   0  26 46.1859 16.2757   2
   0   4  26 25.1128 13.1923   3
   4   0  26 51.4470 12.9753   3
   0   4  26 61.9347 16.0854   4
   0  -4  26 6.73731 11.3400   2
  -4   0  26 48.1081 17.4283   4
  -4   0  28 20.7227 15.1675   2
   4   0  28 13.0316 12.1292   3
  -4   1  27 17.0457 13.7912   2
   4  -1  27 20.9687 11.7007   3
   1  -4  25 13.1724 10.4999   2
  -4   1  25 3.59334 12.2080   2
  -1   4  25 5.55984 12.7818   3
  -4   1  25 35.0997 14.8108   4
  -1   4  25 3.29388 12.0111   4
   4  -1  25 7.99085 9.84800   3
  -1   4  23 29.8808 12.7221   4
  -4   1  23 31.5512 13.3717   4
  -1   4  23 25.4944 12.5607   3
  -4   1  23 20.6504 11.6604   2
   4  -1  23 33.2925 10.2949   3
   4  -1  21 51.2692 10.9314   3
  -1   4  21 74.9946 12.7956   3
  -4   1  21 56.2671 12.3021   2
  -1   4  21 64.7041 11.7676   4
  -4   1  21 48.4765 13.7711   4
  -4   1  19 333.562 20.5222   2
  -4   1  19 274.152 19.7419   4
  -1   4  19 302.254 18.5858   4
   4  -1  19 318.596 17.2987   3
   1  -4  19 318.552 17.2158   3
  -1   4  19 322.313 19.7708   3
   1  -4  19 249.223 19.4390   4
  -1   4  17 164.884 13.5824   3
   4   1 -17 169.674 13.0297   4
  -4   1  17 148.186 13.9489   2
  -4   1  17 150.277 14.0761   4
   1  -4  17 166.789 14.4834   4
   1  -4  17 167.839 11.5077   3
  -1   4  17 162.826 12.9828   4
  -4   1  15 265.854 16.5333   4
  -4   1  15 257.922 16.1540   2
  -1   4  15 251.453 15.5022   3
   1  -4  15 236.752 16.0806   4
   4   1 -15 244.408 14.8683   4
   4  -1  15 227.120 15.4932   4
   1  -4  15 249.768 12.8259   3
  -1   4  15 227.047 14.3200   4
   1  -4  13 552.968 19.7607   3
  -4   1  13 531.700 23.4004   2
  -1   4  13 564.612 23.4016   3
  -4   1  13 493.287 22.4931   4
   4   1 -13 607.476 23.0792   4
   4   1 -13 563.616 21.7490   3
   4  -1  13 524.678 22.2961   4
   1  -4  13 529.152 23.3886   4
  -1   4  13 551.389 22.1078   4
  -4   1  11 754.085 27.9998   2
  -1   4  11 709.170 27.4538   3
  -1   4  11 813.209 26.1847   4
   4   1 -11 738.995 26.2220   3
  -4   1  11 728.628 27.1310   4
   4   1 -11 758.833 26.6733   4
   1  -4  11 718.110 27.3517   4
   1  -4  11 773.236 24.2050   3
   4  -1  11 729.859 26.6427   4
   1  -4   9 2603.41 76.0642   4
   4   1  -9 2665.42 75.2731   3
  -4   1   9 2612.38 76.7235   2
   4   1  -9 2697.35 75.4490   4
   1  -4   9 2656.84 72.3371   3
  -1   4   9 2501.11 73.9196   4
  -4   1   9 2646.52 75.7125   4
   4   1  -7 1581.01 46.5578   4
   1   4  -7 1609.16 43.5834   3
   1  -4   7 1538.68 46.5404   4
  -4   1   7 1536.44 47.4965   2
  -4   1   7 1485.33 46.2827   4
   1  -4   7 1549.30 43.0446   3
   1  -4   5 1275.26 37.5495   4
   4   1  -5 1327.24 38.1547   4
   4   1  -5 1237.08 37.9338   2
   1   4  -5 1181.75 37.6071   4
   1   4  -3 399.295 13.4199   2
  -4   1   3 382.521 14.5862   1
   1  -4   3 397.930 14.3219   4
   4   1  -3 391.214 15.5185   1
   4  -1   3 374.385 19.9741   2
  -1   4   3 461.404 14.5834   3
   1  -4   1 475.547 15.0810   1
   4   1  -1 458.224 18.1062   1
  -4   1   1 408.975 16.7348   1
   1   4  -1 426.294 16.5658   1
   4  -1   1 458.685 18.3516   2
  -1   4   1 456.861 15.3304   1
  -1   4   1 442.863 14.2312   3
  -4  -1   1 425.018 20.2192   1
   1   4   1 482.255 19.6758   1
   4  -1  -1 503.660 17.4018   1
  -4   1  -1 501.866 21.3307   2
  -1  -4   1 513.226 19.0209   1
  -1   4  -1 505.416 14.4162   3
  -1  -4   3 401.442 15.7125   1
  -1   4  -3 399.033 13.4189   4
  -4  -1   3 375.380 16.3258   2
  -4  -1   3 367.610 15.9204   1
  -1  -4   3 400.031 15.5490   2
  -4  -1   5 1368.08 42.3114   2
   4  -1  -5 1382.15 39.7706   4
  -1  -4   5 1331.81 39.1075   2
  -1   4  -5 1420.82 40.1861   4
  -1   4  -7 1600.82 45.2504   4
   4  -1  -7 1541.77 44.4305   4
  -4  -1   7 1522.05 46.6748   2
  -1  -4   7 1463.89 43.2275   2
  -1  -4   7 1529.56 46.6063   4
   4  -1  -7 1480.35 45.5959   3
  -4  -1   9 2620.04 75.0814   2
   4  -1  -9 2658.05 72.9586   4
  -1  -4   9 2576.84 71.6328   2
  -1  -4   9 2357.99 74.6765   4
  -4  -1   9 2610.95 75.3763   4
  -1   4  -9 2535.71 73.3953   4
   4  -1  -9 2544.78 74.0411   3
  -1   4 -11 761.282 26.6663   4
  -1  -4  11 740.307 25.0896   2
   4  -1 -11 739.678 26.0029   4
   4  -1 -11 762.658 27.0203   3
  -4  -1  11 748.654 28.5652   4
  -4  -1  11 766.894 27.8388   2
   1   4  13 595.109 22.4341   4
   4  -1 -13 500.658 21.6471   3
  -1  -4  13 518.828 20.2549   2
   4  -1 -13 585.548 21.9688   4
  -4  -1  13 511.410 22.7919   2
  -4  -1  13 528.801 23.6170   4
   1   4  13 529.752 22.4302   3
  -4  -1  15 204.816 15.4874   4
   1   4  15 250.185 14.4824   4
  -1  -4  15 213.385 12.6782   2
  -4  -1  15 217.864 14.7947   2
   1   4  15 199.710 13.9359   3
  -1  -4  17 140.594 11.7832   2
   1   4  17 164.945 13.5949   4
  -4  -1  17 154.949 14.7062   4
  -4  -1  17 155.546 13.7099   2
   1   4  17 168.610 12.8846   3
  -4  -1  19 306.814 21.3338   4
  -4  -1  19 321.474 19.9534   2
   4   1  19 292.301 17.5293   3
  -1  -4  19 289.832 17.4444   2
   1   4  19 303.439 18.5989   4
   1   4  19 292.374 18.3880   3
  -4  -1  21 63.1538 14.2486   4
   4   1  21 73.0834 13.2034   4
   1   4  21 95.7043 13.5657   4
   1   4  21 53.0467 11.6149   3
   4   1  21 56.8308 11.3059   3
  -4  -1  21 78.2265 13.0258   2
  -1  -4  21 60.0270 11.3813   2
   4   1  23 44.1448 12.1687   4
   1   4  23 41.3485 12.0794   3
   1   4  23 33.1575 12.1629   4
   4   1  23 39.0371 11.3365   3
  -4  -1  23 45.1803 14.3303   4
  -4  -1  23 38.6991 11.8802   2
  -1  -4  23 28.5738 10.8377   2
   1   4  25-1.08309 11.4762   3
   4   1  25 9.56893 11.2434   3
  -1  -4  25 12.5577 10.9325   2
  -1  -4  25 18.2391 15.2426   4
  -4  -1  25 28.5969 14.1648   2
  -4  -1  25 23.1831 15.3788   4
   4   1  25 30.9231 13.2094   4
   1   4  25 11.8955 12.8945   4
   4   1  27 26.5287 12.3793   3
   1   4  27 34.5777 14.3618   3
  -4  -1  27 46.1126 17.0469   2
  -2   4  26-4.67742 13.0094   4
  -4   2  26-7.68486 13.8615   4
   2  -4  26 6.22729 10.5717   2
  -4   2  26 26.5419 14.5253   2
   4  -2  26-0.91419 10.1707   3
  -4   2  24 34.5858 13.8194   4
   4  -2  24 42.0656 10.8608   3
   2  -4  24 36.2818 14.3706   4
  -4   2  24 46.1166 13.2907   2
  -2   4  24 37.3984 12.7454   4
   4  -2  22 58.3137 12.7035   4
   2  -4  22 52.1635 10.3305   3
  -4   2  22 70.2874 13.4248   4
  -4   2  22 68.5013 13.2743   2
  -2   4  22 40.5177 11.9759   4
  -2   4  22 26.9192 11.4303   3
   2  -4  22 66.6711 13.5039   4
   4  -2  22 45.9208 9.85939   3
  -4   2  20 342.181 21.6005   2
   4  -2  20 343.427 18.5705   3
   4  -2  20 369.776 21.8381   4
   2  -4  20 355.701 18.3766   3
  -4   2  20 369.857 22.0911   4
  -2   4  20 355.252 20.4856   4
  -2   4  20 333.965 21.0212   3
   2  -4  20 338.603 21.9312   4
  -2   4  18 553.514 26.4990   3
  -4   2  18 486.397 26.0543   2
  -4   2  18 622.341 27.4683   4
   4   2 -18 565.812 25.5624   4
   4  -2  18 615.530 26.7902   4
   2  -4  18 557.956 23.0429   3
  -2   4  18 528.688 24.7771   4
   2  -4  18 687.584 29.1337   4
   4  -2  18 571.441 23.5502   3
  -4   2  16 273.948 17.2813   4
   4  -2  16 308.587 17.5687   4
  -2   4  16 315.009 17.4994   3
  -2   4  16 292.753 16.5857   4
   4   2 -16 279.339 16.4555   4
   2  -4  16 330.217 18.7351   4
   2  -4  16 315.913 14.6359   3
   2  -4  14 848.201 27.8622   3
  -4   2  14 842.643 31.2709   4
   4   2 -14 833.802 29.5087   3
   2  -4  14 824.458 31.6567   4
   4  -2  14 864.491 31.6732   4
  -2   4  14 791.964 29.8147   4
   4   2 -14 864.654 31.3043   4
  -2   4  14 854.694 32.0904   3
   4   2 -12 5370.17 146.362   3
   4  -2  12 5374.42 147.619   4
   2  -4  12 5141.40 147.775   4
   4   2 -12 5624.67 147.794   4
  -2   4  12 5385.23 148.947   3
  -2   4  12 5036.34 145.889   4
   2  -4  12 5331.84 143.989   3
  -4   2  12 5140.13 147.196   4
   4  -2  10 3306.16 94.5512   4
   2  -4  10 3258.48 94.9804   4
  -2   4  10 3507.55 93.7343   4
   2   4 -10 3295.33 92.0011   3
  -4   2  10 3173.24 94.1536   4
   4   2 -10 3291.13 93.7501   3
   2  -4  10 3342.00 91.2777   3
   4   2 -10 3495.36 95.0266   4
  -4   2   8 1061.42 36.5691   2
  -4   2   8 1135.08 34.9585   4
   4   2  -8 1166.10 35.1261   3
   4  -2   8 1151.50 35.1252   4
   2   4  -8 1128.91 33.1441   3
  -2   4   8 1092.69 33.7477   4
   2  -4   8 1145.24 35.4384   4
   4   2  -8 1067.48 35.5423   4
   4   2  -6 4947.64 143.050   4
   2   4  -6 5244.58 140.595   2
  -4   2   6 5221.06 141.764   4
   4   2  -6 5204.04 142.698   2
  -2   4   6 5434.82 140.694   4
   2  -4   6 5166.92 142.016   4
   4   2  -4 5860.59 153.248   2
   2  -4   4 5455.94 150.966   4
  -2   4   4 5390.56 151.993   3
   4  -2   4 5821.55 157.437   2
   2   4  -4 5736.17 151.136   2
   2   4  -2 1782.42 51.2099   2
   4   2  -2 1517.57 50.7181   1
  -4   2   2 1773.92 48.3132   1
   2  -4   2 1741.18 47.2931   4
   4  -2   2 1720.43 51.4125   2
   4   2  -2 1692.20 51.5982   2
  -2   4   2 1675.23 48.2385   3
  -2   4   0 1186.10 32.8026   2
  -2  -4   0 1176.16 38.3416   1
   2  -4   0 1132.49 32.4390   3
  -4   2   0 1153.77 35.9884   2
   2   4   0 1106.70 37.2923   1
   4  -2   0 1158.43 34.9904   2
  -4   2  -2 1733.59 54.9251   2
  -2   4  -2 1826.06 48.7273   4
  -2  -4   2 1758.87 53.2414   1
   2  -4  -2 1820.38 49.9755   3
  -2   4  -2 1755.85 48.6844   2
  -4  -2   2 1752.08 55.1358   2
   4  -2  -2 1696.01 50.9411   2
  -2   4  -4 5960.55 159.831   4
  -2  -4   4 5497.09 162.430   1
  -4  -2   4 5816.12 163.332   2
   2  -4  -4 6067.67 160.662   3
   4  -2  -4 6104.98 159.060   4
  -2  -4   4 5966.69 161.853   2
   4  -2  -6 5621.93 145.036   4
  -2  -4   6 5315.44 145.975   2
  -4  -2   6 5225.68 148.072   2
  -2   4  -6 5249.11 145.718   4
  -4  -2   8 1161.60 37.3138   2
   4  -2  -8 1192.60 35.1698   4
  -2  -4   8 1128.89 35.0659   2
  -2   4  -8 1133.14 35.5721   4
  -2  -4  10 3347.39 89.1055   2
  -4  -2  10 3347.99 91.6006   2
   4  -2 -10 3328.57 91.0142   3
  -4  -2  12 5409.87 153.742   2
  -4  -2  12 5458.19 155.497   4
  -2  -4  12 5405.55 151.624   2
   4  -2 -12 5597.75 151.825   4
   4  -2 -12 5695.47 153.539   3
  -4  -2  14 891.007 32.4920   2
  -4  -2  14 916.163 34.2986   4
  -2  -4  14 845.921 30.1502   2
   2   4  14 826.163 30.8856   4
  -4  -2  16 280.832 18.4119   4
   2   4  16 303.708 16.4937   4
  -4  -2  16 254.326 16.7344   2
   2   4  16 248.915 15.5972   3
  -2  -4  16 303.284 16.1695   2
   4   2  18 495.767 24.7338   4
   2   4  18 584.736 25.9715   4
  -4  -2  18 576.827 28.4813   4
  -2  -4  18 591.484 25.2261   2
  -4  -2  18 580.882 26.9367   2
   2   4  18 616.798 26.7428   3
  -4  -2  20 378.609 24.1905   4
  -2  -4  20 355.921 20.5000   2
   4   2  20 376.897 20.3835   3
   2   4  20 345.714 21.0480   3
   4   2  20 357.096 21.0464   4
   2   4  20 352.166 20.5518   4
  -4  -2  20 371.742 22.1292   2
  -2  -4  22 56.7009 11.6258   2
   2   4  22 70.3581 12.9454   3
   2   4  22 51.8742 12.7870   4
  -4  -2  22 49.7302 14.0260   4
   4   2  22 49.9934 12.3345   4
  -4  -2  22 66.5074 13.1479   2
  -2  -4  22 81.2847 15.0562   4
   4   2  22 54.9978 11.1623   3
  -4  -2  24 37.4901 13.0844   2
  -4  -2  24 28.2483 14.3756   4
   4   2  24 46.3344 13.3494   4
   2   4  24 30.2125 12.4463   4
   2   4  24 51.3512 12.9649   3
  -2  -4  24 12.3957 14.2279   4
   4   2  24 19.0440 10.7691   3
  -2  -4  24 39.2546 12.0640   2
  -2  -4  26 9.76938 11.2836   2
   2   4  26 18.0825 12.4065   3
  -4  -2  26 3.75770 12.2987   2
   4   2  26 12.6530 11.8904   3
  -4  -2  28 2.75443 14.6919   2
   4  -3  25 22.1383 13.7319   4
  -4   3  25 6.13324 12.7504   2
   4  -3  25 9.15226 9.65644   3
  -4   3  25 10.6668 13.6668   4
  -3   4  25 9.07099 12.7862   4
   3  -4  25 15.4099 13.2449   4
   3  -4  23 143.042 17.4848   4
  -4   3  23 156.452 18.1961   2
  -3   4  23 171.819 16.7972   4
   4  -3  23 158.526 13.7323   3
  -4   3  23 180.537 18.0767   4
   4  -3  23 173.492 16.9576   4
   3  -4  23 165.288 14.0721   3
   4  -3  21 226.320 15.0980   3
  -3   4  21 214.144 17.6209   4
  -4   3  21 229.483 18.6912   2
   3  -4  21 221.057 18.9335   4
  -4   3  21 243.156 18.5357   4
   4  -3  21 245.531 18.4574   4
   3  -4  21 257.058 15.6794   3
  -3   4  19 244.162 16.5767   4
   4  -3  19 208.555 16.7466   4
   4  -3  19 241.747 14.4446   3
  -3   4  19 202.972 16.8716   3
   3  -4  19 251.213 17.6690   4
   3  -4  19 217.355 13.7844   3
   4   3 -19 232.218 16.3908   4
  -4   3  19 227.810 16.9525   4
   3   4 -19 196.049 15.5277   4
  -4   3  17 946.390 35.3116   4
  -3   4  17 896.438 35.8911   3
   3  -4  17 895.315 31.3541   3
   4  -3  17 933.800 32.1127   3
  -3   4  17 876.849 34.0448   4
   4   3 -17 971.931 35.0207   4
   3  -4  17 897.719 35.7376   4
   3   4 -17 913.196 34.5263   4
   4  -3  17 926.617 35.4474   4
   3   4 -15 2681.02 85.7758   4
  -3   4  15 2984.41 87.5348   3
  -4   3  15 2997.78 85.9360   4
   3  -4  15 2906.18 86.5363   4
  -3   4  15 2834.73 84.6564   4
   3  -4  15 2737.80 81.7622   3
   4   3 -15 2902.94 83.6021   3
   4   3 -15 3052.60 86.5200   4
   4  -3  15 2922.36 86.2400   4
   3  -4  13 2532.88 72.4773   3
   3  -4  13 2665.35 76.9831   4
   4   3 -13 2514.70 74.2950   3
  -3   4  13 2554.80 77.4705   3
   3   4 -13 2378.60 73.2452   3
  -4   3  13 2780.60 76.2951   4
   4   3 -13 2620.93 76.4000   4
  -3   4  13 2524.08 74.9440   4
   4  -3  13 2588.81 76.3535   4
  -3   4  11 1079.92 37.5379   3
   3  -4  11 1035.88 36.1637   4
  -3   4  11 1107.31 35.3170   4
   3   4 -11 1111.10 34.1128   3
   4   3 -11 1153.90 36.8860   4
   4  -3  11 1101.55 36.4646   4
   4   3 -11 1054.57 34.8832   3
  -4   3  11 1131.16 35.9774   4
   3  -4   9 3909.67 108.927   4
   4   3  -9 3723.38 109.204   4
  -4   3   9 3918.22 108.057   4
   4  -3   9 3950.96 108.900   4
   4   3  -9 3939.09 107.975   3
  -3   4   9 3908.03 107.453   4
   3   4  -9 3865.65 106.936   3
   4  -3   7 4826.27 129.504   4
   3   4  -7 4668.49 128.655   2
  -3   4   7 4898.98 128.264   4
   4   3  -7 4309.66 130.751   4
   4   3  -7 4740.98 129.801   2
   3  -4   7 4769.11 129.595   4
  -4   3   7 4776.08 128.871   4
   3  -4   5 1079.78 33.5675   4
   3  -4   5 1136.53 34.8852   2
  -4   3   5 1163.05 33.0822   4
   4  -3   5 1120.45 33.5716   4
   4   3  -5 1183.33 35.2728   2
  -3   4   5 1161.20 32.3732   4
   3   4  -5 1109.49 34.0987   2
   4  -3   5 1090.39 38.4569   2
   3  -4   3 3956.59 106.190   4
   4   3  -3 3909.66 110.425   2
  -3   4   3 3840.98 104.796   4
  -4   3   3 3785.32 108.812   2
   4  -3   3 3948.07 109.468   2
  -4   3   3 3986.95 105.926   1
   3  -4   3 4099.77 106.345   2
   3   4  -3 4171.86 109.818   2
   4   3  -1 2894.11 86.9330   2
   3   4  -1 2944.50 87.3989   2
   3  -4   1 2943.89 80.3363   2
  -3   4   1 3009.32 81.5132   2
   4  -3   1 2934.14 81.9740   2
  -4   3   1 2868.73 82.7881   2
   3  -4   1 2998.26 79.2114   4
  -4  -3   1 3145.90 92.0143   2
   3  -4  -1 3106.05 82.0930   3
  -3   4  -1 2984.13 82.2016   2
   4  -3  -1 2885.46 82.7814   2
  -4   3  -1 2931.68 84.4372   2
  -3   4  -3 4319.25 114.403   2
  -3  -4   3 4285.35 118.249   2
  -4  -3   3 4411.70 118.537   2
   4  -3  -3 3967.30 110.567   4
  -4   3  -3 4091.67 117.845   2
   3  -4  -3 4431.75 113.500   3
  -4  -3   5 1122.25 37.7153   2
  -3  -4   5 1164.75 36.9839   2
   4  -3  -5 1143.22 33.0687   4
   3  -4  -5 1202.57 35.6736   3
  -4  -3   7 4515.87 125.859   2
   4  -3  -7 4400.57 122.007   4
  -3  -4   7 4690.02 124.893   2
  -3  -4   9 3812.70 101.054   2
  -4  -3   9 3879.39 102.290   2
  -3  -4  11 1068.74 34.3358   2
  -4  -3  11 1014.72 35.4909   2
   4  -3 -11 1007.15 34.7596   3
  -4  -3  13 2562.01 74.4278   2
  -3  -4  13 2363.99 72.9491   2
  -4  -3  15 2923.08 90.0274   4
  -3  -4  15 2897.28 86.3230   2
  -4  -3  15 2949.12 87.4837   2
   4   3  17 832.606 33.5202   4
  -4  -3  17 907.648 34.6832   2
  -4  -3  17 881.283 36.8903   4
   3   4  17 864.902 33.2802   4
  -3  -4  17 862.938 33.3140   2
  -3  -4  19 221.250 19.2149   4
  -4  -3  19 211.042 18.8093   4
   3   4  19 205.557 15.9786   4
   3   4  19 258.449 17.2009   3
   4   3  19 197.216 15.9076   4
  -4  -3  19 219.149 16.9299   2
   4   3  19 200.661 15.6288   3
  -3  -4  19 247.311 17.0813   2
   4   3  21 207.353 17.1761   4
  -4  -3  21 216.908 19.8939   4
   4   3  21 215.047 16.9101   3
   3   4  21 227.044 17.4773   4
  -4  -3  21 211.267 17.9085   2
   3   4  21 214.360 16.8013   3
  -3  -4  21 231.395 17.6767   2
  -3  -4  21 206.926 19.6989   4
  -4  -3  23 198.492 18.4101   2
  -3  -4  23 176.642 17.0867   2
   3   4  23 194.026 17.6492   4
  -3  -4  23 128.621 18.1164   4
   4   3  23 143.793 16.4048   4
   4   3  23 159.703 16.2062   3
   3   4  23 180.310 16.6493   3
   4   3  25 11.3179 11.9097   4
  -4  -3  25 13.1275 12.8362   2
   3   4  25 34.4353 12.6491   3
   3   4  25 42.3985 13.3873   4
   4   3  25 12.5288 11.8606   3
  -3  -4  25 21.0053 12.4763   2
   4   3  27 15.0608 12.8037   3
  -4  -3  27 1.30375 14.2109   2
  -4   4  26 102.627 17.0352   4
  -4   4  26 105.820 17.1842   2
  -4   4  24 59.1519 14.9200   4
   4  -4  24 40.4356 13.4940   4
  -4   4  24 50.5165 14.0786   2
   4  -4  24 74.2789 11.1525   3
  -4   4  22 68.5709 14.4961   2
   4  -4  22 99.2325 11.4790   3
  -4   4  22 81.3219 14.1513   4
   4  -4  22 78.6017 14.2351   4
  -4   4  20 530.300 26.1525   4
   4  -4  20 512.113 22.5048   3
   4   4 -20 542.561 25.5329   4
   4  -4  20 540.920 26.8558   4
   4  -4  18 1322.12 42.6448   3
  -4   4  18 1298.31 46.0972   4
   4  -4  18 1289.79 46.9218   4
   4   4 -18 1339.08 46.4346   4
  -4   4  16 224.666 14.7201   4
   4  -4  16 188.850 14.5571   4
   4  -4  16 190.253 11.5374   3
   4   4 -16 196.795 14.5251   4
   4   4 -14 1130.12 38.8108   4
   4   4 -14 1064.46 36.1014   3
   4  -4  14 1161.46 39.4570   4
  -4   4  14 1136.08 38.0873   4
  -4   4  12 3306.39 92.3643   4
   4   4 -12 3054.65 90.8307   3
  -4   4  12 3350.64 95.1722   3
   4   4 -12 3200.41 93.7834   4
   4  -4  12 3302.54 93.6118   4
   4  -4  10 2955.52 83.2028   4
   4   4 -10 2966.34 81.8437   3
  -4   4  10 2751.95 81.7124   4
  -4   4   8 5776.98 156.234   4
   4   4  -8 5826.94 157.114   2
   4  -4   8 5686.88 157.418   4
  -4   4   6 4498.09 121.102   4
   4   4  -6 4607.53 123.306   2
   4  -4   6 4334.03 122.238   4
   4  -4   6 4505.82 126.013   2
   4   4  -4 6553.52 185.771   2
   4  -4   4 6987.61 182.666   4
   4  -4   4 6850.30 184.307   2
  -4   4   4 6780.73 184.991   2
  -4   4   4 6802.00 181.351   4
   4  -4   2 5675.76 155.775   2
   4  -4   2 5979.15 154.082   4
   4   4  -2 5614.86 160.685   2
  -4   4   2 5542.12 157.082   2
   4   4   0 121.818 16.0773   2
  -4   4   0 120.061 7.32556   2
   4  -4   0 98.3751 6.26099   2
  -4  -4   2 5572.81 156.801   2
  -4   4  -2 5428.60 149.618   2
  -4  -4   4 6999.05 192.476   2
   4  -4  -4 6926.38 187.888   3
  -4  -4   6 4319.46 122.195   2
   4  -4  -6 4342.75 119.968   3
  -4  -4   8 5458.85 151.371   2
  -4  -4  10 2949.06 85.7132   2
  -4  -4  12 3263.64 94.9615   2
  -4  -4  14 1101.97 38.4995   2
  -4  -4  16 198.314 14.6194   2
   4   4  18 1235.15 44.0014   4
  -4  -4  18 1249.15 45.1333   2
  -4  -4  20 517.024 26.0936   2
   4   4  20 493.093 25.2013   4
   4   4  20 529.754 26.0646   3
   4   4  22 79.4078 13.4543   4
  -4  -4  22 65.8719 13.5570   2
   4   4  22 76.6676 13.0423   3
   4   4  24 81.6821 14.4430   3
   4   4  24 40.6343 13.6050   4
  -4  -4  24 69.1476 14.4340   2
   4   4  26 128.076 16.5846   3
  -4  -4  26 85.9011 16.2179   2
   0   5  -1 509.374 17.7471   1
   5   0   1 449.095 22.1103   2
   0  -5   1 497.030 18.7784   1
  -5   0   1 514.889 21.1237   1
   5   0  -1 572.289 20.4110   1
   0   5   1 517.739 19.3293   1
   5   0  -3 6055.74 161.260   1
  -5   0   3 5838.58 162.525   1
   0  -5   3 5901.63 161.239   1
   0   5  -3 5925.72 160.262   4
   5   0   3 5979.28 169.408   2
   5   0  -5 3251.48 91.8209   4
  -5   0   5 3306.63 94.3601   2
   0   5  -5 3353.73 91.6626   4
  -5   0   5 3294.89 93.1595   1
   0  -5   7 822.163 25.3357   2
   0  -5   7 922.580 29.9941   4
   5   0  -7 945.255 28.7884   4
  -5   0   7 883.261 30.8399   2
   0   5  -7 909.148 28.8195   4
   0   5  -9 1080.07 34.9772   4
   5   0  -9 1112.00 34.5861   4
   0  -5   9 1098.43 36.2703   4
  -5   0   9 1090.30 37.0169   2
   0  -5   9 1076.77 31.7626   2
   5   0  -9 1040.42 35.2613   3
   0  -5  11 182.644 12.4918   4
   5   0 -11 180.083 11.0212   3
   0  -5  11 162.217 8.59818   2
   0   5 -11 193.589 11.6624   4
   5   0 -11 167.198 10.6053   4
  -5   0  11 177.054 12.1834   2
  -5   0  11 179.537 12.5577   4
  -5   0  13 154.876 12.6080   2
   0  -5  13 132.030 8.91907   2
   5   0 -13 132.319 11.0582   4
   0  -5  13 130.650 12.3719   4
  -5   0  13 163.233 13.2487   4
   0   5  13 143.440 10.5961   4
   5   0 -13 152.745 11.4094   3
   0   5 -13 132.564 10.9259   4
   0   5  13 127.933 11.4245   3
   5   0 -15 1332.60 43.6618   3
   5   0 -15 1311.18 43.3702   4
   0  -5  15 1327.47 46.5594   4
   0   5  15 1347.40 45.1178   3
  -5   0  15 1359.21 46.3247   4
   0  -5  15 1339.67 41.5534   2
   5   0  15 1182.54 43.3987   4
  -5   0  15 1418.06 46.6347   2
   0   5 -15 1245.30 43.7900   4
   0   5  15 1276.90 43.0766   4
   0   5  17 5.30871 7.53017   4
  -5   0  17-5.90066 9.53437   2
   0  -5  17 8.99970 10.0126   4
  -5   0  17 3.45165 9.03618   4
   0   5  17 6.13083 7.74676   3
   0  -5  17 2.09899 6.64473   2
   5   0 -17 4.50401 7.46449   4
   0  -5  19 512.854 22.7406   2
  -5   0  19 465.359 26.3284   4
   0  -5  19 500.481 27.4003   4
   0   5  19 521.873 24.6117   4
  -5   0  19 541.854 27.3483   2
   0   5  19 530.842 25.9126   3
   0  -5  21 156.271 18.0592   4
   0   5  21 176.242 16.0991   3
   5   0  21 176.854 15.3993   3
  -5   0  21 220.508 19.4483   4
   0   5  21 171.266 15.9005   4
  -5   0  21 174.722 17.4228   2
   0  -5  21 189.029 14.7846   2
   0   5  23 100.271 14.6351   4
   5   0  23 103.036 13.1699   3
  -5   0  23 97.8650 15.8237   2
   0   5  23 127.817 15.9770   3
   0  -5  23 115.554 13.2155   2
  -5   0  23 107.844 17.5370   4
  -5   0  25 75.0350 15.9614   2
   0  -5  25 122.020 14.5868   2
   0   5  25 125.572 15.9968   4
   5   0  25 125.594 14.4234   3
  -5   0  25 88.7357 17.8008   4
   0   5  25 81.4385 15.2182   3
  -5   0  27 250.624 23.8670   2
   5   0  27 217.223 19.3418   3
  -1   5  26 45.6070 14.5108   3
  -1   5  26 38.7980 14.5263   4
   5  -1  26 35.6122 11.8540   3
  -5   1  26 34.4570 17.4397   4
  -5   1  26 54.4008 15.7117   2
  -5   1  24 50.8286 15.4069   4
  -1   5  24 48.3899 13.6133   3
   1  -5  24 80.5360 16.8764   4
   1  -5  24 62.8553 11.8645   2
  -1   5  24 61.3129 13.8004   4
   5  -1  24 63.9160 12.1000   3
  -5   1  24 53.0779 14.7113   2
   1  -5  22 69.9000 14.5052   4
  -1   5  22 75.7035 13.8495   3
   5  -1  22 75.9231 11.4264   3
  -1   5  22 84.5006 13.2002   4
  -5   1  22 90.9609 15.0169   2
   1  -5  22 66.1850 11.4492   2
   5  -1  22 65.6598 13.5371   4
  -5   1  22 90.9354 15.0236   4
   5  -1  20 161.361 15.3456   4
  -5   1  20 170.939 17.1433   4
  -1   5  20 151.069 15.1450   3
   1  -5  20 206.929 17.9336   4
  -1   5  20 178.374 15.0678   4
   5  -1  20 155.969 13.5866   3
  -5   1  20 176.261 16.6369   2
  -5   1  18 101.783 13.8716   4
  -1   5  18 66.7653 11.1660   3
   1  -5  18 66.5171 12.7839   4
   5   1 -18 65.0936 10.8679   4
  -5   1  18 70.1995 12.6434   2
   5  -1  18 76.9969 12.0107   4
  -1   5  18 77.3826 10.9156   4
  -5   1  16 428.707 21.9920   2
  -1   5  16 439.687 21.5970   3
   1  -5  16 415.195 22.3104   4
  -5   1  16 397.606 21.5816   4
  -1   5  16 444.183 20.1400   4
   5  -1  16 415.582 20.9596   4
   5   1 -16 422.234 20.0426   4
   5  -1  14 372.923 18.4086   4
   1  -5  14 383.914 19.6276   4
  -1   5  14 377.740 19.0018   3
  -5   1  14 328.443 18.8294   4
   1  -5  14 357.516 15.0642   3
   5   1 -14 362.950 17.4971   3
  -5   1  14 364.059 19.5049   2
   5   1 -14 366.291 17.6483   4
  -1   5  14 404.320 18.2338   4
  -5   1  12 68.1381 9.70684   2
   1  -5  12 75.3077 9.48666   4
   5   1 -12 76.9785 8.28101   3
   5   1 -12 76.5086 8.91664   4
   1  -5  12 82.8676 6.49216   3
  -1   5  12 87.1292 9.94641   3
   1   5 -12 77.0829 9.36879   4
   5  -1  12 101.226 9.57710   4
  -5   1  12 81.6739 10.0552   4
  -1   5  12 94.6877 8.60433   4
   5   1 -10 583.096 22.1086   4
  -1   5  10 521.544 20.6604   4
   5   1 -10 662.456 22.8831   3
   1  -5  10 610.759 23.3433   4
   1   5 -10 580.357 22.5558   4
   1  -5  10 613.360 19.0079   3
  -5   1  10 581.648 22.9226   4
  -5   1  10 575.004 23.7984   2
   5   1  -8 270.793 13.3965   4
   1   5  -8 281.267 13.6572   4
   1  -5   8 311.354 14.4789   4
  -5   1   8 276.263 15.1374   2
   1   5  -8 287.100 10.2545   3
   5   1  -6 2141.26 60.5898   2
   1  -5   6 2061.46 59.7163   4
   5   1  -6 2067.75 59.9071   4
   1   5  -6 2089.44 56.1202   3
   1   5  -6 2115.90 60.0699   4
   1   5  -4 720.125 21.7931   2
  -5   1   4 799.098 25.2004   1
  -1   5   4 794.600 24.4008   3
   5   1  -4 677.139 25.3719   2
   5  -1   4 681.880 31.4816   2
   1   5  -4 761.164 24.8733   4
   1   5  -2 4148.29 109.125   1
   5  -1   2 4079.25 113.280   2
   5   1  -2 3963.15 110.393   1
   1  -5   2 4181.33 107.943   1
  -5   1   2 4070.85 109.958   1
  -1   5   0 3688.07 96.6333   1
  -1   5   0 3405.86 95.5530   3
  -1  -5   0 3673.41 101.312   1
   5  -1   0 3660.95 100.545   2
   1  -5   0 3622.97 98.2915   1
   1   5   0 3731.26 99.8686   1
   5   1   0 3654.03 102.418   1
   5  -1   0 3587.52 100.038   1
   5  -1  -2 4137.07 107.397   1
  -5   1  -2 4114.10 115.905   2
  -1   5  -2 4088.56 105.984   4
  -5  -1   2 3791.56 110.940   1
  -1  -5   2 3968.22 109.326   1
  -1   5  -2 3787.00 103.848   3
  -5  -1   4 779.761 27.7846   1
  -5  -1   4 741.289 28.0272   2
  -1   5  -4 772.153 24.2926   4
  -1  -5   4 816.387 27.1430   1
  -5  -1   6 2089.22 63.8715   2
  -1   5  -6 2168.83 60.9082   4
  -5  -1   6 2148.74 63.6332   1
  -1  -5   6 2118.12 59.7607   2
   5  -1  -6 2126.29 60.4528   4
  -1  -5   8 261.852 10.9337   2
   5  -1  -8 269.065 13.3592   3
  -5  -1   8 261.213 14.7759   2
   5  -1  -8 269.919 12.1448   4
  -1   5  -8 270.066 12.6998   4
  -1   5 -10 629.321 22.4766   4
  -5  -1  10 571.603 23.7848   2
   5  -1 -10 585.383 21.3239   4
  -1  -5  10 560.231 19.9517   2
  -1  -5  10 595.606 24.1786   4
   5  -1 -10 603.226 22.6988   3
  -1  -5  12 83.9586 10.8232   4
  -1   5 -12 87.9494 9.35034   4
  -5  -1  12 85.5152 10.1726   2
   5  -1 -12 68.0598 8.77726   3
   5  -1 -12 77.0046 8.45271   4
  -1  -5  12 74.5187 7.29214   2
   1   5  14 397.812 18.3610   4
  -1   5 -14 398.008 18.6321   4
  -5  -1  14 413.999 20.9720   4
  -1  -5  14 369.721 20.5273   4
   5  -1 -14 414.954 18.9762   3
   1   5  14 404.915 19.2584   3
  -5  -1  14 370.743 19.8110   2
   5  -1 -14 375.019 17.6845   4
  -1  -5  14 368.441 16.6715   2
  -5  -1  16 431.078 22.1647   2
   1   5  16 383.508 20.3156   3
  -1  -5  16 335.724 21.6468   4
   1   5  16 454.856 20.1938   4
  -1  -5  16 410.272 18.5111   2
  -5  -1  16 418.854 22.7486   4
  -5  -1  18 85.2896 13.1746   2
   1   5  18 71.9025 11.2116   3
   1   5  18 63.6104 11.5563   4
  -5  -1  18 80.7961 14.3270   4
  -1  -5  18 72.7671 10.3735   2
   1   5  20 148.904 15.1726   3
  -5  -1  20 193.280 17.1390   2
   5   1  20 193.997 15.1284   3
   1   5  20 188.945 15.9901   4
  -1  -5  20 174.313 14.2018   2
  -5  -1  20 150.584 17.3517   4
  -5  -1  22 93.5455 14.6439   2
  -1  -5  22 88.3169 12.8057   2
  -5  -1  22 100.706 16.3293   4
   1   5  22 75.3309 12.6960   4
   5   1  22 95.4088 12.6854   3
   1   5  22 73.5467 12.7708   3
  -5  -1  24 77.5550 15.3988   2
   1   5  24 66.5309 14.4327   4
   5   1  24 75.3645 14.5948   4
  -1  -5  24 60.1749 12.4509   2
   5   1  24 64.9492 12.8829   3
   1   5  24 51.3193 13.5049   3
  -5  -1  26 37.3212 15.4583   2
   5   1  26 53.8096 13.3000   3
   1   5  26 34.5476 15.1288   3
   1   5  26 48.6553 14.6310   4
   5   1  28 56.9830 15.3695   3
  -5  -1  28 45.3676 17.5459   2
   2  -5  25 23.0787 14.6432   4
  -2   5  25 1.07945 12.6795   4
  -5   2  25 25.3714 13.5856   2
  -5   2  25 23.9926 14.4699   4
   5  -2  25 5.90539 12.6033   4
   5  -2  25 15.3637 10.2368   3
   2  -5  25 3.22320 9.96698   2
  -5   2  23 70.9360 14.5042   2
  -5   2  23 44.0740 14.1358   4
   5  -2  23 50.9231 10.4826   3
   2  -5  23 50.0552 13.6804   4
  -2   5  23 46.9411 12.1888   4
   5  -2  23 30.7294 12.5378   4
  -2   5  23 30.1681 12.5943   3
  -2   5  21 19.8309 11.6817   3
   5  -2  21 51.7405 10.2982   3
   5  -2  21 37.1412 11.6187   4
   2  -5  21 27.3093 12.1895   4
  -2   5  21 21.0386 10.6697   4
  -5   2  21 55.6814 13.1481   4
  -5   2  21 42.3517 12.9092   2
  -5   2  19 152.605 15.5711   4
   5  -2  19 119.282 11.5817   3
   2  -5  19 143.465 11.4829   3
  -5   2  19 153.761 15.6102   2
  -2   5  19 116.440 12.8364   4
   5   2 -19 139.271 13.4343   4
  -2   5  19 137.529 14.8871   3
   5  -2  19 150.508 14.2351   4
   2  -5  19 172.468 15.5249   4
   5  -2  17 303.550 17.9257   4
   5   2 -17 295.446 17.5739   4
  -2   5  17 294.740 17.4236   4
   2  -5  17 293.085 15.0034   3
   2  -5  17 330.194 19.4288   4
  -5   2  17 273.242 18.7406   4
  -5   2  17 323.761 19.3475   2
  -2   5  17 272.642 18.1044   3
   5  -2  15 232.715 14.8049   4
   2  -5  15 198.510 10.9557   3
  -5   2  15 185.754 14.6216   2
  -2   5  15 219.086 14.8526   3
  -2   5  15 187.198 13.0667   4
   5   2 -15 198.223 12.9456   3
   2  -5  15 183.555 14.5151   4
  -5   2  15 170.385 14.1798   4
   5   2 -15 229.569 14.3490   4
   5   2 -13 254.786 14.3683   4
   2  -5  13 257.003 11.1289   3
  -2   5  13 217.811 14.3109   3
  -5   2  13 225.691 15.0744   2
  -2   5  13 239.249 13.3070   4
  -5   2  13 237.676 14.5777   4
   2  -5  13 236.407 14.8176   4
   5  -2  13 241.777 13.9820   4
   5   2 -13 246.631 13.5155   3
   2   5 -11 480.428 17.6132   3
   5   2 -11 543.112 21.1425   4
  -5   2  11 490.145 22.3129   2
   2  -5  11 546.151 21.8079   4
   5  -2  11 511.464 20.5899   4
   2  -5  11 493.240 17.0077   3
  -5   2  11 540.402 21.2638   4
  -2   5  11 509.438 19.7761   4
   5   2 -11 506.974 20.0429   3
   5   2  -9 302.026 14.5561   4
  -5   2   9 305.462 15.6078   2
   5   2  -9 333.884 14.3931   3
   2  -5   9 304.617 10.5991   3
  -5   2   9 244.491 13.8169   4
   2   5  -9 288.393 11.4131   3
   2  -5   9 295.755 14.4656   4
  -2   5   9 336.007 13.2380   4
   2  -5   7 121.350 8.47358   4
   5   2  -7 114.239 8.64271   2
   2  -5   7 101.179 4.38930   3
   5   2  -7 122.628 9.16410   4
  -2   5   7 123.832 6.86874   4
   2   5  -7 93.2959 8.51602   4
   5  -2   5 2074.71 66.0673   2
   2  -5   5 2015.61 57.6012   4
   5   2  -5 2044.41 59.5214   2
   2   5  -5 2051.83 56.3306   2
  -2   5   5 1954.29 58.2998   3
   2   5  -5 1959.07 59.0759   4
   2   5  -3 611.811 21.1704   2
   5  -2   3 611.427 24.4630   2
  -2   5   3 577.570 19.8363   3
   5   2  -3 623.318 22.9909   1
  -5   2   3 612.346 20.4392   1
   2  -5   3 576.107 19.2527   4
   5   2  -3 613.605 23.2002   2
   5   2  -1 282.563 16.0092   1
  -5   2   1 262.159 13.8111   2
  -2   5   1 274.349 9.63726   1
  -2   5   1 285.661 10.6481   3
   2  -5   1 280.396 10.3789   1
   5  -2   1 297.643 14.0418   2
   2   5  -1 284.317 14.2255   1
   2  -5   1 263.276 9.18868   3
  -5  -2   1 291.077 18.9082   2
  -2   5  -1 307.291 9.90349   4
   2  -5  -1 269.742 10.4707   3
  -5   2  -1 291.234 16.3222   2
   5  -2  -1 293.084 12.1272   1
  -2  -5   1 242.737 15.8856   1
   2   5   1 319.714 16.8178   1
   5  -2  -1 317.534 13.4399   2
  -5  -2   1 301.856 17.3511   1
  -2   5  -1 287.213 9.85449   2
  -5  -2   3 556.448 23.0672   2
   5  -2  -3 440.584 18.6981   2
  -2  -5   3 548.329 21.4064   1
  -5  -2   3 530.736 22.0973   1
  -2   5  -3 537.532 16.6704   4
  -2  -5   5 2025.10 59.2708   2
  -5  -2   5 1989.81 61.1715   1
   5  -2  -5 1989.09 56.3714   4
  -5  -2   5 2052.27 61.4439   2
  -2  -5   5 2069.00 61.0303   1
  -2   5  -5 2009.20 56.9586   4
  -5  -2   7 83.7535 9.46784   1
  -2  -5   7 80.7909 7.13317   2
   5  -2  -7 90.8404 6.63065   4
  -5  -2   7 78.9901 9.01482   2
  -2   5  -7 105.447 7.39024   4
  -2   5  -9 316.702 14.0367   4
  -2  -5   9 295.646 13.0584   2
  -5  -2   9 316.977 16.4405   2
   5  -2  -9 327.617 13.5051   4
   5  -2  -9 278.348 14.5046   3
  -5  -2  11 509.965 22.3031   2
  -2  -5  11 476.447 19.0581   2
  -2   5 -11 522.536 20.5291   4
   5  -2 -11 483.686 19.1838   4
   5  -2 -11 558.083 21.5825   3
   5  -2 -13 275.977 14.8562   3
   5  -2 -13 263.030 13.8800   4
  -5  -2  13 262.954 16.0916   2
  -2  -5  13 264.883 13.4902   2
  -5  -2  15 218.170 15.7546   2
   2   5  15 208.488 13.6236   4
  -2  -5  15 201.547 13.2099   2
  -2  -5  17 279.311 16.5154   2
   2   5  17 288.099 18.1224   3
  -5  -2  17 290.289 18.9945   2
   2   5  17 290.565 17.5591   4
  -2  -5  19 143.661 13.5344   2
  -5  -2  19 172.786 16.0069   2
   2   5  19 139.885 13.9275   4
   2   5  19 158.255 14.6798   3
  -2  -5  21 29.8804 10.9306   2
   5   2  21 35.4211 11.2814   3
  -5  -2  21 52.2099 13.9195   2
   5   2  21 29.3387 11.8308   4
   2   5  21 28.0064 10.9752   4
   2   5  21 40.6143 11.6322   3
   5   2  23 47.7272 13.0204   3
  -2  -5  23 49.9491 13.0655   2
  -5  -2  23 35.8296 13.1712   2
   2   5  23 53.6604 13.6857   4
   5   2  23 48.3454 13.0810   4
   2   5  23 43.4888 12.9294   3
  -2  -5  25 27.3096 12.1758   2
  -5  -2  25 29.3761 13.7873   2
   5   2  25 28.4964 12.6993   3
   5   2  25 30.9822 13.6098   4
   2   5  25 19.1127 12.8540   3
   2   5  25 7.67479 12.6549   4
   5   2  27 76.8064 15.0645   3
  -5  -2  27 65.4329 17.9994   2
  -5   3  26 10.3289 14.6080   4
  -3   5  26 46.7171 15.0122   2
   5  -3  26-1.72814 10.0927   3
  -3   5  26 16.4244 13.3176   4
  -5   3  26 26.7692 15.3386   2
  -3   5  24 50.8048 13.6043   4
   5  -3  24 40.2302 11.3535   3
  -5   3  24 40.6099 15.0849   2
  -5   3  24 39.3920 14.5937   4
   5  -3  24 38.7642 13.7085   4
   3  -5  24 31.5992 14.1955   4
   3  -5  22 173.981 13.6914   3
  -3   5  22 169.385 16.4188   4
   3  -5  22 185.184 18.7354   4
  -5   3  22 181.243 17.8406   2
   5  -3  22 170.467 16.9726   4
  -5   3  22 172.186 17.5799   4
   5  -3  22 159.488 13.7159   3
   5  -3  20 167.133 15.6085   4
  -5   3  20 169.455 16.5346   4
   3  -5  20 164.034 12.4485   3
   3   5 -20 186.620 15.2665   4
   5   3 -20 173.138 14.9659   4
   3  -5  20 176.978 16.3401   4
   5  -3  20 181.383 13.0632   3
  -5   3  20 146.465 15.8546   2
  -3   5  20 160.226 14.5258   4
  -3   5  20 166.931 15.6158   3
  -5   3  18 500.269 25.5014   4
   3  -5  18 528.459 21.5275   3
  -3   5  18 544.699 24.5832   4
   5  -3  18 527.226 22.2946   3
  -3   5  18 546.910 26.5585   3
   5   3 -18 540.574 25.1409   4
   3  -5  18 541.394 26.6411   4
   5  -3  18 523.965 25.5286   4
  -5   3  18 547.489 26.8138   2
   3  -5  16 47.3981 7.22022   3
   5   3 -16 39.7427 9.77338   4
  -5   3  16 56.0634 10.5359   4
   3  -5  16 59.7102 11.1543   4
  -3   5  16 59.2351 9.96745   4
  -5   3  16 61.1358 11.1539   2
   5   3 -16 68.8206 9.04499   3
  -3   5  16 67.8894 11.3554   3
   5  -3  16 63.3277 10.1285   4
   5   3 -14 450.405 18.8892   3
  -5   3  14 432.841 21.8526   2
  -5   3  14 408.221 19.8090   4
  -3   5  14 378.994 20.7154   3
   5  -3  14 412.492 19.6993   4
  -3   5  14 381.040 18.5271   4
   3  -5  14 471.765 16.8699   3
   5   3 -14 463.193 20.4100   4
   3  -5  14 420.413 20.6147   4
  -5   3  12 2727.01 79.3831   4
  -3   5  12 2595.05 77.7553   4
  -5   3  12 2745.08 81.9828   2
   5   3 -12 2590.11 79.6816   4
   3  -5  12 2723.91 80.0173   4
   5  -3  12 2835.25 79.9239   4
   3   5 -12 2736.98 76.6836   3
   3  -5  12 2743.23 75.4446   3
   5   3 -12 2664.20 78.4416   3
   5   3 -10 908.170 30.5285   3
  -5   3  10 915.908 31.0455   4
   5   3 -10 994.960 32.4378   4
  -3   5  10 906.231 29.7336   4
   3  -5  10 920.874 31.5732   4
  -5   3  10 885.602 32.9404   2
   3   5 -10 909.475 28.8499   3
   5  -3  10 942.131 31.2305   4
   3  -5   8 1229.96 37.6593   4
  -5   3   8 1204.56 36.9380   4
  -3   5   8 1177.72 35.5810   4
   5   3  -8 1259.12 39.1660   4
   5  -3   8 1153.73 36.9528   4
   5   3  -8 1165.25 37.5883   2
   3   5  -6 2601.78 72.4539   2
   3  -5   6 2577.45 72.9004   4
   5  -3   6 2563.22 80.2787   2
  -3   5   6 2573.12 74.7097   3
   3  -5   6 2540.38 72.0656   2
  -3   5   6 2605.21 71.2167   4
   5   3  -6 2672.68 74.6696   2
   3  -5   4 875.071 26.0348   4
  -5   3   4 832.886 25.9145   1
   5   3  -4 846.080 29.5585   1
   5   3  -4 843.338 29.5194   2
  -3   5   4 852.440 27.5772   3
   3   5  -4 845.162 27.8227   2
   3  -5   4 830.082 24.3128   2
  -3   5   4 875.367 24.1693   4
   5  -3   4 848.357 30.6023   2
   5   3  -2 2247.64 73.0590   1
   3   5  -2 2107.00 72.1178   1
   3  -5   2 2476.13 67.5081   4
   3   5  -2 2614.61 74.3580   2
   5   3  -2 2603.21 74.5655   2
   5  -3   2 2616.90 71.5762   2
  -5   3   2 2588.84 71.8451   2
  -5   3   2 2520.66 68.9396   1
  -3  -5   0 278.537 17.4672   1
  -5   3   0 288.540 13.8719   2
   3  -5   0 256.678 9.55567   3
   5   3   0 218.654 16.9355   2
   3   5   0 228.727 14.8676   1
   5  -3   0 214.722 11.1103   2
  -3   5   0 250.872 9.96133   2
  -5  -3   2 2647.28 79.1847   2
  -3   5  -2 2502.27 67.9747   4
   5  -3  -2 2550.05 71.3334   2
  -3  -5   2 2483.21 75.4221   1
  -3   5  -2 2517.63 69.3648   2
  -5   3  -2 2578.32 75.1579   2
   3  -5  -2 2431.94 69.7614   3
   5  -3  -4 806.929 23.1150   4
  -5  -3   4 760.004 30.2952   2
   3  -5  -4 788.742 25.4975   3
  -3   5  -4 763.552 23.7584   4
  -3  -5   4 794.012 29.8173   2
  -3  -5   4 764.012 28.9868   1
  -3   5  -6 2490.12 70.2413   4
  -5  -3   6 2409.80 75.1138   1
   3  -5  -6 2780.65 72.3910   3
   5  -3  -6 2490.99 69.1491   4
  -5  -3   6 2523.79 75.0968   2
  -3  -5   6 2578.21 73.5210   2
  -3  -5   6 2187.88 74.2266   1
  -3  -5   8 1166.28 37.1355   2
  -5  -3   8 1221.08 40.2618   1
  -5  -3   8 1167.73 38.8564   2
   5  -3  -8 1097.57 34.3220   4
   5  -3 -10 819.750 27.8128   4
  -3  -5  10 900.801 29.8268   2
  -5  -3  10 898.955 32.0642   2
  -3  -5  12 2637.69 76.7923   2
   5  -3 -12 2581.51 77.9198   3
  -5  -3  12 2641.91 79.1021   2
  -3  -5  14 436.275 19.6193   2
  -5  -3  14 457.197 21.9692   2
  -5  -3  16 44.6923 10.6448   2
  -3  -5  16 37.7908 9.32890   2
   5   3  18 517.852 24.9338   4
  -5  -3  18 504.570 26.2184   2
   3   5  18 564.037 25.1860   4
  -3  -5  18 517.688 24.3676   2
   3   5  18 532.510 25.3235   3
   5   3  20 148.916 14.7789   4
  -3  -5  20 147.043 14.6866   2
   3   5  20 171.147 14.9056   4
  -5  -3  20 169.578 16.6210   2
   3   5  20 157.371 14.9494   3
   5   3  22 165.444 16.3891   3
   3   5  22 143.407 15.9218   4
   3   5  22 157.852 16.0576   3
   5   3  22 149.288 16.1294   4
  -5  -3  22 168.045 17.5812   2
  -3  -5  22 173.902 16.5982   2
  -5  -3  24 25.3073 13.2978   2
   3   5  24 51.4544 13.8077   3
   3   5  24 49.3993 14.1685   4
  -3  -5  24 28.5714 12.3664   2
   5   3  24 17.3530 11.9732   4
   5   3  24 27.8358 12.0622   3
  -5  -3  26 10.5966 13.8205   2
   3   5  26 10.6625 12.8248   3
   5   3  26 12.2407 12.6301   3
  -5   4  25 81.0509 16.5335   2
  -5   4  25 93.1359 17.4622   4
   5  -4  25 98.1669 12.5339   3
   4  -5  25 85.5280 17.1416   4
  -4   5  25 96.4948 16.8184   2
  -4   5  25 125.818 16.9144   4
   5  -4  23 487.663 23.4072   3
  -4   5  23 486.064 27.5409   4
  -5   4  23 496.425 29.2312   2
  -5   4  23 464.582 27.7229   4
   4  -5  23 468.534 22.6456   3
   5  -4  23 490.399 28.1723   4
   4  -5  23 525.854 29.0589   4
   4  -5  21 76.5468 10.1192   3
   4   5 -21 73.0232 12.1758   4
  -5   4  21 77.4501 14.2707   2
   5  -4  21 65.5973 13.0590   4
  -4   5  21 78.4021 13.5155   4
   4  -5  21 70.3894 12.8922   4
   5   4 -21 53.7758 11.8944   4
   5  -4  21 71.7430 9.88183   3
  -5   4  21 57.2126 12.3029   4
   5   4 -19 468.397 22.9856   4
   4  -5  19 406.358 23.3973   4
  -5   4  19 418.583 22.9262   4
   4   5 -19 438.728 22.7650   4
  -5   4  19 418.015 24.4596   2
   5  -4  19 421.849 23.0286   4
   4  -5  19 456.985 19.5743   3
   5  -4  19 440.412 19.8737   3
  -4   5  19 419.512 22.2692   4
   5  -4  17 1159.24 39.2942   3
   4  -5  17 1196.95 44.1024   4
   4   5 -17 1350.86 44.8945   4
  -4   5  17 1160.88 42.2481   4
   5   4 -17 1193.19 43.7633   4
  -5   4  17 1245.92 45.5748   2
  -5   4  17 1276.25 43.9972   4
   5  -4  17 1198.14 43.6649   4
   4  -5  17 1245.50 39.1333   3
   4   5 -15 728.241 26.3150   3
  -5   4  15 747.094 31.3256   2
   4  -5  15 762.990 25.3391   3
   4  -5  15 706.880 29.0174   4
   5  -4  15 771.133 29.5483   4
  -5   4  15 734.856 29.0336   4
  -4   5  15 753.890 30.8660   3
  -4   5  15 733.382 28.2195   4
   5   4 -15 714.930 29.0001   4
   5   4 -15 728.894 26.8834   3
  -4   5  13 1910.68 63.2836   3
   5   4 -13 2013.80 59.8746   3
  -4   5  13 1924.75 60.1581   4
   5   4 -13 2125.62 62.7765   4
   4   5 -13 1974.34 59.0708   3
   5  -4  13 2078.94 62.1861   4
  -5   4  13 2010.35 64.1915   2
  -5   4  13 2046.83 61.4615   4
   4  -5  13 1976.34 61.9578   4
  -5   4  11 2364.12 72.3086   4
   4  -5  11 2502.97 73.1175   4
  -4   5  11 2362.35 71.2613   4
   4   5 -11 2511.95 70.7399   3
   5   4 -11 2482.88 71.7819   3
   5   4 -11 2570.66 74.1484   4
   5  -4  11 2528.02 72.9552   4
   5   4  -9 33.5970 6.01721   2
  -4   5   9 31.9178 5.11084   4
   5   4  -9 47.1094 7.70348   4
   5  -4   9 40.7205 6.48753   4
   4  -5   9 36.4499 6.12579   4
  -5   4   9 36.6993 5.71572   4
   5  -4   7 13224.2 351.933   4
   4  -5   7 13398.2 352.096   4
  -4   5   7 13775.4 350.491   4
   4  -5   7 12966.4 353.707   2
   5   4  -7 13268.8 353.230   2
   4   5  -7 13386.4 352.219   2
   5  -4   7 13161.9 358.171   2
  -5   4   7 13646.2 351.206   4
   4   5  -5 5787.52 163.768   2
   5  -4   5 6053.02 165.409   2
   5  -4   5 5993.44 161.660   4
  -5   4   5 5704.16 164.610   2
   4  -5   5 6023.30 161.856   2
  -4   5   5 6269.89 160.176   4
   5   4  -5 5940.25 164.788   2
   4  -5   5 5858.87 161.696   4
   4  -5   3 4984.36 132.846   2
   4  -5   3 4943.42 132.380   4
   5  -4   3 5094.46 135.595   2
  -5   4   3 4769.25 132.254   1
  -5   4   3 4944.91 136.445   2
   4   5  -3 5021.19 138.242   2
  -4   5   3 4876.15 135.195   2
   5   4  -3 5060.34 138.750   2
   4  -5   1 6639.80 178.065   2
   4  -5   1 6654.70 176.243   4
  -4   5   1 6538.51 179.656   2
   5   4  -1 6682.11 186.699   2
   5  -4   1 6616.46 179.629   2
   4   5  -1 6509.15 186.924   2
  -5   4   1 6846.67 181.289   2
   4  -5  -1 6733.54 180.305   3
   5   4   1 6527.10 192.538   2
   5  -4  -1 6724.36 181.277   2
  -4   5  -1 6779.24 181.126   2
  -4  -5   1 6423.90 187.861   1
  -5   4  -1 6769.09 183.387   2
  -4   5  -3 4906.51 135.242   2
  -5   4  -3 4965.56 138.714   2
  -4  -5   3 5139.75 142.987   2
  -5  -4   3 5088.32 142.838   2
   4  -5  -3 5179.95 134.341   3
   5  -4  -3 4805.73 130.378   4
   4  -5  -5 6257.66 171.247   3
   5  -4  -5 5908.04 171.448   3
  -5  -4   5 5926.33 175.795   2
  -4  -5   5 6024.30 175.449   2
   5  -4  -7 13353.3 338.558   4
  -4  -5   7 12918.7 344.233   2
  -5  -4   7 12571.7 344.923   2
  -4  -5   9 40.6010 7.60391   2
  -5  -4   9 39.1348 8.04806   2
  -4  -5  11 2374.73 71.6684   2
  -5  -4  11 2424.62 73.1097   2
  -4  -5  13 1987.48 61.5098   2
  -5  -4  13 1949.10 62.2641   2
  -5  -4  15 761.965 30.3880   2
  -4  -5  15 710.983 28.8899   2
  -5  -4  17 1239.52 45.5316   2
  -4  -5  17 1265.27 44.5844   2
   4   5  19 420.057 22.3051   4
   5   4  19 437.173 22.7457   4
  -5  -4  19 403.663 23.6822   2
  -4  -5  19 432.941 23.2440   2
   4   5  21 70.5988 12.7465   3
   5   4  21 68.3313 12.5156   4
  -4  -5  21 77.5967 13.2483   2
   4   5  21 67.6028 12.4127   4
   5   4  21 53.2602 12.0454   3
  -5  -4  21 55.8961 13.2518   2
  -4  -5  23 490.833 28.2050   2
   5   4  23 603.058 29.6077   3
   5   4  23 564.229 29.3774   4
   4   5  23 517.444 28.7149   3
  -5  -4  23 542.225 29.8404   2
   4   5  23 540.937 29.1856   4
   4   5  25 98.2441 15.6181   3
  -4  -5  25 108.585 16.6101   2
   4   5  25 84.7860 15.9991   4
   5   4  25 81.4573 15.8916   4
  -5  -4  25 74.3922 15.8453   2
   5   4  25 86.5211 15.6720   3
  -5   5  26 134.354 18.5916   4
  -5   5  24 30.8280 13.6706   2
  -5   5  24 26.5595 13.4747   4
   5  -5  24 28.7404 13.9946   4
   5  -5  24 23.7936 9.59285   3
   5   5 -22 828.336 35.2501   4
   5  -5  22 734.388 36.1703   4
   5  -5  22 842.638 31.2650   3
  -5   5  22 774.232 37.4263   2
  -5   5  22 785.872 35.6850   4
  -5   5  20 645.246 31.6095   2
   5  -5  20 644.965 30.1290   4
  -5   5  20 657.948 29.9318   4
   5   5 -20 605.950 28.7886   4
   5  -5  20 643.741 25.4273   3
   5  -5  18 468.041 19.4661   3
   5  -5  18 442.904 23.4512   4
  -5   5  18 428.948 22.6226   4
   5   5 -18 460.744 23.5836   4
   5   5 -16 877.615 33.7614   4
   5  -5  16 886.122 29.4748   3
  -5   5  16 920.314 33.3759   4
   5   5 -16 846.727 30.7323   3
   5  -5  16 842.658 33.7640   4
   5   5 -14 2528.81 75.2140   3
  -5   5  14 2589.14 76.6078   4
   5   5 -14 2626.37 78.6141   4
   5  -5  14 2600.09 77.9710   4
  -5   5  12 894.456 30.1388   4
   5   5 -12 783.809 31.4353   4
   5   5 -12 909.982 29.8197   3
   5  -5  12 883.977 31.3393   4
   5  -5  10 4368.08 119.296   4
  -5   5  10 4150.94 117.585   4
   5  -5   8 10064.2 272.901   4
   5  -5   8 10040.0 276.739   2
   5   5  -8 9912.09 273.232   2
  -5   5   8 10457.9 271.733   4
  -5   5   6 480.110 19.8813   2
   5  -5   6 498.696 19.1901   2
   5   5  -6 496.068 19.4159   2
  -5   5   6 495.569 16.0938   4
   5  -5   6 453.302 17.1002   4
  -5   5   4 8147.90 218.238   2
   5  -5   4 8150.17 216.120   2
   5   5  -4 8169.36 219.926   2
  -5   5   4 7626.46 213.113   1
   5  -5   4 8559.02 214.745   4
   5   5  -2 7958.82 215.245   2
  -5   5   2 7803.04 210.157   2
   5  -5   2 7633.91 205.628   4
   5  -5   2 7864.50 208.073   2
  -5   5   0 1294.33 39.4883   2
   5   5   0 1288.44 48.2388   2
   5  -5   0 1229.26 37.5657   2
   5  -5  -2 8197.81 220.073   3
  -5   5  -2 8147.45 222.017   2
  -5   5  -4 7955.70 226.983   2
  -5  -5   4 8303.54 231.080   2
   5  -5  -4 8435.01 223.343   3
  -5  -5   6 498.583 23.1831   2
   5  -5  -6 472.442 18.8578   3
  -5  -5   8 10051.5 262.166   2
   5  -5  -8 9209.28 258.605   3
  -5  -5  10 4322.53 124.029   2
  -5  -5  12 843.716 32.2002   2
  -5  -5  14 2673.52 81.7947   2
  -5  -5  16 849.816 33.9844   2
  -5  -5  18 453.085 24.3454   2
   5   5  20 700.604 30.7793   4
  -5  -5  20 647.538 31.3360   2
   5   5  22 878.464 38.3094   3
  -5  -5  22 852.804 38.5503   2
   5   5  22 845.944 37.3728   4
   5   5  24 9.99653 12.7715   4
   5   5  24 31.8570 13.2858   3
  -5  -5  24 5.98967 13.5551   2
   0  -6   0 8133.91 226.147   1
   0   6   0 8475.27 223.888   1
   6   0   0 8222.97 227.343   1
   6   0   2 4894.46 140.463   2
  -6   0   2 4767.24 137.041   1
   6   0  -2 4843.54 134.845   1
   0   6   2 5056.70 135.775   1
  -6   0  -2 4583.71 144.015   2
   0  -6   2 4919.74 134.445   1
   6   0   4 1113.68 44.8737   2
   0  -6   4 1186.26 36.5638   1
  -6   0   4 1106.93 37.6100   1
   0   6  -4 1110.75 34.7360   4
   0   6  -6 8008.34 209.553   4
   6   0  -6 7253.73 210.540   2
   6   0  -6 8156.98 209.859   4
  -6   0   6 7456.14 211.492   1
  -6   0   6 7749.29 213.199   2
   0  -6   8 786.623 24.9368   2
  -6   0   8 882.916 31.7313   2
   0   6  -8 870.236 28.8261   4
   6   0  -8 934.909 28.7312   4
   0  -6  10 725.280 23.2148   2
   0   6 -10 774.494 27.0220   4
  -6   0  10 723.318 29.1947   2
   6   0 -10 741.172 26.2731   4
   6   0 -10 731.333 27.3231   3
   0  -6  10 817.747 29.1893   4
  -6   0  12 1300.05 44.8202   2
   0   6 -12 1353.92 43.0797   4
   0  -6  12 1288.96 44.2889   4
   6   0 -12 1332.08 41.9302   4
   0  -6  12 1273.22 38.7695   2
   6   0 -12 1278.43 42.4546   3
   6   0 -14 480.055 21.1812   3
  -6   0  14 472.901 23.1740   2
   0  -6  14 469.687 18.1689   2
   0   6 -14 456.402 21.0383   4
   0   6  14 468.718 20.1233   4
   6   0 -14 461.245 20.6469   4
   0  -6  14 491.251 23.4803   4
   0   6  14 513.580 22.7425   3
   0   6  16 1523.02 50.5898   4
  -6   0  16 1612.14 54.9443   2
   0   6  16 1624.34 53.3163   3
   0   6 -16 1547.00 51.8375   4
   6   0 -16 1669.37 52.0097   3
   6   0  16 1615.82 52.2628   4
   0  -6  16 1512.36 48.3239   2
   0  -6  16 1587.11 54.7832   4
   6   0 -16 1492.23 50.4695   4
   6   0  18 1121.65 41.5820   4
   0   6  18 1165.07 41.1582   4
  -6   0  18 1114.11 44.0620   2
   6   0 -18 1062.68 40.0311   4
   0   6  18 1194.88 42.9788   3
   0  -6  18 1151.05 38.4437   2
   0  -6  18 1145.33 44.5713   4
   0  -6  20 25.9145 12.4567   4
   0   6  20 21.3288 10.5299   3
   0   6  20 3.94189 9.12579   4
   6   0  20 8.12319 10.0491   4
  -6   0  20 24.6520 11.4824   2
   0  -6  20 15.6141 8.37535   2
   6   0  22 268.335 18.2061   3
   0  -6  22 276.840 23.1716   4
   0   6  22 295.531 19.8136   4
  -6   0  22 249.749 21.4436   2
   0  -6  22 295.246 18.1350   2
   0   6  22 266.909 20.2250   3
   0   6  24 444.230 26.2257   4
  -6   0  24 452.059 28.8081   2
   6   0  24 468.135 25.4646   3
   0   6  24 448.081 27.4339   3
   0  -6  24 424.057 29.3454   4
   0  -6  24 484.722 24.0764   2
   6   0  26 49.1270 13.0964   3
  -6   0  26 46.7132 16.8168   2
   0   6  26 43.5168 15.5385   4
   6  -1  25 146.283 14.9096   3
  -6   1  25 155.395 19.9246   2
  -1   6  25 114.947 17.6038   3
   6  -1  25 177.189 18.9185   4
   1  -6  25 139.007 19.9650   4
  -1   6  25 149.364 17.4172   4
  -1   6  23 125.142 15.3155   4
   6  -1  23 121.858 13.9067   3
   1  -6  23 108.854 13.2890   2
   1  -6  23 131.930 19.2861   4
   6  -1  23 92.7559 15.9893   4
  -1   6  23 115.143 16.2420   3
  -6   1  23 120.875 17.6788   2
   6  -1  21 260.167 19.6388   4
   1  -6  21 296.796 17.0200   2
   1  -6  21 320.506 23.3298   4
  -1   6  21 287.993 20.5403   3
   6  -1  21 296.839 18.1251   3
  -1   6  21 298.219 19.5024   4
  -6   1  21 255.104 21.8062   4
  -6   1  21 306.850 22.2170   2
  -6   1  19 454.313 25.8501   4
  -6   1  19 429.136 24.9753   2
   6   1 -19 455.907 22.6637   4
   6  -1  19 507.090 24.6333   4
   1  -6  19 468.244 26.2527   4
   1  -6  19 456.378 20.3788   2
  -1   6  19 482.386 24.7883   3
  -1   6  19 474.069 22.8704   4
   1  -6  17 434.790 19.3764   2
   6   1 -17 467.665 22.3223   4
  -6   1  17 493.555 25.2535   2
   1  -6  17 486.115 25.8198   4
   6   1 -17 468.398 22.1473   3
  -1   6  17 440.784 23.5277   3
  -6   1  17 484.468 25.3024   4
   6  -1  17 462.831 23.0437   4
   1   6 -17 407.696 22.3793   4
  -1   6  17 470.536 21.9319   4
   1   6 -15 1171.70 41.5537   4
  -6   1  15 1175.97 43.9921   2
   6  -1  15 1220.45 41.7923   4
  -1   6  15 1267.65 41.2027   4
   6   1 -15 1247.18 41.5746   3
   1  -6  15 1169.58 43.4162   4
   1  -6  15 1180.63 37.7736   2
  -6   1  15 1250.93 43.8409   4
  -1   6  15 1171.02 42.5987   3
   6   1 -15 1264.91 41.8266   4
  -1   6  13 440.337 18.4571   4
  -6   1  13 445.344 21.6860   2
   1  -6  13 419.863 21.0000   4
   1  -6  13 437.218 16.1075   2
   6   1 -13 428.392 19.3240   4
   6   1 -13 443.710 19.2994   3
   6  -1  13 431.029 19.3519   4
   1   6 -13 469.804 20.2515   4
   6   1 -11 804.530 29.5163   4
   6   1 -11 835.392 30.1326   3
  -6   1  11 883.448 33.0003   2
  -1   6  11 930.484 29.0188   4
   1  -6  11 821.509 25.7821   2
   1  -6  11 858.078 31.5925   4
   1   6 -11 865.450 30.5651   4
   1  -6   9 3153.91 88.5524   2
   1   6  -9 3356.75 93.7026   4
   6   1  -9 3432.77 93.7814   4
   1  -6   9 3365.53 94.4993   4
  -6   1   9 3484.34 96.7499   2
   6   1  -7 2465.85 70.7179   2
  -6   1   7 2368.14 72.5528   2
   1   6  -7 2391.47 69.9016   4
  -1   6   7 2506.17 70.6558   3
   1   6  -7 2398.01 65.3018   3
   6   1  -7 2314.32 69.7156   4
   1  -6   7 2449.39 70.1482   4
  -6   1   5 6105.44 171.102   1
   6   1  -5 6317.19 171.872   2
   1   6  -5 6040.53 170.208   4
   6  -1   5 6414.40 181.018   2
   1   6  -5 6107.51 166.386   2
  -6   1   3 16437.3 427.851   1
   6  -1   3 16295.8 432.936   2
   1   6  -3 16560.8 425.376   2
   1  -6   3 16636.1 425.722   1
   6   1  -3 16278.7 427.625   1
   6  -1   1 4512.47 127.761   2
  -1   6   1 4378.60 121.411   3
   6   1  -1 4659.36 127.426   1
  -1   6   1 4472.99 122.717   1
   1  -6   1 4618.62 123.515   1
   1   6  -1 4476.01 124.491   1
   6  -1  -1 4678.27 128.572   1
   6  -1  -1 4520.37 129.700   2
  -6   1  -1 4577.58 134.611   2
  -1   6  -1 4683.53 124.070   3
   1   6   1 4599.30 129.960   1
  -1  -6   1 4621.36 130.287   1
  -6  -1   3 16125.2 436.897   1
  -1  -6   3 16657.4 435.060   1
   6  -1  -3 16813.9 432.404   1
  -6  -1   3 15202.0 437.473   2
  -1   6  -3 16195.5 431.301   4
   6   1   3 15766.6 443.362   2
   6  -1  -5 6298.22 172.162   4
  -1  -6   5 6358.97 175.029   1
  -6  -1   5 6282.75 176.974   2
  -6  -1   5 6425.70 176.063   1
  -1   6  -5 6418.78 171.865   4
  -6  -1   7 2393.63 72.5236   2
  -6  -1   7 2442.22 71.8154   1
  -1  -6   7 2429.48 67.3432   2
  -1   6  -7 2364.47 68.5343   4
   6  -1  -7 2343.31 68.0832   4
  -6  -1   9 3477.88 101.128   2
  -1  -6   9 3382.07 95.3627   2
  -1   6  -9 3549.58 97.8520   4
   6  -1  -9 3348.65 98.6900   3
   6  -1  -9 3568.66 97.1313   4
  -6  -1  11 866.599 32.3789   2
  -1  -6  11 798.783 26.6727   2
   6  -1 -11 845.311 29.9828   3
   6  -1 -11 792.619 28.3098   4
  -1   6 -11 838.542 29.3238   4
  -1  -6  11 849.185 32.1757   4
  -6  -1  13 457.254 22.3440   2
   1   6  13 405.492 20.0788   3
  -1  -6  13 438.383 17.6177   2
   6  -1 -13 463.817 19.4342   4
  -1   6 -13 488.219 20.2568   4
  -1  -6  13 472.141 22.5186   4
   6  -1 -13 446.020 20.1001   3
  -1  -6  15 1159.54 39.1298   2
   1   6  15 1193.21 42.7484   3
  -1  -6  15 1250.33 45.3788   4
   6  -1 -15 1230.14 42.0165   3
  -1   6 -15 1185.84 41.5486   4
   6  -1 -15 1306.20 41.5342   4
   1   6  15 1251.42 41.3190   4
  -6  -1  15 1226.50 44.7504   2
   1   6  17 424.683 22.9239   3
   6  -1 -17 461.567 21.8683   4
  -1  -6  17 497.420 21.0900   2
   1   6  17 463.031 22.2701   4
  -1  -6  17 469.612 26.2490   4
  -6  -1  17 484.585 25.9042   2
  -6  -1  19 471.102 26.0085   2
   1   6  19 479.705 24.1781   3
  -1  -6  19 421.792 25.8789   4
   1   6  19 467.547 23.4478   4
  -1  -6  19 444.627 21.1711   2
   1   6  21 291.375 19.3428   4
  -1  -6  21 287.595 17.9795   2
   1   6  21 273.182 19.9968   3
  -1  -6  21 285.685 23.1077   4
  -6  -1  21 247.435 20.8519   2
   1   6  23 126.371 16.2348   3
   1   6  23 87.1770 15.1859   4
  -1  -6  23 116.468 14.0388   2
  -6  -1  23 114.043 16.9795   2
   6   1  23 120.347 14.8110   3
   6   1  25 166.081 17.0048   3
  -6  -1  25 156.596 19.9185   2
   1   6  25 142.295 17.4456   4
   1   6  25 122.168 17.1359   3
  -6  -1  27 227.061 23.7793   2
   6   1  27 211.217 20.0551   3
   6  -2  26 123.603 14.2379   3
  -6   2  26 114.560 19.2965   2
  -2   6  26 122.638 17.7503   4
  -2   6  24 102.176 15.1586   4
   6  -2  24 140.172 14.5075   3
   2  -6  24 147.765 14.4059   2
  -6   2  24 134.461 19.4126   2
  -2   6  24 137.248 17.0478   3
   6  -2  24 126.387 16.6121   4
  -6   2  24 174.807 20.2003   4
   2  -6  24 156.983 19.3578   4
   6  -2  22 250.176 19.4451   4
   6  -2  22 244.973 16.7365   3
  -6   2  22 242.788 21.2775   2
  -2   6  22 216.742 18.0939   4
  -2   6  22 260.940 20.2240   3
   2  -6  22 240.390 21.2877   4
  -6   2  22 225.374 20.9295   4
   2  -6  22 219.725 15.7419   2
   6  -2  20 98.4226 11.2156   3
  -6   2  20 93.7258 14.8808   4
   6   2 -20 81.8994 11.9624   4
  -2   6  20 87.1959 12.5101   4
   2  -6  20 112.029 14.1510   4
  -2   6  20 90.8263 12.9479   3
  -6   2  20 64.3648 13.5019   2
   6  -2  20 83.9476 12.7464   4
   6   2 -18 308.654 19.1234   4
   2  -6  18 416.285 23.0192   4
  -2   6  18 303.339 18.5090   4
   6  -2  18 367.511 20.6436   4
  -6   2  18 364.453 22.1539   2
  -6   2  18 371.869 22.0066   4
  -2   6  18 353.209 20.9281   3
  -2   6  16 413.410 22.2665   3
   2  -6  16 444.749 23.2570   4
  -2   6  16 426.164 20.2511   4
  -6   2  16 446.858 23.0828   4
  -6   2  16 422.645 23.1153   2
   6   2 -16 438.982 20.5250   3
   6   2 -16 448.874 21.6598   4
   6  -2  16 438.403 21.9780   4
  -2   6  14 222.743 14.6966   3
   6  -2  14 224.517 13.9399   4
  -2   6  14 221.960 13.1091   4
  -6   2  14 243.289 15.7245   4
  -6   2  14 233.200 15.8769   2
   6   2 -14 219.818 13.5217   3
   2  -6  14 238.755 10.7547   3
   2  -6  14 246.469 15.5320   4
   6   2 -14 219.852 14.1062   4
   6  -2  12 143.241 11.2429   4
  -2   6  12 166.521 10.6802   4
  -6   2  12 149.324 13.1684   2
   6   2 -12 140.917 11.5212   4
   2  -6  12 149.830 12.1898   4
  -6   2  12 174.317 13.1533   4
   2   6 -12 134.260 11.3368   4
   6   2 -12 137.148 10.8159   3
   2  -6  12 135.093 7.47535   3
   2   6 -10 731.202 22.8195   3
   2   6 -10 678.972 26.4686   4
   2  -6  10 717.480 26.9339   4
   6   2 -10 742.837 26.9314   4
  -6   2  10 740.861 28.8946   2
   2  -6  10 703.658 21.5755   3
  -2   6  10 752.792 24.5246   4
   6   2 -10 760.944 26.6878   3
   2   6  -8 2861.45 80.0950   4
   2  -6   8 2782.28 79.3803   4
  -2   6   8 2349.52 79.4756   3
   2   6  -8 2943.97 75.7443   3
  -6   2   8 2462.74 81.1104   2
   6   2  -8 2713.31 79.7435   2
   6   2  -8 2907.86 80.2390   4
   2   6  -6 1957.26 54.7008   2
   2   6  -6 1998.98 58.5478   4
  -2   6   6 1907.79 57.9376   3
   2  -6   6 2036.96 57.4210   4
  -6   2   6 1939.01 57.6385   1
   6   2  -6 1942.08 58.8604   2
   6  -2   6 1913.57 66.5006   2
   6   2  -4 4116.74 114.607   2
  -6   2   4 4051.54 112.242   1
   6   2  -4 3942.26 113.866   1
   6  -2   4 4024.61 117.900   2
  -2   6   4 4117.75 111.722   3
   2   6  -4 4004.30 110.932   2
   6   2  -2 7988.40 221.740   1
  -6   2   2 8100.14 219.487   1
  -2   6   2 8089.49 216.766   1
   2   6  -2 8223.76 220.378   1
  -6   2   2 7528.14 221.058   2
   6  -2   2 8316.47 222.253   2
   2  -6   2 8229.05 216.989   1
  -2   6   2 8156.75 216.998   3
   2   6  -2 8074.89 222.307   2
   6  -2   0 4849.83 131.135   1
  -2   6   0 4720.91 127.066   3
   2   6   0 4740.92 132.738   1
  -6   2   0 4681.01 134.092   2
   6  -2   0 4866.22 131.943   2
  -2  -6   0 4872.68 135.019   1
   6   2   0 4747.80 135.392   1
   2  -6   0 4509.80 128.532   1
   2   6   2 7879.11 225.293   1
  -2  -6   2 8269.18 224.471   1
  -6  -2   2 8085.49 228.121   2
   6  -2  -2 8004.39 219.506   1
   6  -2  -2 8150.43 221.965   2
  -6   2  -2 8222.27 228.108   2
  -6  -2   2 7994.15 226.260   1
  -2   6  -2 8353.37 218.137   4
  -2   6  -2 8251.02 217.150   2
  -6  -2   4 4133.39 116.596   1
  -2   6  -4 3878.58 110.044   4
  -2  -6   4 4189.48 115.488   1
  -6  -2   4 4323.81 118.126   2
  -2   6  -6 2006.27 56.1245   4
   6  -2  -6 1913.95 55.5370   4
  -2  -6   6 1867.46 57.9923   2
  -6  -2   6 1987.95 61.4296   2
  -6  -2   6 1969.23 60.9061   1
  -2  -6   6 1958.29 60.2786   1
  -6  -2   8 2734.45 84.2925   2
   6  -2  -8 2777.78 78.9889   4
  -6  -2   8 2863.01 84.4077   1
  -2   6  -8 2825.12 79.9929   4
  -2  -6   8 2872.22 80.1775   2
   6  -2 -10 633.759 24.3539   4
  -2  -6  10 734.948 24.9451   2
   6  -2 -10 736.732 26.7566   3
  -6  -2  10 730.844 28.8313   2
  -2   6 -10 743.075 25.9440   4
   6  -2 -12 136.425 11.1515   3
  -2  -6  12 139.550 9.85546   2
  -6  -2  12 154.923 13.5584   2
   6  -2 -12 160.414 11.0331   4
  -2   6 -12 152.719 11.3805   4
   6  -2 -14 206.364 13.5979   3
  -2  -6  14 216.511 12.3970   2
   6  -2 -14 198.195 12.4549   4
  -6  -2  14 216.389 16.0340   2
   2   6  16 420.722 21.4173   3
  -2  -6  16 374.168 18.9265   2
   2   6  16 440.429 20.7551   4
  -6  -2  16 404.301 22.7549   2
  -2  -6  18 380.099 19.8021   2
   2   6  18 405.457 21.5164   3
   2   6  18 392.641 20.9785   4
  -6  -2  18 390.954 23.5993   2
   2   6  20 73.9578 12.4601   3
  -6  -2  20 99.8618 14.5718   2
   2   6  20 84.1068 12.5325   4
  -2  -6  20 100.719 12.4821   2
  -6  -2  22 264.514 22.0180   2
  -2  -6  22 211.808 17.3249   2
   2   6  22 221.372 18.8044   3
   2   6  22 210.365 18.5086   4
   6   2  22 256.781 19.0223   3
   2   6  24 108.343 16.3277   4
  -2  -6  24 144.707 16.0379   2
   6   2  24 134.240 17.0099   4
   6   2  24 168.434 17.1261   3
  -6  -2  24 130.367 18.5345   2
   2   6  24 130.463 17.0583   3
  -6  -2  26 92.3059 19.6835   2
   6   2  26 87.4065 15.5723   3
  -6   3  25 37.3718 15.6182   4
  -6   3  25 37.9361 15.3112   2
   6  -3  25 38.0899 10.5778   3
  -3   6  25 49.7783 13.8489   4
  -3   6  23 108.477 15.6531   4
   3  -6  23 118.105 18.1134   4
  -6   3  23 92.7576 16.8407   4
  -6   3  23 115.400 17.8036   2
   6  -3  23 124.821 16.2873   4
   6  -3  23 149.010 13.8304   3
  -3   6  21 120.397 15.5934   3
  -6   3  21 131.035 16.3677   2
  -3   6  21 132.191 14.5141   4
   6  -3  21 142.072 12.8435   3
   6  -3  21 139.460 15.4940   4
  -6   3  21 155.502 17.1581   4
   3  -6  21 158.985 17.0831   4
  -6   3  19 230.932 17.6586   4
   6   3 -19 220.701 16.1893   4
  -3   6  19 220.476 17.4121   3
   6  -3  19 216.874 16.5760   4
  -3   6  19 222.667 15.7038   4
   3  -6  19 235.494 13.4374   3
   3  -6  19 215.205 18.0953   4
  -6   3  19 212.888 18.3458   2
   6   3 -17 456.240 21.2144   3
   3  -6  17 444.340 18.8558   3
   6   3 -17 499.673 23.6919   4
  -3   6  17 474.437 24.8210   3
   3  -6  17 490.276 25.0075   4
  -3   6  17 445.539 21.8929   4
  -6   3  17 460.637 24.9070   2
  -6   3  17 456.085 23.8774   4
   6  -3  17 484.334 23.5841   4
   3  -6  15 193.428 10.1699   3
   6   3 -15 181.538 12.5082   3
  -6   3  15 196.920 15.6130   2
   6  -3  15 178.357 13.5668   4
   6   3 -15 209.528 13.8784   4
  -3   6  15 197.286 14.8894   3
  -6   3  15 201.635 14.4528   4
  -3   6  15 187.397 12.8820   4
   3  -6  15 197.326 14.5370   4
   3   6 -13 37.2256 5.80127   3
   3  -6  13 43.3604 4.83865   3
   3  -6  13 29.5916 7.85204   4
  -6   3  13 18.6335 8.59738   2
  -6   3  13 42.0170 8.62748   4
   6   3 -13 50.7914 8.91453   4
   6  -3  13 18.7104 7.30862   4
  -3   6  13 31.2406 7.07652   4
   6   3 -13 26.3944 7.06284   3
   3  -6  11 447.988 15.0600   3
   3   6 -11 434.578 16.4085   3
   3  -6  11 449.166 20.2887   4
   6   3 -11 456.633 20.3616   4
  -3   6  11 475.035 17.9827   4
   6  -3  11 460.269 19.4330   4
  -6   3  11 426.807 21.5385   2
  -6   3  11 483.918 20.3727   4
   6   3 -11 434.987 18.9276   3
   3   6  -9 350.648 13.1589   3
   3  -6   9 354.430 11.2355   3
   6   3  -9 350.699 16.1566   2
   3  -6   9 318.716 15.4907   4
   6   3  -9 382.326 17.2797   4
  -3   6   9 328.573 13.7128   4
   6  -3   9 340.386 14.9921   4
   6  -3   7 1731.42 59.9117   2
   6   3  -7 1761.57 53.6441   4
  -3   6   7 1580.27 48.7846   4
   6   3  -7 1881.77 53.4786   2
   3  -6   7 1698.87 48.1527   2
   3   6  -7 1693.25 53.0765   4
   3  -6   7 1756.68 51.6003   4
  -3   6   7 1874.79 53.5627   3
   3   6  -7 1849.37 50.0440   2
  -3   6   5 605.642 22.5223   3
  -6   3   5 577.647 21.0951   1
  -3   6   5 637.081 18.6165   4
   6   3  -5 617.743 23.9849   2
   3  -6   5 605.258 20.7962   4
   3   6  -5 584.560 21.0534   2
   6  -3   5 675.334 27.3850   2
   3   6  -3 5620.79 153.683   2
  -3   6   3 5507.06 150.721   3
  -6   3   3 5497.32 153.768   2
   6   3  -3 5622.51 154.911   1
   6  -3   3 5520.69 154.179   2
   6   3  -3 5666.12 155.379   2
   3   6  -3 5668.85 153.838   1
   3  -6   3 5484.48 147.356   3
   3  -6   3 5423.11 149.330   4
  -6   3   3 5715.30 150.959   1
   3  -6   1 78.2729 4.71512   3
   3   6  -1 85.1847 10.5338   1
   3  -6   1 72.0433 5.41567   1
  -6   3   1 84.3804 9.49111   2
   6  -3   1 70.3133 7.84227   2
   6   3  -1 73.4095 11.0417   1
   6   3  -1 71.8262 11.6440   2
   3   6   1 78.5427 11.4563   1
  -6   3  -1 57.1579 9.48109   2
  -6  -3   1 86.3000 15.8359   2
   6  -3  -1 87.5415 6.75211   1
  -3   6  -1 78.9295 4.31206   4
   6   3   1 63.3668 13.0368   1
  -3  -6   1 81.9930 12.4024   1
   3  -6  -1 79.5185 5.90817   3
  -6  -3   1 90.7074 13.2425   1
   6  -3  -1 84.5550 7.94423   2
  -3   6  -1 75.5808 5.42573   2
   3  -6  -3 6010.61 156.476   3
  -6   3  -3 5949.62 165.049   2
  -6  -3   3 5640.10 163.198   1
  -3   6  -3 5556.74 154.773   2
   6  -3  -3 5786.04 157.937   2
  -6  -3   3 5839.24 165.203   2
  -3   6  -3 5790.48 154.409   4
  -3  -6   3 5671.78 161.766   1
  -3  -6   5 604.494 26.1517   2
  -3   6  -5 567.981 20.0286   4
   6  -3  -5 636.986 19.6448   4
  -6  -3   5 658.603 27.2846   2
  -6  -3   5 619.625 26.2143   1
  -3  -6   5 650.668 26.3481   1
  -3   6  -7 1949.60 54.1014   4
  -6  -3   7 1840.75 59.2674   2
  -6  -3   7 1800.27 59.3423   1
  -3  -6   7 1926.42 57.3678   2
  -3  -6   7 1845.05 58.9159   1
   6  -3  -7 1784.27 52.7388   4
  -3  -6   9 336.635 15.6453   2
  -3   6  -9 324.762 14.3931   4
  -6  -3   9 338.279 17.9579   2
  -6  -3   9 351.055 19.0635   1
   6  -3  -9 322.735 13.5017   4
  -6  -3  11 467.217 22.1153   2
  -3  -6  11 410.443 18.5735   2
   6  -3 -11 414.796 17.1057   4
   6  -3 -11 401.472 19.2902   3
   6  -3 -13 28.6853 7.81720   3
  -6  -3  13 30.1670 9.59056   2
   6  -3 -13 49.3719 6.93026   4
  -3  -6  13 40.0966 7.49298   2
   6  -3 -15 197.531 13.6618   3
  -6  -3  15 182.147 15.2719   2
  -3  -6  15 206.076 13.6354   2
  -6  -3  17 462.960 25.2101   2
   3   6  17 448.806 22.4867   4
  -3  -6  17 458.681 22.1889   2
  -6  -3  19 251.565 19.1787   2
   3   6  19 231.673 17.3200   3
   6   3  19 214.569 16.7216   4
  -3  -6  19 237.087 16.7344   2
   3   6  19 265.874 17.2908   4
  -3  -6  21 110.719 14.2454   2
   6   3  21 109.448 14.2410   4
  -6  -3  21 146.411 17.0733   2
   3   6  21 111.992 14.5868   4
   3   6  21 138.299 15.3473   3
   3   6  23 119.976 16.2794   3
  -6  -3  23 90.4927 16.8620   2
   6   3  23 106.278 15.3012   3
  -3  -6  23 103.061 15.2731   2
   3   6  23 116.482 16.2504   4
   6   3  23 135.822 16.8720   4
   6   3  25 71.0195 14.5874   3
   3   6  25 43.3127 13.7804   3
   3   6  25 65.5228 15.4842   4
  -6  -3  25 39.4698 14.8000   2
  -3  -6  25 57.2247 14.0039   2
  -6  -3  27 86.6261 18.3538   2
  -6   4  26 6.64978 14.5044   4
  -4   6  26 35.2991 15.5862   4
   6  -4  24 49.4509 14.7968   4
  -6   4  24 46.2839 16.4470   4
   4  -6  24 35.5507 14.9121   4
   6  -4  24 56.1993 10.6686   3
  -4   6  24 40.0992 14.3472   4
  -4   6  24 58.5930 15.0944   2
  -6   4  24 23.6599 14.4749   2
   4  -6  22 647.017 33.9490   4
   6   4 -22 710.940 32.3698   4
  -4   6  22 696.183 32.4528   4
   6  -4  22 735.813 28.9028   3
   4   6 -22 687.228 32.5019   4
   4  -6  22 693.051 27.7666   3
  -6   4  22 681.242 35.1082   2
  -6   4  22 734.757 34.3499   4
   6  -4  22 695.720 32.9241   4
   4   6 -20 167.284 15.4183   4
  -4   6  20 175.217 15.0522   4
   4  -6  20 169.094 12.2534   3
   6   4 -20 185.460 15.5313   4
   4  -6  20 161.571 16.2714   4
  -6   4  20 202.933 17.7220   4
  -6   4  20 192.749 18.0594   2
   6  -4  20 202.050 16.9538   4
   6  -4  20 198.724 13.3947   3
  -4   6  18 116.905 12.4760   4
   6   4 -18 115.493 13.2426   4
   4  -6  18 111.451 9.56545   3
   4  -6  18 105.937 13.8907   4
   6  -4  18 109.293 12.9782   4
  -6   4  18 120.030 14.6528   2
  -6   4  18 116.656 13.9108   4
   6   4 -18 132.512 11.9729   3
   6  -4  16 383.831 19.6498   4
   6   4 -16 356.486 19.5080   4
  -4   6  16 337.445 17.9812   4
  -6   4  16 335.859 20.9847   2
  -4   6  16 391.744 21.4281   3
   4  -6  16 334.655 19.6898   4
  -6   4  16 323.191 18.8745   4
   6   4 -16 318.205 17.1345   3
   4  -6  16 358.099 15.0696   3
   6   4 -14 1233.51 43.3494   4
  -6   4  14 1257.29 45.7178   2
   4   6 -14 1273.82 39.7825   3
  -4   6  14 1226.97 41.2426   4
   4  -6  14 1286.27 38.1991   3
   6   4 -14 1244.35 41.2668   3
  -6   4  14 1328.63 43.1559   4
   6  -4  14 1304.84 43.0085   4
   4  -6  14 1229.62 43.4951   4
   6   4 -12 365.048 17.8048   4
   4  -6  12 334.667 17.3919   4
  -6   4  12 346.574 18.8516   2
   4   6 -12 346.571 14.4884   3
  -6   4  12 342.695 16.7663   4
   6  -4  12 361.790 17.2431   4
   4  -6  12 337.771 12.6718   3
   6   4 -12 345.405 16.1575   3
  -4   6  12 309.769 15.1801   4
  -4   6  10 1093.84 31.8081   4
   4   6 -10 985.282 31.1649   3
  -6   4  10 967.372 32.7705   4
   4  -6  10 916.493 33.0883   4
   6  -4  10 942.923 32.5867   4
   6   4 -10 1001.39 34.9051   4
   6   4  -8 4761.84 128.448   2
  -4   6   8 4207.53 124.542   4
   4   6  -8 4762.21 126.305   2
   6  -4   8 4609.58 126.709   4
  -4   6   8 4851.41 129.896   3
   4  -6   8 4515.05 127.162   4
   4  -6   8 4746.48 126.512   2
   6  -4   8 4718.26 135.075   2
   6   4  -8 4567.66 129.803   4
   6  -4   6 476.499 21.5080   2
   4  -6   6 453.866 14.9437   2
  -6   4   6 429.057 19.4738   2
  -4   6   6 411.654 14.4056   4
   4   6  -6 455.751 17.5204   2
   6   4  -6 465.340 19.3739   2
   4  -6   6 480.016 17.0024   4
  -6   4   4 2374.59 67.5520   2
   6   4  -4 2368.77 68.6299   2
   6   4  -4 2195.44 67.9870   1
  -4   6   4 2139.10 60.3591   4
   4  -6   4 2291.92 61.5634   2
   4  -6   4 2289.21 62.8424   4
   4   6  -4 2318.24 66.8942   2
   6  -4   4 2199.88 66.6751   2
  -6   4   4 2314.67 63.1465   1
   6   4  -2 7917.60 216.970   2
  -4   6   2 7780.51 210.414   2
   4  -6   2 7760.99 207.690   4
   4   6  -2 7556.61 214.661   1
  -6   4   2 8036.69 213.322   2
   4   6  -2 7575.98 216.355   2
   6  -4   2 7978.54 211.742   2
  -6   4   0 7428.79 205.606   2
   6  -4   0 7340.25 203.178   2
  -4   6   0 7339.10 201.864   2
   4   6   0 7443.20 208.819   1
   6   4   0 7425.18 212.038   2
   4  -6   0 7898.26 201.037   3
   6  -4   0 7392.05 201.460   1
   4   6   2 7813.14 222.417   1
  -6   4  -2 7779.37 219.136   2
  -4   6  -2 8006.51 213.887   2
  -6  -4   2 7979.73 226.553   2
   6  -4  -2 8103.53 215.310   2
   4  -6  -2 7956.15 213.774   3
  -4  -6   2 7841.05 221.759   1
  -4   6  -4 2521.98 69.2839   2
   6  -4  -4 2330.57 64.5988   4
  -6  -4   4 2422.38 76.2616   2
  -6   4  -4 2401.97 76.3018   2
   4  -6  -4 2455.98 68.3237   3
  -4  -6   4 2182.98 73.1945   1
  -4  -6   4 2391.81 76.4199   2
  -4  -6   6 418.170 21.7007   1
   6  -4  -6 471.459 18.7250   3
   4  -6  -6 410.572 17.9071   3
  -4  -6   6 478.068 22.2064   2
   6  -4  -6 432.869 14.6704   4
  -6  -4   6 454.354 22.1872   2
  -6  -4   6 435.835 22.3088   1
  -6  -4   8 4576.59 135.527   1
  -6  -4   8 4439.41 134.647   2
  -4  -6   8 4701.68 133.283   2
   6  -4  -8 4735.10 127.439   4
   4  -6  -8 4845.08 131.224   3
  -4  -6  10 936.168 33.5415   2
  -6  -4  10 919.673 36.3538   1
   6  -4 -10 927.807 29.4150   4
  -6  -4  10 918.793 34.9727   2
  -6  -4  12 337.547 19.4604   2
  -4  -6  12 344.589 17.7919   2
  -4  -6  14 1238.21 43.2608   2
  -6  -4  14 1240.07 45.0617   2
   6  -4 -14 1305.82 43.8385   3
  -6  -4  16 310.953 19.8824   2
  -4  -6  16 297.513 18.0439   2
  -6  -4  18 133.461 15.8032   2
  -4  -6  18 139.811 14.3560   2
  -6  -4  20 163.251 17.3672   2
   4   6  20 167.094 15.5141   4
   6   4  20 171.226 15.6187   4
   4   6  20 205.551 16.8626   3
  -4  -6  20 187.137 16.4438   2
   4   6  22 737.080 34.7134   3
  -6  -4  22 691.223 35.5808   2
   6   4  22 738.781 34.1494   3
  -4  -6  22 670.257 32.9287   2
   6   4  22 696.098 33.1542   4
   4   6  22 766.752 34.2166   4
   4   6  24 52.1142 14.5576   4
   4   6  24 42.4120 13.9495   3
   6   4  24 45.4714 14.4051   4
  -4  -6  24 37.1798 13.2000   2
   6   4  24 37.9050 14.1656   3
  -6  -4  24 62.5873 16.8899   2
   6   4  26 21.8325 13.6972   3
  -6  -4  26 44.0898 17.1174   2
  -5   6  25 119.268 17.6752   4
  -6   5  25 91.9064 17.8996   4
  -6   5  25 154.936 20.5151   2
  -5   6  23 347.016 23.3942   4
   5   6 -23 399.296 24.1794   4
  -6   5  23 376.128 25.0707   4
   5  -6  23 379.244 19.2629   3
   5  -6  23 341.510 24.8088   4
  -5   6  23 401.675 27.0904   2
   6  -5  23 392.369 19.8438   3
  -6   5  23 372.233 26.5096   2
   6   5 -23 383.067 23.5130   4
   6  -5  23 331.207 24.3144   4
  -6   5  21 398.278 24.3047   4
   6   5 -21 399.154 23.0711   4
   5  -6  21 411.024 19.0537   3
   5   6 -21 381.971 22.6853   4
   6  -5  21 400.744 23.9406   4
  -6   5  21 375.516 25.3966   2
   5  -6  21 373.195 24.5536   4
   6  -5  21 418.764 19.6728   3
  -5   6  21 380.636 25.5638   2
  -5   6  21 339.009 22.3785   4
   5  -6  19 271.400 14.1886   3
  -6   5  19 299.469 19.8167   4
   6  -5  19 294.551 15.1762   3
   6   5 -19 276.095 19.1276   4
  -6   5  19 237.886 19.3296   2
   5   6 -19 271.129 18.3685   4
   6  -5  19 251.925 18.4601   4
   5  -6  19 256.373 18.9101   4
  -5   6  19 251.807 18.1590   4
  -6   5  17 978.109 40.1312   2
   6   5 -17 969.440 34.5842   3
   5  -6  17 1038.91 32.5057   3
  -5   6  17 961.491 36.3146   4
   5  -6  17 1012.53 38.0889   4
   6   5 -17 961.600 37.2468   4
   6  -5  17 960.765 37.4046   4
  -6   5  17 936.863 36.7718   4
   5   6 -17 937.742 36.9336   4
   6   5 -15 21.7419 7.45645   3
   5  -6  15 33.9980 5.84529   3
   5   6 -15 22.1703 6.58425   3
   5  -6  15 27.5468 8.68797   4
   6   5 -15 31.7577 9.06957   4
  -6   5  15 19.1180 9.52145   2
   6  -5  15 24.5586 8.48451   4
  -6   5  15 25.8118 9.30583   4
  -5   6  15 23.4305 7.87623   4
   6   5 -13 1175.09 39.6928   4
   6   5 -13 1150.00 37.1540   3
  -6   5  13 1109.72 37.6581   4
   6  -5  13 1066.87 37.8980   4
   5   6 -13 1093.83 35.7266   3
   5  -6  13 1046.33 38.3026   4
  -5   6  13 1125.60 37.0361   4
  -5   6  11 1197.56 37.9822   4
   5  -6  11 1234.17 44.1634   2
   6   5 -11 1164.71 40.9128   4
   6  -5  11 1195.42 39.3501   4
   6  -5  11 1235.04 47.5335   2
   5   6 -11 1194.88 37.9053   3
   5  -6  11 1187.29 39.5220   4
  -6   5  11 1218.25 38.8146   4
  -6   5   9 1146.24 35.9342   4
   5  -6   9 1214.13 38.9358   2
   5  -6   9 1100.00 36.7101   4
   5   6  -9 1209.37 36.7443   2
   6   5  -9 1095.21 38.9804   4
   6  -5   9 1145.37 36.7751   4
  -5   6   9 1253.66 35.5397   4
   6  -5   9 1097.29 41.9929   2
   6   5  -9 1027.57 36.7958   2
  -5   6   7 5598.49 152.461   4
   6  -5   7 5936.09 154.551   4
  -6   5   7 5592.85 158.070   2
   5   6  -7 5759.92 155.723   2
   6  -5   7 5614.37 157.951   2
   5  -6   7 5502.59 154.302   4
   6   5  -7 5715.02 156.785   2
  -5   6   7 5756.23 157.752   2
   5  -6   7 5548.22 154.299   2
   5   6  -5 4605.04 128.911   2
  -5   6   5 4433.64 122.626   4
   5  -6   5 4636.33 124.667   2
   6   5  -5 4698.31 129.676   2
   6  -5   5 4698.26 127.642   2
  -6   5   5 4490.60 129.099   2
   5  -6   5 4385.00 124.457   4
  -5   6   5 4575.38 128.260   2
   6  -5   5 4828.36 124.752   4
  -6   5   5 4687.04 124.009   1
   5  -6   3 9213.03 245.016   2
   6   5  -3 9283.33 252.647   2
   6  -5   3 9225.27 244.021   4
   6  -5   3 9268.19 247.119   2
   5   6  -3 9041.45 251.865   2
   5  -6   3 9008.70 243.967   4
  -6   5   3 9296.04 249.297   2
  -5   6   3 9179.39 247.835   2
   5  -6   1 4332.56 115.792   2
   5   6  -1 4227.54 126.193   2
   6   5  -1 4389.01 126.343   2
   6  -5   1 4382.86 117.183   2
  -6   5   1 4374.62 119.560   2
  -5   6   1 4332.16 117.782   2
   5  -6   1 4103.64 113.074   4
  -5   6  -1 4472.74 121.499   2
   6   5   1 4177.10 133.722   2
  -6   5  -1 4477.21 123.732   2
   6  -5  -1 4462.96 120.965   2
  -5  -6   1 4251.83 129.507   1
   5  -6  -1 4471.97 120.169   3
  -6   5  -3 9438.50 228.606   2
  -6  -5   3 9438.56 236.932   2
   5  -6  -3 9283.67 223.121   3
   6  -5  -3 7886.01 217.519   4
  -5   6  -3 9159.08 224.794   2
  -5  -6   5 4586.36 134.426   2
  -6  -5   5 4517.63 134.283   2
   5  -6  -5 4597.35 126.274   3
   6  -5  -5 4532.84 121.635   4
   6  -5  -5 4550.10 126.933   3
  -5  -6   7 5455.09 162.497   2
  -6  -5   7 5579.23 163.455   2
   5  -6  -7 5850.45 158.200   3
   6  -5  -7 5843.41 158.426   3
   5  -6  -9 1039.33 35.8511   3
  -5  -6   9 1136.66 39.6213   2
   6  -5  -9 989.104 35.5916   3
  -6  -5   9 1122.32 40.3168   2
  -5  -6  11 1114.85 41.1335   2
  -6  -5  11 1176.94 41.5402   2
  -6  -5  11 1077.01 42.5079   1
  -6  -5  13 1051.34 40.2922   2
  -5  -6  13 1087.00 39.4902   2
  -5  -6  15 33.3721 9.53227   2
  -6  -5  15 27.8463 10.7888   2
  -5  -6  17 962.861 38.2073   2
  -6  -5  17 957.302 38.9942   2
  -6  -5  19 269.653 20.2268   2
  -5  -6  19 287.260 20.2200   2
  -6  -5  21 401.318 25.7739   2
   6   5  21 443.702 24.6142   4
  -5  -6  21 422.039 25.4802   2
   5   6  21 367.632 23.3987   4
   5   6  21 447.504 25.8132   3
   5   6  23 409.351 26.1504   3
   6   5  23 390.245 25.4598   3
   5   6  23 396.073 25.2449   4
  -6  -5  23 377.651 26.6340   2
  -5  -6  23 379.038 25.9247   2
   6   5  23 420.131 25.6107   4
  -6  -5  25 116.433 18.5937   2
  -5  -6  25 129.068 18.3575   2
   6   5  25 111.852 17.6266   3
   5   6  25 142.828 18.3711   3
  -6   6  26 73.3820 17.5181   4
   6  -6  24 80.8195 16.1499   4
  -6   6  24 50.8302 14.9911   4
  -6   6  24 28.9723 14.4667   2
   6   6 -24 67.4284 14.1238   4
   6  -6  22 775.291 36.5428   4
   6   6 -22 726.889 34.4090   4
  -6   6  22 692.213 37.0833   2
  -6   6  22 805.397 35.7178   4
   6  -6  22 802.984 30.0643   3
  -6   6  20 67.2467 13.3816   2
  -6   6  20 82.3162 13.2184   4
   6  -6  20 71.0289 13.6051   4
   6   6 -20 77.4552 12.4751   4
   6  -6  20 93.0815 9.66637   3
   6   6 -18 127.700 11.0527   3
   6  -6  18 102.509 13.0096   4
  -6   6  18 103.144 14.3286   2
   6  -6  18 119.409 9.43505   3
   6   6 -18 116.115 13.0166   4
  -6   6  18 125.050 13.6213   4
   6  -6  16 813.975 33.0321   4
  -6   6  16 850.806 32.5354   4
   6   6 -16 867.512 33.8945   4
  -6   6  16 842.641 36.1762   2
   6   6 -16 832.804 30.3019   3
   6   6 -14 226.707 15.5395   4
  -6   6  14 254.781 14.7551   4
   6  -6  14 242.758 15.3108   4
   6   6 -14 246.817 13.3557   3
   6   6 -12 12.2001 5.68809   3
   6  -6  12 29.6278 12.5389   2
   6   6 -12 8.22837 7.37918   4
   6  -6  12 26.3562 7.94459   4
  -6   6  12 14.1685 6.58292   4
   6  -6  10 508.261 20.4162   4
  -6   6  10 505.387 18.9686   4
   6  -6  10 501.784 23.4880   2
   6   6 -10 487.488 19.9724   2
  -6   6   8 8703.70 235.290   2
  -6   6   8 8739.83 229.627   4
   6  -6   8 8021.38 231.160   4
   6   6  -8 8596.07 232.742   2
   6  -6   8 8763.21 232.997   2
   6  -6   6 1456.58 45.1834   4
   6   6  -6 1614.28 49.4729   2
   6  -6   6 1604.86 46.9389   2
  -6   6   6 1582.17 49.5289   2
  -6   6   4 3278.63 97.9213   2
   6  -6   4 3380.18 95.0065   2
   6  -6   4 3485.58 93.4503   4
   6   6  -4 3473.00 100.472   2
   6   6  -2 8309.11 234.219   2
   6  -6   2 8230.95 225.549   2
   6  -6   2 8519.96 222.791   4
  -6   6   2 8230.91 228.259   2
   6  -6   0 9821.70 264.182   2
  -6   6   0 9876.67 266.645   2
   6   6   0 9841.74 277.315   2
   6  -6  -2 8114.76 221.906   3
  -6   6  -2 8364.72 224.738   2
   6  -6  -4 3292.97 92.2926   3
  -6  -6   4 3062.25 102.929   2
  -6   6  -4 3277.25 96.2906   2
  -6  -6   6 1660.20 59.3432   2
   6  -6  -6 1707.27 51.9452   3
  -6  -6   8 8484.22 238.477   2
   6  -6  -8 8545.61 232.767   3
  -6  -6  10 484.014 25.0366   2
   6  -6 -10 492.439 21.2942   3
  -6  -6  12 19.7543 9.85316   2
  -6  -6  14 262.772 18.9003   2
  -6  -6  16 866.745 36.6691   2
  -6  -6  18 127.741 15.6591   2
   6   6  20 76.5345 12.4868   4
  -6  -6  20 90.7361 14.9359   2
  -6  -6  22 768.904 38.0519   2
   6   6  22 822.108 36.8201   4
  -6  -6  24 58.2329 16.3617   2
   6   6  24 49.3437 14.6737   4
   6   6  24 55.5917 15.1307   3
   0  -7   1 1702.14 53.6223   1
  -7   0  -1 1591.45 61.3021   2
   7   0  -1 1808.32 54.9294   1
   0   7   1 1749.10 52.8004   1
   7   0   1 1790.99 57.9190   2
   0   7  -1 1742.80 51.4166   1
  -7   0   3 12083.0 328.010   1
   7   0   3 12011.0 332.815   2
   7   0  -3 11856.2 324.810   1
   0  -7   3 12358.6 325.259   1
   7   0   5 6394.56 182.111   2
  -7   0   5 6311.11 171.827   1
   0  -7   5 6416.78 170.538   1
   0   7  -5 6268.05 168.268   4
   7   0  -7 460.953 19.9983   2
  -7   0   7 493.996 22.9550   2
  -7   0   7 541.665 22.1399   1
   7   0  -7 491.568 19.0135   4
   0   7  -7 469.803 18.8086   4
   0   7   9 2763.48 80.1888   3
   7   0  -9 2747.34 78.9352   4
   0   7  -9 2918.41 79.6825   4
  -7   0   9 2940.50 84.2649   2
  -7   0   9 2900.70 82.3101   1
   0  -7  11 488.030 22.8929   4
   7   0 -11 489.277 20.3265   4
   0   7 -11 541.018 21.5258   4
   7   0 -11 524.723 21.6511   3
  -7   0  11 494.345 23.8414   2
   0  -7  11 478.858 17.0671   2
  -7   0  13 265.105 17.3965   2
   0  -7  13 249.254 16.5871   4
   0  -7  13 228.932 11.0494   2
   7   0 -13 244.785 13.9427   4
   7   0 -13 258.610 14.7068   3
   0   7 -13 263.664 15.0896   4
   0   7 -15 891.643 33.5432   4
   7   0 -15 894.304 33.6449   3
   0  -7  15 934.948 37.2358   4
   0  -7  15 883.919 29.8526   2
   0   7  15 902.881 34.9831   3
   7   0 -15 856.173 32.8953   4
  -7   0  15 903.360 36.8672   2
   0   7  15 928.470 32.7939   4
   0   7 -17 71.6076 11.7749   4
   7   0 -17 82.1147 11.6672   3
  -7   0  17 47.4820 12.9884   2
   7   0  17 52.4107 10.6432   4
   0  -7  17 72.2433 8.98859   2
   0   7  17 93.1539 11.5795   4
   7   0 -17 70.6824 10.5202   4
   0   7  17 67.8633 12.0202   3
   0  -7  17 68.8839 13.3090   4
   7   0 -19 577.313 25.7741   4
   0  -7  19 522.059 22.9077   2
   0   7  19 544.747 25.6437   4
   0  -7  19 536.226 29.1513   4
   0   7  19 600.890 28.1935   3
   7   0  19 631.969 27.5185   4
  -7   0  19 604.532 30.0991   2
   0  -7  21 333.608 18.2180   2
   7   0  21 354.276 21.4849   4
  -7   0  21 315.453 24.0418   2
   0  -7  21 313.598 23.5703   4
   0   7  21 286.617 21.2411   3
   0   7  21 294.156 19.6470   4
   0  -7  23 3.65055 9.96139   2
   7   0  23-3.16707 11.8251   4
   0   7  23 17.7893 12.0344   3
  -7   0  23 7.96406 15.0627   2
   0   7  23 12.2353 11.5742   4
   0  -7  23 19.6424 15.3993   4
   7   0  23 7.10640 10.2748   3
   0   7  25 190.727 18.5710   4
   7   0  25 203.804 17.8625   3
  -7   0  25 162.795 21.3044   2
   0   7  25 162.061 19.2994   3
   7   0  27 272.379 22.2993   3
   7  -1  26 168.456 16.5486   3
  -7   1  26 141.394 21.4320   2
  -1   7  26 136.984 18.1389   4
  -1   7  24 109.560 16.3838   3
   1  -7  24 150.413 20.8796   4
   7  -1  24 168.613 15.7618   3
   7  -1  24 124.248 17.1104   4
  -7   1  24 117.359 19.7000   2
  -1   7  24 142.887 16.9964   4
   7  -1  22 238.517 17.3915   3
   1  -7  22 243.373 16.2437   2
  -1   7  22 218.933 19.4672   3
   1  -7  22 212.196 21.4141   4
  -7   1  22 239.833 21.5629   2
   7  -1  22 229.332 19.0356   4
  -1   7  22 238.129 19.0765   4
  -1   7  20 105.881 13.8045   3
   7  -1  20 109.741 13.5730   4
   1  -7  20 134.883 11.5482   2
  -7   1  20 132.685 16.8591   2
   7   1 -20 131.555 13.3800   4
   1  -7  20 84.2041 15.0392   4
  -1   7  20 132.929 13.2180   4
   7   1 -18 217.260 15.7415   3
  -1   7  18 233.196 15.7223   4
   1  -7  18 256.948 19.2277   4
  -7   1  18 219.250 18.8652   2
   7   1 -18 231.826 16.3354   4
   1   7 -18 212.278 15.8662   4
  -1   7  18 227.670 17.5167   3
   7  -1  18 243.421 16.9710   4
   1  -7  18 218.214 13.0356   2
  -7   1  16 969.460 40.1028   2
   7   1 -16 964.343 36.4283   3
   7  -1  16 961.792 36.6238   4
   7   1 -16 1006.77 36.9368   4
  -1   7  16 967.505 38.3177   3
   1  -7  16 1033.01 39.9761   4
   1  -7  16 993.497 32.2972   2
  -1   7  16 1032.19 36.3622   4
   1   7 -16 1019.85 37.1984   4
   7   1 -14 480.431 20.9594   3
  -7   1  14 471.297 23.9768   2
   7  -1  14 467.139 20.9061   4
   1  -7  14 418.671 16.4020   2
   1   7 -14 497.818 21.6972   4
  -1   7  14 445.383 19.4340   4
   7   1 -14 472.027 20.6055   4
   1  -7  14 456.098 22.8546   4
  -7   1  12 405.178 21.4369   2
  -1   7  12 391.252 16.4353   4
   1  -7  12 377.576 19.6114   4
   1  -7  12 329.678 13.0131   2
   1   7 -12 380.288 17.9471   4
   7   1 -12 383.773 17.6932   4
   7   1 -12 376.413 17.9096   3
   1   7 -10 1131.64 36.3787   4
   1  -7  10 1161.77 37.8191   4
  -7   1  10 1124.24 39.5773   2
   1  -7  10 1002.84 30.3953   2
   7   1 -10 1097.26 35.9168   4
  -1   7   8 4097.72 117.444   3
   7   1  -8 4012.33 116.769   4
   1   7  -8 4239.64 117.015   4
   7   1  -8 4194.39 117.842   2
  -7   1   8 4121.31 118.191   1
   1   7  -8 4184.08 111.456   3
  -7   1   8 4296.86 120.723   2
  -7   1   6 4733.17 135.663   1
  -1   7   6 4859.72 134.733   3
   1   7  -6 4853.92 129.450   2
   7   1  -6 4958.19 136.263   2
   1   7  -6 4841.05 134.467   4
   7  -1   6 4984.61 146.608   2
   1   7  -4 5769.92 160.906   2
  -7   1   4 5831.03 165.703   1
   7  -1   4 5807.74 171.941   2
   7   1  -4 5632.44 164.569   1
   1  -7   4 5887.48 163.656   1
   7  -1   2 7038.47 206.506   2
  -1   7   2 7506.93 201.273   1
   1  -7   2 7175.56 201.182   1
   7   1  -2 7281.05 203.918   1
  -7   1   2 6902.06 203.900   1
   1   7  -2 7433.19 201.649   1
  -1   7   0 10431.3 286.540   1
   1  -7   0 10610.9 288.969   1
  -1  -7   0 10506.9 291.880   1
   7   1   0 10587.7 293.478   1
   7  -1   0 10406.3 291.068   1
  -7   1   0 10212.9 295.015   2
   7  -1   0 10384.0 291.710   2
   1   7   0 9970.67 289.286   1
  -7  -1   2 7140.88 196.975   1
   7  -1  -2 7267.39 191.788   1
  -7   1  -2 7356.67 203.104   2
   1   7   2 6926.97 194.503   1
   7   1   2 6518.13 199.219   2
  -1   7  -2 7214.24 186.667   3
  -1  -7   2 7256.29 194.088   1
  -1  -7   4 5661.56 159.170   1
   7   1   4 5854.00 169.847   2
  -7  -1   4 5664.45 160.974   1
  -1   7  -4 5755.16 155.273   4
  -7  -1   4 5693.67 162.646   2
  -7  -1   6 4967.01 142.302   1
  -7  -1   6 5059.09 143.710   2
  -1  -7   6 4945.69 141.151   1
  -1   7  -6 5070.35 137.579   4
   7  -1  -6 5035.31 137.761   4
  -1  -7   8 3946.88 114.069   2
  -1   7  -8 4259.82 115.773   4
  -7  -1   8 4109.71 120.631   2
   7  -1  -8 4363.90 115.325   4
  -7  -1   8 4059.21 119.447   1
  -1   7 -10 1208.35 37.4441   4
  -7  -1  10 1004.28 39.5309   1
   7  -1 -10 1189.10 36.5440   4
  -7  -1  10 1143.43 41.2732   2
   7  -1 -10 1089.06 37.9327   3
  -1  -7  10 1098.21 34.6480   2
  -1  -7  12 372.997 15.9194   2
  -1   7 -12 404.177 18.5200   4
   7  -1 -12 397.056 17.6446   4
   7  -1 -12 424.665 19.3034   3
  -7  -1  12 412.877 21.6498   2
   7  -1 -14 488.321 22.0134   3
  -7  -1  14 490.188 24.7451   2
   7  -1 -14 488.530 21.2143   4
  -1   7 -14 463.119 21.3213   4
  -1  -7  14 480.210 19.1238   2
   7  -1 -16 1017.57 36.8578   3
  -1  -7  16 953.462 33.3704   2
   1   7  16 1037.80 38.0109   3
  -7  -1  16 979.448 40.0794   2
   1   7  16 958.637 35.4007   4
   7  -1 -16 943.603 35.0158   4
  -1   7 -16 963.192 36.1888   4
  -1  -7  18 222.638 14.4492   2
  -1  -7  18 239.832 19.9886   4
   1   7  18 252.708 17.3825   3
   1   7  18 248.600 16.0545   4
   7  -1 -18 225.003 15.7173   4
   7   1  18 214.884 16.7795   4
  -7  -1  18 270.575 20.1251   2
   1   7  20 135.248 14.5154   4
   1   7  20 116.485 13.8458   3
  -7  -1  20 124.721 16.1688   2
  -1  -7  20 110.712 11.6993   2
   1   7  22 227.396 18.3821   4
   1   7  22 236.503 19.7396   3
  -7  -1  22 218.350 21.9275   2
  -1  -7  22 217.939 16.6596   2
  -1  -7  24 150.753 15.9881   2
   7   1  24 138.150 16.0405   3
   1   7  24 145.023 17.4212   4
   1   7  24 128.569 18.1527   3
  -7  -1  24 117.434 18.8966   2
   7   1  26 130.212 17.1575   3
  -7  -1  26 152.772 21.3578   2
  -7   2  25 155.225 21.1200   2
   7  -2  25 148.621 15.1482   3
  -2   7  25 122.284 16.3834   4
  -2   7  23 137.856 16.3076   4
  -7   2  23 121.575 18.5153   2
   2  -7  23 131.357 12.8834   2
   7  -2  23 169.841 14.6593   3
   2  -7  23 92.5986 17.6129   4
  -2   7  23 115.237 16.7043   3
   7  -2  23 139.789 16.5844   4
   2  -7  21 246.829 21.5665   4
  -7   2  21 190.673 19.4165   2
   7  -2  21 234.818 18.6387   4
  -2   7  21 280.570 18.2598   4
  -2   7  21 227.562 18.7587   3
   7   2 -21 245.327 18.0077   4
   2  -7  21 233.225 14.2473   2
   2  -7  19 198.469 17.9269   4
   2  -7  19 195.464 12.3098   2
  -2   7  19 228.604 17.4502   3
  -7   2  19 200.780 18.5871   2
   7  -2  19 205.236 16.0855   4
   2   7 -19 190.800 15.7159   4
   7   2 -19 212.168 15.6988   4
  -2   7  19 205.983 15.3632   4
  -2   7  17 1292.78 41.8203   4
   2  -7  17 1170.07 44.7460   4
   7  -2  17 1260.94 43.3888   4
  -7   2  17 1134.87 45.5658   2
   7   2 -17 1242.92 43.0534   4
   2   7 -17 1101.55 42.0946   4
   2  -7  17 1161.22 37.3767   2
   7   2 -17 1143.83 41.5239   3
  -2   7  17 1166.97 44.3255   3
  -7   2  15 46.3614 10.8419   2
   7   2 -15 71.2568 9.93127   3
   2   7 -15 63.8224 9.82392   4
   2  -7  15 58.9267 6.20938   2
   7  -2  15 60.2454 9.51570   4
   7   2 -15 63.5116 9.82752   4
   2  -7  15 62.2806 11.3660   4
  -2   7  15 62.2411 8.99538   4
  -7   2  13 733.798 30.6625   2
   2  -7  13 725.208 29.0316   4
  -2   7  13 725.068 26.0448   4
   7   2 -13 727.759 27.6562   3
   2   7 -13 701.528 27.8031   4
   7  -2  13 724.759 27.3452   4
   2  -7  13 719.474 22.5811   2
   7   2 -13 678.378 27.3783   4
   7   2 -11 534.815 22.2065   3
   2   7 -11 549.456 17.9950   3
   2  -7  11 595.221 23.9862   4
   7   2 -11 564.792 22.7413   4
   2   7 -11 602.179 23.2256   4
   2  -7  11 504.857 16.5995   2
  -7   2  11 535.621 25.0087   2
  -2   7  11 552.939 20.3518   4
   2   7  -9 534.636 21.1641   4
   7   2  -9 500.310 20.9369   2
   2  -7   9 532.851 21.1067   4
  -7   2   9 499.174 23.1735   2
   2   7  -9 488.238 16.1942   3
   7   2  -9 491.063 20.9245   4
  -2   7   9 493.124 21.0583   3
   7  -2   7 4586.21 137.242   2
   7   2  -7 4528.94 127.708   2
  -2   7   7 4898.89 127.407   3
   2  -7   7 4487.20 126.189   4
  -7   2   7 4403.27 126.508   1
   2   7  -7 4452.93 122.097   2
   2   7  -7 4567.11 126.960   4
   7  -2   5 6432.36 182.472   2
   7   2  -5 6486.98 176.803   2
  -7   2   5 6165.19 174.873   1
  -2   7   5 6619.85 174.365   3
   2   7  -5 6293.74 171.732   2
  -2   7   3 10126.3 263.393   3
   2   7  -3 9984.29 266.033   2
   2  -7   3 9843.11 263.431   1
  -7   2   3 10090.2 266.281   1
   7  -2   3 9774.48 269.659   2
   7   2  -3 9376.21 268.109   2
  -2   7   3 9545.02 263.698   1
   7   2  -3 9628.85 267.312   1
   7   2  -1 10432.5 286.505   1
  -7   2   1 10470.1 286.843   2
   2  -7   1 10562.4 280.537   1
  -2   7   1 10533.9 278.841   1
   7  -2   1 10557.8 284.973   2
  -2   7   1 10316.3 279.153   3
   2   7  -1 10469.8 283.810   1
   2   7   1 10456.1 285.067   1
  -2  -7   1 10450.2 286.005   1
  -7   2  -1 10485.9 288.614   2
  -2   7  -1 10438.4 277.415   3
   7  -2  -1 10330.1 281.323   1
  -2   7  -1 10437.2 277.907   4
   7  -2  -1 10816.1 283.366   2
   7   2   1 10220.1 287.986   1
  -7  -2   3 10206.8 276.093   2
  -2  -7   3 10321.8 272.089   1
   7  -2  -3 9708.26 269.212   2
  -2   7  -3 9716.68 265.086   4
  -7  -2   3 10249.6 274.247   1
  -2   7  -3 9930.35 263.156   2
   7  -2  -3 9958.31 266.429   1
  -7   2  -3 10336.9 279.791   2
   7  -2  -5 6230.25 170.361   4
  -2  -7   5 6161.56 175.646   1
  -2   7  -5 6574.90 170.569   4
  -7  -2   5 6187.94 177.069   1
  -7  -2   5 6079.97 178.108   2
  -7  -2   7 4526.54 128.765   1
  -2  -7   7 4411.81 124.978   2
  -2   7  -7 4408.93 122.800   4
  -7  -2   7 4504.11 129.311   2
  -2  -7   7 4456.29 127.556   1
   7  -2  -7 4485.70 122.343   4
  -7  -2   9 530.257 24.6119   1
  -2  -7   9 508.268 20.2017   2
  -7  -2   9 519.259 24.2338   2
  -2   7  -9 519.642 20.1133   4
   7  -2  -9 523.121 19.2123   4
   7  -2 -11 608.624 22.3343   4
  -2   7 -11 613.827 23.4391   4
  -7  -2  11 598.653 27.4532   1
  -7  -2  11 660.441 27.7320   2
  -2  -7  11 579.700 22.5015   2
   7  -2 -11 568.601 24.2968   3
  -7  -2  13 697.048 30.6405   2
  -2  -7  13 727.680 25.9342   2
   7  -2 -13 662.386 25.3756   4
   7  -2 -13 721.523 27.7659   3
  -2   7 -13 699.541 26.8566   4
   7  -2 -15 41.2944 8.43902   4
   7  -2 -15 47.5762 8.68097   3
  -2  -7  15 60.9907 8.86682   2
   7  -2 -17 1168.47 43.0747   3
  -7  -2  17 1229.48 46.8710   2
  -2  -7  17 1213.73 41.3278   2
   2   7  17 1218.45 42.9072   4
   2   7  17 1209.30 44.1709   3
  -7  -2  19 180.691 17.9261   2
   2   7  19 219.491 15.9286   4
   2   7  19 178.905 15.6467   3
  -2  -7  19 211.671 14.9410   2
   2   7  21 274.797 19.6723   4
  -2  -7  21 235.954 17.4914   2
  -7  -2  21 225.967 20.5722   2
   2   7  21 221.847 18.4385   3
  -2  -7  23 137.085 15.5001   2
   2   7  23 133.786 16.5901   3
   2   7  23 144.763 16.9677   4
   7   2  23 163.456 17.1055   3
  -7  -2  23 149.292 19.3174   2
   2   7  25 154.196 18.9498   3
   2   7  25 139.797 17.4384   4
   7   2  25 135.117 17.0856   3
  -7  -2  25 136.847 20.9300   2
  -7  -2  27 148.299 22.6731   2
   7   2  27 168.344 19.1075   3
  -3   7  26 125.388 17.4187   4
  -7   3  24 54.1882 17.1859   2
   3  -7  24 36.0531 15.4553   4
   7  -3  24 42.8179 13.8847   4
   7  -3  24 67.0940 11.4376   3
  -3   7  24 52.0723 13.5455   4
   7  -3  22 326.688 18.9312   3
   7   3 -22 325.975 21.3939   4
  -7   3  22 340.386 25.4913   2
   3  -7  22 338.774 17.4247   2
  -3   7  22 354.980 23.7283   3
  -3   7  22 301.009 20.4716   4
   7  -3  22 343.911 22.8553   4
   3  -7  22 332.622 24.3392   4
  -3   7  20 31.6865 10.3625   4
  -7   3  20 40.7721 13.1785   2
   7  -3  20 31.6159 10.7590   4
   3  -7  20 60.8033 8.67793   2
   3  -7  20 48.4564 13.2128   4
   7   3 -20 20.1613 9.92550   4
  -3   7  20 59.7534 12.3218   3
   3  -7  18 288.041 19.5523   4
  -7   3  18 274.597 20.5451   2
   7   3 -18 241.978 17.5335   4
   7   3 -18 239.963 15.8440   3
  -3   7  18 260.710 16.6289   4
  -3   7  18 304.091 19.7698   3
   7  -3  18 253.893 17.5098   4
  -3   7  16 153.465 12.4510   4
   7   3 -16 155.464 12.7672   3
  -3   7  16 157.438 14.8518   3
   7  -3  16 178.415 14.2164   4
   7   3 -16 174.064 14.0473   4
  -7   3  16 185.727 16.5224   2
   3  -7  16 150.870 15.0015   4
   7   3 -14 31.6333 8.76178   4
   3  -7  14 38.8356 9.30797   4
   7   3 -14 42.8323 8.15855   3
   3   7 -14 31.7530 8.52433   4
  -3   7  14 28.6483 7.39673   4
   3  -7  14 44.3451 4.86952   3
   7  -3  14 39.0593 8.45866   4
  -7   3  14 37.3538 10.2382   2
   7   3 -12 362.821 17.4757   4
   3   7 -12 300.581 16.7452   4
   3   7 -12 298.836 12.6192   3
  -3   7  12 325.697 14.6539   4
   7  -3  12 325.052 15.9394   4
   7   3 -12 303.689 15.7957   3
   3  -7  12 303.849 16.8700   4
   3  -7  12 295.419 10.9526   3
  -7   3  12 293.318 18.5860   2
  -3   7  10 136.454 8.70996   4
   3   7 -10 152.617 11.5586   4
   3  -7  10 95.3813 7.71499   2
   3  -7  10 95.7460 4.73746   3
   3   7 -10 119.311 7.05821   3
   7   3 -10 123.184 10.2477   2
   3  -7  10 126.315 10.5789   4
  -3   7  10 125.796 10.9001   3
   7   3 -10 138.983 11.3641   4
   7   3  -8 1789.91 55.1308   4
   3   7  -8 1784.78 54.7730   4
  -3   7   8 1724.82 54.5843   3
   3   7  -8 1773.46 50.3400   2
   7   3  -8 1767.80 54.4746   2
  -3   7   8 1748.11 50.1990   4
   3  -7   8 1701.21 53.2738   4
   7  -3   8 1792.92 63.5290   2
   3   7  -6 195.973 9.78297   2
  -3   7   6 189.218 11.9951   3
   3  -7   6 203.603 11.1871   4
  -7   3   6 179.741 11.3695   1
   7  -3   6 224.736 17.7950   2
   7   3  -6 176.100 12.6108   2
   7  -3   4 3063.83 90.2789   2
  -7   3   4 2928.44 89.0277   2
  -7   3   4 3036.02 86.1157   1
   7   3  -4 3035.05 89.3890   2
   7   3  -4 3039.47 89.0301   1
   3   7  -4 2999.29 86.5076   2
  -3   7   4 3038.92 85.6716   3
  -7   3   2 3402.67 98.2738   2
  -3   7   2 3269.54 90.4297   1
   3  -7   2 3550.21 92.2705   1
   7   3  -2 3389.92 99.8129   2
   3   7  -2 3458.53 97.3640   1
   7  -3   2 3355.27 97.0002   2
   7   3  -2 3455.88 99.2034   1
   3   7  -2 3364.01 99.6898   2
   3  -7   2 3240.81 90.2067   3
  -3   7   2 3331.30 92.7559   3
  -3   7   0 2230.73 61.1625   2
   3   7   0 2270.04 68.1472   1
  -7   3   0 2240.84 68.8108   2
   3  -7   0 2047.05 60.5088   3
   3  -7   0 2148.32 61.3770   1
  -3   7   0 2175.46 59.1924   4
   7   3   0 2261.12 70.4215   1
   7  -3   0 2243.31 65.3479   2
   7  -3   0 2231.70 64.2455   1
   7  -3  -2 3429.23 98.6176   2
  -7  -3   2 3628.37 109.062   2
  -3   7  -2 3524.56 94.4092   2
  -3   7  -2 3401.55 93.9162   4
  -7  -3   2 3538.12 105.637   1
   7  -3  -2 3405.16 95.4509   1
   3   7   2 3641.86 104.458   1
  -3  -7   2 3492.40 103.489   1
  -7   3  -2 3503.09 104.883   2
  -7  -3   4 3003.86 90.2455   1
  -7  -3   4 3080.89 91.7651   2
  -3  -7   4 2910.30 88.2147   1
   7  -3  -4 2922.12 84.2938   2
  -3   7  -4 3128.53 80.6764   4
   7  -3  -4 3091.65 80.7060   4
  -7  -3   6 215.345 16.4616   2
  -3   7  -6 200.991 10.4338   4
  -7  -3   6 221.063 16.5241   1
   7  -3  -6 204.911 9.51633   4
  -3  -7   6 184.569 14.8814   1
  -3  -7   6 187.064 15.5649   2
   7  -3  -8 1793.47 51.2966   4
  -3   7  -8 1689.62 52.2963   4
  -3  -7   8 1744.63 55.3998   2
  -3  -7   8 1822.21 58.2298   1
  -7  -3   8 1868.73 59.1776   1
  -7  -3   8 1722.14 58.3605   2
   7  -3 -10 130.836 9.05311   4
  -3   7 -10 140.563 9.91608   4
  -7  -3  10 117.753 13.2541   2
  -3  -7  10 131.271 10.9439   2
  -7  -3  10 151.739 14.8791   1
  -3  -7  12 289.352 15.3936   2
  -7  -3  12 294.723 18.2861   2
  -7  -3  12 272.227 19.0236   1
   7  -3 -12 259.123 13.0961   4
   7  -3 -12 255.211 15.3950   3
   7  -3 -14 29.6521 6.75805   4
   7  -3 -14 20.9728 7.52003   3
  -7  -3  14 34.3870 10.5547   2
  -3  -7  14 28.4643 8.06948   2
  -3  -7  16 157.981 13.2188   2
   7  -3 -16 142.952 12.8296   3
  -7  -3  16 158.542 16.0334   2
  -3  -7  18 257.077 17.6399   2
   3   7  18 306.048 18.3698   4
   3   7  18 259.773 18.2094   3
  -7  -3  18 276.941 21.0578   2
  -7  -3  20 59.9945 13.9954   2
   3   7  20 53.7489 11.4453   4
  -3  -7  20 31.7219 10.9686   2
   3   7  20 53.4083 12.0394   3
  -7  -3  22 317.224 24.7973   2
   3   7  22 296.118 21.9942   3
  -3  -7  22 320.169 21.4443   2
   3   7  22 347.837 22.9567   4
  -7  -3  24 47.8415 15.8523   2
   3   7  24 37.2299 13.5446   3
   7   3  24 36.8564 13.4097   4
   7   3  24 50.4807 13.7614   3
   3   7  24 46.8544 13.8412   4
  -3  -7  24 43.6564 13.5221   2
   7   3  26 97.0942 16.6564   3
  -7  -3  26 118.053 20.1979   2
  -7   4  25 18.9804 16.2525   2
  -4   7  25 23.0443 14.2606   4
   7  -4  23 88.7096 11.6656   3
  -4   7  23 152.212 16.2514   4
   4  -7  23 116.287 18.0155   4
  -7   4  23 101.836 17.2871   2
   4  -7  23 104.496 11.8004   2
   7   4 -23 92.1228 14.8672   4
   7  -4  23 126.044 16.9300   4
  -4   7  21 175.755 16.0542   4
  -7   4  21 164.216 18.6339   4
   4  -7  21 220.393 20.2344   4
  -7   4  21 178.812 19.0813   2
   7   4 -21 183.451 17.2505   4
   7  -4  21 200.743 18.4468   4
   7  -4  21 218.535 15.0176   3
   4  -7  19 129.312 15.3100   4
   7   4 -19 126.716 12.0742   3
  -7   4  19 112.902 14.7393   4
   7   4 -19 121.107 13.9611   4
   4  -7  19 118.243 9.56005   3
  -7   4  19 114.218 14.6428   2
  -4   7  19 110.746 12.7537   4
   7  -4  19 98.3973 13.2610   4
  -7   4  17 475.847 26.8203   2
   4  -7  17 525.794 26.3863   4
   7   4 -17 519.583 24.7253   4
  -7   4  17 527.069 25.9703   4
   7  -4  17 562.961 25.1226   4
  -4   7  17 486.604 23.1403   4
   4  -7  17 547.720 19.8517   3
  -4   7  17 554.121 27.3981   3
   7   4 -17 531.223 23.4645   3
   4  -7  15 162.152 14.4234   4
   7   4 -15 191.565 12.8748   3
   7   4 -15 175.736 14.0046   4
   4   7 -15 178.349 10.8310   3
  -7   4  15 172.928 15.5416   2
  -7   4  15 181.468 14.3714   4
   4  -7  15 186.608 9.44512   3
  -4   7  15 198.874 12.9225   4
   7  -4  15 203.966 14.0480   4
   4   7 -13 139.664 9.04924   3
   4  -7  13 169.021 12.7942   4
   7   4 -13 155.910 11.5626   3
   4  -7  13 145.273 7.37605   3
  -4   7  13 155.217 10.7671   4
  -7   4  13 140.089 13.8024   2
   7  -4  13 154.131 12.2128   4
   7   4 -13 131.906 11.7482   4
   4  -7  11 280.251 10.2048   3
   4  -7  11 276.199 15.2646   2
   7  -4  11 231.032 22.7080   2
  -4   7  11 314.684 13.6936   4
   7  -4  11 288.359 14.5317   4
   7   4 -11 326.192 16.9477   4
   4   7 -11 283.626 12.6117   3
   4  -7  11 317.864 16.1268   4
   7   4  -9 1263.24 41.7124   4
   7   4  -9 1264.30 40.5864   2
   7  -4   9 1246.90 48.1649   2
  -4   7   9 1209.43 36.7990   4
   4   7  -9 1233.35 37.4812   2
   4  -7   9 1172.09 35.9147   2
  -4   7   9 1384.16 42.4353   3
   4   7  -9 1119.44 40.8231   4
   7  -4   9 1216.63 38.6680   4
   4  -7   9 1282.55 39.7718   4
   4  -7   7 1429.51 42.8493   4
   7  -4   7 1487.57 49.5887   2
   7   4  -7 1410.71 45.4554   2
   4   7  -7 1411.51 45.8090   4
  -7   4   7 1386.79 42.4782   1
  -4   7   7 1479.40 45.0955   3
   4   7  -7 1470.08 42.3676   2
  -4   7   7 1376.09 39.7932   4
   4  -7   7 1326.42 38.4407   2
   7  -4   5 1941.87 61.8761   2
  -4   7   5 1948.08 53.8600   4
   4   7  -5 1968.70 59.0839   2
   7   4  -5 2061.37 61.9924   1
   4  -7   5 1957.07 56.6920   4
  -7   4   5 1999.10 61.6324   2
  -7   4   5 1988.85 57.4079   1
   7   4  -5 2009.27 61.5129   2
   4  -7   3 8196.37 218.814   3
   7   4  -3 7968.13 227.464   1
   4   7  -3 8197.55 226.651   1
   4   7  -3 8358.62 226.994   2
   7   4  -3 8452.46 228.527   2
   7  -4   3 8368.16 224.955   2
  -7   4   3 8152.96 226.052   2
   4  -7   1 137.264 6.72913   3
   4  -7   1 131.032 6.53347   1
   4   7  -1 122.179 16.4253   2
   7   4  -1 103.792 13.7438   2
   7  -4   1 123.783 9.40539   2
   7   4  -1 153.508 14.3244   1
   4   7  -1 126.544 13.0574   1
  -7   4   1 126.696 11.4263   2
  -4   7   1 125.028 7.70388   2
   7   4   1 151.529 16.2157   1
  -4  -7   1 150.168 16.1412   1
   7  -4  -1 150.507 10.0963   2
   7   4   1 131.922 17.5656   2
   4   7   1 137.736 14.3719   1
  -4   7  -1 142.980 8.11134   2
  -4   7  -1 157.791 5.73843   4
   7  -4  -1 140.548 7.94035   1
   4  -7  -1 153.011 7.86790   3
  -7   4  -1 146.910 12.4972   2
   4   7   3 8523.44 234.275   1
  -4   7  -3 7876.41 221.831   4
   4  -7  -3 8849.97 224.928   3
  -7   4  -3 8572.37 233.727   2
  -4  -7   3 8202.27 232.789   1
  -7  -4   3 8256.62 234.243   1
  -4   7  -3 8466.07 223.972   2
  -7  -4   3 8696.69 237.951   2
   7  -4  -3 8481.35 226.546   2
  -4   7  -5 1947.67 54.9120   4
   7  -4  -5 2009.62 53.9228   4
  -7  -4   5 1902.89 65.7759   2
  -7  -4   5 1864.57 63.8094   1
  -4  -7   5 1885.54 63.0315   1
   4  -7  -5 1818.38 57.0336   3
   7  -4  -7 1408.08 41.5783   4
  -4  -7   7 1525.53 50.7512   1
  -7  -4   7 1425.04 50.7929   1
  -4  -7   7 1552.24 50.2524   2
  -7  -4   7 1449.65 51.1404   2
   7  -4  -7 1412.70 45.8447   3
  -4  -7   9 1236.38 44.8213   1
  -7  -4   9 1223.38 44.8338   2
  -4  -7   9 1215.37 42.8104   2
   7  -4  -9 1225.66 36.9156   4
  -7  -4   9 1202.58 45.1227   1
   7  -4 -11 258.144 12.6574   4
  -7  -4  11 291.718 19.2445   1
  -4  -7  11 337.435 20.3291   1
  -7  -4  11 284.621 18.9895   2
  -4  -7  11 261.220 16.5153   2
  -4  -7  13 156.792 13.1253   2
  -7  -4  13 129.152 15.5771   1
   7  -4 -13 168.095 12.8664   3
  -7  -4  13 132.091 14.3232   2
  -4  -7  15 168.970 14.3449   2
   7  -4 -15 155.731 13.1716   3
  -7  -4  15 185.513 16.2958   2
  -4  -7  17 508.323 25.1333   2
  -7  -4  17 559.267 28.6805   2
  -7  -4  19 111.529 16.2523   2
  -4  -7  19 110.645 14.3966   2
   4   7  19 154.510 14.2565   4
   4   7  21 178.547 17.1559   3
   4   7  21 195.748 17.4805   4
  -7  -4  21 208.185 20.3633   2
   7   4  21 156.230 16.7344   4
  -4  -7  21 176.554 17.6081   2
   7   4  23 108.435 15.8314   4
   4   7  23 99.2423 16.6866   3
  -7  -4  23 110.465 18.2495   2
  -4  -7  23 97.6888 16.2485   2
   4   7  23 103.750 16.4308   4
  -7  -4  25 29.3897 16.1105   2
   7   4  25 53.2804 14.4753   3
  -5   7  26 63.0700 17.2626   4
  -7   5  24 76.4535 16.6685   2
  -5   7  24 51.7617 15.5563   2
   5  -7  24 84.0720 16.7559   4
  -5   7  24 73.6539 15.9053   4
   7   5 -24 68.9122 14.4141   4
   5   7 -24 49.9501 13.9126   4
   7  -5  24 73.2283 16.6077   4
  -5   7  22 486.956 29.9071   2
   5   7 -22 450.841 26.6913   4
  -7   5  22 475.078 29.9573   2
  -5   7  22 494.221 27.1903   4
   5  -7  22 493.360 29.5623   4
  -7   5  22 534.362 29.1371   4
   7   5 -22 504.124 27.1564   4
   7  -5  22 481.825 27.3360   4
   7  -5  22 506.494 22.8943   3
  -5   7  20 19.1526 11.1759   4
   5  -7  20 35.5424 12.9761   4
   7   5 -20 37.1023 11.9459   4
   5  -7  20 20.9030 7.67565   3
   7  -5  20 26.9129 11.5564   4
   7  -5  20 23.5099 8.67084   3
  -7   5  20 30.2600 12.5062   4
  -7   5  20 33.7791 13.2582   2
   5  -7  18 68.4588 7.68681   3
   7   5 -18 64.3184 10.3677   3
   7   5 -18 70.7142 11.8502   4
  -5   7  18 70.6754 11.6657   4
   5  -7  18 54.0267 12.5402   4
  -7   5  18 46.6264 12.7162   2
  -7   5  18 82.8938 13.3997   4
   7  -5  18 68.6143 12.0862   4
   7   5 -16 284.823 16.0014   3
  -7   5  16 305.668 20.7017   2
   5  -7  16 293.615 12.8431   3
   7   5 -16 280.450 17.8735   4
  -7   5  16 281.303 18.0957   4
   5   7 -16 304.271 15.0837   3
   5  -7  16 297.460 18.8273   4
  -5   7  16 302.570 17.1731   4
   7  -5  16 309.262 17.7269   4
   5   7 -14 218.428 12.2290   3
   7   5 -14 241.252 16.1948   4
   7   5 -14 231.842 14.2795   3
   5  -7  14 227.342 10.2405   3
  -7   5  14 235.302 17.6357   2
  -7   5  14 225.475 15.3799   4
  -5   7  14 247.279 14.2717   4
   7  -5  14 230.350 14.9393   4
   5  -7  14 227.041 15.7050   4
   5  -7  12 335.218 18.5514   2
   7   5 -12 323.721 17.9576   4
   7  -5  12 340.204 16.7087   4
   7  -5  12 332.931 24.7894   2
   5  -7  12 294.252 16.6224   4
   5   7 -12 316.975 14.6065   3
  -5   7  12 321.772 14.9331   4
   5   7 -10 19.1587 5.28830   2
   7   5 -10-1.32823 7.31658   4
   7   5 -10-2.67094 6.21931   2
   7  -5  10 13.4902 11.3510   2
  -5   7  10 9.00995 5.12063   4
   5  -7  10 7.34944 5.75674   2
   5  -7  10 8.44007 6.52922   4
   7  -5  10 9.37380 5.87626   4
  -5   7   8 3112.46 80.4424   4
   7   5  -8 2902.51 84.9426   2
   7  -5   8 2889.50 82.1947   4
   7  -5   8 2905.25 87.8587   2
  -7   5   8 2725.04 86.5150   2
   5   7  -8 3001.30 83.0585   2
   5  -7   8 2568.33 82.4823   4
   5  -7   8 2910.61 80.4463   2
  -5   7   6 114.670 9.44733   2
  -7   5   6 107.487 7.52187   1
   5  -7   6 96.4421 5.72013   2
   7  -5   6 113.643 10.4429   2
   7   5  -6 100.616 10.2129   2
   5  -7   6 104.666 7.51932   4
  -5   7   6 100.317 5.34266   4
   5   7  -6 105.063 8.85734   2
  -7   5   6 111.475 10.5799   2
   7  -5   6 95.6836 6.97580   4
   7   5  -4 284.720 17.4034   1
   5   7  -4 323.688 17.4007   2
   5  -7   4 335.705 11.6886   2
  -7   5   4 357.844 17.4289   2
   5  -7   4 322.366 12.4132   4
   7  -5   4 334.949 15.4470   2
  -5   7   4 332.776 15.3019   2
   5   7  -4 281.263 17.4604   1
   7   5  -4 333.499 18.0237   2
  -7   5   4 286.217 12.6541   1
   7   5  -2 5542.81 156.637   2
  -5   7   2 5477.36 149.070   2
  -7   5   2 5500.78 152.176   2
   5   7  -2 5359.13 156.341   2
   5   7  -2 5083.41 153.678   1
   7  -5   2 5468.16 149.325   2
   5   7   0 3210.44 96.4256   1
   7   5   0 3144.77 100.140   2
   7  -5   0 3057.71 86.8270   1
  -7   5   0 3216.26 92.8074   2
   5   7   0 3253.65 102.118   2
   7  -5   0 3200.85 89.5400   2
   5  -7   0 3085.82 87.1324   3
  -5   7   0 3208.70 88.8460   2
   7   5   2 5220.32 164.622   2
  -5   7  -2 5523.69 148.949   2
  -7   5  -2 5397.73 154.055   2
   7  -5  -2 5413.24 149.605   2
   5   7   2 5074.27 157.656   1
   5  -7  -2 5525.11 148.068   3
  -5  -7   2 5452.76 158.555   1
  -7  -5   4 337.045 24.1036   2
  -5   7  -4 329.721 16.3487   2
  -5  -7   4 332.817 21.6255   1
  -7   5  -4 327.548 21.7224   2
   7  -5  -4 340.574 10.8668   4
   5  -7  -4 377.671 15.2372   3
   5  -7  -6 96.9447 8.54431   3
  -5  -7   6 83.5335 13.9853   2
  -7  -5   6 105.760 14.9701   2
   7  -5  -6 109.359 9.24057   3
   7  -5  -6 122.275 5.84153   4
  -5  -7   6 120.273 13.8590   1
  -7  -5   8 2905.61 89.3787   1
  -7  -5   8 2861.51 89.2704   2
   7  -5  -8 3015.27 83.4225   3
   5  -7  -8 3006.55 83.0788   3
  -5  -7   8 2909.99 88.0484   2
   7  -5  -8 2691.27 77.8537   4
  -5  -7   8 2567.59 87.3817   1
  -7  -5  10 18.3135 9.95737   2
  -5  -7  10 21.1037 10.3159   2
  -7  -5  10 17.8023 10.2103   1
  -7  -5  12 307.340 21.2142   1
  -7  -5  12 309.054 19.9357   2
  -5  -7  12 309.572 19.2716   2
  -5  -7  14 224.017 17.3191   2
  -7  -5  14 220.950 18.2332   2
  -7  -5  14 244.056 20.4632   1
  -7  -5  16 315.947 22.9532   1
  -7  -5  16 281.320 20.8947   2
  -5  -7  16 287.148 19.6103   2
  -7  -5  18 62.3417 13.9893   2
  -5  -7  18 67.9612 13.9239   2
   7   5  20 37.0634 11.4283   4
  -7  -5  20 24.9542 13.7291   2
   5   7  20 34.8879 12.0730   4
  -5  -7  20 39.7531 13.7778   2
   5   7  22 526.777 29.4502   3
   7   5  22 504.903 28.3563   4
  -5  -7  22 477.749 28.6932   2
  -7  -5  22 436.856 29.6782   2
   5   7  22 554.626 29.0870   4
   7   5  24 73.0017 15.1809   4
   5   7  24 83.7139 15.8405   4
  -5  -7  24 82.9949 16.8184   2
   5   7  24 96.0761 17.1006   3
   7   5  24 63.6625 15.9076   3
  -7  -5  24 62.0123 16.6714   2
  -6   7  25 43.2650 15.5222   4
  -7   6  23 95.6992 16.3246   4
  -7   6  23 78.0838 17.0240   2
  -6   7  23 104.887 15.9418   4
   7  -6  23 95.3545 16.4632   4
   6  -7  23 130.850 17.2181   4
   6   7 -23 78.8744 14.9925   4
   7   6 -23 64.8696 13.8030   4
  -6   7  23 84.5801 17.4779   2
   7   6 -21 283.166 20.9781   4
  -7   6  21 298.491 23.7173   2
  -7   6  21 298.438 22.0457   4
   6  -7  21 300.366 22.6099   4
   6   7 -21 269.124 20.4062   4
   7  -6  21 314.535 21.4790   4
  -6   7  21 290.586 23.7630   2
   7  -6  21 297.186 16.5795   3
   6  -7  21 299.293 15.5569   3
  -6   7  21 304.933 21.3775   4
   7   6 -19 154.363 14.6974   4
  -6   7  19 137.094 16.6274   2
   7  -6  19 149.188 11.0852   3
   7  -6  19 170.317 15.9746   4
   6  -7  19 143.240 10.2418   3
  -7   6  19 132.240 16.4663   2
   7   6 -19 148.543 12.2479   3
   6  -7  19 151.466 16.1283   4
   6   7 -19 157.430 15.2833   4
  -7   6  19 156.386 15.9961   4
  -6   7  19 143.178 14.7546   4
  -6   7  17 238.586 19.5221   2
   6   7 -17 231.136 14.0084   3
   7   6 -17 244.737 15.0965   3
  -7   6  17 230.469 17.0398   4
  -7   6  17 262.647 19.8422   2
   6  -7  17 268.607 17.9003   4
   6  -7  17 225.708 12.0833   3
   7   6 -17 256.520 17.4859   4
  -6   7  17 249.983 16.5808   4
   7  -6  17 214.103 16.3136   4
   6   7 -17 243.513 16.6048   4
   6  -7  15 224.638 19.8047   2
  -7   6  15 237.077 15.4969   4
   7  -6  15 201.255 22.4013   2
   6  -7  15 223.658 10.7830   3
   7   6 -15 218.850 15.6297   4
   7  -6  15 222.562 15.5788   4
  -6   7  15 230.396 14.9235   4
   6   7 -15 214.675 12.8238   3
   6  -7  15 236.906 15.9466   4
   7   6 -15 209.724 13.6281   3
  -6   7  13 469.885 19.5855   4
   6   7 -13 439.332 18.6571   3
   7   6 -13 423.215 19.3693   3
   7  -6  13 389.328 25.5002   2
   6  -7  13 406.844 22.6942   2
   7   6 -13 487.780 22.4435   4
   7  -6  13 402.472 19.9174   4
   6  -7  13 414.351 20.4235   4
  -7   6  13 460.998 20.2218   4
   7  -6  11 350.966 16.5886   4
  -6   7  11 324.738 15.0405   4
   7   6 -11 344.533 16.5757   2
   6  -7  11 363.871 17.8653   2
   7   6 -11 345.507 18.6315   4
   6  -7  11 317.083 16.5664   4
  -6   7  11 367.587 19.7999   2
   7  -6  11 330.205 20.8061   2
   6  -7   9 1263.01 40.4271   4
   7   6  -9 1290.89 41.9682   2
  -7   6   9 1287.64 44.8608   2
  -6   7   9 1262.46 44.1103   2
  -6   7   9 1301.91 38.6408   4
   6  -7   9 1285.55 40.1322   2
   7  -6   9 1306.14 43.8936   2
   7   6  -9 1223.70 43.9434   4
   6   7  -9 1275.49 41.1537   2
   7  -6   9 1277.23 40.2170   4
   6  -7   7 1118.11 35.3830   4
   7  -6   7 1087.50 37.5280   2
  -6   7   7 1188.35 39.4425   2
  -7   6   7 1121.66 34.3667   1
   7  -6   7 1148.85 35.5095   4
   6  -7   7 1143.43 34.8801   2
   6   7  -7 1161.57 38.2136   2
   7   6  -7 1115.79 38.6302   2
  -7   6   7 1150.02 40.1263   2
   6  -7   5 681.710 21.3816   4
  -6   7   5 678.963 25.1296   2
   7   6  -5 646.060 27.2136   2
   6   7  -5 663.016 25.9946   2
  -6   7   5 559.488 18.5660   1
  -7   6   5 657.783 20.4993   1
   7  -6   5 694.804 23.7400   2
   7  -6   5 663.216 21.3046   4
  -7   6   5 682.817 26.2502   2
   6  -7   5 671.915 21.2947   2
   6  -7   3 8367.90 219.238   4
   7   6  -3 8006.37 229.822   2
   6  -7   3 8276.34 220.689   2
   6   7  -3 8484.04 229.536   2
   7  -6   3 8048.01 219.110   4
   7  -6   3 8310.65 222.590   2
  -6   7   3 7926.29 224.317   2
  -7   6   3 8396.69 225.891   2
   7   6  -1 151.802 16.8642   2
   7  -6   1 153.935 5.94929   4
   7  -6   1 172.046 9.91826   2
   6   7  -1 147.552 17.3921   2
  -6   7   1 151.769 10.2485   2
  -7   6   1 151.248 11.3667   2
   6  -7  -1 140.515 8.72258   3
   7  -6  -1 145.170 9.55685   2
  -7   6  -1 137.309 11.9489   2
  -6   7  -1 133.118 10.0545   2
   6   7   1 170.425 16.9947   1
  -6  -7   1 143.506 18.0523   1
   7   6   1 164.351 20.9450   2
  -6   7  -3 8023.96 214.484   2
  -7   6  -3 7959.84 217.599   2
  -6  -7   3 7427.35 221.822   1
   6   7   3 7694.05 222.779   1
   6  -7  -3 7816.89 211.944   3
   7  -6  -3 7761.24 212.456   3
   7  -6  -5 682.349 24.9881   3
  -7  -6   5 676.596 34.0919   2
  -6  -7   5 649.938 34.6677   2
   6  -7  -5 657.807 24.2789   3
   6  -7  -7 1207.78 38.5748   3
  -6  -7   7 1094.67 45.2155   2
  -7  -6   7 1123.99 45.8530   2
   7  -6  -7 1133.78 38.2380   3
   6  -7  -9 1318.57 43.4874   3
   7  -6  -9 1366.47 43.8007   3
  -6  -7   9 1185.55 47.9024   2
  -7  -6   9 1348.32 50.0372   2
   7  -6 -11 325.863 17.4854   3
   6  -7 -11 384.467 18.1106   3
  -7  -6  11 306.084 21.0203   2
  -6  -7  11 331.880 20.9908   2
  -7  -6  11 278.163 21.2558   1
  -7  -6  13 483.349 26.1262   2
  -6  -7  13 409.600 23.9919   2
  -7  -6  13 401.621 26.1789   1
  -7  -6  15 256.960 20.1887   2
  -7  -6  15 214.713 20.3661   1
  -6  -7  15 235.189 19.0872   2
  -7  -6  17 236.405 19.7619   2
  -6  -7  17 220.043 18.9927   2
  -7  -6  17 221.506 21.6119   1
  -7  -6  19 135.819 19.6457   1
  -6  -7  19 185.384 18.4535   2
  -7  -6  19 153.723 18.3872   2
   7   6  21 338.671 22.7416   4
  -7  -6  21 297.555 24.3992   2
  -6  -7  21 277.307 23.3528   2
   6   7  21 344.076 22.8410   4
   6   7  23 105.280 17.1936   3
  -6  -7  23 124.890 18.4963   2
  -7  -6  23 92.2163 17.8135   2
   6   7  23 144.747 17.4228   4
   7   6  23 102.510 16.3317   4
  -7   7  24 99.3380 18.6020   4
  -7   7  22 369.353 27.8465   2
   7  -7  22 412.587 25.9977   4
   7   7 -22 359.874 24.2092   4
  -7   7  22 441.440 26.1201   4
  -7   7  20 566.341 31.8849   2
  -7   7  20 647.990 29.8114   4
   7  -7  20 532.867 28.9278   4
   7   7 -20 590.508 29.3200   4
   7  -7  20 629.987 23.4372   3
   7   7 -18 94.3991 10.5959   3
   7  -7  18 106.342 8.77868   3
   7  -7  18 85.0638 17.0261   2
   7  -7  18 113.900 13.9758   4
  -7   7  18 106.142 13.8544   4
   7   7 -18 104.234 13.4178   4
  -7   7  18 104.788 15.3397   2
   7  -7  16 915.627 40.9402   2
  -7   7  16 1047.67 36.8403   4
   7   7 -16 980.069 37.9359   4
   7  -7  16 965.088 36.9068   4
   7   7 -16 940.144 34.1574   3
   7  -7  14 2051.88 68.7074   2
   7   7 -14 2041.97 62.8654   3
   7   7 -14 1959.22 66.2039   4
  -7   7  14 2229.66 64.3083   4
   7  -7  14 2050.72 64.8116   4
  -7   7  12 425.715 19.0161   4
  -7   7  12 360.459 21.6440   2
   7  -7  12 440.798 21.9858   2
   7  -7  12 446.939 19.8792   4
   7  -7  10 1440.99 45.9019   4
   7  -7  10 1488.25 47.1533   2
  -7   7  10 1403.08 50.0131   2
   7   7 -10 1468.85 46.4110   2
  -7   7   8 5605.97 161.748   2
   7  -7   8 5682.67 157.321   2
   7   7  -8 5576.43 159.415   2
   7  -7   8 5927.55 157.019   4
   7  -7   6 154.487 8.31844   4
   7  -7   6 138.764 8.87785   2
   7   7  -6 98.5455 11.3514   2
  -7   7   6 126.283 6.66306   1
  -7   7   6 125.416 11.0782   2
  -7   7   4 1164.86 39.6405   2
   7  -7   4 1143.98 35.9267   2
   7  -7   4 1190.61 34.2397   4
   7   7  -4 1067.00 42.2607   2
   7   7  -2 8548.37 244.865   2
   7  -7   2 8723.74 234.836   2
   7  -7   2 8802.76 231.269   4
  -7   7   2 8388.21 238.557   2
  -7   7   0 2170.43 66.1789   2
   7   7   0 2136.14 75.9587   2
   7  -7  -2 8370.57 234.005   3
  -7   7  -2 9055.22 237.944   2
  -7   7  -4 1058.11 39.2635   2
   7  -7  -4 1036.66 34.5935   3
  -7  -7   6 156.104 19.0977   2
   7  -7  -6 143.273 10.2538   3
   7  -7  -8 5751.15 161.480   3
  -7  -7   8 5868.45 170.939   2
  -7  -7  10 1411.22 53.2679   2
   7  -7 -10 1397.32 46.6756   3
  -7  -7  12 480.681 27.9901   2
   7  -7 -12 524.933 23.3289   3
  -7  -7  14 2088.30 71.4779   2
  -7  -7  16 903.471 42.7290   1
  -7  -7  16 924.183 40.5088   2
  -7  -7  18 111.888 18.8518   1
  -7  -7  18 105.752 16.4210   2
  -7  -7  20 556.542 34.5977   1
  -7  -7  20 516.563 30.4920   2
  -7  -7  22 391.599 32.1296   1
   7   7  22 453.356 27.1796   4
  -7  -7  22 444.087 29.1661   2
   0   8   0 875.306 29.6765   1
   8   0   0 893.288 34.5699   2
   8   0   0 895.583 34.4025   1
   0  -8   0 841.960 32.2559   1
  -8   0  -2 160.256 22.3683   2
   8   0   2 132.792 15.9636   2
   8   0  -2 121.800 11.4188   1
   0  -8   2 133.599 11.7786   1
   0   8   2 123.641 11.8910   1
   0   8  -4 1184.29 35.7168   4
   0   8  -4 1066.81 32.5027   2
   8   0   4 1151.93 46.3004   2
   0  -8   4 1124.00 38.0219   1
   8   0  -4 1148.13 37.1013   1
  -8   0   4 1113.40 40.6650   1
  -8   0   6 137.325 12.7190   1
  -8   0   6 129.393 13.0598   2
   8   0   6 144.474 18.5732   2
   0   8  -6 143.741 9.37078   4
   0  -8   6 133.654 10.9966   1
  -8   0   8 165.563 13.9868   1
   8   0  -8 154.587 12.0815   2
   0   8  -8 179.247 11.3368   4
   8   0  -8 177.875 11.5297   4
  -8   0   8 145.518 14.6866   2
   8   0 -10 2241.65 62.7032   4
  -8   0  10 2131.87 66.0343   1
   0   8  10 2293.38 64.2812   3
  -8   0  10 2196.19 68.2884   2
   0   8 -10 2191.65 62.7944   4
   8   0 -12 603.939 23.6425   4
   8   0 -12 581.309 24.6271   3
   0  -8  12 580.877 20.0149   2
   0   8 -12 605.866 24.0628   4
  -8   0  12 628.849 28.5305   2
   8   0 -14 509.937 23.3616   3
   8   0 -14 528.065 22.6029   4
   0   8 -14 506.386 23.1495   4
   0  -8  14 488.384 18.7064   2
  -8   0  14 505.720 26.6066   2
  -8   0  16 310.459 21.7667   2
   8   0 -16 309.230 17.9537   3
   0  -8  16 303.606 14.5085   2
   0   8 -16 310.283 17.9541   4
   0   8  16 305.576 17.2444   4
   8   0 -16 309.711 17.9060   4
   8   0 -18-0.78704 8.48776   3
   0   8  18-0.91073 9.09311   3
   8   0 -18 2.12497 8.75737   4
   0  -8  18 13.1232 11.4082   4
   0  -8  18 14.4083 7.28796   2
  -8   0  18 9.12101 11.4777   2
   0   8  18-4.89279 9.05451   4
   0   8 -18-5.51782 9.79837   4
   8   0  18 9.76984 9.05796   4
   0   8  20 101.148 13.9047   3
   0  -8  20 81.1359 10.6504   2
   0   8  20 86.0128 12.4316   4
   8   0 -20 80.6034 12.4141   4
   8   0  20 84.6112 12.9089   4
  -8   0  20 84.4285 16.3182   2
   0  -8  22 60.3549 10.4769   2
   0   8  22 73.0286 14.0380   3
  -8   0  22 52.7351 15.4999   2
   8   0  22 33.2759 12.5734   4
   0   8  22 37.9602 12.0361   4
   0   8  24 99.9851 15.6868   3
   0   8  24 89.5272 14.8015   4
   8   0  24 80.2113 14.9156   4
  -8   0  24 88.6376 19.3443   2
   8   0  24 111.376 14.1128   3
   8   0  26 35.4856 14.5207   3
  -8   0  26 38.5441 18.1308   2
   8  -1  25 146.738 16.8546   3
  -8   1  25 105.143 19.9449   2
  -1   8  25 107.343 16.3594   4
   1  -8  23 254.671 23.8313   4
   8  -1  23 248.391 17.9842   3
  -1   8  23 194.256 19.3807   3
  -1   8  23 234.169 18.5737   4
  -8   1  23 229.936 23.6607   2
   8  -1  23 211.846 19.0512   4
  -1   8  21 91.7549 12.9671   4
   8   1 -21 107.796 13.5113   4
   1  -8  21 121.665 17.9197   4
   8  -1  21 104.077 14.6918   4
  -8   1  21 112.036 17.6261   2
   1  -8  21 104.501 10.8300   2
  -1   8  21 103.090 14.7107   3
  -1   8  19 51.8822 11.1009   4
   8  -1  19 68.8912 12.3596   4
   8   1 -19 64.8773 10.5667   3
  -1   8  19 48.3961 11.2084   3
   1  -8  19 71.2492 8.79922   2
  -8   1  19 41.9575 12.9765   2
   1  -8  19 45.1358 13.8485   4
   1   8 -19 51.1818 11.2703   4
   8   1 -19 79.1332 11.6754   4
   8   1 -17 848.782 33.4304   3
   8   1 -17 860.898 33.6374   4
   1  -8  17 865.049 28.6870   2
   8  -1  17 850.962 33.7183   4
  -1   8  17 856.988 35.4259   3
   1   8 -17 819.576 33.3407   4
  -1   8  17 829.085 32.3777   4
  -8   1  17 893.570 38.2745   2
   1  -8  17 822.191 36.2324   4
  -1   8  15 1006.32 34.9292   4
  -8   1  15 1053.68 41.6614   2
   8   1 -15 1013.68 36.3524   4
   1  -8  15 968.350 39.2948   4
   8   1 -15 1025.85 36.9403   3
   1   8 -15 1052.03 37.6745   4
   8  -1  15 1021.16 36.8630   4
   1  -8  15 958.271 31.2235   2
   1  -8  13 546.635 24.9360   4
  -1   8  13 495.616 20.2733   4
   1   8 -13 513.151 22.4158   4
   8   1 -13 554.391 22.7685   4
  -8   1  13 518.849 25.7542   2
   1  -8  13 466.157 16.9249   2
   8   1 -13 523.133 22.7913   3
  -1   8  11 247.520 14.5712   3
   8   1 -11 219.824 13.1193   4
   1   8 -11 211.728 12.9437   4
  -8   1  11 215.594 14.6865   1
   8   1 -11 219.770 13.1634   3
  -8   1  11 224.600 15.9969   2
   1   8  -9 709.287 25.9643   4
   8   1  -9 629.967 25.4527   4
   8   1  -9 706.271 27.0127   2
  -8   1   9 645.006 27.6245   1
  -1   8   9 725.937 26.7850   3
  -8   1   9 728.833 30.3875   2
  -1   8   7 4009.19 113.016   3
   8   1  -7 4446.00 115.614   2
   8  -1   7 3939.49 126.074   2
   1   8  -7 4437.73 113.516   4
  -8   1   7 4284.38 115.816   1
   1   8  -7 3900.99 106.561   3
  -1   8   5 4540.69 130.899   3
   8   1  -5 4621.25 133.951   2
   1  -8   5 4768.92 132.372   1
  -8   1   5 4755.76 134.499   1
   1   8  -5 4824.62 131.735   4
   1   8  -5 4803.07 127.353   2
   8  -1   5 4713.96 141.671   2
   8  -1   3 271.863 19.1127   2
  -1   8   3 254.727 14.8614   1
  -1   8   3 306.185 12.9064   3
   1  -8   3 283.698 14.9645   1
   1   8  -3 266.976 15.3157   2
   8   1  -3 309.482 16.5714   1
  -8   1   3 300.753 17.7408   1
   8   1  -1 4655.76 135.160   1
   1   8  -1 4805.37 131.814   1
  -8   1   1 4371.71 137.692   2
   8  -1   1 4759.84 136.088   2
  -1   8   1 4779.89 129.932   1
  -1   8   1 4717.31 128.140   3
   1  -8   1 4726.21 131.973   1
  -8   1  -1 4783.46 143.390   2
   1   8   1 4833.73 134.765   1
   8   1   1 4645.69 138.808   1
   8  -1  -1 4714.10 136.045   2
   8  -1  -1 4674.19 134.513   1
  -1  -8   1 4745.15 136.611   1
  -1   8  -1 4842.69 128.529   3
   1   8   3 313.506 17.8917   1
   8  -1  -3 291.500 14.7346   1
   8   1   3 322.512 22.8423   2
  -1  -8   3 313.759 17.1064   1
  -8  -1   3 295.276 19.4889   1
  -1   8  -3 265.509 9.05546   3
  -1   8  -3 299.215 12.7199   4
  -1  -8   5 4825.11 135.968   1
  -1   8  -5 4761.83 131.463   4
  -8  -1   5 4844.10 138.266   1
  -8  -1   5 4688.06 139.426   2
   8   1   5 4880.51 147.588   2
   8  -1  -7 4586.75 123.431   4
  -1   8  -7 4307.36 123.107   4
  -8  -1   7 4380.63 129.838   2
  -1  -8   7 4517.78 127.341   1
  -8  -1   7 4402.36 128.651   1
  -1  -8   9 608.937 22.3293   2
  -8  -1   9 627.579 28.0150   1
  -8  -1   9 644.490 28.9849   2
   8  -1  -9 640.397 23.4779   4
  -1   8  -9 653.001 23.7106   4
   8  -1 -11 261.093 13.1141   4
  -8  -1  11 207.632 16.7998   2
  -8  -1  11 200.757 16.1658   1
  -1  -8  11 216.632 11.3657   2
  -1   8 -11 246.813 13.6913   4
   8  -1 -11 250.166 14.6206   3
  -1   8 -13 528.414 22.3745   4
  -1  -8  13 526.971 20.2603   2
  -8  -1  13 521.806 26.4750   1
   8  -1 -13 505.428 21.5524   4
  -8  -1  13 523.954 26.6259   2
   8  -1 -13 521.249 23.3012   3
   8  -1 -15 968.041 36.4408   3
  -1   8 -15 995.964 36.1588   4
  -8  -1  15 925.894 40.1419   2
   8  -1 -15 1068.13 36.0716   4
  -1  -8  15 967.797 33.2897   2
   8  -1 -17 836.401 33.8042   3
   8  -1 -17 865.563 32.4874   4
   1   8  17 855.907 34.9907   3
  -1  -8  17 843.254 30.6537   2
  -8  -1  17 842.837 37.9375   2
   1   8  17 840.080 32.5890   4
   8   1  19 55.6935 11.0364   4
  -8  -1  19 52.9379 13.4701   2
   1   8  19 53.6741 10.4222   4
   8  -1 -19 66.2305 10.7473   4
   1   8  19 52.2655 11.9397   3
  -1  -8  19 61.1567 9.94517   2
  -8  -1  21 117.934 17.9328   2
   8   1  21 78.4850 13.2466   4
  -1  -8  21 110.794 12.4728   2
   1   8  21 109.051 14.8071   3
   1   8  21 122.595 14.2069   4
  -8  -1  23 228.457 22.8730   2
   8   1  23 214.958 19.7071   4
   1   8  23 217.610 19.4843   3
   1   8  23 229.040 19.6863   4
  -1  -8  23 198.653 16.4402   2
  -8  -1  25 105.854 21.3023   2
   8   1  25 130.859 17.0036   3
   1   8  25 102.123 16.6934   4
   8   1  27 13.7258 14.1454   3
  -2   8  26 145.928 18.5374   4
   2  -8  24 64.4498 17.3378   4
  -8   2  24 44.3296 16.4575   2
  -2   8  24 66.2154 13.6359   4
   8  -2  24 74.9042 14.9272   4
   8  -2  24 63.9225 12.0593   3
  -2   8  24 38.5685 14.1118   3
  -2   8  22 53.3100 12.0835   4
  -8   2  22 50.2560 16.2591   2
   2  -8  22 62.1392 9.67583   2
   2  -8  22 56.3314 15.9431   4
  -2   8  22 39.3508 12.9652   3
   8   2 -22 71.4623 13.2269   4
   8  -2  22 66.9042 13.6317   4
   8   2 -20 298.700 19.2094   4
   8  -2  20 279.356 19.7355   4
  -8   2  20 255.950 22.3963   2
   2  -8  20 285.932 14.8743   2
   2  -8  20 345.401 23.1054   4
   2   8 -20 315.303 19.7861   4
  -2   8  20 322.319 21.3740   3
  -2   8  20 300.896 18.6586   4
   8   2 -18 324.594 19.3933   3
  -2   8  18 380.259 22.1475   3
  -8   2  18 355.152 23.5118   2
   2  -8  18 363.169 15.4805   2
  -2   8  18 348.194 19.0224   4
   8   2 -18 327.557 20.2309   4
   8  -2  18 371.771 20.8302   4
   2   8 -18 348.461 20.1285   4
   2  -8  18 340.646 22.3795   4
   8   2 -16 775.460 31.4396   4
  -8   2  16 869.697 36.3106   2
   8  -2  16 861.529 32.3560   4
   2  -8  16 759.499 33.5296   4
   8   2 -16 786.340 31.1540   3
   2   8 -16 854.500 32.8238   4
   2  -8  16 787.014 25.9301   2
  -2   8  16 790.515 29.9854   4
  -2   8  14 1090.91 36.4769   4
   2  -8  14 1055.06 32.2591   2
  -8   2  14 1072.65 42.3885   2
   2  -8  14 1064.20 40.3352   4
   8  -2  14 1119.34 38.4217   4
   8   2 -14 1171.66 39.3028   4
   2   8 -14 1094.30 38.9782   4
   8   2 -14 1141.86 38.8607   3
  -2   8  12 1047.94 39.0298   3
   2   8 -12 1175.22 38.8536   4
   8   2 -12 1127.47 38.1144   3
  -2   8  12 1060.63 35.1031   4
   2  -8  12 1030.39 30.9313   2
  -8   2  12 1158.41 42.3022   2
   2  -8  12 1150.48 39.6299   4
  -8   2  10 1762.41 59.4176   2
   2   8 -10 1759.73 50.0083   3
   8   2 -10 1788.26 56.0481   4
   2   8 -10 1824.73 56.0056   4
   2  -8  10 1747.24 56.3097   4
  -8   2  10 1814.61 56.6093   1
   8   2 -10 1786.73 56.3828   2
  -2   8  10 1893.05 57.2807   3
  -8   2   8 3519.97 104.434   1
  -2   8   8 3834.24 104.654   3
   8   2  -8 3604.15 104.937   2
   8   2  -8 3680.03 104.657   4
   2   8  -8 3669.21 104.094   4
  -2   8   6 577.162 22.7256   3
   8   2  -6 631.142 25.1161   2
   8  -2   6 627.091 31.4310   2
  -8   2   6 618.762 24.6425   1
   2   8  -6 617.870 23.9156   4
   2   8  -6 608.471 19.5334   2
  -2   8   4 7962.00 219.069   3
   8   2  -4 8246.33 223.957   2
   2   8  -4 8122.60 219.434   2
   8  -2   4 7974.85 226.848   2
  -8   2   4 8144.28 222.432   1
   2  -8   4 8020.21 219.597   1
   8   2  -4 8323.43 222.886   1
  -2   8   2 3977.35 106.591   3
   2   8  -2 3835.80 110.089   1
   8  -2   2 3891.16 113.338   2
   8   2  -2 3869.25 112.832   1
   2  -8   2 3831.31 107.962   1
  -8   2   2 3640.93 113.791   2
  -2   8   2 3859.00 106.434   1
   2  -8   0 110.383 9.44293   1
   8   2   0 102.772 13.3107   1
   8  -2   0 98.3395 11.2027   1
   8  -2   0 109.204 10.7417   2
   2   8   0 103.902 11.2652   1
  -8   2   0 112.995 13.6485   2
  -2   8   0 90.1024 5.77589   3
  -2   8  -2 3777.46 101.140   4
  -8  -2   2 3408.80 114.168   2
  -2  -8   2 3696.66 109.254   1
  -8   2  -2 3837.56 115.249   2
   8  -2  -2 3644.19 106.343   2
  -8  -2   2 3805.87 112.046   1
   2   8   2 3603.48 108.740   1
   8  -2  -2 3652.14 103.785   1
  -2  -8   4 8227.48 221.381   1
  -8  -2   4 8206.42 225.581   2
  -2   8  -4 8161.77 214.015   4
  -8  -2   4 7777.76 223.198   1
   8  -2  -4 7468.63 217.791   2
   8   2   4 7802.15 231.099   2
   8  -2  -6 607.716 21.6499   4
  -2  -8   6 651.549 27.0869   1
  -8  -2   6 627.247 28.3337   1
  -8  -2   6 595.099 28.6535   2
  -2   8  -6 651.618 22.0978   4
   8  -2  -8 3793.95 102.490   4
  -2  -8   8 3532.82 105.051   2
  -8  -2   8 3655.59 110.072   2
  -2   8  -8 3707.30 102.900   4
  -2  -8   8 3733.48 108.353   1
  -8  -2   8 3462.18 108.837   1
  -2   8 -10 1893.70 55.2902   4
  -8  -2  10 1836.75 60.8292   1
  -8  -2  10 1870.07 61.3948   2
   8  -2 -10 1656.67 56.2989   3
  -2  -8  10 1816.03 55.3654   2
   8  -2 -10 1792.74 53.8121   4
   8  -2 -12 1146.77 37.4003   4
  -8  -2  12 1186.17 43.9598   1
  -2  -8  12 1157.88 38.2616   2
  -2   8 -12 1133.82 38.4283   4
  -8  -2  12 1177.33 44.2701   2
   8  -2 -12 1140.33 40.0965   3
  -2  -8  14 1042.99 35.8958   2
   8  -2 -14 1013.25 37.9410   3
  -8  -2  14 1047.49 41.9999   1
   8  -2 -14 1047.12 35.7721   4
  -2   8 -14 1088.17 37.2970   4
  -8  -2  14 1059.42 42.0725   2
   2   8  16 747.469 32.5326   3
   8  -2 -16 859.953 33.0596   3
  -8  -2  16 812.018 36.4339   2
  -2  -8  16 841.693 30.8544   2
   8  -2 -16 812.350 30.5039   4
  -2  -8  18 334.712 18.7217   2
   8  -2 -18 363.788 20.2656   3
   2   8  18 379.032 21.8618   3
   2   8  18 349.384 19.7077   4
  -8  -2  18 340.767 24.1357   2
  -8  -2  20 314.043 23.5760   2
   2   8  20 271.941 18.8193   4
  -2  -8  20 262.838 17.7924   2
   2   8  20 297.228 20.1056   3
  -8  -2  22 45.7552 15.4728   2
   2   8  22 47.0324 12.7849   3
   2   8  22 39.4842 12.4409   4
  -2  -8  22 52.2701 12.4923   2
  -8  -2  24 49.6942 16.4499   2
   2   8  24 79.0337 15.8013   3
   2   8  24 69.5791 14.3691   4
   8   2  24 68.2306 14.2426   3
   8   2  26 212.493 20.4463   3
  -8  -2  26 181.661 23.2189   2
  -8   3  25 72.2770 18.7225   2
  -3   8  25 66.0402 15.1695   4
   8  -3  25 59.8102 11.6788   3
  -8   3  23 55.3287 16.4882   2
   8   3 -23 73.6907 13.9853   4
   8  -3  23 44.2153 12.5404   4
  -3   8  23 80.9092 13.4752   4
   3  -8  23 91.7747 17.1871   4
   8  -3  23 49.0783 10.8165   3
  -8   3  21 60.2089 15.6097   2
   3  -8  21 66.2872 8.70334   2
  -3   8  21 60.2888 11.4729   4
   8  -3  21 75.9951 13.6983   4
  -3   8  21 74.7873 13.6996   3
   8   3 -21 76.8543 12.7945   4
   3  -8  21 66.0146 15.1462   4
   3   8 -21 63.8868 12.0584   4
   3  -8  19 32.6688 6.58666   2
   8   3 -19 17.2750 8.43572   3
  -8   3  19 19.2640 12.8596   2
  -3   8  19 10.5123 9.31076   3
  -3   8  19 19.2992 9.55111   4
   3  -8  19 25.3381 11.4433   4
   8   3 -19 40.7843 11.2305   4
   8  -3  19 32.7320 10.9529   4
   3   8 -19 16.3826 10.3557   4
   3   8 -17 741.613 30.7741   4
   8   3 -17 728.600 29.3283   3
  -8   3  17 787.144 35.0632   2
   3  -8  17 679.221 23.8547   2
   3  -8  17 655.830 31.7103   4
   8  -3  17 789.947 31.4678   4
   8   3 -17 714.872 30.0917   4
  -3   8  17 772.934 29.0843   4
  -3   8  15 516.228 20.9289   4
   8   3 -15 473.150 22.6456   4
   8  -3  15 396.252 20.8101   4
   3  -8  15 468.455 16.1546   2
   3   8 -15 473.239 22.6266   4
   8   3 -15 494.178 21.9582   3
   3  -8  15 488.875 24.2612   4
  -8   3  15 471.158 25.6949   2
   3   8 -13 873.164 27.2100   3
   3  -8  13 802.998 24.8912   2
   3  -8  13 815.713 32.7775   4
   8   3 -13 887.976 32.6499   4
   3   8 -13 878.660 32.5544   4
  -8   3  13 883.246 35.9527   2
  -3   8  13 893.775 29.6268   4
   8   3 -13 896.978 32.1215   3
   8  -3  13 887.336 31.5325   4
   3  -8  11 367.855 17.8832   4
  -8   3  11 344.847 20.3760   2
   3   8 -11 345.403 17.7359   4
   8  -3  11 315.666 26.7833   2
   3   8 -11 336.560 12.9495   3
   8   3 -11 349.518 17.5660   4
  -3   8  11 332.806 14.6893   4
  -3   8  11 331.957 18.3191   3
   3   8  -9 1259.23 42.7340   4
   8  -3   9 1222.52 52.3536   2
   8   3  -9 1250.20 42.6534   2
   8   3  -9 1320.09 43.1785   4
  -8   3   9 1307.20 42.2808   1
   3  -8   9 1241.10 41.7427   4
  -3   8   9 1395.93 43.6861   3
  -3   8   9 1267.87 38.1911   4
  -8   3   7 3305.54 96.3220   1
   3   8  -7 3370.09 92.8309   2
   8   3  -7 3342.02 98.1245   2
   8  -3   7 3283.87 104.498   2
   3   8  -7 3522.67 97.8817   4
   3  -8   7 3341.22 95.7057   4
  -3   8   7 3339.45 96.9115   3
  -8   3   5 1292.09 42.4540   1
   3   8  -5 1331.09 40.6741   2
   8  -3   5 1295.17 47.0525   2
   8   3  -5 1368.95 44.9907   2
  -8   3   5 1163.88 44.7273   2
  -3   8   5 1371.49 41.7849   3
   8   3  -5 1311.99 44.2519   1
   8   3  -3 712.244 29.3317   1
   3   8  -3 680.240 28.0228   2
   3  -8   3 731.532 24.2913   1
   3   8  -3 701.666 27.6387   1
  -8   3   3 721.170 29.7815   2
  -3   8   3 730.103 23.0213   1
   8  -3   3 700.068 28.7896   2
   8   3  -3 705.576 29.7886   2
  -3   8   3 713.072 24.5455   3
   3  -8   1 2112.85 61.0562   1
  -8   3   1 2104.71 68.3069   2
   8   3  -1 2266.39 69.3600   1
   3   8  -1 2239.25 66.5096   1
   8  -3   1 2157.91 65.4702   2
   3   8   1 2151.95 69.3469   1
   8  -3  -1 2157.33 64.0000   1
  -3   8  -1 2167.78 61.2308   2
  -8  -3   1 2165.86 78.7493   2
  -8   3  -1 2092.96 71.5272   2
   8   3   1 2194.40 72.8353   1
  -3  -8   1 2142.87 71.4048   1
  -3   8  -1 2254.66 60.4666   4
   8  -3  -1 2241.11 66.6252   2
  -3  -8   3 684.434 32.0033   1
   8  -3  -3 743.672 28.2024   2
  -8   3  -3 758.412 36.0192   2
  -8  -3   3 779.490 37.0306   2
   3   8   3 825.475 34.0093   1
  -3   8  -3 758.951 23.3809   2
  -8  -3   3 807.115 34.9372   1
  -3   8  -3 827.834 24.1396   4
  -8  -3   5 1282.04 48.5610   2
  -8  -3   5 1261.71 47.0789   1
   8  -3  -5 1273.03 37.8733   4
   8  -3  -5 1261.34 41.6001   2
  -3  -8   5 1304.67 45.7618   1
  -3   8  -5 1254.57 37.8377   4
  -8  -3   7 3335.72 105.033   1
  -3  -8   7 3515.34 104.654   1
  -3   8  -7 3440.91 97.4726   4
  -8  -3   7 3317.47 106.088   2
   8  -3  -7 3637.60 96.7920   4
   8  -3  -9 1177.36 37.9607   4
  -3  -8   9 1269.54 42.7782   2
  -3   8  -9 1260.10 39.4342   4
  -8  -3   9 1269.51 46.3243   1
  -3  -8   9 1312.92 45.7888   1
  -8  -3   9 1273.30 46.6441   2
   8  -3 -11 275.984 13.6263   4
  -8  -3  11 278.713 19.8638   1
  -3  -8  11 310.043 16.8944   2
  -8  -3  11 299.564 19.9849   2
  -3   8 -11 314.432 15.1410   4
   8  -3 -13 942.837 31.4991   4
  -8  -3  13 934.764 39.1642   1
  -8  -3  13 931.034 38.4285   2
  -3  -8  13 896.755 33.8813   2
   8  -3 -13 920.458 34.5201   3
   8  -3 -15 475.731 20.4571   4
   8  -3 -15 489.616 23.0331   3
  -8  -3  15 457.429 26.7273   1
  -8  -3  15 449.622 26.0455   2
  -3  -8  15 481.896 22.7108   2
  -3  -8  17 758.287 30.7367   2
   8  -3 -17 684.901 30.3445   3
  -8  -3  17 729.778 34.8514   2
   3   8  19 10.6044 10.2543   3
  -3  -8  19 25.7497 11.1537   2
   3   8  19 10.6425 9.59256   4
  -8  -3  19 17.1576 12.7417   2
   3   8  21 75.7545 13.2040   3
  -3  -8  21 74.4616 12.9971   2
   3   8  21 58.0272 12.2474   4
  -8  -3  21 64.0312 14.7986   2
  -3  -8  23 64.1364 13.8774   2
   3   8  23 76.8274 15.3269   3
   3   8  23 55.9826 14.0597   4
  -8  -3  23 72.6767 17.1574   2
   8   3  25 74.9980 15.9439   3
   3   8  25 91.1883 16.3620   4
  -8  -3  25 42.6584 17.4986   2
  -4   8  26 17.1558 13.7179   4
   4  -8  24 16.0917 15.0781   4
  -8   4  24 14.8961 15.7840   2
   8  -4  24 22.7261 13.7505   4
  -4   8  24 17.2379 12.6499   4
   8   4 -24 17.5541 11.9543   4
   8  -4  24 29.8012 9.83225   3
   8   4 -22 59.4696 14.1367   4
   8  -4  22 72.0934 14.4739   4
   4  -8  22 84.6474 9.32971   2
  -8   4  22 78.5721 16.8864   2
   8  -4  22 91.6614 11.3563   3
   4  -8  22 58.2790 15.5091   4
  -4   8  22 80.5106 13.2803   4
   4  -8  20 109.887 15.9125   4
  -4   8  20 94.0828 13.0698   4
   4  -8  20 97.9175 9.04265   2
   8   4 -20 101.932 13.9332   4
  -8   4  20 79.0153 15.7450   2
   8  -4  20 92.5647 13.4214   4
   8   4 -18 364.470 19.9029   3
  -8   4  18 377.833 24.6606   2
   8  -4  18 393.183 21.8952   4
  -4   8  18 352.525 19.7222   4
   4  -8  18 370.857 22.8777   4
  -4   8  18 359.706 22.8608   3
   8   4 -18 364.185 20.9832   4
  -8   4  16 66.8139 12.9073   2
   4  -8  16 65.0789 12.0975   4
  -4   8  16 69.7274 9.85498   4
   8  -4  16 66.8387 10.6344   4
   4   8 -16 50.2297 10.8268   4
   8   4 -16 50.7756 10.2405   4
   8   4 -16 62.0055 9.43340   3
  -8   4  14 125.566 14.3963   2
  -4   8  14 157.326 11.3295   4
   4  -8  14 152.076 13.4797   4
   4   8 -14 136.810 9.34229   3
   8   4 -14 166.969 13.1040   4
   8   4 -14 149.781 12.0956   3
   4   8 -14 140.768 13.0858   4
   8  -4  14 144.968 12.4881   4
  -4   8  12 976.162 35.7527   3
  -4   8  12 912.678 30.2688   4
   8  -4  12 990.713 32.8025   4
   4   8 -12 925.894 29.1076   3
   4  -8  12 975.138 34.1909   4
   8  -4  12 972.571 44.8613   2
   8   4 -12 923.089 34.2666   4
   4  -8  12 857.218 25.8648   3
   4   8 -12 872.568 33.6484   4
  -4   8  10 130.744 12.0279   3
   4   8 -10 153.778 12.3816   4
   8   4 -10 161.391 12.7730   4
   4  -8  10 176.499 11.9833   4
  -4   8  10 173.390 9.34002   4
   8  -4  10 140.278 17.9519   2
   8  -4  10 164.622 10.6792   4
   8   4 -10 158.602 11.7722   2
  -4   8   8 513.849 21.8607   3
   4   8  -8 508.539 22.3463   4
  -8   4   8 490.433 20.4579   1
   4   8  -8 496.098 18.4447   2
   8   4  -8 494.988 21.7787   2
   4  -8   8 503.526 20.1893   4
   8  -4   8 505.847 26.9437   2
  -4   8   8 528.588 17.3156   4
   8  -4   6 70.9863 11.1376   2
   4   8  -6 79.1723 7.74047   2
  -4   8   6 73.6978 8.23215   3
   8   4  -6 83.7585 10.2026   2
  -8   4   6 73.8507 8.57042   1
   4  -8   6 82.8057 7.63566   4
  -4   8   6 81.6275 4.80770   4
  -8   4   6 66.6936 10.4501   2
  -4   8   4 221.767 10.1196   1
  -8   4   4 264.908 13.6665   1
   4   8  -4 264.082 15.0917   2
   4  -8   4 251.380 8.66586   3
   8   4  -4 282.757 17.0186   1
  -4   8   4 255.588 8.11901   4
  -8   4   4 255.529 16.0641   2
   8  -4   4 278.953 15.7260   2
   8   4  -4 257.255 16.3552   2
   8   4  -2 2100.31 66.4813   2
   4  -8   2 2021.46 56.6675   1
   4   8  -2 2010.91 63.5272   1
   8   4  -2 2009.60 64.9755   1
  -8   4   2 1917.41 63.3590   2
  -4   8   2 1952.39 57.9738   2
   4  -8   2 1998.05 55.3850   3
   8  -4   2 1966.31 61.1202   2
   4   8  -2 1899.14 65.6799   2
  -4   8   0 400.489 14.8419   2
   8   4   0 377.911 24.1278   2
  -8   4   0 372.140 21.0546   2
  -4   8   0 359.814 11.4227   4
   4   8   0 423.308 21.4746   1
   8  -4   0 429.455 17.8957   2
   8  -4   0 426.431 16.8925   1
   4  -8   0 354.605 13.7619   3
   8   4   0 411.533 23.5601   1
  -4   8  -2 1991.73 54.3083   4
   4  -8  -2 2155.91 57.1521   3
  -8  -4   2 1959.15 68.1140   1
  -8  -4   2 1969.77 72.7356   2
   8   4   2 1825.00 67.1629   1
  -8   4  -2 1983.89 66.0997   2
   4   8   2 1804.76 65.1582   1
  -4   8  -2 1872.16 56.0128   2
   8  -4  -2 1973.74 55.6729   1
   8  -4  -2 1898.48 59.5938   2
  -4  -8   2 1925.39 66.2604   1
  -8  -4   4 281.638 22.2741   2
  -4   8  -4 226.001 9.70526   4
   8  -4  -4 261.968 13.5076   2
   8  -4  -4 245.762 9.83876   4
  -8  -4   4 204.003 18.1112   1
  -4  -8   4 257.883 18.3969   1
  -4   8  -4 246.087 10.9187   2
  -8   4  -4 259.026 21.5558   2
  -4   8  -6 70.1900 6.16109   4
  -8  -4   6 97.5974 14.2836   1
  -4  -8   6 87.6934 12.6837   1
   8  -4  -6 75.2642 5.63811   4
  -8  -4   6 66.5285 13.8336   2
  -4  -8   8 514.570 25.3195   2
  -8  -4   8 525.072 27.3661   2
  -8  -4   8 540.834 27.0779   1
   8  -4  -8 517.633 17.9273   4
   8  -4  -8 450.291 21.1078   3
  -4  -8   8 524.218 26.0657   1
  -4   8  -8 541.358 19.8298   4
  -8  -4  10 167.135 15.8648   2
  -4  -8  10 137.765 14.6068   1
   8  -4 -10 158.786 9.27895   4
  -4  -8  10 155.269 14.1878   2
  -8  -4  10 161.516 16.0781   1
  -8  -4  12 965.567 40.0856   1
  -4  -8  12 947.236 36.0232   2
   8  -4 -12 901.857 30.5717   4
  -8  -4  12 923.628 38.5438   2
  -4  -8  12 905.801 38.8130   1
  -4  -8  14 116.526 13.4504   2
  -8  -4  14 107.514 15.2053   2
  -8  -4  14 138.079 16.5062   1
   8  -4 -14 116.824 11.8894   3
  -8  -4  16 81.3847 15.7137   1
   8  -4 -16 80.1003 11.0749   3
  -4  -8  16 55.0070 11.9581   2
  -8  -4  16 48.7179 13.3483   2
  -4  -8  18 402.720 22.9522   2
  -8  -4  18 379.417 26.9672   1
  -8  -4  18 354.862 24.9152   2
   4   8  20 94.2393 13.6405   3
   4   8  20 97.9924 13.1380   4
  -8  -4  20 109.455 17.1861   2
  -4  -8  20 77.7819 14.6504   2
   4   8  22 64.3581 14.7418   3
   4   8  22 76.2005 14.0934   4
  -4  -8  22 65.9331 14.8410   2
   8   4  22 63.5158 14.1677   4
  -8  -4  22 85.4877 18.4686   2
   4   8  24 25.3978 14.2001   4
   4   8  24 3.75945 13.1777   3
  -8  -4  24 21.3019 15.7556   2
  -8  -4  26-16.4967 18.2962   2
  -5   8  25-3.33704 13.4115   4
   8  -5  23 42.4437 9.70501   3
  -8   5  23 55.4243 16.4202   2
  -5   8  23 47.6178 13.2961   4
   8  -5  23 42.5059 13.5851   4
  -5   8  23 28.4479 14.4866   2
   5  -8  23 21.1816 14.7538   4
   8   5 -23 30.7033 12.7616   4
  -5   8  21 29.6672 13.1391   4
  -8   5  21 40.4157 16.3004   2
   8  -5  21 59.3583 10.9738   3
   8   5 -21 53.1948 13.7528   4
   5  -8  21 74.0466 16.0310   4
   8  -5  21 56.8464 14.0773   4
   8   5 -19 9.93518 8.43347   3
  -8   5  19 19.8243 12.2150   2
   5  -8  19-1.00622 11.4546   4
  -5   8  19-3.03497 9.73095   4
   8   5 -19-7.11600 10.2228   4
   8  -5  19 7.88191 10.4987   4
   8   5 -17 581.247 25.8141   3
  -5   8  17 643.911 27.0014   4
   8  -5  17 644.110 28.1236   4
  -8   5  17 605.936 31.2580   2
   5  -8  17 675.247 30.0991   4
   5  -8  17 635.702 21.6430   3
   8   5 -17 649.567 28.5243   4
   8  -5  15 131.380 22.0387   2
   5  -8  15 144.064 14.4649   2
  -8   5  15 148.930 16.5048   2
   8   5 -15 161.864 14.3949   4
   8   5 -15 152.226 12.8211   3
  -5   8  15 176.334 12.9358   4
   8  -5  15 165.437 13.6565   4
   5   8 -15 150.699 10.8489   3
   5  -8  15 155.025 8.16366   3
   5  -8  15 143.853 14.5755   4
   5  -8  13 701.725 26.2183   2
   5   8 -13 693.299 25.0131   3
   8  -5  13 752.184 37.5986   2
   8   5 -13 764.630 30.0698   4
   8  -5  13 737.305 28.2465   4
   8   5 -13 754.875 28.0520   3
   5  -8  13 716.742 28.8863   4
  -5   8  13 712.979 25.9817   4
   5  -8  13 707.066 21.8241   3
  -5   8  11 274.778 12.6651   4
   8   5 -11 256.986 16.2755   4
   8  -5  11 291.502 21.6819   2
   8   5 -11 238.704 14.6007   2
   5  -8  11 247.916 14.8320   4
   5  -8  11 239.830 8.76161   3
   5  -8  11 250.098 10.8763   2
   8  -5  11 269.702 14.1920   4
   8  -5   9 132.390 15.2304   2
   8   5  -9 140.978 12.9244   4
  -8   5   9 113.113 10.0743   1
  -5   8   9 144.669 8.07497   4
   5   8  -9 108.553 11.6339   4
   5  -8   9 131.336 10.6143   4
   8  -5   9 137.573 9.64599   4
   8   5  -9 146.235 11.2031   2
   5   8  -9 148.291 9.48649   2
  -8   5   7 1322.23 44.9851   2
   5  -8   7 1338.56 39.9127   4
   8  -5   7 1311.21 44.4594   2
  -5   8   7 1320.44 36.4523   4
   8  -5   7 1188.62 38.6552   4
   5  -8   7 1191.26 35.3831   2
   8   5  -7 1299.49 43.4468   2
   5   8  -7 1271.28 40.4557   2
  -8   5   7 1369.14 40.0729   1
  -8   5   5 37.2088 8.58143   2
  -8   5   5 45.5153 6.99124   1
   8   5  -5 51.8947 9.70363   1
  -5   8   5 37.5549 2.68123   4
   5   8  -5 41.4569 8.22684   2
  -5   8   5 43.0199 6.83019   2
   5  -8   5 46.4989 5.56471   4
   8   5  -5 38.1381 8.98120   2
   8  -5   5 42.8899 8.30197   2
   8   5  -3 385.268 21.2801   1
   8   5  -3 352.894 20.5981   2
   5   8  -3 369.595 20.4257   1
   5   8  -3 362.405 20.4154   2
  -8   5   3 368.013 19.2841   2
   8  -5   3 374.440 17.7235   2
  -5   8   3 362.966 16.1850   2
   5  -8   3 400.910 13.3143   3
   5   8  -1 729.904 34.6250   2
   8   5  -1 760.746 33.7007   2
   8  -5   1 765.593 26.5946   2
   8   5  -1 800.825 33.4398   1
   5  -8   1 681.761 21.9274   1
   5  -8   1 711.356 22.9754   3
  -5   8   1 727.248 25.1005   2
  -8   5   1 726.042 30.0054   2
   5   8  -1 714.670 30.9362   1
   5   8   1 764.829 32.7026   1
   8  -5  -1 676.695 25.7201   2
   8   5   1 736.535 36.3998   2
   8  -5  -1 693.922 22.1167   1
   8   5   1 580.813 32.1662   1
  -8   5  -1 718.530 30.5070   2
   5  -8  -1 746.858 23.6351   3
  -5  -8   1 713.450 34.1913   1
  -5   8  -1 695.352 24.2110   2
  -5   8  -3 386.012 15.5006   2
  -8   5  -3 338.680 22.0348   2
  -8  -5   3 319.467 22.7929   1
   5  -8  -3 328.750 14.6128   3
  -5  -8   3 360.626 22.8645   1
   8  -5  -3 359.641 16.3629   2
   5   8   3 348.234 23.1487   1
  -8  -5   3 323.081 26.4805   2
   8  -5  -3 351.774 11.5266   4
   5  -8  -5 41.9976 6.51815   3
  -8  -5   5 22.6422 13.3163   2
   8  -5  -5 41.2077 3.77621   4
  -5  -8   5 42.7734 11.6617   1
  -5  -8   7 1290.90 50.3794   2
  -8  -5   7 1327.15 51.0708   2
  -8  -5   7 1253.04 49.5050   1
  -5  -8   7 1343.94 49.7269   1
   8  -5  -7 1359.24 43.7767   3
   8  -5  -7 1384.93 38.5867   4
   5  -8  -7 1216.39 42.1806   3
  -5  -8   9 116.417 15.5444   2
   8  -5  -9 139.200 11.1439   3
  -8  -5   9 170.459 16.9468   1
  -8  -5   9 102.249 15.2404   2
   8  -5  -9 122.097 7.72875   4
  -5  -8   9 114.466 15.0663   1
  -5  -8  11 308.380 19.6670   2
  -5  -8  11 265.592 20.7578   1
  -8  -5  11 283.188 20.6991   1
  -8  -5  11 245.682 19.4549   2
  -5  -8  13 712.483 34.5204   1
  -8  -5  13 702.564 35.2120   1
  -8  -5  13 712.408 33.8140   2
  -5  -8  13 714.919 31.9538   2
   8  -5 -15 155.715 14.1009   3
  -5  -8  15 159.222 17.1433   2
  -8  -5  15 157.705 17.4800   2
  -8  -5  15 145.997 18.8379   1
  -8  -5  17 625.342 32.7941   2
  -5  -8  17 633.270 30.6282   2
  -8  -5  17 637.631 34.5431   1
  -5  -8  19-5.15504 13.3552   2
  -8  -5  19 7.20087 14.4384   1
  -8  -5  19 3.82096 13.6858   2
  -5  -8  21 39.5229 15.0520   2
   8   5  21 60.6304 14.1923   4
   5   8  21 49.0606 14.3607   4
  -8  -5  21 71.2767 17.5996   2
  -8  -5  21 63.9268 19.5949   1
   5   8  21 68.8610 15.4386   3
  -8  -5  23 59.1592 19.0417   1
  -5  -8  23 72.8630 16.7523   2
   5   8  23 37.3077 14.8840   3
   5   8  23 47.3799 14.1179   4
  -8  -5  23 43.0185 16.8330   2
   8   5  23 57.5909 14.6550   4
  -8  -5  25 12.8433 16.8140   2
  -6   8  26 49.7662 15.8933   4
  -6   8  24 2.18020 12.3294   4
   8  -6  22 105.774 11.5077   3
  -6   8  22 100.679 17.8528   2
  -8   6  22 97.0382 18.1531   2
   6   8 -22 101.206 15.3767   4
  -6   8  22 105.063 15.2114   4
   6  -8  22 112.516 17.1213   4
   8   6 -22 119.664 15.9692   4
   8  -6  22 128.194 16.8309   4
  -6   8  20 154.040 17.8747   2
   6  -8  20 133.333 16.6744   4
  -8   6  20 134.238 18.1233   2
   8   6 -20 157.294 13.5716   3
  -6   8  20 150.775 15.3530   4
   8   6 -20 145.760 15.2273   4
   6  -8  20 163.560 10.4783   3
   8  -6  20 155.337 16.4349   4
   8  -6  20 159.294 12.3907   3
   8   6 -18 250.383 15.7042   3
  -8   6  18 237.811 20.4181   2
   6  -8  18 278.408 19.9372   4
   8  -6  18 262.516 18.3332   4
  -6   8  18 212.323 16.5900   4
   8  -6  18 223.584 24.3936   2
   6  -8  18 241.369 12.0167   3
   8   6 -18 261.918 18.7541   4
   8   6 -16 185.343 15.4971   4
   6   8 -16 178.911 11.8419   3
   8  -6  16 170.388 20.9151   2
  -8   6  16 163.703 17.0485   2
   6  -8  16 175.815 9.17088   3
   8  -6  16 202.069 15.1127   4
   6  -8  16 166.719 14.9362   4
  -6   8  16 171.550 14.1596   4
   8   6 -16 173.979 13.3133   3
   6  -8  16 187.734 16.3460   2
   8  -6  14 458.580 29.3134   2
   6  -8  14 509.621 22.7361   2
  -6   8  14 492.160 21.2897   4
   6   8 -14 504.795 20.3476   3
   8  -6  14 481.232 22.4229   4
   6  -8  14 511.404 17.0295   3
   8   6 -14 509.937 22.4236   3
   8   6 -14 496.263 23.9120   4
   6  -8  14 525.167 23.9037   4
   8  -6  12 1266.64 47.5621   2
   8  -6  12 1286.49 41.2193   4
  -6   8  12 1142.39 39.0431   4
   6  -8  12 1200.89 38.8305   2
   8   6 -12 1249.15 43.8050   4
  -6   8  12 1224.95 45.1556   2
   6  -8  12 1216.27 41.6347   4
   8  -6  10 606.313 21.7369   4
  -8   6  10 508.128 25.1411   2
   8  -6  10 540.517 25.5216   2
  -6   8  10 533.118 24.5567   2
   8   6 -10 545.725 22.7336   2
   6  -8  10 523.791 21.4144   4
   6  -8  10 517.810 18.5769   2
   8   6 -10 488.852 24.1091   4
  -6   8  10 519.217 19.0866   4
   6   8 -10 509.416 20.7139   2
  -8   6   8 1126.02 40.9146   2
   8  -6   8 1104.54 35.3677   4
   8   6  -8 1091.18 38.5427   2
   8  -6   8 1106.53 38.8898   2
  -6   8   8 1193.01 39.8608   2
  -6   8   8 1104.16 32.8555   4
   6  -8   8 1072.52 35.5062   4
  -8   6   8 1068.57 35.1036   1
   6  -8   8 1116.62 32.8971   2
   6   8  -8 1096.01 36.8909   2
  -8   6   6 383.273 20.0289   2
   8  -6   6 358.909 17.7948   2
   6  -8   6 378.518 15.4775   4
   6  -8   6 384.855 13.6767   2
  -6   8   6 388.891 18.6475   2
   6   8  -6 412.823 18.9386   2
  -8   6   6 364.923 15.2024   1
   8  -6   6 396.370 15.0806   4
   8   6  -6 360.708 19.4313   2
  -6   8   4 292.105 14.9054   2
   6  -8   4 285.360 11.3411   4
   6   8  -4 244.718 17.1439   1
   6   8  -4 293.026 18.0628   2
   8  -6   4 263.135 10.8329   4
  -8   6   4 286.519 16.4471   2
   8   6  -4 242.928 17.5008   1
   8  -6   4 279.631 14.2934   2
   8   6  -4 284.684 18.0158   2
   6  -8   2 2982.93 84.7534   3
  -6   8   2 3119.75 88.3515   2
   6   8  -2 3147.54 96.8714   2
   8   6  -2 2942.25 95.5771   2
   6   8  -2 3073.51 94.0710   1
   8  -6   2 3080.94 87.9197   2
  -8   6   2 3134.68 91.7375   2
  -6   8   0 95.7811 8.58136   2
   8  -6   0 59.1791 5.49434   1
   8  -6   0 78.9939 8.47004   2
   6   8   0 96.2969 17.9274   2
   8   6   0 109.563 16.9800   2
   6  -8   0 77.1355 6.66937   3
   6   8   0 95.7932 14.1087   1
  -8   6   0 58.2739 10.9960   2
   6  -8  -2 3178.46 89.5857   3
   8  -6  -2 3174.05 91.0845   2
  -6   8  -2 3124.26 91.1371   2
  -6  -8   2 3161.62 101.993   1
   6   8   2 3082.74 100.032   1
   8   6   2 3313.23 108.223   2
  -8   6  -2 3240.95 96.4951   2
   6  -8  -4 237.344 12.3055   3
  -6  -8   4 238.264 19.6857   1
  -8   6  -4 230.038 18.2837   2
  -8  -6   4 268.230 24.5026   2
  -6   8  -4 258.438 15.0051   2
   8  -6  -4 221.050 7.37856   4
   6   8   4 218.877 20.2990   1
   8  -6  -6 399.977 12.7948   4
   6  -8  -6 377.941 17.1971   3
   8  -6  -6 399.572 18.2909   3
  -8  -6   6 377.641 26.6084   2
  -6  -8   6 341.748 23.7899   1
   8  -6  -8 1152.99 38.6364   3
  -8  -6   8 1072.93 46.0444   2
  -6  -8   8 1017.75 44.0184   1
  -6  -8   8 1055.91 45.2447   2
  -8  -6   8 1018.22 44.5232   1
  -6  -8  10 480.588 27.7452   2
  -8  -6  10 478.330 28.0750   2
   8  -6 -10 528.726 22.7736   3
  -8  -6  10 536.429 29.1587   1
  -8  -6  12 1302.63 51.9253   1
  -8  -6  12 1272.98 50.6151   2
  -6  -8  12 1324.44 50.2023   2
  -6  -8  14 537.432 29.1460   2
  -8  -6  14 529.537 31.0272   1
  -8  -6  14 541.173 30.0351   2
  -6  -8  16 175.855 18.9854   2
  -8  -6  16 193.250 20.6037   1
  -8  -6  16 185.694 19.7058   2
  -6  -8  18 209.337 20.6126   2
  -8  -6  18 244.752 23.4835   1
  -8  -6  18 242.058 21.9153   2
  -8  -6  20 174.986 23.4598   1
  -8  -6  20 183.667 20.5287   2
  -6  -8  20 153.219 19.2598   2
  -6  -8  22 126.953 19.0201   2
  -8  -6  22 76.8871 20.8594   1
   6   8  22 124.441 17.6242   3
   8   6  22 152.673 18.0830   4
  -8  -6  22 100.859 19.8212   2
   6   8  22 81.5853 14.9247   4
  -8  -6  24 23.1969 16.8656   2
  -7   8  25 47.3893 17.3438   4
  -7   8  23 351.290 23.8645   4
   7  -8  23 365.906 25.0419   4
   8  -7  23 321.223 24.4378   4
   7   8 -23 313.828 22.6088   4
  -7   8  21 1.37245 13.1827   2
   7  -8  21 30.1691 12.4536   2
  -8   7  21 5.62010 13.9142   2
   7  -8  21-3.21539 12.4758   4
   8   7 -21 7.21152 11.0749   4
   8  -7  21 12.4576 7.86004   3
   8  -7  21 8.16038 12.0186   4
   7  -8  21 19.7034 7.26910   3
  -7   8  21 18.1254 11.8941   4
   7   8 -21 13.6485 11.8017   4
   7  -8  19 887.022 29.3781   3
   7   8 -19 825.518 36.8259   4
   8   7 -19 923.015 37.9793   4
   8  -7  19 912.382 30.7522   3
   8   7 -19 890.134 33.4785   3
   8  -7  19 908.945 37.0111   4
  -8   7  19 869.594 41.1630   2
   7  -8  19 937.842 38.0959   4
  -7   8  19 858.835 40.1326   2
  -7   8  19 898.229 36.2653   4
   8  -7  19 768.922 39.1508   2
   7   8 -19 855.288 32.2027   3
   8  -7  17 1061.78 45.5144   2
   8   7 -17 1090.19 42.5445   4
  -7   8  17 1041.45 39.8637   4
   7  -8  17 1120.53 42.2512   4
   7  -8  17 1163.90 34.8035   3
   8  -7  17 1116.12 41.5017   4
   8   7 -17 1089.96 38.7860   3
   7   8 -17 1121.28 38.1389   3
   8  -7  15 217.850 15.6051   4
   7  -8  15 221.076 16.7253   2
   8  -7  15 208.883 19.8418   2
   7  -8  15 205.354 15.8143   4
  -7   8  15 237.379 15.1223   4
   8   7 -15 221.652 16.4306   4
   8   7 -15 232.338 14.4714   3
   7   8 -15 220.485 13.4441   3
   7  -8  13 2434.29 73.0723   2
   7  -8  13 2343.81 73.7528   4
   7   8 -13 2457.35 72.0149   3
   8  -7  13 2351.15 76.9174   2
  -7   8  13 2434.62 71.9204   4
   8   7 -13 2421.66 76.3615   4
   8  -7  13 2435.69 73.6849   4
  -7   8  13 2519.52 78.9717   2
  -8   7  11 4994.96 143.305   2
   8   7 -11 4850.57 138.160   2
   7   8 -11 4992.18 137.156   2
  -7   8  11 5015.05 135.172   4
   8   7 -11 4786.36 140.966   4
   7  -8  11 4952.71 135.786   2
   7  -8  11 4655.30 137.191   4
   8  -7  11 4863.89 137.076   4
  -7   8  11 4902.73 142.327   2
   8  -7  11 4823.91 139.817   2
  -7   8   9 102.804 11.5003   2
   8   7  -9 110.059 10.6275   2
  -8   7   9 106.201 11.8425   2
   8  -7   9 108.663 10.2430   2
  -8   7   9 91.7935 8.36788   1
   7  -8   9 108.842 9.12420   4
   8  -7   9 111.315 9.32219   4
   7  -8   9 109.115 8.03253   2
   7   8  -9 111.618 10.1840   2
   7  -8   7 5014.43 132.753   2
  -8   7   7 4858.78 132.327   1
  -8   7   7 4866.42 139.733   2
  -7   8   7 4610.54 130.683   1
   8   7  -7 4931.16 138.731   2
   7  -8   7 4958.64 133.678   4
   8  -7   7 4912.22 133.406   4
   8  -7   7 4832.86 135.277   2
  -7   8   7 4836.82 138.685   2
   7   8  -7 4955.00 137.749   2
   7   8  -5 3759.17 111.669   2
  -7   8   5 3846.79 109.931   2
  -8   7   5 3664.38 110.826   2
   8  -7   5 3881.82 104.227   4
   7  -8   5 3897.92 104.410   4
   8   7  -5 3825.19 112.576   2
   7  -8   5 3672.99 104.473   2
   8  -7   5 3693.69 106.609   2
  -7   8   3 1744.85 54.3774   2
   8  -7   3 1754.72 48.1849   4
   8  -7   3 1723.98 51.8245   2
   7  -8   3 1668.10 48.1288   4
   7   8  -3 1788.89 59.9765   2
   7  -8   3 1664.63 50.0332   2
   8   7  -3 1766.07 60.1918   2
  -8   7   3 1652.51 55.3842   2
   8  -7   1 4460.99 116.730   4
   8  -7   1 4714.78 122.572   2
   8   7  -1 4744.00 135.138   2
   7   8  -1 4847.20 135.919   2
  -7   8   1 4664.40 124.936   2
  -8   7   1 4870.09 127.401   2
   7   8  -1 4392.76 130.738   1
   7   8   1 4953.26 154.154   2
  -8   7  -1 4891.50 141.119   2
  -7   8  -1 4951.33 138.707   2
   7   8   1 4949.64 146.855   1
   8   7   1 4913.30 152.509   2
   7  -8  -1 4864.71 135.502   3
   8  -7  -3 1617.42 51.0768   3
   8   7   3 1598.63 69.2988   2
  -7   8  -3 1680.39 54.0112   2
  -8   7  -3 1660.60 56.8135   2
   7   8   3 1720.19 62.5684   1
  -7  -8   3 1639.08 62.3598   1
   7  -8  -3 1686.61 50.8838   3
   7  -8  -5 3816.51 104.727   3
  -8   7  -5 3804.07 113.509   2
  -7   8  -5 3783.94 110.054   2
   8  -7  -5 3663.91 104.966   3
  -8  -7   5 3700.83 120.567   2
   8  -7  -7 5090.56 140.615   3
  -8  -7   7 4827.38 152.138   2
   7  -8  -7 5030.70 140.272   3
  -7  -8   7 4809.97 152.255   2
   8  -7  -9 110.037 10.2401   3
  -7  -8   9 94.1498 16.4231   2
  -8  -7   9 108.543 17.8104   2
   7  -8  -9 101.194 10.0608   3
  -8  -7  11 5002.35 152.825   2
   7  -8 -11 5001.40 144.739   3
  -7  -8  11 5062.92 152.960   2
   8  -7 -11 5243.92 145.422   3
  -8  -7  13 2377.82 82.3206   1
   8  -7 -13 2338.05 74.2303   3
  -7  -8  13 2328.60 80.4195   2
  -8  -7  13 2461.87 81.9103   2
  -7  -8  15 256.383 22.3126   2
  -8  -7  15 225.112 21.6986   2
  -8  -7  17 1083.68 48.0056   2
  -8  -7  17 1148.83 51.3176   1
  -7  -8  17 1164.24 48.7058   2
  -8  -7  19 863.208 44.6961   1
  -7  -8  19 956.688 43.4541   2
  -8  -7  19 876.019 42.6954   2
  -7  -8  21 37.6249 18.8424   1
  -7  -8  21 16.4360 15.8986   2
  -8  -7  21 24.5439 16.0180   2
  -8  -7  21 10.2717 17.7304   1
  -7  -8  23 339.803 28.1675   2
  -8  -7  23 325.639 27.7777   2
  -8   8  22 346.934 27.7589   2
   8  -8  22 382.449 25.3381   4
   8   8 -20 910.928 34.8298   3
   8   8 -20 960.258 39.7763   4
  -8   8  20 877.019 43.2599   2
   8  -8  20 995.714 40.4616   4
   8  -8  20 970.235 31.7564   3
   8  -8  18 161.057 10.0985   3
   8  -8  18 115.620 15.7768   2
   8  -8  18 134.901 15.7823   4
   8   8 -18 154.195 12.9605   3
   8   8 -18 162.012 15.9344   4
   8  -8  16 936.961 37.7260   2
   8  -8  16 931.924 36.7110   4
   8   8 -16 980.635 38.8789   4
   8   8 -16 963.352 34.4691   3
   8   8 -14 3307.14 93.4742   3
  -8   8  14 3076.61 100.102   2
   8   8 -14 3001.62 96.7021   4
   8  -8  14 3194.24 94.7602   4
   8  -8  14 3287.92 95.5602   2
   8  -8  12 929.102 32.5492   2
   8   8 -12 879.063 32.0340   2
   8  -8  12 838.761 31.8166   4
  -8   8  12 847.630 36.6579   2
   8  -8  10 4743.82 131.261   4
   8   8 -10 4728.57 133.177   2
  -8   8  10 4637.03 136.978   2
   8  -8  10 4618.80 130.806   2
   8  -8   8 7208.32 190.685   2
  -8   8   8 7095.34 196.905   2
   8  -8   8 6638.93 190.113   4
  -8   8   8 7117.31 188.306   1
   8   8  -8 6837.02 194.262   2
   8  -8   6 114.176 8.43631   2
  -8   8   6 71.8499 10.1827   2
   8  -8   6 107.099 7.59695   4
   8   8  -6 106.976 11.7053   2
   8   8  -4 3982.55 118.540   2
  -8   8   4 4007.78 115.055   2
   8  -8   4 3887.94 107.565   4
   8  -8   4 3994.09 110.135   2
  -8   8   2 11504.9 312.683   2
   8   8  -2 11359.5 319.718   2
   8  -8   2 11587.3 304.023   4
   8  -8   2 11192.7 307.988   2
   8   8   0 431.881 28.9496   2
  -8   8   0 411.547 20.9242   2
  -8   8  -2 11338.5 309.199   2
   8   8   2 11437.2 325.795   2
   8  -8  -2 11218.1 304.316   3
  -8   8  -4 4050.80 116.745   2
   8   8   4 3700.13 122.753   1
   8  -8  -4 3869.25 110.365   3
   8  -8  -6 110.554 9.83967   3
   8  -8  -8 7090.86 195.989   3
  -8  -8   8 7026.32 208.834   2
   8  -8 -10 4725.57 134.763   3
  -8  -8  10 4658.58 145.134   2
   8  -8 -12 924.941 36.0841   3
  -8  -8  12 1008.65 45.2378   2
  -8  -8  14 3213.41 105.836   2
  -8  -8  16 1041.17 45.7361   2
  -8  -8  16 831.851 44.6718   1
  -8  -8  18 153.692 22.5127   1
  -8  -8  18 157.993 21.5021   2
  -8  -8  20 980.281 46.7123   2
  -8  -8  20 974.061 49.4841   1
  -8  -8  22 405.141 30.8123   2
  -8  -8  22 456.216 35.0302   1
   9   0  -1 44.0260 10.4736   1
   0  -9   1 40.1209 9.48207   1
   9   0   1 44.6481 11.3306   2
   0   9   1 20.5783 7.05414   1
   0   9  -1 34.2695 6.40055   1
  -9   0  -1 45.5662 16.1819   2
   9   0  -1 28.8026 9.15114   2
   9   0   1 38.7584 11.5980   1
   9   0  -3 1175.43 39.8170   1
   0   9   3 1161.44 40.3870   1
   9   0   3 1181.29 46.4008   2
   0  -9   3 1139.96 40.5508   1
  -9   0   3 1190.30 43.7579   1
   9   0   5 245.872 20.6696   2
   0   9  -5 211.803 11.8469   4
   0  -9   5 218.165 14.7643   1
  -9   0   5 227.636 17.1467   1
   0  -9   7 3878.37 106.025   1
   0   9  -7 3515.16 101.991   4
   9   0   7 3584.03 118.227   2
  -9   0   7 3598.14 107.121   1
  -9   0   7 3750.34 109.964   2
   9   0  -7 3426.81 104.466   2
  -9   0   9 3274.18 95.8220   1
   0   9  -9 3114.95 90.5189   4
   0   9   9 2980.46 91.3293   3
   9   0  -9 3139.83 92.9771   2
   9   0  -9 3174.38 90.9607   4
  -9   0   9 3275.86 98.1111   2
  -9   0  11 106.604 13.6256   1
   0   9  11 103.375 10.5255   3
   9   0 -11 99.5784 9.74842   4
   0   9 -11 106.014 9.90556   4
   9   0 -11 105.507 10.5674   3
  -9   0  11 102.212 13.2635   2
   0   9  13 364.484 20.3930   3
   0  -9  13 386.133 15.3736   2
   0   9 -13 435.813 20.1859   4
  -9   0  13 490.323 25.2413   1
   9   0 -13 405.592 19.5191   4
  -9   0  13 477.581 25.9788   2
   9   0 -13 478.656 21.5219   3
   0  -9  15 3933.85 110.471   2
   9   0 -15 3928.72 115.958   3
   9   0 -15 3902.73 114.199   4
  -9   0  15 3917.77 119.952   1
  -9   0  15 3892.52 121.513   2
   0   9  15 4195.93 113.923   4
   0   9 -15 3914.05 115.290   4
   0   9  17 95.2783 11.7321   4
   0  -9  17 91.4225 8.96144   2
   0   9 -17 100.189 12.0911   4
   9   0 -17 96.9518 12.2042   4
   9   0  17 115.261 13.0178   4
   9   0 -17 99.1013 12.4410   3
  -9   0  17 106.655 16.3293   2
  -9   0  19 28.6410 13.8767   2
   0   9  19 36.6569 10.6076   4
   9   0 -19 39.2223 10.7629   3
   0  -9  19 49.1781 9.04419   2
   0   9 -19 30.2655 10.9135   4
   9   0  19 47.7708 11.7031   4
   0   9  19 32.7189 10.7432   3
   9   0 -19 47.1011 10.6882   4
   0   9  21 160.732 16.7523   3
   0  -9  21 158.038 13.3385   2
   0   9  21 166.938 15.6162   4
  -9   0  21 143.244 19.4557   2
   9   0  21 144.459 16.4624   4
   9   0 -21 148.303 14.5030   4
   9   0  23 15.5133 11.8684   4
   0   9  23 22.4902 11.3994   4
   0   9  23 10.7458 11.8254   3
  -9   0  23-4.58614 15.3927   2
   9   0  25 9.30976 12.7250   3
   0   9  25 23.2294 13.4443   4
  -9   0  25 13.3230 18.0276   2
  -1   9  24 52.7021 14.0575   4
   9  -1  24 58.1541 12.8512   3
  -9   1  24 58.3096 17.8854   2
  -1   9  22 12.7684 12.4752   3
  -9   1  22 7.28354 14.7862   2
  -1   9  22 10.4452 10.6760   4
   9  -1  22 9.36763 11.8511   4
   9   1 -22 8.04005 11.1961   4
  -1   9  20 573.886 26.5690   4
   1  -9  20 541.999 22.4391   2
  -9   1  20 541.545 32.4262   2
   1   9 -20 538.756 27.3015   4
  -1   9  20 578.444 29.4216   3
   9  -1  20 617.715 29.0693   4
   9   1 -20 586.554 27.2807   4
   9   1 -18 916.182 35.2407   4
   1  -9  18 822.886 29.0692   2
   9  -1  18 880.330 35.2181   4
   9   1 -18 878.431 34.8316   3
  -1   9  18 915.908 33.9008   4
   1   9 -18 821.953 34.4780   4
  -9   1  18 845.356 39.7140   2
   9   1 -16 1267.40 44.9405   3
   9  -1  16 1276.03 44.9489   4
   1   9 -16 1291.78 45.5800   4
   9   1 -16 1241.73 44.1847   4
   1  -9  16 1242.79 38.9411   2
  -1   9  16 1399.01 43.6132   4
  -9   1  16 1276.19 50.2575   2
  -9   1  14 2374.54 73.8530   1
  -1   9  14 2178.51 66.9707   4
   1   9 -14 2448.70 70.5219   4
  -9   1  14 2346.19 76.0302   2
   9   1 -14 2416.45 69.9208   4
   9   1 -14 2411.03 70.7488   3
  -1   9  12 2259.10 67.7273   3
  -9   1  12 2056.67 68.5009   1
   9   1 -12 2094.96 65.3659   4
   1   9 -12 2184.67 66.1285   4
   9   1 -12 2122.18 66.5028   3
  -9   1  12 2076.97 70.9817   2
   9   1 -10 4516.53 129.575   2
  -1   9  10 4592.74 129.417   3
   9  -1  10 4372.85 145.406   2
  -9   1  10 4628.06 131.364   1
   9   1 -10 4655.21 128.553   4
  -9   1  10 4430.83 134.161   2
   1   9 -10 4411.16 127.751   4
   9   1  -8 1417.82 47.3917   2
   9  -1   8 1347.29 58.1904   2
  -1   9   8 1594.96 47.1705   3
  -9   1   8 1382.38 48.3300   1
   9   1  -8 1386.73 46.1186   4
   1   9  -8 1443.39 45.7751   4
  -9   1   8 1369.39 50.7188   2
   9  -1   6 1286.55 50.9616   2
   9   1  -6 1316.05 42.9443   2
   1  -9   6 1321.96 41.9122   1
  -1   9   6 1224.68 39.5990   3
  -9   1   6 1333.15 44.0497   1
   1   9  -6 1323.26 40.3295   4
   1   9  -6 1148.97 34.1015   2
   9   1  -4 5699.97 159.805   1
   1  -9   4 5723.83 159.141   1
   9  -1   4 5568.10 166.378   2
   1   9  -4 5494.73 155.884   2
  -9   1   4 5544.66 162.341   1
  -1   9   4 5518.40 159.386   1
   1  -9   2 1244.45 42.3818   1
  -1   9   2 1278.52 40.5878   1
   9  -1   2 1338.19 47.5388   2
   1   9  -2 1368.15 41.6779   1
   9   1  -2 1273.22 44.3742   1
  -1   9   2 1208.15 38.4369   3
  -1   9   0 579.709 18.3249   3
  -1   9   0 509.701 19.6196   1
  -9   1   0 535.721 29.7734   2
   9   1   0 542.939 26.2606   1
   9  -1   0 567.793 25.5348   2
   9  -1   0 533.786 25.0276   1
   1   9   0 509.536 22.3305   1
  -1   9  -2 1249.50 36.1411   3
   1   9   2 1305.80 44.2286   1
  -9   1  -2 1348.58 54.6440   2
  -1  -9   2 1228.15 44.8418   1
   9  -1  -2 1292.77 42.5013   1
   9   1   2 1365.89 50.0599   2
   9  -1  -2 1265.71 44.1693   2
  -1   9  -4 5475.01 137.582   4
  -1  -9   4 5604.64 144.296   1
   9   1   4 5410.07 153.204   2
   1   9   4 5381.20 145.076   1
  -9  -1   4 5448.26 147.318   1
  -9  -1   4 4967.10 147.938   2
  -1   9  -4 4748.14 132.426   2
  -1   9  -4 4866.43 134.846   2
   9  -1  -4 5457.24 139.611   1
  -9  -1   6 1281.82 46.5002   1
   9   1   6 1284.01 55.3686   2
  -1  -9   6 1281.07 44.3969   1
  -9  -1   6 1333.33 48.4299   2
  -1   9  -6 1219.71 39.5273   4
  -9  -1   8 1452.46 51.7823   1
  -9  -1   8 1405.81 52.7509   2
   9  -1  -8 1553.23 46.7193   4
  -1  -9   8 1469.74 50.1941   1
  -1   9  -8 1469.39 45.9187   4
  -1   9 -10 4560.86 128.429   4
   9  -1 -10 4506.19 127.845   4
  -9  -1  10 4631.36 134.451   1
  -9  -1  10 4698.03 136.260   2
   9  -1 -12 2104.34 64.5724   4
  -1   9 -12 2272.16 66.2322   4
  -9  -1  12 2130.31 70.9292   1
  -1  -9  12 2084.12 62.9033   2
   9  -1 -12 2144.60 67.4000   3
  -9  -1  12 2201.23 72.4447   2
   9  -1 -14 2371.12 73.4027   3
  -1  -9  14 2421.53 69.5753   2
  -9  -1  14 2319.22 77.6458   1
   9  -1 -14 2301.09 70.9205   4
  -1   9 -14 2291.13 71.8523   4
  -9  -1  14 2409.95 78.9096   2
  -1   9 -16 1335.85 46.3294   4
   9  -1 -16 1399.58 47.6119   3
  -9  -1  16 1318.51 52.1900   2
   9  -1 -16 1341.72 45.4594   4
  -9  -1  16 1354.74 51.9736   1
  -1  -9  16 1318.11 43.6223   2
   1   9  18 827.129 35.6766   3
   9  -1 -18 820.162 34.3276   3
  -9  -1  18 903.201 40.6563   2
   1   9  18 805.877 32.7430   4
   9   1  18 876.521 34.8330   4
  -1  -9  18 864.842 31.7315   2
   9  -1 -18 823.506 32.7670   4
   1   9  20 550.832 28.8484   3
  -1  -9  20 572.510 25.6521   2
   9   1  20 620.467 29.2301   4
   1   9  20 562.305 27.1367   4
   9  -1 -20 580.627 26.6680   4
  -9  -1  20 574.991 33.5123   2
  -9  -1  22 13.3426 15.4692   2
   9   1  22 2.10522 11.2350   4
   1   9  22 20.1574 11.5468   4
   1   9  22 12.4164 11.6450   3
  -1  -9  22 23.8425 11.0397   2
   1   9  24 66.0344 14.6715   4
  -9  -1  24 32.1757 16.2503   2
   9   1  26 113.234 18.0301   3
  -2   9  25 84.1689 15.2440   4
   9  -2  25 108.744 13.8988   3
   2  -9  23 180.595 21.9726   4
  -2   9  23 158.934 16.2655   4
  -2   9  23 159.711 19.0310   3
  -9   2  23 189.304 22.5919   2
   9  -2  23 235.085 19.5090   4
   9   2 -23 221.115 18.0809   4
  -2   9  21 213.702 18.9805   3
   9   2 -21 201.816 16.7277   4
   9  -2  21 206.850 18.1537   4
   2  -9  21 218.144 21.1132   4
   2   9 -21 205.369 17.4107   4
  -9   2  21 186.222 21.5628   2
  -2   9  21 214.149 16.4704   4
   2  -9  21 193.568 12.1662   2
  -2   9  19 78.5875 13.6345   3
  -2   9  19 37.6216 10.1469   4
  -9   2  19 45.0417 14.6125   2
   9   2 -19 48.3300 10.9724   3
   2  -9  19 52.7007 14.6009   4
   9   2 -19 64.8375 12.0397   4
   9  -2  19 47.2471 11.4479   4
   2   9 -19 60.6224 11.6722   4
   2  -9  19 39.7128 6.78194   2
   9   2 -17 651.424 28.0739   3
   9   2 -17 661.059 28.4120   4
   2   9 -17 648.663 29.1554   4
   2  -9  17 644.207 31.3819   4
   2  -9  17 633.725 21.8830   2
  -9   2  17 663.417 33.1911   2
  -2   9  17 658.093 26.5649   4
   9  -2  17 658.723 28.5094   4
  -2   9  15 1734.35 51.4404   4
   9   2 -15 1652.39 53.4444   4
   2  -9  15 1500.16 45.3493   2
   9   2 -15 1613.55 53.3588   3
  -9   2  15 1640.60 58.5560   2
   2   9 -15 1687.46 53.9610   4
   9  -2  15 1686.32 53.3264   4
   2  -9  15 1552.19 55.5755   4
  -2   9  13 937.899 36.0604   3
  -9   2  13 882.173 36.3520   1
   9   2 -13 921.211 34.1259   4
   9   2 -13 914.161 34.4214   3
   2  -9  13 975.937 36.7158   4
  -2   9  13 944.453 31.6129   4
   2   9 -13 901.128 34.2353   4
  -9   2  13 883.634 38.5017   2
   9  -2  11 413.285 31.6243   2
  -2   9  11 417.001 20.4315   3
   9   2 -11 387.757 19.5173   4
  -9   2  11 428.569 21.8928   1
  -9   2  11 442.256 24.2552   2
   2   9 -11 410.597 19.7401   4
   9  -2   9 2335.23 84.1562   2
  -9   2   9 2517.72 73.8500   1
   9   2  -9 2366.21 72.7163   2
   2   9  -9 2432.65 71.7168   4
  -2   9   9 2397.56 72.1527   3
   9   2  -9 2402.04 72.0345   4
   2   9  -9 2400.88 64.9936   3
   9   2  -7 5099.97 143.800   2
   2   9  -7 4990.10 135.988   2
  -2   9   7 5352.25 142.026   3
  -9   2   7 4844.37 143.174   1
   2   9  -7 5078.37 141.941   4
   9  -2   7 5207.77 153.095   2
   9   2  -5 5103.26 143.077   1
   2   9  -5 5027.32 138.075   2
   9  -2   5 4687.58 148.019   2
   2  -9   5 4997.35 141.038   1
  -9   2   5 5088.81 143.903   1
   9   2  -5 5035.18 144.434   2
  -2   9   5 5278.31 140.397   3
   9   2  -3 441.933 23.8769   2
  -2   9   3 528.983 19.2238   3
  -2   9   3 513.636 19.7727   1
   9  -2   3 499.119 25.2676   2
  -9   2   3 518.137 25.9601   2
   9   2  -3 534.674 23.8607   1
   2  -9   3 523.016 20.8106   1
   2   9  -3 520.313 23.0744   2
   2  -9   1 3931.43 112.208   1
  -2   9   1 3997.75 109.091   3
   9   2  -1 3887.87 117.442   1
   2   9  -1 3999.88 114.033   1
  -9   2   1 3938.33 119.842   2
   9  -2   1 4096.05 116.129   1
   9  -2   1 3729.65 115.809   2
  -2   9   1 4025.31 109.089   1
  -2   9  -1 4006.86 107.128   3
   9  -2  -1 3982.82 112.486   1
   2   9   1 3830.27 114.510   1
  -9   2  -1 3869.68 121.815   2
  -2  -9   1 3878.97 117.444   1
   9   2   1 3841.12 119.063   1
   9  -2  -1 3952.24 114.448   2
  -2   9  -3 526.233 15.9611   2
  -9  -2   3 507.633 29.3480   2
   9   2   3 494.996 29.7632   2
  -9  -2   3 487.042 26.9657   1
  -2   9  -3 520.155 18.2806   4
   2   9   3 522.018 25.4733   1
  -9   2  -3 579.783 33.0688   2
  -2  -9   3 496.604 25.1306   1
   9  -2  -3 540.903 22.8858   2
   9  -2  -3 523.114 20.5675   1
  -9  -2   5 5134.62 149.621   1
   9   2   5 4922.28 157.542   2
  -9  -2   5 4980.06 151.249   2
  -2   9  -5 5213.70 139.655   4
  -2  -9   5 5005.06 146.679   1
  -9  -2   7 4999.15 145.355   2
  -9  -2   7 4921.40 143.098   1
  -2  -9   7 4971.82 141.496   1
  -2   9  -7 4767.92 134.658   4
   9   2   7 5224.48 158.676   2
   9  -2  -7 4846.91 134.736   4
  -9  -2   9 2387.45 76.7891   1
   9  -2  -9 2325.63 69.0850   4
  -2   9  -9 2361.55 69.4922   4
  -2  -9   9 2465.41 75.7484   1
  -9  -2   9 2360.10 77.8356   2
  -2   9 -11 406.107 18.1347   4
  -2  -9  11 383.832 18.3088   2
   9  -2 -11 369.260 19.0647   3
  -9  -2  11 390.374 23.3622   1
  -9  -2  11 385.428 23.4945   2
   9  -2 -11 346.120 16.5018   4
   9  -2 -13 960.188 35.8604   3
  -2  -9  13 943.642 33.7857   2
  -9  -2  13 931.032 39.9404   1
   9  -2 -13 985.324 33.3629   4
  -9  -2  13 933.518 40.1754   2
  -2   9 -13 929.861 34.1236   4
   9  -2 -15 1587.08 53.6605   3
  -9  -2  15 1581.06 58.9624   2
  -2  -9  15 1630.85 52.0135   2
  -9  -2  15 1566.71 58.8299   1
   9  -2 -15 1554.79 50.9003   4
  -2   9 -15 1639.69 52.5728   4
  -9  -2  17 626.857 34.0657   1
  -9  -2  17 688.324 35.0701   2
  -2  -9  17 701.170 28.4337   2
   9  -2 -17 681.634 27.6539   4
   9  -2 -17 698.737 29.9813   3
   2   9  19 44.7910 11.8732   3
  -2  -9  19 50.9156 11.4169   2
  -9  -2  19 62.2781 16.7905   1
  -9  -2  19 43.8495 15.9882   2
   2   9  19 66.3015 11.9977   4
   9  -2 -19 32.9831 10.7438   3
   9   2  19 73.3375 12.4687   4
   2   9  21 223.846 19.2947   3
   2   9  21 231.881 18.1431   4
   9   2  21 227.030 18.4441   4
  -2  -9  21 211.110 16.9971   2
  -9  -2  21 235.977 22.4967   2
   2   9  23 205.445 19.8289   3
   2   9  23 210.336 18.6884   4
   9   2  23 168.906 18.8643   4
  -9  -2  23 177.880 22.9544   2
   9   2  25 105.523 17.0669   3
   2   9  25 115.929 17.3960   4
  -9  -2  25 70.9841 20.4310   2
  -3   9  26 33.0039 13.8116   4
   9  -3  24 33.0473 10.6089   3
  -9   3  24 7.84095 15.8602   2
   9   3 -24 16.3153 12.3410   4
  -3   9  24 14.7856 12.3622   4
   9  -3  22 9.24719 11.2037   4
  -9   3  22 35.0794 15.5963   2
  -3   9  22 12.0272 9.78570   4
  -3   9  22 18.3204 12.7939   3
   3  -9  22 2.59557 14.4423   4
   9   3 -22 16.1276 11.5410   4
   3   9 -22 8.01774 11.5954   4
   3  -9  20 185.114 10.6541   2
   9   3 -20 218.404 16.2484   3
  -9   3  20 185.840 19.7318   2
  -3   9  20 200.576 15.4673   4
   3  -9  20 197.560 19.7525   4
   3   9 -20 191.978 16.4368   4
   9   3 -20 202.454 17.3237   4
   9  -3  20 158.906 16.1761   4
  -3   9  20 206.853 18.5748   3
   9   3 -18 471.327 22.3893   3
   3  -9  18 408.824 15.6008   2
   9   3 -18 433.989 22.7495   4
   3   9 -18 419.550 23.2502   4
   3  -9  18 448.501 25.4886   4
   9  -3  18 432.360 23.0647   4
  -9   3  18 432.687 26.8983   2
  -3   9  18 359.608 20.1142   4
   3  -9  16 36.4584 4.31589   2
  -9   3  16 44.0405 13.2826   2
  -3   9  16 61.5585 9.74173   4
   9   3 -16 54.8805 10.5266   4
   9   3 -16 42.8286 9.78786   3
   3  -9  16 50.5956 11.6413   4
   9  -3  16 39.6794 9.88278   4
   3   9 -16 43.2858 10.1552   4
   9   3 -14 281.112 17.2591   4
   3  -9  14 295.358 19.4999   4
  -3   9  14 313.828 19.1563   3
  -3   9  14 278.557 15.1305   4
   3   9 -14 314.892 18.1636   4
   9  -3  14 322.877 17.2385   4
  -9   3  14 322.820 21.5804   2
   9   3 -14 331.442 17.9670   3
  -9   3  12 2126.96 69.4120   2
  -3   9  12 2114.14 66.2857   3
   9  -3  12 2037.64 78.5064   2
   3   9 -12 2070.68 64.5734   4
   9   3 -12 1953.14 64.1585   4
  -3   9  12 2062.81 60.4474   4
  -9   3  12 1962.41 64.9796   1
   3  -9  12 2049.45 65.1393   4
   3   9 -12 2073.92 58.0136   3
  -9   3  10 1106.11 39.1833   1
   9  -3  10 1154.91 49.9457   2
   3   9 -10 1134.18 38.9962   4
   9   3 -10 1144.98 39.3227   2
   9   3 -10 1019.57 38.3720   4
   3   9 -10 1112.79 32.8624   3
   3  -9  10 1092.16 38.4928   4
  -3   9  10 1138.73 39.6190   3
  -3   9  10 1101.46 34.2734   4
   3   9  -8 99.7991 10.4827   4
  -9   3   8 87.9238 10.4982   1
   3   9  -8 88.3849 6.05230   2
   9  -3   8 93.9534 16.5352   2
  -3   9   8 84.2071 9.23237   3
   9   3  -8 90.1125 10.0814   2
   3   9  -6 910.737 29.1162   2
  -9   3   6 904.079 33.2663   1
   9  -3   6 866.846 37.7262   2
   9   3  -6 878.407 33.9948   2
  -3   9   6 925.529 31.7991   3
  -9   3   4 1778.15 56.9761   1
  -3   9   4 1863.93 53.3111   1
   3  -9   4 1752.11 53.8608   1
   9  -3   4 1737.45 59.4692   2
  -9   3   4 1818.37 60.6295   2
   3   9  -4 1794.94 55.9603   2
  -3   9   4 1746.11 53.9805   3
   9   3  -4 1868.10 58.9827   1
   9   3  -4 1810.84 59.4097   2
   3   9  -2 372.022 22.2315   2
   3  -9   2 358.185 15.6844   1
   9   3  -2 342.691 21.1984   2
   9   3  -2 354.918 20.5365   1
   9  -3   2 345.241 19.0314   2
  -3   9   2 366.373 13.1937   1
   3   9  -2 373.980 19.0294   1
  -3   9   2 371.142 14.6563   3
  -9   3   2 350.876 21.1216   2
  -3   9   0 926.827 27.4614   4
  -9   3   0 949.281 39.0273   2
   9  -3   0 943.093 33.2323   1
   3   9   0 865.511 35.1213   1
   9  -3   0 939.167 34.1180   2
   9   3   0 974.826 39.0410   1
   3   9   2 347.903 20.8545   1
  -3   9  -2 345.513 12.4040   2
  -9   3  -2 362.817 24.3784   2
   9  -3  -2 324.152 14.9435   1
  -9  -3   2 324.574 25.6144   2
   9   3   2 350.856 23.5367   1
  -3  -9   2 363.523 22.1168   1
  -3   9  -2 341.668 12.4682   4
   9  -3  -2 338.178 17.2665   2
   9  -3  -4 1879.00 55.4554   2
  -3  -9   4 1733.12 59.2436   1
  -3   9  -4 1647.18 48.1061   2
   3   9   4 1753.79 60.7286   1
  -3   9  -4 1782.98 49.9509   4
  -9  -3   4 1744.08 61.6617   1
  -9  -3   4 1746.60 63.9816   2
  -9  -3   6 897.441 38.1050   1
   9   3   6 983.083 49.5736   2
  -9  -3   6 908.787 40.0312   2
   9  -3  -6 920.427 29.2901   4
   9  -3  -6 883.893 32.9512   2
  -3   9  -6 897.929 29.1807   4
  -3  -9   6 993.346 37.8651   1
   9  -3  -8 75.9563 7.20459   4
  -9  -3   8 91.7969 13.6472   1
  -9  -3   8 83.0796 12.9650   2
  -3  -9   8 61.7694 12.0055   1
  -3   9  -8 84.7435 8.23163   4
  -3  -9  10 1165.94 44.7328   1
  -3  -9  10 1167.69 42.1656   2
   9  -3 -10 1230.95 37.3080   4
  -9  -3  10 1138.39 46.2929   2
  -3   9 -10 1170.67 38.1686   4
  -9  -3  10 1097.72 45.3106   1
  -3  -9  12 2047.46 68.0692   1
  -9  -3  12 2039.39 69.2203   2
  -3  -9  12 2080.66 64.1730   2
  -9  -3  12 2063.79 69.4632   1
  -3   9 -12 2043.91 61.2011   4
   9  -3 -12 1898.48 59.2922   4
   9  -3 -12 1898.01 63.0772   3
   9  -3 -14 306.811 18.0149   3
   9  -3 -14 309.026 15.3267   4
  -3  -9  14 297.895 18.0571   2
  -9  -3  14 301.053 22.4439   1
  -9  -3  14 263.225 21.1412   2
  -3  -9  16 44.3094 11.6491   2
   9  -3 -16 25.7761 9.58728   3
  -9  -3  16 62.6469 15.9486   1
  -9  -3  16 44.6490 13.9973   2
   9  -3 -16 44.8883 8.81233   4
   9  -3 -18 450.945 23.6992   3
  -3  -9  18 456.688 24.0871   2
  -9  -3  18 407.568 28.6826   1
   3   9  18 445.559 24.3954   3
  -9  -3  18 475.655 28.5431   2
  -3  -9  20 180.990 17.1603   2
   3   9  20 235.240 18.3706   3
  -9  -3  20 183.513 22.5084   1
   3   9  20 239.457 17.8583   4
  -9  -3  20 185.532 20.8273   2
   3   9  22 22.1174 12.3784   3
  -3  -9  22 6.69668 12.4592   2
   3   9  22 11.6634 11.7581   4
  -9  -3  22 39.1911 17.5610   1
  -9  -3  22 1.50985 14.9529   2
   3   9  24 23.1249 13.7381   4
  -9  -3  24 13.0787 16.9996   2
  -9  -3  24 37.4237 19.6203   1
  -9  -3  26 14.1605 17.6761   2
  -4   9  25 13.8328 13.6854   4
   4  -9  23 46.1453 15.8841   4
  -9   4  23 52.0784 16.6088   2
   9  -4  23 34.7071 10.2147   3
  -4   9  23 46.9010 13.2292   4
   9   4 -23 27.3705 12.6426   4
   4   9 -23 36.9784 13.7245   4
   9  -4  23 41.5928 13.5710   4
  -9   4  21 69.6109 17.1880   2
   9   4 -21 56.4466 11.3248   3
   4  -9  21 69.5944 7.55688   2
  -4   9  21 71.1401 12.7847   4
   9   4 -21 92.2926 14.0353   4
   9  -4  21 85.9462 14.3448   4
   4   9 -21 77.8454 13.6167   4
   4  -9  21 88.2389 16.7009   4
   4  -9  19 101.025 7.34108   2
  -9   4  19 106.416 16.1831   2
   4  -9  19 91.7141 15.0601   4
   4   9 -19 97.5101 14.2035   4
   9   4 -19 102.283 13.3596   4
  -4   9  19 83.2657 11.7509   4
   9  -4  19 100.892 13.4910   4
   9   4 -19 102.238 12.3451   3
   9   4 -17 473.484 23.5415   4
  -9   4  17 420.249 26.6803   2
   4  -9  17 405.912 14.8849   2
   9  -4  17 419.776 22.2611   4
  -4   9  17 473.564 21.2565   4
   4   9 -17 435.859 22.8157   4
   9   4 -17 454.948 22.1309   3
   4  -9  17 439.407 24.7172   4
  -9   4  15 280.261 21.0242   2
   4  -9  15 248.850 9.29882   2
   9   4 -15 269.761 17.4962   4
   9  -4  15 275.930 29.3754   2
   4  -9  15 252.100 17.7874   4
   9  -4  15 297.032 16.9957   4
   4   9 -15 294.078 17.9787   4
  -4   9  15 303.383 15.5954   4
   9   4 -15 295.275 17.1605   3
   4   9 -13 704.160 23.5800   3
  -4   9  13 756.129 25.8495   4
   9   4 -13 661.071 28.8112   4
   9  -4  13 685.003 39.2073   2
  -9   4  13 626.515 31.4832   2
   4   9 -13 701.366 29.1032   4
   4  -9  13 727.635 29.6948   4
   9  -4  13 700.042 27.4206   4
  -4   9  13 750.993 30.9224   3
   9   4 -13 682.061 28.0067   3
   4   9 -11 647.844 27.1075   4
   9  -4  11 641.306 34.9216   2
  -4   9  11 648.076 22.6335   4
  -4   9  11 615.111 27.5385   3
  -9   4  11 659.631 26.8753   1
   9   4 -11 640.205 26.4970   2
   9   4 -11 673.373 27.2843   4
   9  -4  11 644.000 24.7011   4
   4   9 -11 636.900 21.6878   3
   4  -9  11 646.478 26.3193   4
   4   9  -9 1327.48 39.1339   2
   9   4  -9 1339.56 44.5240   2
   9   4  -9 1366.93 45.3484   4
   4  -9   9 1282.97 42.2232   4
  -9   4   9 1247.98 42.7715   1
   9  -4   9 1299.39 50.4542   2
   4   9  -9 1219.15 43.7057   4
  -4   9   9 1259.45 38.3617   4
  -4   9   9 1312.58 44.1276   3
   9  -4   7 559.475 28.7262   2
  -9   4   7 604.160 24.2250   1
  -4   9   7 632.764 19.1218   4
  -9   4   7 542.419 26.8957   2
   4   9  -7 575.845 21.4975   2
   9   4  -7 600.480 25.9581   2
  -4   9   7 626.798 24.5214   3
  -9   4   5 156.960 12.2059   1
  -9   4   5 155.198 14.0263   2
   9   4  -5 140.175 12.9036   2
   9  -4   5 150.728 13.3360   2
  -4   9   5 141.585 9.28518   1
   9   4  -5 174.321 13.6760   1
   4   9  -5 153.840 11.2102   2
  -4   9   5 180.165 10.9893   3
   4   9  -3 46.0127 9.77632   1
   4   9  -3 41.2550 10.7540   2
   4  -9   3 63.0626 6.84611   1
   9   4  -3 45.7961 10.6470   2
  -9   4   3 68.8093 11.2908   2
   9   4  -3 40.6225 10.5626   1
   9  -4   3 41.9063 8.41990   2
  -4   9   3 43.0528 3.44042   1
  -9   4   1 600.799 28.8920   2
   4  -9   1 634.053 22.3304   1
  -4   9   1 661.615 18.8046   4
   9   4  -1 705.076 31.0156   1
   4   9  -1 671.062 28.4684   1
   9  -4   1 604.784 25.9099   2
   9   4  -1 678.999 31.7318   2
   9  -4   1 646.907 26.0133   1
  -4   9   1 648.073 22.3762   2
   9  -4  -1 632.713 25.2734   2
  -4   9  -1 630.190 21.5811   2
  -9  -4   1 630.282 38.8386   2
  -9   4  -1 637.742 30.5429   2
   4   9   1 635.855 29.6662   1
   9  -4  -1 642.927 22.8713   1
  -4   9  -1 667.743 19.4536   4
  -4  -9   1 600.441 31.0769   1
   9   4   1 623.866 31.9381   1
   4   9   3 49.3710 12.4083   1
  -9  -4   3 61.5138 14.2590   1
  -4  -9   3 19.4555 12.1400   1
  -9   4  -3 34.2591 13.8318   2
   9  -4  -3 42.6221 7.21313   2
  -4   9  -3 37.2156 5.18416   2
   9   4   3 36.2731 14.0636   1
  -4   9  -3 37.8054 4.50695   4
  -9  -4   3 59.7612 16.7086   2
  -9  -4   5 167.377 17.9953   1
   9  -4  -5 159.938 8.17519   4
   9  -4  -5 164.184 11.8370   2
  -9  -4   5 198.972 19.5003   2
  -4  -9   5 163.455 16.4563   1
  -4   9  -5 164.710 8.54316   4
   9  -4  -7 560.230 18.9327   4
  -9  -4   7 470.762 27.4945   1
  -9  -4   7 561.303 30.2310   2
  -4  -9   7 571.506 28.1943   1
  -4   9  -7 554.433 19.9971   4
  -4  -9   9 1281.94 48.0807   2
  -4  -9   9 1301.18 48.7508   1
  -9  -4   9 1244.28 49.2363   1
  -9  -4   9 1350.19 50.9202   2
  -4   9  -9 1266.41 40.0883   4
   9  -4  -9 1263.45 38.7110   4
  -9  -4  11 630.398 32.4353   1
   9  -4 -11 694.230 24.1486   4
  -4  -9  11 655.231 30.0625   2
  -9  -4  11 668.651 33.3264   2
  -4  -9  11 669.330 32.3573   1
  -4  -9  13 739.996 31.5764   2
   9  -4 -13 684.847 25.3786   4
  -4  -9  13 709.255 34.5431   1
  -9  -4  13 735.035 34.7346   2
  -9  -4  13 681.621 34.6191   1
   9  -4 -15 318.716 19.0074   3
  -4  -9  15 294.779 22.2612   1
  -4  -9  15 279.920 20.3451   2
  -9  -4  15 298.496 22.8841   2
  -9  -4  15 259.404 22.8862   1
  -9  -4  17 470.395 30.2726   1
  -9  -4  17 442.928 28.5699   2
  -4  -9  17 465.895 25.7358   2
   9  -4 -17 470.664 24.3980   3
   4   9  19 97.8433 14.4484   3
  -4  -9  19 119.052 15.8084   2
  -9  -4  19 101.934 18.9775   1
  -9  -4  19 108.760 18.6527   2
  -4  -9  21 53.3346 15.2530   2
   4   9  21 80.8856 14.4789   3
  -9  -4  21 98.0652 19.6493   1
   4   9  21 64.9646 14.4338   4
  -9  -4  21 82.8169 18.1860   2
   4   9  23 52.7332 14.7818   3
  -9  -4  23 35.8697 18.3186   1
   4   9  23 44.5674 13.7525   4
  -9  -4  23 22.3853 16.8399   2
  -9  -4  25 10.3741 17.4789   2
  -5   9  26 45.1872 15.6010   4
  -5   9  24 12.4173 12.4803   4
  -9   5  22 40.3447 16.0406   2
   9   5 -22 52.4032 13.7344   4
   9  -5  22 23.9633 13.1750   4
   5  -9  22 52.5815 15.1214   4
  -5   9  22 46.7761 12.9754   4
   9  -5  22 48.4035 10.2534   3
   9   5 -20 171.892 16.6264   4
   5  -9  20 150.199 17.8765   4
  -9   5  20 148.069 18.8264   2
   5  -9  20 142.579 8.73995   2
   9   5 -20 148.294 14.0850   3
  -5   9  20 153.273 15.0083   4
   9  -5  20 162.348 15.8999   4
  -9   5  18 284.106 22.4735   2
  -5   9  18 271.177 17.4682   4
   9  -5  18 256.143 28.0262   2
   9   5 -18 276.802 18.9504   4
   5  -9  18 289.916 20.7501   4
   5  -9  18 248.385 11.0000   2
   9  -5  18 302.520 18.9817   4
   9   5 -18 272.040 17.3804   3
   5  -9  16 222.025 16.8383   4
   5   9 -16 201.636 16.1136   4
   9  -5  16 205.923 24.9464   2
   5   9 -16 229.132 12.2665   3
   9  -5  16 194.246 15.0492   4
   5  -9  16 188.999 8.41212   2
  -9   5  16 246.963 19.6692   2
  -5   9  16 224.764 14.5792   4
   9   5 -16 212.347 15.2050   3
   9   5 -16 221.671 16.4442   4
   5   9 -14 287.898 13.8845   3
   9  -5  14 316.166 17.5241   4
  -5   9  14 294.429 15.3659   4
   9  -5  14 313.864 26.6761   2
   5  -9  14 314.099 18.8309   4
   5   9 -14 306.010 18.3447   4
   9   5 -14 294.610 16.9815   3
   9   5 -14 345.896 19.3995   4
   9   5 -12 1507.48 52.0812   4
   5  -9  12 1594.74 51.4194   4
   9  -5  12 1508.62 58.9823   2
   5   9 -12 1559.73 46.6744   3
   9   5 -12 1546.25 51.0188   2
   5   9 -12 1528.56 52.2361   4
  -5   9  12 1531.21 47.2935   4
   9  -5  12 1565.73 49.4507   4
   9   5 -10 794.428 31.3975   4
   9   5 -10 779.321 30.1039   2
   9  -5  10 742.452 35.2554   2
   5   9 -10 831.132 31.6780   4
   5   9 -10 774.852 26.2705   2
  -9   5  10 786.314 29.0979   1
   9  -5  10 724.210 27.2431   4
   5  -9  10 773.383 28.8967   4
  -5   9  10 772.572 25.3470   4
   5   9  -8 596.349 22.3234   2
   9   5  -8 577.494 25.4894   2
  -5   9   8 614.658 19.5000   4
   9  -5   8 584.422 28.1480   2
   5  -9   8 577.195 22.8185   4
   5   9  -8 604.340 26.3862   4
  -9   5   8 638.658 23.9469   1
  -9   5   8 611.153 27.7907   2
   5  -9   6 1592.35 45.7017   3
   5  -9   6 1775.95 50.7549   4
  -9   5   6 1723.61 57.3221   2
  -5   9   6 1666.73 46.2213   4
   5   9  -6 1751.82 52.8663   2
   9   5  -6 1745.37 56.1629   2
   9  -5   6 1770.08 56.0679   2
  -9   5   6 1819.80 52.3715   1
   5  -9   4 1283.29 36.9361   3
   9   5  -4 1340.12 47.4848   2
   5   9  -4 1338.34 45.4658   2
   9  -5   4 1336.64 44.4124   2
  -5   9   4 1330.87 42.1195   2
   9   5  -4 1318.68 47.0902   1
  -9   5   4 1234.58 46.1194   2
   5   9  -4 1275.50 45.5941   1
   5  -9   2 965.069 29.5270   1
   5  -9   2 939.535 28.7688   3
  -5   9   2 940.144 31.4711   2
   9   5  -2 976.929 39.7828   2
  -9   5   2 909.902 36.7376   2
   9   5  -2 967.277 38.9497   1
   5   9  -2 945.796 39.9294   2
   5   9  -2 983.917 37.5158   1
   9  -5   2 947.095 34.2845   2
  -5   9   0 2473.57 73.6277   2
   5   9   0 2600.69 81.8214   1
   9   5   0 2500.36 85.6584   2
  -9   5   0 2549.65 81.3651   2
   9  -5   0 2596.53 76.5415   2
   9   5   0 2704.80 84.6453   1
   9  -5   0 2621.34 73.8002   1
   5  -9   0 2552.97 72.2702   3
   5  -9  -2 937.438 31.3067   3
   9   5   2 1080.65 44.1931   1
   9  -5  -2 999.348 34.4469   2
  -9   5  -2 886.420 39.8323   2
   9   5   2 923.911 45.0382   2
   5   9   2 1036.86 41.4609   1
  -5   9  -2 980.961 31.6679   2
   9  -5  -2 1023.00 29.6560   1
  -5  -9   2 978.570 42.2990   1
   5  -9  -4 1202.35 40.1644   3
  -9  -5   4 1349.28 55.7141   2
   9  -5  -4 1309.76 36.9260   4
   9  -5  -4 1317.16 42.9047   2
  -9  -5   4 1396.25 52.7365   1
   5   9   4 1261.14 50.7763   1
  -9   5  -4 1120.53 50.2704   2
  -5   9  -4 1298.76 40.3458   2
  -5  -9   4 1377.54 51.0512   1
  -9  -5   6 1789.19 66.5566   2
   9  -5  -6 1773.48 49.9737   4
  -5  -9   6 1724.17 62.5993   1
  -9  -5   6 1789.31 64.4600   1
  -9  -5   8 668.883 33.7148   2
  -9  -5   8 694.408 33.3903   1
  -5  -9   8 641.137 31.6996   1
   9  -5  -8 625.690 21.1214   4
   9  -5  -8 683.633 26.6216   3
  -5  -9  10 786.122 36.9058   1
  -5  -9  10 856.529 37.1059   2
  -9  -5  10 844.171 38.7640   2
  -9  -5  10 875.290 38.7930   1
   9  -5 -10 868.970 26.9570   4
  -5  -9  12 1579.23 59.3731   1
  -5  -9  12 1668.94 58.2595   2
  -9  -5  12 1580.56 60.1892   1
   9  -5 -12 1563.56 48.1773   4
  -9  -5  12 1665.06 60.5158   2
  -9  -5  14 281.129 22.6705   2
  -5  -9  14 259.707 21.7641   1
  -5  -9  14 286.677 21.2797   2
  -9  -5  14 295.521 23.4510   1
  -5  -9  16 228.193 21.9053   1
  -9  -5  16 234.274 22.6877   1
  -9  -5  16 233.105 21.4815   2
   9  -5 -16 235.253 16.8850   3
  -5  -9  16 258.315 21.3422   2
  -9  -5  18 284.603 26.3891   1
  -5  -9  18 298.901 25.4621   1
  -5  -9  18 345.781 24.0256   2
  -9  -5  18 323.833 25.4509   2
  -5  -9  20 164.007 19.4879   2
  -5  -9  20 125.053 20.4503   1
  -9  -5  20 163.491 20.6986   2
  -9  -5  20 163.032 22.1545   1
  -9  -5  22 58.0685 20.0920   1
   5   9  22 42.1182 14.6843   3
  -5  -9  22 36.3546 16.9026   2
  -9  -5  22 37.3970 16.8475   2
   5   9  22 36.9568 13.8993   4
   9   5  22 71.3079 15.4484   4
  -9  -5  24 20.1066 17.2852   2
  -6   9  25 35.0591 14.7147   4
   9  -6  23 12.1919 12.9788   4
   9   6 -23 13.7583 12.2041   4
   6  -9  23 15.1419 14.1813   4
  -6   9  23 4.04629 11.9176   4
   9   6 -21 34.5863 12.5585   4
   9   6 -21 25.3923 9.83939   3
   9  -6  21 28.7149 12.4234   4
  -9   6  21 38.1272 15.1936   2
  -6   9  21 24.1733 12.0928   4
   6  -9  21 18.2064 13.6166   4
  -6   9  21 16.2468 13.7559   2
   9  -6  21 24.4556 16.7292   2
   9  -6  21 18.9497 8.82799   3
   9   6 -19 30.2905 9.72739   3
  -9   6  19 51.6069 15.1342   2
  -6   9  19 38.3553 11.3815   4
   9   6 -19 32.8112 11.0102   4
   6  -9  19 45.9665 13.4554   4
   9  -6  19 16.0676 10.8288   4
   9  -6  17 455.329 23.2712   4
  -6   9  17 480.709 22.5683   4
   6   9 -17 431.917 19.1100   3
  -9   6  17 477.837 28.1543   2
   9  -6  17 437.610 30.0469   2
   9   6 -17 443.414 21.9840   3
   6  -9  17 434.671 15.4669   3
   9   6 -17 440.080 24.2377   4
   6  -9  17 481.267 25.2532   4
   6   9 -15 131.862 9.88209   3
   9  -6  15 108.189 18.1551   2
   9  -6  15 131.034 12.2809   4
  -6   9  15 158.417 12.3255   4
   9   6 -15 136.023 13.7795   4
   6  -9  15 123.938 13.3011   4
   9   6 -15 97.8977 11.4952   3
   6  -9  15 119.477 6.22931   3
   6  -9  13 521.818 16.5153   3
   9  -6  13 598.399 31.0193   2
   6  -9  13 530.421 24.7361   4
  -6   9  13 568.983 21.8876   4
   9   6 -13 583.569 26.3343   4
   9  -6  13 560.874 23.5864   4
   6   9 -13 543.720 21.2342   3
   6  -9  11 469.310 21.6129   4
  -6   9  11 503.093 19.0282   4
  -9   6  11 417.072 24.9471   2
  -9   6  11 497.897 21.4578   1
   9  -6  11 547.887 21.8532   4
   9   6 -11 502.236 22.4542   2
   9  -6  11 479.351 26.9283   2
   6   9 -11 469.012 19.8622   2
  -6   9  11 498.561 24.6540   2
   9   6 -11 524.756 24.5888   4
   6   9 -11 449.516 23.4937   4
   9  -6   9 641.326 28.1060   2
   9   6  -9 611.975 26.2937   2
   6   9  -9 602.044 23.5745   2
  -9   6   9 600.360 23.7591   1
   6  -9   9 614.437 24.3284   4
   6   9  -9 627.888 27.5838   4
  -6   9   9 621.486 26.9257   2
  -9   6   9 611.166 28.5381   2
  -6   9   9 637.680 20.8003   4
   9  -6   9 669.145 23.4435   4
  -9   6   7 1127.80 42.4867   2
   9  -6   7 1260.42 36.3330   4
  -9   6   7 1119.59 36.9790   1
   6  -9   7 1168.71 36.8753   4
   9  -6   7 1141.50 40.1190   2
  -6   9   7 1114.24 39.9802   2
  -6   9   7 1109.69 32.7038   4
   6   9  -7 1147.40 38.8023   2
   9   6  -7 1178.50 41.6577   2
  -9   6   5 84.9515 12.1270   2
  -6   9   5 82.5602 9.36236   2
   6   9  -5 77.2803 11.7896   2
   9   6  -5 94.5816 13.0828   1
   6  -9   5 68.6371 7.41898   4
   6  -9   5 75.7840 5.43836   3
   9   6  -5 85.9885 12.1862   2
   9  -6   5 82.9511 10.4177   2
   9  -6   5 75.3533 6.42299   4
   6   9  -3 43.8557 11.2782   1
   9   6  -3 35.5065 11.4995   1
   9  -6   3 29.5713 7.07029   2
  -6   9   3 26.6168 6.52433   2
   9   6  -3 34.9539 10.5680   2
   6   9  -3 14.1681 10.9873   2
  -9   6   3 36.2687 9.47843   2
   6  -9   3 32.0185 4.43152   3
   6  -9   1 1247.45 35.4273   3
   9  -6   1 1179.20 38.8563   2
  -6   9   1 1220.13 38.2875   2
   9   6  -1 1186.55 47.6248   2
   6  -9   1 1014.30 32.7025   1
  -9   6   1 1195.90 43.2248   2
   9  -6   1 1190.04 37.0771   1
   6   9  -1 1276.66 45.2452   1
   6   9  -1 1177.97 48.5126   2
   9   6  -1 1139.61 45.7045   1
   6  -9  -1 1300.67 38.7452   3
   9  -6  -1 1204.99 40.7536   2
   6   9   1 1354.37 49.5369   1
   9   6   1 1242.28 52.9197   2
  -9   6  -1 1274.30 46.8932   2
   9  -6  -1 1189.01 35.4582   1
  -6   9  -1 1280.16 40.1996   2
  -6  -9   3 29.0999 13.7149   1
   6   9   3 36.3005 14.1875   1
   6  -9  -3 42.1832 6.32556   3
   9   6   3 37.7582 17.0480   2
  -9  -6   3 27.1298 14.8048   1
  -9   6  -3 21.4147 11.4906   2
  -6   9  -3 28.0908 7.02616   2
   9  -6  -3 27.4964 2.60051   4
   9  -6  -3 35.1554 6.88696   2
   9  -6  -5 66.1425 4.36999   4
   6  -9  -5 84.6622 8.77292   3
  -9  -6   5 69.9007 16.4181   1
  -6   9  -5 77.6381 10.8529   2
  -9  -6   5 58.9244 17.2815   2
  -6  -9   5 104.121 16.1003   1
   6   9   5 78.3340 17.3901   1
   9  -6  -5 88.5024 9.12505   3
   6  -9  -7 1216.66 39.3557   3
  -9  -6   7 1235.95 49.3375   1
  -9  -6   7 1160.13 50.6040   2
  -6  -9   7 1179.39 47.8152   1
   9  -6  -7 1245.20 40.5378   3
   9  -6  -7 1101.05 33.5131   4
   9  -6  -9 626.634 25.9557   3
  -6  -9   9 557.832 33.6175   2
  -6  -9   9 641.663 32.7943   1
  -9  -6   9 608.072 33.6320   2
  -9  -6   9 622.508 33.1630   1
   9  -6 -11 506.589 23.5416   3
  -6  -9  11 541.338 30.4185   1
  -6  -9  11 455.993 29.0664   2
  -9  -6  11 477.179 30.0967   2
  -9  -6  11 506.526 30.7799   1
  -6  -9  13 626.358 32.7841   2
  -9  -6  13 588.102 33.2597   2
  -6  -9  13 568.584 32.8537   1
  -9  -6  13 559.736 33.1253   1
  -9  -6  15 121.505 19.4380   2
  -9  -6  15 158.885 19.5021   1
  -6  -9  15 129.768 17.8227   2
  -6  -9  15 133.938 18.8118   1
  -9  -6  17 431.704 29.8045   2
  -6  -9  17 537.895 30.9186   2
  -9  -6  17 492.612 32.6327   1
  -6  -9  19 22.9860 15.4991   2
  -9  -6  19 34.2285 16.8205   1
  -9  -6  19 21.6832 15.7695   2
  -9  -6  21 42.9142 17.1396   2
  -6  -9  21 34.6195 16.8038   2
  -9  -6  21 41.7499 18.9215   1
  -9  -6  23 19.6449 16.9467   2
   6   9  23-3.43251 13.2323   4
  -7   9  24 16.8937 14.5594   4
  -9   7  22 158.887 19.7121   2
  -7   9  22 129.121 19.1246   2
  -7   9  22 123.986 16.3789   4
   9   7 -22 124.928 16.9650   4
   7  -9  22 144.637 18.3810   4
   9  -7  22 110.310 16.1346   4
   9   7 -20 288.513 17.3555   3
   9  -7  20 281.172 14.8329   3
  -9   7  20 269.114 23.7903   2
   9  -7  20 209.909 21.1895   2
   7  -9  20 312.298 21.7926   4
   9  -7  20 261.427 19.6149   4
  -7   9  20 274.623 19.1530   4
   7  -9  20 270.342 12.1928   3
   9   7 -18 119.125 12.4562   3
   7   9 -18 98.9519 10.5479   3
   9  -7  18 109.703 17.2582   2
  -7   9  18 88.0795 13.1518   4
   7  -9  18 110.432 14.8861   4
   7  -9  18 111.451 7.35864   3
   9  -7  18 89.3174 13.7569   4
   9   7 -18 100.398 14.2467   4
  -9   7  18 120.369 18.4138   2
   7  -9  16 242.295 17.6123   4
   7  -9  16 238.879 9.93205   3
   9   7 -16 208.226 16.7646   4
   9  -7  16 224.695 20.4329   2
  -7   9  16 191.337 19.0157   2
   9  -7  16 241.955 16.5335   4
   7   9 -16 241.133 13.9022   3
   9   7 -16 225.463 15.6669   3
  -7   9  16 274.919 16.4467   4
   9  -7  14 890.972 39.0248   2
  -7   9  14 993.382 33.9068   4
   7  -9  14 957.743 28.4619   3
   7  -9  14 913.537 35.8982   4
   9  -7  14 997.053 35.5246   4
  -7   9  14 943.510 40.0261   2
   9   7 -14 947.331 34.9004   3
   9   7 -14 978.145 38.0111   4
   7   9 -14 972.419 33.3591   3
  -9   7  12 1072.33 44.1655   2
  -7   9  12 1126.00 36.0317   4
   9   7 -12 1112.45 41.7972   4
  -7   9  12 1149.30 43.3058   2
   9  -7  12 1104.65 41.8337   2
   7  -9  12 1081.97 38.7283   4
   7  -9  12 1051.47 33.8914   2
   9  -7  12 1159.92 38.5069   4
   9   7 -12 1115.73 39.5354   2
   9  -7  10 1552.01 49.2793   4
  -9   7  10 1559.98 49.2802   1
   9   7 -10 1625.06 52.6304   2
   7   9 -10 1567.80 50.1414   2
  -9   7  10 1515.38 55.6653   2
   9  -7  10 1646.49 53.1373   2
   9   7 -10 1649.51 55.3439   4
   7  -9  10 1605.93 50.4303   4
  -7   9  10 1631.58 54.8508   2
   7  -9  10 1588.20 45.9834   2
  -9   7   8 1916.21 64.3310   2
  -9   7   8 1965.02 57.5140   1
   9  -7   8 1946.97 57.4307   4
   7  -9   8 1957.83 54.9218   2
  -7   9   8 1899.56 62.5937   2
   7  -9   8 1902.24 58.0451   4
   9  -7   8 1986.15 60.6449   2
   7   9  -8 1948.36 60.4593   2
   9   7  -8 1882.54 62.0308   2
  -7   9   6 322.398 17.9268   2
   9   7  -6 309.676 18.9313   2
   7  -9   6 300.362 13.8451   4
   7  -9   6 302.554 12.1738   2
   7   9  -6 317.966 18.0117   2
   9  -7   6 310.431 13.6404   4
   9  -7   6 291.586 15.8365   2
  -9   7   6 293.450 18.5263   2
   9  -7   4 979.547 34.6456   2
   9   7  -4 1009.55 40.7157   2
   7   9  -4 986.881 40.0345   1
  -7   9   4 1040.50 36.8328   2
   9  -7   4 1054.27 31.3934   4
  -9   7   4 1046.38 39.1253   2
   7   9  -4 1096.78 40.9963   2
   7  -9   4 1048.16 31.6519   4
   7   9  -2 2981.61 96.3864   2
   9  -7   2 2837.12 86.4976   2
  -9   7   2 2934.73 91.1853   2
   9   7  -2 2906.80 95.6011   2
   7  -9   2 2973.85 81.3237   1
   9  -7   2 3043.50 81.2717   4
   7  -9   2 3007.55 83.7847   3
   7   9  -2 3011.08 94.0381   1
  -7   9   2 3018.18 87.8906   2
   7   9   0 180.136 21.2304   2
   9  -7   0 200.422 12.9776   2
   9   7   0 194.713 21.2951   2
  -7   9   0 212.470 13.6256   2
   9  -7   0 158.023 6.01227   4
   7   9   0 183.916 18.4640   1
   7  -9   0 182.901 10.8542   3
  -9   7   0 207.370 17.1664   2
   7  -9  -2 2868.36 82.8786   3
  -7   9  -2 3008.86 86.1953   2
  -7  -9   2 2919.25 97.4796   1
   7   9   2 2869.20 94.4574   1
   9   7   2 2944.43 102.249   2
  -9   7  -2 2776.17 91.1700   2
   7  -9  -4 1026.28 33.7995   3
   9   7   4 983.982 53.3975   2
  -9   7  -4 1021.98 42.7632   2
   9  -7  -4 979.576 34.4403   3
  -7  -9   4 959.319 45.2077   1
  -7   9  -4 1029.03 37.1132   2
   7   9   4 941.970 44.4013   1
  -7  -9   6 349.126 25.8951   1
   7  -9  -6 371.198 17.8192   3
  -9  -7   6 362.835 30.1544   2
   9  -7  -6 384.148 18.7385   3
  -7  -9   8 1836.17 71.5529   2
  -9  -7   8 2022.25 72.9364   2
   7  -9  -8 2105.35 60.1875   3
  -7  -9   8 1878.55 68.9661   1
   9  -7  -8 1878.76 59.7810   3
   9  -7 -10 1454.12 49.5147   3
  -7  -9  10 1562.32 60.3604   2
  -9  -7  10 1586.39 60.8642   2
  -9  -7  10 1477.58 58.8082   1
  -7  -9  10 1403.69 57.7443   1
  -9  -7  12 1116.84 50.4132   1
  -9  -7  12 1154.27 50.0248   2
  -7  -9  12 1087.98 49.5557   2
   9  -7 -12 1206.48 42.5902   3
  -9  -7  14 1039.63 47.3879   1
  -7  -9  14 1028.61 46.0542   2
  -9  -7  14 960.743 45.8157   2
  -7  -9  16 272.319 24.6630   2
  -9  -7  16 281.502 25.4880   1
  -9  -7  16 242.930 23.4406   2
  -7  -9  18 123.642 20.4612   2
  -9  -7  18 91.0728 19.8507   2
  -9  -7  18 89.8129 20.1715   1
  -9  -7  20 279.741 25.9283   2
  -9  -7  20 258.285 27.0012   1
  -7  -9  20 302.726 26.6250   2
  -7  -9  22 115.205 21.3622   2
  -9  -7  22 146.951 24.3411   1
  -9  -7  22 130.834 21.1964   2
   9  -8  23 231.529 21.6228   4
   8  -9  23 230.631 21.5032   4
   8   9 -21-2.14917 11.6296   4
   9  -8  21 8.39285 11.4340   4
  -9   8  21 4.63164 13.2746   2
  -8   9  21-1.48602 14.1400   2
   9   8 -21 5.01089 8.50660   3
   8  -9  21-5.49510 12.2677   4
   9   8 -21-1.06421 10.8441   4
   9   8 -19 399.103 21.0068   3
   9  -8  19 417.157 17.7473   3
   9  -8  19 444.359 24.7028   4
   9  -8  19 380.707 24.4659   2
   8  -9  19 451.569 25.3016   4
   8  -9  19 393.110 21.1351   2
   9   8 -19 435.888 24.9301   4
   8   9 -19 422.587 25.2693   4
   8  -9  19 425.282 16.2243   3
   8   9 -17 614.335 25.1613   3
   8  -9  17 644.364 21.1590   3
   8  -9  17 548.955 28.3186   4
   9   8 -17 617.317 29.5179   4
   9  -8  17 609.187 29.7661   2
   8  -9  17 652.313 26.4954   2
   9  -8  17 594.721 28.2982   4
   9   8 -17 649.536 26.5513   3
   8  -9  15 315.275 19.4055   4
   8   9 -15 338.551 17.2478   3
  -8   9  15 368.163 24.0055   2
   9   8 -15 353.617 21.0893   4
   9  -8  15 322.843 18.9031   4
   9  -8  15 342.307 20.9165   2
   9   8 -15 323.551 17.7651   3
   9   8 -13 1350.16 48.6024   4
   9  -8  13 1307.67 45.8754   2
  -9   8  13 1341.61 51.3181   2
  -8   9  13 1351.08 50.4943   2
   9  -8  13 1309.05 44.8517   4
   8  -9  13 1260.00 45.1989   4
   8  -9  13 1383.08 42.3043   2
  -9   8  11 2092.93 70.3943   2
   9  -8  11 2142.54 64.1471   4
  -8   9  11 1970.40 69.0839   2
   8   9 -11 2095.63 64.5902   2
  -9   8  11 2090.77 62.6011   1
   9  -8  11 2126.72 64.9052   2
   8  -9  11 2017.11 64.2284   4
   8  -9  11 2170.54 61.4392   2
   9   8 -11 2089.83 68.8505   4
   9   8 -11 2110.17 65.6294   2
   8   9  -9 244.077 15.4988   2
   9   8  -9 251.318 16.3151   2
   8  -9   9 270.729 12.1746   2
  -8   9   9 280.523 18.0938   2
  -8   9   9 227.801 11.1662   1
   9  -8   9 242.594 13.5617   4
   8  -9   9 271.779 14.1501   4
  -9   8   9 289.315 18.7013   2
   9  -8   9 272.375 14.7199   2
  -9   8   9 262.395 12.8734   1
  -8   9   7 2477.66 75.5207   2
   8  -9   7 2573.88 68.4204   2
   9  -8   7 2443.08 69.3097   4
   8  -9   7 2327.76 69.1110   4
   8   9  -7 2423.16 74.2427   2
   9   8  -7 2527.18 75.5618   2
  -9   8   7 2563.81 76.9461   2
   9  -8   7 2417.69 70.6579   2
   9   8  -5 2391.73 75.5135   2
   8  -9   5 2325.09 66.6842   2
   8  -9   5 2346.97 66.1677   4
   9  -8   5 2414.14 68.8916   2
   8   9  -5 2384.84 75.3126   2
   9  -8   5 2222.86 65.7135   4
  -8   9   5 2325.82 72.5830   2
  -9   8   5 2354.48 74.1988   2
  -9   8   3 184.562 14.8506   2
   9  -8   3 198.326 11.7658   2
   8   9  -3 207.563 18.1417   2
   8  -9   3 189.544 8.45262   4
   9   8  -3 198.085 17.9731   2
  -8   9   3 211.983 14.2698   2
   9  -8   3 200.623 8.37099   4
  -9   8   1 3693.00 103.682   2
   8   9  -1 3666.86 112.127   2
   9   8  -1 3659.68 111.489   2
  -8   9   1 3630.11 101.389   2
   9  -8   1 3212.97 91.4012   4
   8   9  -1 3609.94 108.106   1
   9  -8   1 3685.49 98.1890   2
   8  -9   1 3734.75 96.8106   3
   8   9   1 3654.45 120.137   2
   9   8   1 3649.71 118.951   2
  -9   8  -1 3640.44 107.867   2
   8   9   1 3577.48 112.744   1
  -8   9  -1 3410.74 104.906   2
   8  -9  -1 3574.11 100.933   3
   8   9   3 142.389 19.0296   1
   9   8   3 132.454 23.6412   2
  -8   9  -3 206.566 15.5382   2
   8  -9  -3 176.332 10.8581   3
  -9   8  -3 170.219 16.9412   2
  -8  -9   3 186.748 22.2198   1
   9  -8  -3 170.944 11.3931   3
   8  -9  -5 2391.76 69.8683   3
  -9   8  -5 2372.63 79.2374   2
  -8   9  -5 2346.40 75.8313   2
   8   9   5 2303.71 83.3923   1
  -8  -9   5 2126.01 81.4931   1
   9  -8  -5 2303.64 70.1189   3
   8  -9  -7 2437.08 73.5759   3
  -9  -8   7 2443.67 90.1043   2
   9  -8  -7 2418.94 73.7922   3
  -9  -8   9 249.977 25.5144   2
   8  -9  -9 288.450 16.2354   3
  -8  -9   9 245.736 25.7355   2
   9  -8  -9 264.985 16.2602   3
   9  -8 -11 2140.54 66.0064   3
   8  -9 -11 1970.46 64.9515   3
  -8  -9  11 2082.31 77.1291   2
  -9  -8  11 1986.85 76.7566   2
  -8  -9  13 1413.92 58.0732   2
  -9  -8  13 1280.22 56.3174   2
   9  -8 -13 1388.23 47.4422   3
  -9  -8  15 356.465 28.7161   1
  -9  -8  15 398.234 29.5903   2
  -8  -9  15 340.742 29.1074   2
  -8  -9  17 618.208 37.4145   2
  -9  -8  17 665.721 38.1564   2
  -9  -8  17 689.125 39.3160   1
  -9  -8  19 451.031 34.2212   1
  -8  -9  19 428.835 32.1133   2
  -9  -8  19 464.466 33.6260   2
  -8  -9  21 5.77214 19.3705   1
  -9  -8  21 1.92875 18.6052   1
  -8  -9  21 27.9456 19.0708   2
  -9  -8  21 3.38474 18.1867   2
   9  -9  22 240.117 21.1187   4
   9  -9  20 164.645 17.3588   4
   9   9 -20 189.798 17.8370   4
   9   9 -18 57.0773 10.1085   3
   9  -9  18 55.0301 6.78048   3
   9  -9  18 73.8157 11.7764   2
   9  -9  18 63.1983 12.4858   4
   9   9 -18 75.2746 13.4034   4
   9  -9  16 45.8293 10.1550   2
  -9   9  16 51.6572 14.4150   2
   9   9 -16 26.2734 10.8528   4
   9  -9  16 39.2525 11.2161   4
   9   9 -16 58.7470 9.66955   3
   9  -9  14 774.779 28.7167   2
   9  -9  14 699.135 30.0199   4
  -9   9  14 784.113 36.3681   2
  -9   9  12 350.824 22.1736   2
   9   9 -12 290.874 17.0695   2
   9  -9  12 303.638 15.5432   2
   9  -9  12 306.683 17.0098   4
   9   9 -10 751.087 30.9296   2
  -9   9  10 809.671 26.7613   1
   9  -9  10 747.078 28.5684   4
   9  -9  10 829.010 28.0497   2
  -9   9  10 767.825 34.7123   2
   9  -9   8 1159.63 36.2175   4
  -9   9   8 1173.23 43.0928   2
  -9   9   8 1030.12 32.3829   1
   9   9  -8 1095.13 40.6141   2
   9  -9   8 1198.78 36.2062   2
  -9   9   6 10.2676 8.93370   2
   9   9  -6 15.1782 9.87339   2
   9  -9   6 13.2429 5.60748   2
   9  -9   6 17.3049 5.57589   4
   9  -9   4 515.287 20.0721   2
   9  -9   4 514.984 17.6910   4
   9   9  -4 525.270 27.5487   2
  -9   9   4 539.342 25.1357   2
   9   9  -2 903.713 41.9700   2
  -9   9   2 965.652 36.5619   2
   9   9   0 2958.48 101.997   2
  -9   9   0 2986.92 91.3992   2
   9  -9   0 2993.35 85.9597   3
   9   9   2 883.911 42.6385   1
   9   9   2 966.622 49.3992   2
  -9   9  -2 903.928 37.3196   2
   9  -9  -2 939.855 32.3306   3
  -9   9  -4 587.979 29.2725   2
   9   9   4 562.628 33.5214   1
   9  -9  -4 550.797 22.8018   3
   9  -9  -6 20.9023 6.92565   3
   9   9   6 6.72830 16.7309   1
   9  -9  -8 1211.31 42.2943   3
  -9  -9   8 1282.30 58.1452   2
   9  -9 -10 731.822 30.7705   3
  -9  -9  10 894.748 45.4813   2
   9  -9 -12 263.362 17.6191   3
  -9  -9  12 324.653 29.4684   2
  -9  -9  14 763.931 43.2975   2
  -9  -9  16 58.7164 19.9688   2
  -9  -9  18 55.4721 20.9410   1
  -9  -9  18 97.7633 21.4992   2
  -9  -9  20 174.500 25.8553   1
  -9  -9  20 168.440 24.3664   2
 -10   0   0 316.281 25.6945   2
  10   0   0 292.082 19.4158   2
  10   0   0 329.179 19.6723   1
   0  10   0 321.031 15.4739   1
 -10   0  -2 64.8919 19.6328   2
  10   0  -2 55.9389 9.94230   1
  10   0   2 64.3210 13.9045   1
   0 -10   2 57.5204 11.6286   1
  10   0   2 54.8312 12.3958   2
   0  10   2 51.1194 9.39376   1
  10   0  -4 5269.31 149.186   1
   0  10  -4 5268.40 145.677   2
  10   0   4 5593.05 159.552   2
 -10   0   4 5137.89 155.345   1
   0  10  -4 5561.86 147.518   4
   0 -10   4 5346.71 152.028   1
   0  10   4 5275.52 151.264   1
   0  10  -4 5278.08 141.754   3
   0 -10   6 1930.99 62.0406   1
   0  10  -6 1938.75 58.2583   4
  10   0   6 2041.25 72.7325   2
 -10   0   6 2013.21 65.7752   1
 -10   0   8 91.8843 13.9712   2
   0 -10   8 74.3989 11.4876   1
  10   0   8 66.2346 18.9460   2
  10   0  -8 79.8244 10.1122   2
   0  10  -8 79.8759 8.76116   4
  10   0  -8 86.8881 9.40845   4
   0  10   8 77.1053 8.75915   3
 -10   0   8 71.4146 12.6982   1
   0  10  10 4263.01 125.443   3
  10   0  10 4304.88 144.801   2
  10   0 -10 4392.33 124.394   4
  10   0 -10 4384.49 126.865   2
   0  10 -10 4401.13 124.328   4
 -10   0  10 4570.77 133.395   2
 -10   0  10 4437.75 130.061   1
   0  10  12 1222.95 41.5274   3
 -10   0  12 1135.55 44.7948   1
 -10   0  12 1114.89 45.9049   2
  10   0 -12 1125.39 40.8195   3
   0  10 -12 1107.05 39.0518   4
  10   0 -12 1133.37 39.0384   4
   0  10  14 1668.22 55.8718   3
  10   0 -14 1574.49 54.4153   3
  10   0 -14 1672.20 53.2209   4
 -10   0  14 1655.26 60.9721   2
   0  10 -14 1685.99 54.2431   4
 -10   0  14 1514.86 58.1453   1
  10   0 -16 1083.43 40.2202   3
 -10   0  16 1094.55 45.0288   1
   0  10  16 1152.40 38.1921   4
   0 -10  16 981.255 33.3099   2
  10   0 -16 1080.68 38.6761   4
   0  10 -16 1044.40 39.1021   4
 -10   0  16 1132.39 46.6414   2
  10   0  18 588.176 27.8602   4
  10   0 -18 566.782 27.0489   3
 -10   0  18 560.315 31.9215   1
 -10   0  18 620.751 33.5817   2
   0 -10  18 588.522 22.7633   2
  10   0 -18 575.721 26.2669   4
   0  10  18 556.666 25.1794   4
   0  10 -18 561.281 26.8426   4
 -10   0  20 420.497 28.7960   1
  10   0 -20 448.806 24.2491   3
   0  10  20 397.114 24.8026   3
   0  10  20 396.097 22.3687   4
  10   0 -20 395.063 22.3699   4
  10   0  20 391.035 23.6825   4
 -10   0  20 413.163 29.3719   2
   0 -10  20 402.406 19.4954   2
 -10   0  22 4.76761 15.7337   2
   0  10  22 3.56105 10.9796   3
 -10   0  22 2.97711 17.2143   1
   0  10  22 1.77702 10.6511   4
  10   0  22-6.45837 12.3703   4
 -10   0  24-6.50318 18.2085   1
 -10   0  24 5.15064 17.7728   2
   0  10  24 8.96989 11.3823   4
  10   0  26 45.3703 15.0405   3
  10  -1  25 55.3522 14.1186   3
  -1  10  25 64.6912 15.0559   4
 -10   1  23 147.791 21.4266   2
  -1  10  23 144.897 18.1427   3
  -1  10  23 113.546 15.0201   4
  10  -1  23 127.389 16.6328   4
  10   1 -23 117.663 14.9114   4
  -1  10  21 218.629 19.4540   3
   1  10 -21 245.111 18.8028   4
  10   1 -21 217.893 17.7393   3
  -1  10  21 249.338 17.4351   4
  10   1 -21 210.772 17.8466   4
 -10   1  21 242.754 24.0934   2
  10  -1  21 227.117 19.6306   4
 -10   1  19 146.078 19.8120   2
  10   1 -19 103.105 13.2648   3
 -10   1  19 114.525 17.8813   1
   1 -10  19 103.516 8.92525   2
  -1  10  19 117.276 12.9702   4
  10   1 -19 128.732 14.5363   4
  10  -1  19 100.855 14.0058   4
   1  10 -19 90.8286 13.8326   4
  10   1 -17 468.042 22.2840   4
  -1  10  17 487.913 21.4940   4
  10  -1  17 405.500 22.0490   4
   1 -10  17 358.349 14.6834   2
   1  10 -17 443.433 22.4026   4
  10   1 -17 449.990 22.7824   3
 -10   1  17 434.623 28.1202   2
 -10   1  17 385.321 26.4577   1
  -1  10  15 3710.75 117.725   3
   1  10 -15 4087.93 116.793   4
  10   1 -15 3874.30 115.667   4
 -10   1  15 4189.50 121.752   1
 -10   1  15 4107.51 124.353   2
  -1  10  15 3943.26 113.539   4
  10   1 -15 4090.45 117.487   3
  -1  10  13 732.504 30.1243   3
  10   1 -13 708.768 29.1519   3
 -10   1  13 689.805 33.7510   2
  10   1 -13 694.504 28.1025   4
   1  10 -13 690.933 28.2822   4
 -10   1  13 682.946 32.3416   1
 -10   1  11 816.601 36.5867   2
 -10   1  11 820.792 34.3150   1
  10  -1  11 804.465 46.5948   2
   1  10 -11 802.485 30.6918   4
  10   1 -11 801.909 30.9342   4
  -1  10  11 875.556 32.4957   3
  -1  10   9 4188.33 117.920   3
  10  -1   9 3937.97 131.827   2
 -10   1   9 4071.30 124.300   2
  10   1  -9 4109.49 119.103   2
  10   1  -9 4125.82 117.273   4
   1  10  -9 4104.17 116.847   4
 -10   1   9 4010.36 120.670   1
  10   1  -7 2601.00 79.8025   2
 -10   1   7 2601.73 81.5058   1
  10  -1   7 2553.21 89.4440   2
  -1  10   7 2731.98 77.4224   3
   1 -10   7 2542.02 78.6686   1
   1  10  -7 2548.89 76.7630   4
  -1  10   5 1700.92 49.7750   3
  10   1  -5 1633.38 51.9004   1
  10  -1   5 1647.71 59.9969   2
   1 -10   5 1532.66 52.0506   1
   1  10  -5 1561.80 46.0459   2
  -1  10   5 1632.01 53.1725   1
   1  10  -5 1593.99 50.2709   4
 -10   1   5 1526.53 54.6284   1
  10   1  -3 1658.95 57.4500   1
  -1  10   3 1664.93 54.8283   1
   1 -10   3 1764.51 56.6441   1
  10  -1   3 1770.47 62.2264   2
  -1  10   1 917.532 28.4288   3
  10   1  -1 846.144 35.4587   1
  10  -1   1 890.871 36.4246   1
 -10   1   1 913.619 40.9594   2
  -1  10   1 898.484 30.2514   1
  10  -1   1 880.151 36.1107   2
   1 -10   1 870.033 33.5999   1
   1  10  -1 899.987 32.1674   1
  -1  10  -1 820.766 25.3981   3
  10  -1  -1 840.037 32.4298   1
  -1 -10   1 820.844 34.4286   1
  10   1   1 828.427 36.4029   2
   1  10   1 812.454 31.1159   1
 -10   1  -1 871.640 41.7825   2
  10   1   1 825.530 35.8828   1
  10  -1  -1 848.798 33.5954   2
  -1  10  -3 1784.25 51.6505   4
  10   1   3 1791.35 63.8509   2
  -1 -10   3 1699.77 58.5830   1
  -1  10  -3 1716.41 47.8325   3
  10  -1  -3 1635.98 54.1861   1
   1  10   3 1828.55 57.5361   1
  10  -1  -3 1691.06 56.6621   2
  10   1   5 1539.94 61.5069   2
 -10  -1   5 1490.83 57.9926   2
  -1 -10   5 1618.58 53.8222   1
  -1  10  -5 1571.23 47.5920   4
 -10  -1   5 1496.69 55.9152   1
   1  10   5 1632.73 55.1712   1
  10  -1  -7 2503.30 74.7767   4
  10   1   7 2553.19 92.2532   2
  -1 -10   7 2676.14 80.2135   1
 -10  -1   7 2435.72 81.4768   1
 -10  -1   7 2494.51 83.7362   2
  -1  10  -7 2586.90 74.0589   4
  10  -1  -9 3772.16 115.069   2
  10   1   9 3916.42 134.095   2
  -1 -10   9 3931.31 117.483   1
 -10  -1   9 3967.94 119.471   1
  10  -1  -9 3940.47 112.389   4
 -10  -1   9 3955.40 121.788   2
  -1  10  -9 4193.16 112.767   4
 -10  -1  11 822.301 37.7402   2
 -10  -1  11 823.149 36.6010   1
  -1  10 -11 854.605 30.8700   4
  10  -1 -11 855.690 30.3836   4
  10  -1 -11 863.217 32.9541   3
  -1 -10  11 828.818 35.1098   1
   1  10  13 686.306 29.1469   3
  10  -1 -13 646.787 28.6645   3
 -10  -1  13 719.904 34.7371   2
 -10  -1  13 686.995 33.4897   1
  10  -1 -13 701.752 27.0478   4
  -1  10 -13 731.026 28.8574   4
 -10  -1  15 4124.28 125.618   2
  10  -1 -15 4139.63 115.844   4
  -1 -10  15 3939.95 113.222   2
  10  -1 -15 4052.11 118.369   3
  -1  10 -15 3945.35 116.408   4
 -10  -1  15 3922.69 123.532   1
  10  -1 -17 367.969 21.4905   3
 -10  -1  17 368.496 25.9312   1
  -1 -10  17 398.235 18.9789   2
  -1  10 -17 422.562 21.8720   4
  10  -1 -17 391.147 20.6778   4
 -10  -1  17 395.821 27.4999   2
   1  10  17 403.572 20.8501   4
 -10  -1  19 109.923 18.5919   1
  10  -1 -19 113.417 13.8969   3
  -1 -10  19 117.699 12.7308   2
   1  10  19 104.805 13.2775   4
  10   1  19 100.532 14.1080   4
 -10  -1  19 73.2657 17.4890   2
  10  -1 -19 101.708 13.0248   4
  -1 -10  21 241.659 17.2539   2
   1  10  21 223.322 19.4294   3
 -10  -1  21 244.276 24.3082   2
  10   1  21 283.861 20.6126   4
   1  10  21 260.803 19.1965   4
 -10  -1  21 195.028 23.4615   1
   1  10  23 115.813 17.5571   3
  10   1  23 123.503 16.5289   4
 -10  -1  23 81.7761 20.6058   2
   1  10  23 123.379 15.7745   4
 -10  -1  23 77.1715 20.5037   1
   1  10  25 48.6369 14.9628   4
 -10  -1  25 50.4486 20.7466   2
  -2  10  24 13.4273 12.4663   4
 -10   2  24 35.3485 17.4330   2
 -10   2  22 54.7453 18.4095   2
  10   2 -22 46.0146 12.7270   4
  10  -2  22 46.3013 13.3132   4
  -2  10  22 41.3324 11.6808   4
   2  10 -22 57.1537 12.9195   4
  -2  10  22 43.5514 14.1742   3
   2  10 -20 263.972 19.5230   4
 -10   2  20 260.290 23.6409   2
  10   2 -20 254.215 18.1697   3
  -2  10  20 228.449 17.0251   4
  10  -2  20 266.228 20.0706   4
   2 -10  20 258.015 12.3431   2
  10   2 -20 287.475 19.2438   4
  10   2 -18 205.421 15.9562   3
 -10   2  18 217.873 20.5692   2
   2 -10  18 169.758 8.33022   2
 -10   2  18 262.984 21.6709   1
  -2  10  18 214.560 15.1677   4
   2  10 -18 217.156 17.0020   4
  10   2 -18 183.139 15.4975   4
  10  -2  18 236.891 16.8149   4
  -2  10  16 458.963 20.6858   4
   2  10 -16 387.216 21.6430   4
 -10   2  16 410.900 25.1040   1
  10  -2  16 394.203 21.2513   4
  10   2 -16 395.026 21.4633   4
 -10   2  16 412.530 26.9841   2
  10   2 -16 421.817 22.2620   3
  10  -2  14 717.427 46.7914   2
  10   2 -14 749.404 30.1317   4
   2  10 -14 779.124 30.7253   4
  -2  10  14 703.984 27.1158   4
 -10   2  14 736.039 35.6828   2
  10   2 -14 755.468 30.6901   3
 -10   2  14 783.553 33.8785   1
  -2  10  14 753.807 31.9006   3
  10   2 -12 1279.79 43.6474   4
  10  -2  12 1169.95 57.0846   2
 -10   2  12 1206.75 45.7640   1
   2  10 -12 1263.20 43.4211   4
 -10   2  12 1239.33 48.9419   2
  -2  10  12 1271.44 44.7165   3
  -2  10  12 1289.49 39.9037   4
  -2  10  10 2810.20 80.0429   3
  10  -2  10 2612.68 92.4696   2
  10   2 -10 2708.92 79.3137   4
  10   2 -10 2539.53 79.6055   2
 -10   2  10 2428.79 80.7019   1
 -10   2  10 2609.15 84.9605   2
   2  10 -10 2566.34 78.5383   4
  -2  10   8 81.5657 9.47043   3
  10   2  -8 62.8125 9.91399   2
  10  -2   8 91.5180 16.6448   2
   2  10  -8 72.8176 9.34174   4
 -10   2   8 80.8850 12.2209   1
  10   2  -6 663.446 28.4981   2
  -2  10   6 682.701 25.6393   3
   2 -10   6 591.560 26.5249   1
   2  10  -6 703.916 22.0106   2
   2  10  -6 707.871 26.9700   4
  10  -2   6 682.355 33.5011   2
 -10   2   6 706.956 29.6755   1
  -2  10   4 3143.45 87.7094   3
  10   2  -4 3099.47 92.3018   1
 -10   2   4 2725.36 95.3201   2
   2  10  -4 3066.94 89.1587   2
  10  -2   4 3090.45 96.3500   2
 -10   2   4 3100.36 93.1801   1
  10   2  -4 3003.62 93.5456   2
  -2  10   4 3107.91 88.8054   1
   2 -10   4 3124.06 89.8537   1
  -2  10   2 1115.63 35.4422   3
  -2  10   2 1140.71 35.8631   1
   2  10  -2 1147.65 39.4523   1
 -10   2   2 1109.62 45.5651   2
  10   2  -2 1177.47 42.8385   1
  10  -2   2 1196.88 43.2537   2
   2 -10   2 1120.24 38.7784   1
  10   2   0 303.819 21.0203   1
 -10   2   0 325.053 23.3886   2
   2  10   0 294.758 17.3639   1
  10  -2   0 312.922 18.1376   2
  10  -2   0 310.809 18.0291   1
  -2  10   0 310.831 12.4309   3
 -10   2  -2 1150.47 50.7946   2
   2  10   2 1108.88 42.2703   1
  10   2   2 1169.77 46.8685   1
  -2  10  -2 1134.08 35.3509   4
  -2 -10   2 1197.46 44.9919   1
  10  -2  -2 1161.27 39.2878   1
  10  -2  -2 1268.56 42.2171   2
 -10  -2   4 2948.31 92.9952   2
  -2 -10   4 2792.19 85.9666   1
  10   2   4 2976.67 95.0351   2
  -2  10  -4 3073.88 77.8338   4
 -10  -2   4 3066.39 90.5251   1
   2  10   4 2802.16 87.1681   1
  10  -2  -4 2933.45 83.4125   2
 -10  -2   6 633.692 31.4955   1
  10   2   6 681.049 38.9435   2
  -2  10  -6 585.473 21.9767   4
 -10  -2   6 620.409 32.0445   2
  -2 -10   6 645.681 29.4404   1
 -10  -2   8 61.7596 13.4314   2
  10  -2  -8 75.8214 8.17992   4
  -2 -10   8 72.7932 12.6872   1
  10   2   8 87.8848 21.9616   2
  -2  10  -8 65.1120 7.67361   4
 -10  -2   8 77.4051 14.4480   1
  -2 -10  10 2565.98 82.7698   1
 -10  -2  10 2516.86 84.2916   1
 -10  -2  10 2606.20 86.2926   2
  10  -2 -10 2532.12 75.5250   4
  -2  10 -10 2727.77 76.7675   4
 -10  -2  12 1151.81 47.7722   1
  -2 -10  12 1294.31 47.4261   1
  10  -2 -12 1171.16 39.3451   4
 -10  -2  12 1199.59 49.0315   2
  10  -2 -12 1187.40 42.9693   3
  -2  10 -12 1241.42 40.8888   4
  -2  10 -14 709.639 28.9141   4
  10  -2 -14 762.384 28.3991   4
  -2 -10  14 755.963 29.2093   2
 -10  -2  14 757.480 36.7749   2
 -10  -2  14 763.304 36.5864   1
  10  -2 -14 696.825 30.3598   3
  10  -2 -16 443.467 22.4883   3
  -2  10 -16 340.709 20.0318   4
  -2 -10  16 453.259 21.5769   2
  10  -2 -16 417.234 20.0382   4
 -10  -2  16 371.806 26.3180   2
 -10  -2  16 363.145 26.5329   1
  10  -2 -18 219.778 16.8201   3
 -10  -2  18 185.619 21.3863   1
  -2 -10  18 191.756 15.8674   2
 -10  -2  18 195.136 21.8532   2
  10  -2 -18 197.213 15.1469   4
   2  10  20 296.293 21.0423   3
   2  10  20 269.587 19.5061   4
  10  -2 -20 263.942 19.8056   3
 -10  -2  20 310.545 26.0660   1
  -2 -10  20 263.387 19.1572   2
  10   2  20 306.410 21.2603   4
 -10  -2  20 245.602 23.9930   2
   2  10  22 67.2095 14.3619   3
 -10  -2  22 24.3178 15.5563   2
  10   2  22 55.8164 13.4885   4
 -10  -2  22 52.9041 18.8743   1
   2  10  22 54.3280 13.8502   4
 -10  -2  24 39.9844 20.4939   1
   2  10  24 27.6640 13.3952   4
 -10  -2  24 38.5113 19.2972   2
  -3  10  25 66.0938 14.8046   4
 -10   3  23 29.1865 16.5417   2
  -3  10  23 22.6908 11.1883   4
   3  10 -23 37.0787 12.7977   4
  10  -3  23 35.1393 13.7457   4
 -10   3  21 143.259 20.2392   2
   3 -10  21 158.326 19.3760   4
  -3  10  21 135.124 14.1292   4
  10   3 -21 147.033 14.7041   3
  10  -3  21 123.897 15.9868   4
  10   3 -21 152.935 15.8670   4
   3  10 -21 155.500 15.9815   4
  -3  10  21 166.882 18.0838   3
  10  -3  19 59.8823 12.5376   4
 -10   3  19 56.0952 16.0582   2
  -3  10  19 48.7479 10.6456   4
   3 -10  19 75.9844 15.6301   4
  10   3 -19 70.6852 12.0132   3
   3 -10  19 35.4382 4.14430   2
   3  10 -19 60.6993 12.3310   4
 -10   3  17 135.715 18.3476   2
  10   3 -17 170.189 14.4730   3
  10   3 -17 198.264 15.9046   4
   3 -10  17 217.650 18.6363   4
   3  10 -17 175.525 14.9429   4
  -3  10  17 198.445 13.7335   4
  10  -3  17 168.498 14.5039   4
  -3  10  15 555.392 27.4594   3
   3 -10  15 580.541 28.2163   4
  10  -3  15 554.092 40.2035   2
   3  10 -15 557.640 25.8580   4
  10   3 -15 546.797 25.3635   3
  10  -3  15 575.177 25.1975   4
 -10   3  15 560.504 27.9618   1
  10   3 -15 526.086 24.9637   4
  -3  10  15 567.499 22.9592   4
 -10   3  15 525.115 30.0028   2
  -3  10  13 176.959 15.3066   3
 -10   3  13 191.523 17.9623   2
  10  -3  13 134.023 24.0102   2
   3  10 -13 181.667 14.1095   4
  10   3 -13 160.543 14.0003   4
  -3  10  13 183.955 11.5727   4
 -10   3  13 167.363 16.1456   1
   3  10 -11 57.9870 4.87595   3
  -3  10  11 54.5045 10.2128   3
 -10   3  11 68.4799 12.7440   2
  10  -3  11 41.4332 17.7046   2
 -10   3  11 72.1026 12.1284   1
   3  10 -11 60.8064 10.0593   4
  10   3 -11 68.6194 10.1010   2
  10   3 -11 54.5538 10.1038   4
  -3  10  11 57.8101 6.92860   4
  10   3  -9 1488.77 50.5019   2
 -10   3   9 1436.20 50.4707   1
  10  -3   9 1489.91 58.8322   2
  -3  10   9 1469.30 49.4831   3
  10   3  -9 1565.08 50.6441   4
   3  10  -9 1560.63 50.1417   4
  10   3  -7 651.829 27.0743   2
   3  10  -7 598.585 25.5248   4
 -10   3   7 598.807 26.9042   1
  10  -3   7 603.777 31.3503   2
  -3  10   7 603.138 24.4724   3
   3  10  -7 625.552 20.8631   2
   3 -10   5 688.584 25.4669   1
  -3  10   5 656.410 24.7545   1
  10   3  -5 661.715 28.4105   1
 -10   3   5 632.805 28.0738   1
  10  -3   5 657.183 30.9285   2
   3  10  -5 663.592 24.6869   2
 -10   3   5 704.523 31.7236   2
  10   3  -5 670.022 28.9877   2
  -3  10   5 660.797 24.7590   3
 -10   3   3 366.152 23.2998   2
   3 -10   3 387.577 17.8559   1
  -3  10   3 383.626 15.0698   1
  10   3  -3 409.773 23.2752   2
   3  10  -3 380.476 21.4996   2
  10  -3   3 385.998 21.5799   2
   3  10  -3 424.315 20.4111   1
  -3  10   3 403.185 17.0009   3
  10   3  -3 409.031 22.5407   1
  10   3  -1 374.131 22.2025   1
   3  10  -1 346.336 19.0234   1
  10  -3   1 343.176 19.2681   1
 -10   3   1 301.382 21.5235   2
   3 -10   1 335.533 16.3010   1
  10  -3   1 317.757 18.5159   2
  -3  10   1 325.806 13.5477   3
 -10  -3   1 279.559 27.8931   2
 -10   3  -1 328.658 23.8108   2
  10  -3  -1 300.270 15.9096   1
   3  10   1 323.809 19.5864   1
  -3  10  -1 329.079 12.4485   2
  10   3   1 285.614 21.7576   1
  -3  10  -1 330.870 12.1179   4
  -3 -10   1 278.987 21.5377   1
  10  -3  -1 348.718 18.0981   2
  10  -3  -3 415.943 20.2864   2
  10   3   3 425.256 27.0165   1
  10  -3  -3 384.709 16.8279   1
 -10   3  -3 384.893 29.3476   2
 -10  -3   3 415.063 29.7285   2
  -3  10  -3 407.304 14.9010   4
 -10  -3   3 407.080 26.9434   1
   3  10   3 418.318 24.3298   1
  -3 -10   3 405.192 24.3735   1
  -3  10  -3 387.755 13.7487   2
  -3  10  -5 648.810 22.0330   4
   3  10   5 639.018 31.6305   1
  10   3   5 647.877 37.9459   2
  10  -3  -5 622.782 26.2671   2
 -10  -3   5 593.644 33.6912   2
  -3 -10   5 669.094 30.7403   1
 -10  -3   5 648.033 32.9805   1
 -10  -3   7 579.256 30.4037   1
  10   3   7 666.555 41.8370   2
  10  -3  -7 586.074 21.3394   4
  -3 -10   7 574.078 28.9875   1
 -10  -3   7 600.942 32.2779   2
  -3  10  -7 600.415 21.6269   4
  10  -3  -9 1358.28 44.3664   4
  -3 -10   9 1516.07 54.0196   1
 -10  -3   9 1556.59 55.6182   1
 -10  -3   9 1522.52 56.9424   2
  -3  10  -9 1484.61 45.7356   4
  10  -3 -11 50.0948 7.84559   4
 -10  -3  11 41.9339 13.5992   2
 -10  -3  11 65.7293 15.1049   1
  -3 -10  11 60.4147 13.5533   1
  -3  10 -11 44.1369 8.37054   4
 -10  -3  13 156.459 19.1591   1
  -3 -10  13 191.890 15.9227   2
 -10  -3  13 160.660 18.5302   2
  10  -3 -13 162.679 11.8633   4
  -3  10 -13 146.063 12.3877   4
  10  -3 -13 179.282 14.4697   3
  -3 -10  13 168.059 17.6881   1
  10  -3 -15 554.747 25.7079   3
  -3 -10  15 526.722 30.1663   1
  -3 -10  15 573.927 26.8865   2
 -10  -3  15 521.569 30.9517   2
  10  -3 -15 484.717 21.9010   4
 -10  -3  15 545.043 31.7822   1
  10  -3 -17 166.945 15.4334   3
 -10  -3  17 186.684 21.7439   1
 -10  -3  17 178.691 20.5239   2
  10  -3 -17 164.354 13.2514   4
  -3 -10  17 199.200 17.1840   2
 -10  -3  19 40.1327 17.4579   1
   3  10  19 68.0790 13.2324   3
  10  -3 -19 45.6132 11.7360   3
  -3 -10  19 47.7361 14.1389   2
 -10  -3  19 65.3763 16.6445   2
   3  10  21 137.963 15.5071   4
   3  10  21 149.178 16.6142   3
 -10  -3  21 127.554 22.0881   1
  -3 -10  21 135.951 17.4625   2
 -10  -3  21 127.048 20.2165   2
  10   3  21 130.640 16.6717   4
   3  10  23 18.9138 13.2960   3
 -10  -3  23 56.9152 20.3413   1
   3  10  23 57.0114 14.6948   4
 -10  -3  23 42.8108 19.3972   2
 -10  -3  25 51.9978 20.5663   2
  -4  10  24 8.86009 12.3697   4
 -10   4  22 100.243 18.3517   2
  10   4 -22 83.3990 13.5081   3
   4 -10  22 81.9831 17.8012   4
  -4  10  22 81.4432 14.8731   4
  10   4 -22 84.5874 14.6418   4
   4  10 -22 78.0492 14.4817   4
  10  -4  22 68.9170 14.8383   4
 -10   4  20 417.336 29.1861   2
  -4  10  20 463.213 22.5002   4
  10  -4  20 468.855 39.0107   2
  10   4 -20 476.410 23.5861   3
  10   4 -20 445.293 24.2906   4
   4 -10  20 498.656 28.3100   4
  10  -4  20 490.306 25.3819   4
   4 -10  20 362.703 14.1167   2
   4  10 -20 485.931 25.7126   4
   4  10 -18 115.668 13.5878   4
  10   4 -18 117.785 12.5842   3
  -4  10  18 109.311 11.7122   4
  10  -4  18 129.010 25.2654   2
  10   4 -18 114.168 13.6467   4
 -10   4  18 127.277 17.3153   2
  10  -4  18 110.347 13.8379   4
   4 -10  18 101.788 14.9263   4
  10   4 -16 284.260 18.2974   4
 -10   4  16 261.051 21.7351   2
  10  -4  16 186.982 26.9749   2
  10   4 -16 241.161 16.7763   3
 -10   4  16 235.137 19.2946   1
  10  -4  16 240.525 16.6431   4
   4 -10  16 250.607 18.9334   4
  -4  10  16 275.129 15.7526   4
   4  10 -16 272.221 18.2617   4
  -4  10  16 245.270 19.0451   3
 -10   4  14 1280.19 50.7863   2
  -4  10  14 1370.50 48.1572   3
 -10   4  14 1285.76 46.5700   1
   4  10 -14 1319.96 45.9032   4
   4  10 -14 1284.51 38.6717   3
  10   4 -14 1328.25 46.0064   4
  -4  10  14 1273.11 41.3905   4
   4 -10  14 1278.87 46.4752   4
  10  -4  14 1226.65 43.5178   4
  10  -4  14 1222.66 56.2338   2
  10   4 -14 1263.86 44.7114   3
  10   4 -12 893.906 33.6993   4
  10  -4  12 813.861 41.6290   2
  10   4 -12 777.942 32.2272   2
   4  10 -12 805.471 32.4426   4
  -4  10  12 874.659 28.2588   4
  -4  10  12 879.180 34.4738   3
   4 -10  12 838.988 32.8026   4
   4  10 -12 785.135 26.0605   3
 -10   4  12 841.738 33.5156   1
  10  -4  12 793.753 29.9938   4
  10  -4  10 1740.75 62.8600   2
  -4  10  10 1696.99 48.5395   4
  10   4 -10 1608.11 54.5141   4
   4  10 -10 1600.97 54.0435   4
  10   4 -10 1619.50 54.2825   2
  -4  10  10 1646.66 54.6469   3
 -10   4  10 1538.88 53.4962   1
   4  10  -8 2294.38 64.6970   2
   4  10  -8 2203.14 69.8025   4
  -4  10   8 2266.57 62.8987   4
 -10   4   8 2185.65 69.2240   1
  10  -4   8 2204.13 75.1595   2
  10   4  -8 2294.72 71.1770   2
  -4  10   8 2198.86 69.0269   3
 -10   4   6 160.970 13.4452   1
  10   4  -6 158.662 13.5119   2
  10  -4   6 178.875 15.6314   2
   4  10  -6 191.721 11.4575   2
 -10   4   6 145.804 15.0385   2
  -4  10   6 167.331 11.4148   3
  10   4  -4 2885.82 88.4379   1
   4  10  -4 2865.57 86.1356   2
  10  -4   4 2822.74 87.3879   2
  10   4  -4 2860.94 89.1609   2
 -10   4   4 2930.19 90.5636   2
  -4  10   4 2762.37 78.6391   1
   4 -10   4 2981.06 82.3172   1
   4 -10   2 3079.47 86.9509   1
   4  10  -2 2999.68 96.4828   2
  10   4  -2 3055.81 96.3055   2
  10   4  -2 3167.48 95.5822   1
 -10   4   2 2993.95 95.9306   2
   4  10  -2 3022.66 92.4829   1
  10  -4   2 3020.38 91.4856   2
  -4  10   0 174.288 7.09212   4
  10   4   0 164.932 17.6336   2
  10   4   0 171.002 18.0110   1
   4  10   0 191.758 15.8733   1
  -4  10   0 179.626 9.51262   2
 -10   4   0 170.485 17.7790   2
  10  -4   0 171.035 13.0775   2
  10  -4   0 182.519 12.6062   1
   4  10   2 3230.28 100.328   1
  10  -4  -2 3087.22 94.9925   2
  -4 -10   2 3239.27 102.917   1
  10   4   2 3223.82 103.978   1
 -10  -4   2 2971.05 110.268   2
 -10   4  -2 3041.25 103.574   2
  10  -4  -2 3202.01 91.0769   1
  -4  10  -2 3494.15 88.4990   4
  -4  10  -2 3069.01 89.4828   2
  -4 -10   4 2999.92 93.0955   1
 -10   4  -4 2858.10 98.2430   2
 -10  -4   4 3004.32 99.5099   2
  10  -4  -4 2935.08 85.8566   2
  -4  10  -4 2740.24 79.4714   2
 -10  -4   4 3001.94 95.5081   1
   4  10   4 2944.33 92.8706   1
  10   4   6 136.179 23.9086   2
 -10  -4   6 189.942 18.8272   1
  10  -4  -6 145.422 8.54601   4
 -10  -4   6 160.319 18.9962   2
  10  -4  -6 149.716 12.2357   2
  -4 -10   6 140.214 16.6532   1
  -4  10  -6 164.711 9.30223   4
 -10  -4   8 2242.38 76.4282   1
 -10  -4   8 2254.59 78.4771   2
  -4 -10   8 2255.57 75.5134   1
  10  -4  -8 2118.03 63.5547   4
  -4  10  -8 2340.73 65.2186   4
  -4 -10  10 1604.25 59.3215   1
 -10  -4  10 1628.71 61.6014   2
  10  -4 -10 1614.40 48.6504   4
 -10  -4  10 1603.00 60.4716   1
  -4  10 -10 1628.89 50.1035   4
  -4 -10  12 816.700 35.3895   2
  -4 -10  12 751.851 37.0619   1
 -10  -4  12 760.269 38.3384   2
  10  -4 -12 836.239 28.3257   4
 -10  -4  12 760.270 38.0395   1
  10  -4 -14 1259.89 44.8455   3
  -4 -10  14 1309.39 47.9921   2
  -4 -10  14 1310.37 50.7782   1
 -10  -4  14 1262.15 51.6615   1
  10  -4 -14 1150.02 39.9522   4
 -10  -4  14 1265.70 51.5616   2
  10  -4 -16 309.769 19.1304   3
  -4 -10  16 283.792 21.6725   2
  -4 -10  16 271.031 23.9826   1
 -10  -4  16 308.656 26.2583   1
 -10  -4  16 272.612 23.9110   2
  10  -4 -18 100.655 12.8455   3
 -10  -4  18 95.9929 19.5405   1
  -4 -10  18 126.146 17.4240   2
 -10  -4  18 103.510 18.9948   2
  -4 -10  18 103.501 17.9872   1
  -4 -10  20 487.499 32.4701   1
  -4 -10  20 513.403 29.2680   2
   4  10  20 511.650 28.1884   3
 -10  -4  20 459.924 31.4603   2
 -10  -4  20 468.064 33.0507   1
   4  10  22 83.4734 15.8957   3
 -10  -4  22 66.1145 20.4626   1
 -10  -4  22 74.1648 19.4090   2
   4  10  22 71.5302 13.9914   4
 -10  -4  24 9.05359 18.4523   2
  10  -5  23 199.959 18.6818   4
   5 -10  23 192.756 21.6129   4
  -5  10  23 172.302 17.6911   4
  10   5 -23 178.265 17.9262   4
 -10   5  21 159.885 20.9177   2
  10  -5  21 86.1028 21.9558   2
  -5  10  21 146.160 15.3312   4
   5 -10  21 155.680 18.3111   4
  10  -5  21 148.406 16.3494   4
  10   5 -21 128.126 16.0308   4
   5  10 -21 116.874 15.9121   4
  10   5 -21 158.755 14.4145   3
  10   5 -19 189.905 16.6905   4
 -10   5  19 216.205 20.8807   2
  10  -5  19 155.414 24.0515   2
  10   5 -19 181.184 14.6610   3
   5 -10  19 183.991 18.2662   4
  -5  10  19 188.008 14.7790   4
  10  -5  19 179.712 16.0966   4
   5  10 -19 211.891 17.3074   4
   5 -10  17 758.147 34.3864   4
 -10   5  17 794.759 38.4742   2
  -5  10  17 804.437 30.5819   4
  10  -5  17 708.167 41.1478   2
  10   5 -17 823.260 33.7723   4
  10  -5  17 736.210 31.7876   4
   5  10 -17 783.504 33.5585   4
  10   5 -17 770.878 31.6476   3
   5  10 -15 181.908 10.9087   3
   5 -10  15 179.645 16.0020   4
  10   5 -15 174.502 14.9549   4
 -10   5  15 188.828 18.7320   2
 -10   5  15 199.381 16.7719   1
  10  -5  15 175.677 23.1019   2
  10  -5  15 228.648 15.6598   4
  -5  10  15 206.207 13.2102   4
   5  10 -15 207.540 15.9289   4
  10   5 -15 205.048 14.9289   3
 -10   5  13 1326.33 47.2463   1
  10  -5  13 1396.51 56.3386   2
   5 -10  13 1356.20 47.4785   4
   5  10 -13 1373.46 48.2859   4
  -5  10  13 1346.25 42.8211   4
  10  -5  13 1380.19 45.3650   4
  10   5 -13 1408.29 48.5930   4
   5  10 -13 1363.96 41.5658   3
  10   5 -11 2054.75 65.7299   2
 -10   5  11 2056.55 65.0514   1
  10  -5  11 2127.53 72.3857   2
   5 -10  11 2112.51 65.1534   4
  10   5 -11 2025.38 66.5175   4
   5  10 -11 2069.83 66.5335   4
  -5  10  11 2070.73 60.0965   4
  10  -5  11 2056.66 62.7195   4
   5  10  -9 1556.42 52.1097   4
  10   5  -9 1565.25 52.2500   2
   5  10  -9 1616.64 47.2251   2
  10  -5   9 1545.81 55.6251   2
   5 -10   9 1571.29 49.8303   4
  -5  10   9 1471.91 44.5644   4
 -10   5   9 1528.24 55.7244   2
 -10   5   9 1566.70 50.5918   1
  -5  10   7 2044.40 57.3974   4
 -10   5   7 2079.81 69.7966   2
   5  10  -7 2123.69 62.5468   2
 -10   5   7 2136.70 64.3237   1
  10   5  -7 2120.63 67.3797   2
  10  -5   7 2048.99 67.5302   2
  10   5  -5 3835.63 104.083   1
  10   5  -5 3825.25 104.396   2
   5  10  -5 3790.46 100.463   2
  -5  10   5 3350.13 91.4665   1
  10  -5   5 3855.43 102.061   2
  -5  10   5 3195.62 90.1424   4
 -10   5   5 3814.44 105.545   2
  10   5  -3 397.258 23.5456   1
   5 -10   3 455.586 17.4159   1
 -10   5   3 424.838 24.0818   2
   5  10  -3 429.889 23.8898   2
   5  10  -3 449.143 23.0107   1
  -5  10   3 418.159 18.3993   2
  10   5  -3 446.575 24.7220   2
  10  -5   3 446.673 21.1929   2
   5  10  -1 3478.54 114.978   2
  -5  10   1 3653.03 101.819   2
  10   5  -1 3790.43 112.558   1
  10   5  -1 3554.79 113.025   2
 -10   5   1 3756.76 111.459   2
   5 -10   1 3560.88 99.9613   1
  10  -5   1 3590.58 103.892   1
   5  10  -1 3568.91 108.979   1
  10  -5   1 3610.74 105.083   2
  -5  10  -1 3522.33 98.8842   2
  -5  10  -1 3483.77 94.6561   4
  10  -5  -1 3525.16 102.559   2
   5  10   1 3732.17 109.004   1
  10  -5  -1 3520.92 98.3086   1
  10   5   1 3398.72 113.197   2
 -10   5  -1 3577.40 110.408   2
  10   5   1 3757.69 112.462   1
 -10  -5   3 412.517 32.2220   2
 -10   5  -3 374.661 26.9964   2
  10  -5  -3 389.802 19.1913   2
  -5  10  -3 411.044 16.4656   2
  10   5   3 384.545 27.5945   1
 -10  -5   3 423.940 28.0807   1
  -5 -10   3 392.170 26.9497   1
  -5  10  -3 428.193 14.1889   4
   5  10   3 423.603 26.1808   1
  -5  10  -5 3684.00 107.149   2
 -10  -5   5 3942.67 125.888   2
   5  10   5 3720.55 119.976   1
  10  -5  -5 3905.22 111.280   2
  -5 -10   5 4008.54 120.275   1
  10  -5  -5 3845.87 104.557   4
 -10  -5   5 3979.75 122.109   1
 -10  -5   7 2041.69 74.6923   1
  -5 -10   7 2179.40 73.8549   1
 -10  -5   7 2044.30 77.0000   2
  10  -5  -7 2138.14 59.9718   4
  10  -5  -9 1574.59 45.8931   4
 -10  -5   9 1545.78 60.9608   2
 -10  -5   9 1503.85 59.2845   1
  -5 -10   9 1539.99 58.4301   1
  10  -5  -9 1548.42 51.7459   3
  -5 -10  11 2132.48 72.7687   1
  -5 -10  11 2169.13 71.9992   2
 -10  -5  11 2069.45 73.5864   2
 -10  -5  11 2109.84 73.1403   1
  10  -5 -11 1900.00 58.4953   4
  -5 -10  13 1418.67 54.2532   2
  -5 -10  13 1306.63 55.1119   1
 -10  -5  13 1442.48 57.0197   2
  10  -5 -13 1415.83 43.7316   4
 -10  -5  13 1343.99 56.0528   1
 -10  -5  15 168.485 20.6342   1
  -5 -10  15 221.025 21.0188   2
 -10  -5  15 185.157 20.7682   2
  -5 -10  15 155.775 19.4396   1
  10  -5 -17 761.186 32.8439   3
  -5 -10  17 682.435 37.9317   1
  -5 -10  17 833.758 38.1847   2
 -10  -5  17 684.602 39.3639   1
 -10  -5  17 755.896 39.2814   2
 -10  -5  19 173.717 24.3717   1
  -5 -10  19 222.209 22.7550   2
  -5 -10  19 169.067 22.4131   1
 -10  -5  19 169.752 21.8694   2
 -10  -5  21 139.491 21.3260   2
   5  10  21 136.152 17.4010   3
  -5 -10  21 146.418 23.1652   1
 -10  -5  21 149.385 23.3404   1
  -5 -10  21 148.190 21.5234   2
   5  10  23 215.681 20.3117   4
 -10  -5  23 164.860 23.8826   2
 -10  -5  25 78.9527 23.2064   2
  10   6 -22 25.0977 9.72987   3
 -10   6  22 42.2862 17.4438   2
   6 -10  22 52.2374 15.4111   4
  -6  10  22 28.9330 15.0685   2
  -6  10  22 40.1268 12.7712   4
  10  -6  22 55.7001 13.4154   4
  10   6 -22 46.0254 13.1013   4
  -6  10  20 240.238 17.7874   4
 -10   6  20 213.538 21.9822   2
   6 -10  20 254.709 20.7059   4
  10  -6  20 241.222 18.8323   4
  10   6 -20 203.430 18.2775   4
  10  -6  20 197.994 23.0310   2
  10   6 -18 187.738 15.0449   3
 -10   6  18 184.165 20.6333   2
   6 -10  18 233.376 18.6259   4
  10  -6  18 146.437 20.7793   2
  -6  10  18 247.802 16.3676   4
  10   6 -18 222.946 17.5363   4
  10  -6  18 196.541 15.8369   4
   6  10 -18 195.160 17.0374   4
   6  10 -16 196.995 11.6569   3
  -6  10  16 178.642 13.6241   4
   6 -10  16 199.991 16.6677   4
  10  -6  16 212.141 21.8395   2
   6  10 -16 179.013 15.9446   4
  10   6 -16 177.188 14.2707   3
  10  -6  16 199.077 15.0758   4
  10   6 -16 191.240 15.9288   4
  10   6 -14 435.949 22.8533   4
   6 -10  14 405.409 21.8595   4
  10  -6  14 398.916 27.0307   2
 -10   6  14 415.031 21.9272   1
  -6  10  14 415.775 18.7454   4
  10  -6  14 380.661 19.9001   4
   6  10 -14 434.964 23.0189   4
   6  10 -14 405.284 17.3926   3
   6  10 -12 1128.26 43.2832   4
  10   6 -12 1199.29 43.9030   4
  10  -6  12 1165.48 46.9321   2
  10   6 -12 1149.66 41.8097   2
  -6  10  12 1163.83 37.1826   4
   6 -10  12 1160.29 41.6743   4
 -10   6  12 1197.18 41.5324   1
  10  -6  12 1181.35 40.2645   4
  10   6 -10 856.425 33.3346   2
  10  -6  10 894.780 30.1976   4
   6  10 -10 821.332 29.4063   2
   6  10 -10 857.590 34.4425   4
  10  -6  10 812.057 35.4421   2
  10   6 -10 864.002 34.9926   4
 -10   6  10 844.538 31.6395   1
  -6  10  10 860.340 34.3674   2
   6 -10  10 857.718 31.5960   4
  -6  10  10 837.957 27.0484   4
 -10   6  10 836.036 36.9831   2
  10   6  -8 900.653 35.0441   2
 -10   6   8 887.889 37.2090   2
 -10   6   8 926.746 32.2156   1
   6  10  -8 883.061 31.4052   2
  -6  10   8 911.843 34.3210   2
   6 -10   8 904.644 31.2484   4
  -6  10   8 851.242 26.3451   4
  10  -6   8 872.929 34.6691   2
  10  -6   8 920.213 29.8647   4
  10   6  -6 382.434 22.0112   2
   6 -10   6 318.233 11.6400   3
  -6  10   6 383.003 19.3583   2
  10  -6   6 372.925 20.0616   2
 -10   6   6 376.961 17.3990   1
 -10   6   6 409.329 23.1792   2
   6  10  -6 362.450 19.0706   2
  10   6  -6 386.300 22.0166   1
 -10   6   4 2063.70 66.5485   2
   6 -10   4 1941.61 54.9217   3
  -6  10   4 1947.71 60.2665   2
   6  10  -4 1856.06 64.6396   2
  10   6  -4 1964.91 66.4716   1
   6  10  -4 2022.67 65.0947   1
  10   6  -4 1965.75 66.3041   2
  10  -6   4 1969.37 61.6834   2
 -10   6   2 1599.90 54.5911   2
   6 -10   2 1497.64 44.1100   3
   6  10  -2 1519.01 56.3789   2
  -6  10   2 1530.46 47.6789   2
  10   6  -2 1527.79 56.8375   2
   6 -10   2 1439.55 43.9479   1
  10   6  -2 1551.57 55.6296   1
  10  -6   2 1479.11 48.7735   2
   6  10  -2 1589.49 54.2313   1
   6 -10   0 994.274 32.5571   3
  10   6   0 1065.69 44.9907   1
  10  -6   0 1115.22 37.0069   2
   6  10   0 1004.42 48.1530   2
  10  -6   0 1021.88 32.5067   1
  10   6   0 1076.71 46.7770   2
 -10   6   0 1052.01 42.4364   2
   6  10   0 978.244 41.6830   1
  -6  10   0 997.858 34.4262   2
   6 -10  -2 1486.71 47.3357   3
  10  -6  -2 1530.69 49.9697   2
 -10   6  -2 1542.83 57.9499   2
   6  10   2 1716.89 59.5061   1
  -6  10  -2 1628.25 48.7297   2
  -6 -10   2 1500.59 60.2893   1
  10   6   2 1511.76 63.0817   2
  10   6   2 1546.57 60.3648   1
   6 -10  -4 1932.22 59.1006   3
 -10   6  -4 2031.43 72.7850   2
 -10  -6   4 2110.75 74.2702   1
  -6  10  -4 2064.33 60.4753   2
  10   6   4 1847.27 72.4497   1
  10  -6  -4 2061.31 62.0239   2
  10  -6  -4 1928.21 54.2789   4
   6  10   4 2069.31 71.9171   1
 -10  -6   4 1991.78 78.7986   2
  -6 -10   4 1922.82 71.6155   1
  -6 -10   6 390.886 27.1513   1
 -10  -6   6 432.968 32.3111   2
  10  -6  -6 357.549 13.0026   4
 -10  -6   6 439.585 29.5234   1
  10  -6  -6 411.335 19.6656   3
 -10  -6   8 950.895 44.1599   1
 -10  -6   8 958.903 46.5713   2
  -6 -10   8 1006.38 43.6907   1
  10  -6  -8 980.496 29.2489   4
  10  -6  -8 904.521 35.1852   3
 -10  -6  10 859.455 42.2316   1
  -6 -10  10 862.210 41.3762   1
  10  -6 -10 915.642 28.4669   4
 -10  -6  10 866.582 43.2182   2
  10  -6 -10 870.758 34.0413   3
 -10  -6  12 1197.97 51.4168   1
  -6 -10  12 1168.51 50.6964   1
  -6 -10  12 1119.39 50.1671   2
 -10  -6  12 1188.71 51.5594   2
  10  -6 -12 1147.07 42.2754   3
  -6 -10  14 373.144 27.9817   2
  -6 -10  14 369.296 26.9993   1
 -10  -6  14 381.611 28.2377   2
 -10  -6  14 395.618 28.6576   1
 -10  -6  16 213.634 23.5224   1
  -6 -10  16 157.447 20.9835   1
  -6 -10  16 219.177 22.9873   2
 -10  -6  16 178.800 22.0563   2
 -10  -6  18 219.970 25.7459   1
  -6 -10  18 264.043 25.2960   2
 -10  -6  18 215.396 23.6922   2
  -6 -10  18 206.736 23.9217   1
  -6 -10  20 243.297 26.2038   1
 -10  -6  20 183.473 23.5798   2
 -10  -6  20 188.141 25.1883   1
   6  10  22 20.3026 13.8720   3
 -10  -6  22 15.3803 19.7639   1
 -10  -6  22 33.0347 21.5110   2
   6  10  22 53.0682 14.7934   4
 -10  -6  24-1.84962 19.5140   2
   7 -10  23 3.83817 13.6982   4
 -10   7  21 14.4138 15.3811   2
  10   7 -21 15.8067 11.7664   4
   7 -10  21 18.6042 13.7799   4
  -7  10  21 7.23091 11.0254   4
  10  -7  21 4.04233 11.8348   4
  10   7 -19 32.7368 10.4233   3
  10   7 -19 39.0315 12.8983   4
 -10   7  19 40.1292 15.7059   2
  -7  10  19 29.9502 12.4740   4
  10  -7  19 38.7057 15.7320   2
  10  -7  19 34.3494 12.3351   4
   7 -10  19 27.2220 13.2525   4
   7  10 -17 184.160 12.6545   3
  -7  10  17 223.220 15.8402   4
  -7  10  17 198.962 20.1222   2
   7 -10  17 176.213 18.0533   4
  10  -7  17 183.692 15.9853   4
  10   7 -17 203.496 17.7274   4
  10  -7  15 216.421 19.3495   2
 -10   7  15 179.725 15.6354   1
   7 -10  15 185.377 15.5859   4
  -7  10  15 177.583 12.9779   4
  10  -7  15 210.587 14.6765   4
   7 -10  15 150.671 5.85549   3
  -7  10  15 197.597 18.3049   2
  10   7 -15 200.620 16.4805   4
  10   7 -15 184.767 14.0858   3
   7  10 -15 175.062 11.6256   3
 -10   7  13 421.599 20.6265   1
 -10   7  13 414.126 25.5623   2
  -7  10  13 475.264 25.3155   2
  10  -7  13 445.779 24.7422   2
  10   7 -13 409.285 20.8037   2
  10   7 -13 446.179 23.0477   4
   7  10 -13 405.487 22.7491   4
   7 -10  13 423.923 21.1453   4
  10  -7  13 443.982 19.7216   4
   7  10 -13 399.795 17.4160   3
  -7  10  13 420.801 17.7067   4
  -7  10  11 163.210 10.0532   4
 -10   7  11 168.676 13.2423   1
 -10   7  11 177.757 17.4410   2
   7  10 -11 160.497 15.5178   4
   7  10 -11 160.375 11.8632   2
  -7  10  11 177.553 16.1039   2
  10   7 -11 157.603 13.7746   2
   7 -10  11 159.131 13.5600   4
  10   7 -11 180.775 16.1470   4
  10  -7  11 170.230 12.3702   4
  10  -7  11 178.141 15.6361   2
   7  10  -9 594.919 24.1335   2
 -10   7   9 586.751 23.5732   1
  -7  10   9 583.840 27.0274   2
  10  -7   9 593.063 26.3262   2
 -10   7   9 590.425 29.0248   2
  10  -7   9 579.789 22.7117   4
   7 -10   9 574.157 23.4058   4
  10   7  -9 564.641 26.2171   2
   7  10  -9 624.162 28.5411   4
   7 -10   7 776.029 27.6871   4
 -10   7   7 780.717 27.5636   1
  -7  10   7 802.992 31.8541   2
   7  10  -7 784.358 30.6605   2
 -10   7   7 814.101 34.7493   2
  10  -7   7 898.550 27.3997   4
  10   7  -7 820.671 33.4650   2
   7 -10   7 745.716 23.8062   3
  10  -7   7 786.021 30.5531   2
  -7  10   5 411.036 20.3289   2
  10   7  -5 423.642 24.3105   1
  10   7  -5 413.836 23.2542   2
   7  10  -5 395.406 22.5356   2
  10  -7   5 366.161 14.9490   4
   7  10  -5 456.332 23.7164   1
 -10   7   5 392.531 22.7557   2
  10  -7   5 359.907 18.7996   2
   7 -10   5 420.383 14.5307   3
  10   7  -3 45.5096 12.6049   1
   7  10  -3 41.8111 11.6220   1
   7  10  -3 44.1839 12.6895   2
   7 -10   3 45.3557 5.23452   1
  10  -7   3 32.3346 7.37135   2
  -7  10   3 35.6437 7.72527   2
   7 -10   3 38.6121 4.92589   3
 -10   7   3 35.2506 10.4262   2
  10  -7   3 26.0608 4.08034   4
  10   7  -3 45.0659 12.1428   2
   7 -10   1 95.3125 8.01289   3
  -7  10   1 96.7453 10.7687   2
  10   7  -1 99.7019 18.0378   2
   7  10  -1 86.1121 18.6188   2
  10  -7   1 109.946 10.7144   2
   7  10  -1 115.136 16.3683   1
  10  -7   1 87.7600 8.49146   1
 -10   7   1 98.6370 14.9671   2
  10  -7   1 76.0454 4.92401   4
  10   7  -1 103.377 17.1083   1
   7  10   1 92.2495 16.2022   1
   7  10   1 80.1875 22.5725   2
  10   7   1 90.0772 18.9829   2
   7 -10  -1 101.991 8.90007   3
 -10   7  -1 89.7218 15.3683   2
  10  -7  -1 90.9869 10.6500   2
  -7  10  -1 78.8747 10.3493   2
   7 -10  -3 56.2061 7.14653   3
   7  10   3 39.4995 14.7481   1
  10   7   3 34.8270 18.1112   2
 -10   7  -3 40.7808 13.7957   2
  -7  10  -3 37.2085 8.18052   2
  -7 -10   3 63.5105 17.5427   1
  10   7   5 385.767 37.0797   2
   7 -10  -5 465.418 19.4731   3
 -10   7  -5 369.108 28.6952   2
  -7  10  -5 426.894 22.0733   2
   7  10   5 394.699 29.3846   1
 -10  -7   5 422.656 30.7693   1
  10  -7  -5 435.878 20.1336   3
 -10  -7   5 393.543 32.8934   2
  -7 -10   5 456.457 30.4835   1
  -7 -10   7 780.813 40.0483   1
   7 -10  -7 825.376 30.4789   3
 -10  -7   7 837.366 45.1897   2
 -10  -7   7 786.220 40.8097   1
  10  -7  -7 816.468 31.5040   3
 -10  -7   9 604.145 35.2812   1
 -10  -7   9 602.231 36.8286   2
  -7 -10   9 583.594 33.6224   1
  10  -7  -9 566.355 25.2280   3
  10  -7 -11 173.029 14.4342   3
  -7 -10  11 141.256 23.1925   2
  -7 -10  11 147.665 21.1102   1
 -10  -7  11 190.635 23.7746   2
 -10  -7  11 182.213 21.6728   1
  10  -7 -13 468.936 23.7087   3
  -7 -10  13 458.620 32.1003   2
 -10  -7  13 481.332 32.7435   2
 -10  -7  13 410.841 30.7884   1
  -7 -10  13 466.218 31.4986   1
 -10  -7  15 202.805 24.3367   2
  -7 -10  15 175.686 22.0692   1
  -7 -10  15 222.284 25.4691   2
 -10  -7  15 199.744 23.8379   1
  -7 -10  17 170.287 24.1094   1
 -10  -7  17 192.705 24.7686   1
  -7 -10  17 224.307 25.7887   2
 -10  -7  17 154.557 23.5663   2
  -7 -10  19 71.9089 21.2054   2
 -10  -7  19 40.4508 18.4269   2
 -10  -7  19 58.3013 20.4563   1
 -10  -7  21 31.0547 21.3040   1
 -10  -7  21 1.76985 17.3016   2
 -10  -7  23 7.43904 16.8661   2
  10  -8  22 105.070 16.2216   4
   8 -10  22 111.968 17.2359   4
  10  -8  20 118.700 15.4951   4
 -10   8  20 137.421 20.4568   2
   8 -10  20 140.260 16.8025   4
  10   8 -20 140.834 16.7209   4
  10  -8  18 198.960 17.1037   4
  -8  10  18 211.277 21.0125   2
  10   8 -18 197.607 17.6291   4
   8 -10  18 174.143 17.7315   4
   8 -10  18 148.748 7.33348   3
  10  -8  18 181.126 17.6765   2
  10   8 -16 16.7453 8.73828   3
   8 -10  16 18.5449 3.29237   3
  10   8 -16 2.91538 10.6739   4
  -8  10  16 7.50727 12.4473   2
  10  -8  16 10.0376 10.3991   4
   8 -10  16 20.9846 11.2215   4
   8  10 -16 17.2525 7.46711   3
 -10   8  14 281.869 22.2856   2
   8 -10  14 288.540 10.4329   3
  -8  10  14 280.220 21.7223   2
 -10   8  14 289.743 17.5701   1
  10  -8  14 286.974 19.3136   2
   8 -10  14 314.580 18.9990   4
  10   8 -14 352.865 21.1982   4
   8  10 -14 325.467 16.2749   3
  10  -8  14 297.555 17.7814   4
 -10   8  12 475.715 27.6480   2
  10  -8  12 471.733 21.7245   4
  -8  10  12 507.343 26.8743   2
  10   8 -12 452.020 22.9133   2
   8  10 -12 474.512 21.3599   2
 -10   8  12 511.972 22.0542   1
   8 -10  12 489.127 22.9763   4
  10  -8  12 472.244 23.8230   2
  10   8 -12 490.498 26.0634   4
 -10   8  10 455.360 26.1899   2
   8  10 -10 484.644 22.1558   2
  -8  10  10 493.711 25.7903   2
  10  -8  10 532.774 21.4228   4
   8 -10  10 527.623 22.2013   4
 -10   8  10 522.133 21.1277   1
  10  -8  10 457.812 22.5458   2
  10   8 -10 520.571 24.2297   2
  -8  10   8 582.561 26.5907   2
  10  -8   8 528.424 20.7693   4
   8 -10   8 529.638 21.5559   4
   8 -10   8 533.838 18.3952   2
  10   8  -8 567.506 26.0117   2
 -10   8   8 549.954 20.3385   1
  10  -8   8 548.254 23.3261   2
   8  10  -8 550.216 24.5432   2
 -10   8   8 529.445 27.6075   2
 -10   8   6 44.9800 11.6355   2
  10  -8   6 47.6339 8.37931   2
  -8  10   6 51.0255 10.3903   2
  10   8  -6 43.8519 11.3469   2
   8 -10   6 46.4514 7.49685   4
  10  -8   6 40.9275 6.58039   4
   8  10  -6 60.5219 12.0776   2
  10  -8   4 412.615 15.6025   4
  -8  10   4 452.372 21.7399   2
   8  10  -4 475.527 25.4123   1
  10  -8   4 440.134 19.6079   2
   8  10  -4 458.810 25.7507   2
  10   8  -4 466.523 25.8697   2
 -10   8   4 496.939 24.8621   2
   8 -10   4 478.490 17.0279   3
   8  10  -2 329.761 22.1287   1
   8 -10   2 253.600 10.0469   1
  10  -8   2 329.247 15.9235   2
  10   8  -2 337.972 24.3417   2
   8  10  -2 267.317 22.8314   2
  10  -8   2 292.157 10.2653   4
   8 -10   2 312.328 13.4368   3
 -10   8   2 346.078 20.7677   2
  -8  10   2 297.041 17.1968   2
  -8  10   0 658.783 27.4935   2
   8  10   0 633.702 37.4221   2
  10   8   0 647.523 36.2735   2
  10  -8   0 636.690 25.4700   2
   8  10   0 646.670 33.0012   1
 -10   8   0 663.821 31.1945   2
   8 -10   0 671.225 23.7899   3
   8 -10  -2 343.555 15.3621   3
  10   8   2 327.701 29.6470   2
 -10   8  -2 310.162 21.9922   2
   8  10   2 283.564 24.0634   1
  -8  10  -2 289.464 17.9197   2
   8  10   2 270.564 30.0266   2
   8 -10  -4 507.396 20.6223   3
  10   8   4 510.543 38.4711   2
 -10   8  -4 477.633 29.2639   2
  -8  10  -4 468.087 24.2578   2
  -8 -10   4 538.752 33.1451   1
   8  10   4 458.935 31.1344   1
  10  -8  -4 489.424 21.7112   3
  10  -8  -6 66.6281 9.46270   3
   8 -10  -6 54.0950 9.34222   3
  -8 -10   6 32.4952 17.7374   1
   8  10   6 71.9460 19.0299   1
  -8 -10   8 577.321 34.9246   1
   8 -10  -8 553.867 23.7712   3
  10  -8  -8 549.735 24.5147   3
 -10  -8   8 531.969 37.8470   2
  10  -8 -10 504.706 23.5455   3
 -10  -8  10 487.232 35.4154   2
  -8 -10  10 534.781 36.5933   2
 -10  -8  10 493.465 33.3607   1
  -8 -10  10 474.275 32.2768   1
  -8 -10  12 467.285 35.8798   2
 -10  -8  12 542.718 36.5225   2
  -8 -10  12 479.994 33.9972   1
 -10  -8  12 509.755 34.6161   1
  10  -8 -12 463.709 24.2141   3
  10  -8 -14 306.780 19.2630   3
 -10  -8  14 306.484 27.4263   1
  -8 -10  14 345.992 30.3700   2
 -10  -8  14 313.914 28.6270   2
  -8 -10  16 28.0812 20.8599   2
 -10  -8  16 13.8507 17.4337   2
 -10  -8  16 8.88267 16.7534   1
 -10  -8  18 219.394 26.3704   2
  -8 -10  18 222.112 28.6660   2
 -10  -8  18 207.777 27.0340   1
 -10  -8  20 152.205 25.4005   1
  -8 -10  20 191.456 26.9353   2
 -10  -8  20 118.649 22.7872   2
 -10  -8  22 117.684 23.1580   2
  10   9 -21 22.1454 9.76934   3
   9 -10  21 21.5186 12.7830   4
  10  -9  21 28.9560 13.3449   4
   9  10 -19 109.298 11.5534   3
   9 -10  19 98.1557 15.2080   4
  10   9 -19 107.375 15.2728   4
  10  -9  19 80.2054 14.0179   4
   9  10 -19 87.4764 14.8124   4
  10   9 -19 119.704 11.8849   3
  10   9 -17 138.778 13.1303   3
   9 -10  17 149.679 7.74639   3
  10   9 -17 158.674 16.5592   4
 -10   9  17 187.125 20.7891   2
  -9  10  17 207.330 20.5832   2
   9 -10  17 166.513 15.8505   4
  10  -9  17 176.433 15.9510   4
  10  -9  17 163.808 14.7110   2
   9  10 -17 161.737 12.8861   3
  10   9 -15 265.329 16.7551   3
  -9  10  15 317.236 23.4643   2
   9 -10  15 291.966 18.9133   4
   9  10 -15 305.099 16.7345   3
 -10   9  15 271.973 22.4564   2
  10  -9  15 306.638 18.5494   4
 -10   9  15 270.436 17.2438   1
  10   9 -15 312.465 20.5128   4
   9 -10  13 20.8251 5.25841   2
  10   9 -13 17.9339 11.0572   4
 -10   9  13 13.4312 12.1998   2
 -10   9  13 19.1349 9.10155   1
  -9  10  13 30.2708 10.9865   2
   9 -10  13 14.8063 8.89359   4
  10   9 -13 15.1449 8.58324   2
  10  -9  13 27.7545 9.45827   4
   9  10 -13 9.04034 7.86634   2
  10  -9  13 13.9840 8.39905   2
 -10   9  11 417.412 25.0938   2
   9 -10  11 445.114 16.6248   2
  10   9 -11 380.312 23.5004   4
  -9  10  11 412.692 24.7572   2
   9  10 -11 431.374 21.1208   2
   9 -10  11 440.970 20.4755   4
  -9  10  11 409.180 16.8200   1
 -10   9  11 419.301 18.6675   1
  10   9 -11 426.293 21.7348   2
  10  -9  11 401.661 19.0996   2
  10  -9  11 439.742 20.0427   4
  10  -9   9 42.1508 8.27637   2
 -10   9   9 34.5826 6.13940   1
   9  10  -9 31.6784 10.0828   2
  10   9  -9 45.7125 10.7985   2
 -10   9   9 42.5320 12.0247   2
  -9  10   9 19.4277 3.82905   1
   9 -10   9 39.7990 6.28605   2
  10  -9   9 38.2375 7.71395   4
   9 -10   9 21.0215 7.89024   4
  -9  10   9 69.1712 12.9241   2
  -9  10   7 383.147 22.2281   2
   9 -10   7 426.270 17.5874   4
  10  -9   7 448.935 18.5295   2
   9 -10   7 418.888 16.1899   2
  10  -9   7 357.197 16.5238   4
 -10   9   7 390.139 23.0115   2
   9  10  -7 396.904 21.9664   2
  10   9  -7 402.987 22.8328   2
  10  -9   5 1003.33 34.6027   2
   9 -10   5 987.401 31.7066   4
  10   9  -5 1048.45 41.9921   2
  10  -9   5 1051.49 31.8691   4
   9  10  -5 1055.87 42.0993   2
 -10   9   5 1081.41 41.1464   2
  -9  10   5 992.082 39.0194   2
  10  -9   3 699.732 25.4869   2
   9  10  -3 659.564 32.5936   1
   9  10  -3 631.591 33.3921   2
  10  -9   3 686.581 20.9966   4
 -10   9   3 693.273 30.8888   2
  -9  10   3 645.975 28.7446   2
  10   9  -3 694.956 34.3308   2
   9 -10   3 639.588 23.6849   3
   9  10  -1 1084.57 49.3495   2
  10   9  -1 1079.49 48.6172   2
 -10   9   1 1123.16 42.9695   2
  -9  10   1 1049.00 40.2852   2
   9  10  -1 1131.20 46.7551   1
   9 -10   1 1088.33 35.6838   3
   9  10   1 1073.50 52.0476   2
  10   9   1 1069.11 51.3410   2
 -10   9  -1 1112.65 43.0423   2
  -9  10  -1 1061.29 40.2880   2
  10  -9  -1 1024.31 35.7896   3
   9  10   1 1024.24 45.8087   1
   9 -10  -1 1020.02 34.8167   3
   9  10   3 673.261 43.8676   2
  10   9   3 653.973 43.2440   2
  10  -9  -3 678.652 26.4523   3
 -10   9  -3 708.253 33.6380   2
  -9  10  -3 645.302 30.9883   2
  -9 -10   3 584.371 38.2588   1
   9 -10  -3 676.313 25.3957   3
   9  10   3 662.692 36.8334   1
   9 -10  -5 1000.98 36.4504   3
 -10   9  -5 1014.59 46.8633   2
  -9  10  -5 1087.84 44.1346   2
  10  -9  -5 1069.16 37.5319   3
  10   9   5 1116.25 60.1779   2
   9  10   5 1151.63 51.6800   1
  -9 -10   5 1148.26 51.5994   1
   9 -10  -7 408.039 19.9663   3
  10  -9  -7 432.215 20.5576   3
   9  10   7 423.733 33.0162   1
  -9 -10   7 369.167 29.8273   1
  10  -9  -9 27.5028 8.81796   3
   9 -10  -9 33.3942 9.03545   3
 -10  -9   9 34.3267 20.5912   2
  10  -9 -11 422.583 22.2493   3
   9 -10 -11 424.614 22.0712   3
  -9 -10  11 454.252 36.7152   2
 -10  -9  11 456.928 36.4519   2
 -10  -9  13 14.1545 16.1298   1
  10  -9 -13 20.8977 8.91581   3
  -9 -10  13-1.93722 21.8423   2
 -10  -9  13-1.91617 18.4859   2
 -10  -9  15 269.091 28.3470   1
  -9 -10  15 319.447 32.4798   2
 -10  -9  15 292.522 30.2303   2
 -10  -9  17 146.794 25.0724   2
 -10  -9  17 159.727 24.6110   1
  -9 -10  17 183.635 27.6815   2
  -9 -10  19 163.565 27.0728   2
 -10  -9  19 113.384 24.2258   2
 -10  -9  19 85.0605 21.8153   1
 -10  -9  21 18.0039 20.7931   2
  10 -10  22 316.550 24.3374   4
  10 -10  20 221.125 19.9202   4
  10  10 -20 229.080 19.9307   4
  10  10 -20 203.529 15.2030   3
 -10  10  18 1.53647 15.6563   2
  10 -10  18-0.95475 11.3788   4
  10  10 -18-1.07948 11.0435   4
 -10  10  16 466.140 29.5254   2
  10 -10  16 437.895 23.8541   4
  10  10 -16 462.073 26.5911   4
 -10  10  16 459.634 22.6683   1
  10  10 -16 465.316 22.2789   3
 -10  10  14 639.539 33.4705   2
  10 -10  14 625.002 27.2442   4
 -10  10  14 576.149 24.6927   1
 -10  10  12-5.98290 11.9976   2
  10 -10  12 13.2121 6.59798   2
  10  10 -12 10.9052 8.84208   2
  10 -10  12 11.1281 8.33307   4
 -10  10  12 0.45735 6.93982   1
 -10  10  10 1824.76 63.5370   2
  10  10 -10 1821.56 58.9272   2
  10 -10  10 1883.17 53.8593   2
  10 -10  10 1850.80 55.8044   4
 -10  10  10 1642.91 51.0156   1
  10 -10   8 1531.42 47.2777   2
 -10  10   8 1463.74 55.0874   2
  10 -10   8 1580.91 48.0060   4
  10  10  -8 1545.71 53.6709   2
  10 -10   6 336.975 14.5756   4
  10  10  -6 340.026 21.7303   2
  10 -10   6 341.865 15.5220   2
 -10  10   6 315.861 20.9079   2
  10  10  -4 1985.41 68.0690   2
  10 -10   4 1886.14 54.1056   4
 -10  10   4 1930.19 64.3924   2
  10  10  -2 2887.04 96.6834   2
 -10  10   2 2866.84 90.2122   2
 -10  10   0 6438.12 189.553   2
  10  10   0 6611.46 200.748   2
  10 -10   0 6767.77 183.163   3
  10  10   2 2880.34 103.851   2
 -10  10  -2 2868.24 89.9783   2
  10 -10  -2 2786.14 82.5281   3
  10  10   2 2669.72 94.9980   1
  10  10   4 1862.27 83.5193   2
  10  10   4 1889.39 74.5046   1
 -10  10  -4 2036.64 69.6036   2
  10 -10  -4 1941.58 60.6801   3
  10 -10  -6 349.457 18.1098   3
  10  10   6 330.644 30.1706   1
  10 -10  -8 1539.04 51.5091   3
  10 -10 -10 1956.90 62.6226   3
 -10 -10  10 1773.65 79.3174   2
  10 -10 -12 8.52557 8.00080   3
 -10 -10  12-19.3813 24.1979   2
 -10 -10  14 750.777 47.2312   2
 -10 -10  16 555.927 41.7229   2
 -10 -10  18-4.16096 21.5365   1
 -10 -10  18 17.5460 22.5271   2
 -10 -10  20 199.660 30.1077   2
   0  11   1 859.863 30.4745   1
 -11   0  -1 802.675 44.0195   2
  11   0  -1 814.844 33.4351   1
  11   0   1 814.947 35.8511   2
   0 -11   1 820.296 34.2318   1
  11   0  -1 754.796 34.1720   2
  11   0   1 848.403 36.0949   1
   0  11  -3 171.016 7.41408   3
  11   0  -3 167.991 13.3608   1
  11   0   3 162.626 18.1007   2
   0 -11   3 177.545 15.8474   1
   0  11   3 167.317 13.3242   1
   0  11  -5 1793.80 48.3942   4
  11   0   5 1716.99 61.0379   2
 -11   0   5 1796.36 57.8193   1
   0  11   5 1795.57 54.0677   1
   0 -11   5 1809.42 53.9836   1
 -11   0   7 1134.73 48.0548   2
   0  11   7 1139.50 39.2661   3
   0  11  -7 1208.51 39.1671   4
   0 -11   7 1174.03 43.3522   1
  11   0   7 1226.43 53.2614   2
 -11   0   7 1202.18 46.8519   1
   0 -11   9 1613.21 57.0949   1
   0  11   9 1783.86 54.5551   3
  11   0   9 1633.00 69.3770   2
 -11   0   9 1629.32 59.3722   1
  11   0  -9 1729.06 56.3702   2
  11   0  -9 1672.24 53.6754   4
 -11   0   9 1655.30 62.4608   2
   0  11  -9 1708.78 53.1717   4
   0  11 -11 596.784 25.0058   4
   0  11  11 623.125 26.2908   3
  11   0  11 639.768 42.6484   2
   0 -11  11 529.363 28.0130   1
 -11   0  11 648.262 33.3982   2
 -11   0  11 600.147 30.7599   1
  11   0 -11 623.766 25.0571   4
   0  11  13 228.093 16.2021   3
  11   0  13 235.453 32.0584   2
 -11   0  13 243.800 21.3245   2
  11   0 -13 228.917 16.1398   3
   0  11 -13 251.276 15.7354   4
  11   0 -13 246.988 15.4052   4
 -11   0  13 223.563 20.7123   1
   0  11  15 1677.44 57.4628   3
  11   0 -15 1631.54 56.4026   3
   0  11 -15 1695.63 56.1060   4
 -11   0  15 1590.77 61.0787   1
  11   0 -15 1681.18 54.6494   4
 -11   0  15 1741.30 64.7111   2
  11   0 -17 3.50962 9.01180   3
   0  11  17 0.97204 9.24930   3
  11   0 -17-1.47193 8.69404   4
 -11   0  17-1.29311 14.0440   1
   0  11  17 2.67630 8.55891   4
   0  11 -17-9.55764 9.21070   4
 -11   0  17 8.73881 13.6021   2
  11   0 -19 79.9756 13.1150   3
  11   0 -19 82.7298 12.0503   4
   0  11  19 76.0038 12.0019   4
   0  11 -19 90.4252 13.3597   4
  11   0  19 78.3897 13.1353   4
 -11   0  19 60.5358 16.6289   2
 -11   0  19 80.9799 18.6013   1
  11   0 -21 10.8656 10.9533   3
   0  11  21 5.99275 10.0843   4
 -11   0  21 1.51227 16.1332   1
  11   0  21 1.03998 11.1357   4
  11   0 -21 2.56442 10.4825   4
 -11   0  21 19.9382 16.9312   2
 -11   0  23 31.3547 19.6784   1
 -11   0  23 21.4114 16.9123   2
   0  11  23 23.6372 12.1732   4
   0  11  25 104.971 17.1010   4
  -1  11  24 70.5323 15.1519   4
 -11   1  24 87.1514 21.5323   1
 -11   1  22 127.636 21.3230   2
  -1  11  22 142.527 18.0171   3
  11   1 -22 127.240 15.4985   3
  11  -1  22 150.208 17.7790   4
 -11   1  22 116.304 21.1143   1
  -1  11  22 125.758 15.0235   4
  11   1 -20 392.806 23.3235   3
 -11   1  20 364.521 27.7192   1
  11   1 -20 415.429 22.8505   4
  -1  11  20 393.786 21.7174   4
  11  -1  20 393.739 23.4736   4
   1  11 -20 360.816 22.7284   4
 -11   1  20 390.784 30.1183   2
 -11   1  18 47.2007 15.4704   1
  11   1 -18 52.3938 11.7888   3
  11  -1  18 37.0989 11.2472   4
  11   1 -18 48.0304 11.3181   4
  -1  11  18 49.1690 10.4200   4
   1  11 -18 51.1091 11.9100   4
 -11   1  18 23.8413 15.0474   2
  -1  11  16 277.571 19.2289   3
 -11   1  16 257.696 23.0911   2
  -1  11  16 281.704 16.4701   4
   1  11 -16 299.746 18.8443   4
 -11   1  16 268.747 22.7221   1
  11   1 -16 265.424 18.0815   3
  11   1 -16 324.243 18.5202   4
  -1  11  14 838.139 34.5443   3
  11   1 -14 815.217 33.7303   3
  11  -1  14 858.110 52.8571   2
 -11   1  14 765.755 36.8251   1
  11   1 -14 915.386 33.4081   4
 -11   1  14 880.353 40.5813   2
   1  11 -14 841.438 33.0554   4
  -1  11  12 229.336 16.0232   3
  11  -1  12 196.724 28.5516   2
  11   1 -12 216.461 15.3342   4
   1  11 -12 235.888 15.5306   4
 -11   1  12 213.507 19.0818   1
 -11   1  12 211.865 19.8027   2
  -1  11  10 2033.52 62.9919   3
  11  -1  10 1944.43 77.6113   2
  11   1 -10 1938.27 63.7668   2
  11   1 -10 1978.02 62.2217   4
   1  11 -10 2003.53 61.7930   4
 -11   1  10 1941.01 70.0054   2
 -11   1  10 1965.53 66.8778   1
  -1  11   8 277.992 15.5396   3
 -11   1   8 330.296 21.3667   1
   1 -11   8 281.840 17.8532   1
  11  -1   8 288.342 25.5973   2
   1  11  -8 304.993 15.9156   4
 -11   1   8 237.937 20.5210   2
  11   1  -8 297.498 17.7413   2
 -11   1   6 69.8296 14.0170   1
   1 -11   6 40.7911 11.1267   1
  -1  11   6 78.4443 8.66445   3
  11   1  -6 89.9194 11.4627   2
   1  11  -6 71.6093 9.16355   4
  11  -1   6 80.6060 15.3626   2
  -1  11   6 77.6851 11.9231   1
  -1  11   4 1931.07 60.1596   1
  -1  11   4 1785.47 56.8157   3
   1  11  -4 1982.32 58.3571   2
   1 -11   4 1902.10 62.0450   1
  11  -1   4 1983.39 68.2435   2
  11   1  -4 1931.86 61.7097   1
  -1  11   2 1387.47 42.9948   3
 -11   1   2 1303.57 55.2762   2
  11  -1   2 1451.87 52.5971   2
  11  -1   2 1385.99 52.3436   1
  11   1  -2 1426.58 49.8846   1
   1 -11   2 1524.47 49.4039   1
  -1  11   2 1417.38 45.0928   1
  11   1   0 2520.26 80.8086   1
 -11   1   0 2462.38 87.9161   2
   1  11   0 2440.83 74.9803   1
  11  -1   0 2533.70 79.9472   2
  -1  11   0 2637.42 70.4359   3
  11  -1   0 2484.53 78.8876   1
 -11   1  -2 1532.31 64.3253   2
  -1 -11   2 1420.08 52.4118   1
   1  11   2 1406.86 49.0088   1
  11  -1  -2 1490.31 51.2673   2
  11   1   2 1426.22 55.4694   2
  11   1   2 1426.95 54.9915   1
  11  -1  -2 1453.58 49.0031   1
  -1  11  -2 1483.63 41.9029   3
 -11  -1   4 1904.88 67.4315   1
  -1 -11   4 1998.07 64.6645   1
  11  -1  -4 1788.41 59.3099   1
  -1  11  -4 1941.03 57.1029   4
  11   1   4 1917.41 70.3749   2
   1  11   4 1946.98 63.6235   1
 -11  -1   6 52.9613 13.9459   1
   1  11   6 76.1259 13.3246   1
  -1 -11   6 51.4193 11.9070   1
  11   1   6 58.2775 17.0892   2
 -11  -1   6 76.0878 15.0834   2
  -1  11  -6 57.9166 7.60252   4
 -11  -1   8 302.753 22.2094   1
 -11  -1   8 326.315 23.4893   2
  -1  11  -8 288.233 14.9079   4
  11   1   8 339.081 30.0176   2
  -1 -11   8 292.052 19.6257   1
  11  -1  -8 291.970 15.6539   4
 -11  -1  10 1873.77 70.0590   2
  11   1  10 1945.29 81.7201   2
  -1  11 -10 2059.46 61.0186   4
 -11  -1  10 1877.00 67.9972   1
  11  -1 -10 2056.87 60.9589   4
  -1 -11  10 1875.10 66.0053   1
   1  11  12 220.471 15.9832   3
 -11  -1  12 247.019 21.7116   2
  11  -1 -12 229.593 16.1866   3
  -1  11 -12 222.295 15.0497   4
  11  -1 -12 230.114 14.4209   4
 -11  -1  12 249.984 21.7503   1
  -1 -11  12 230.547 19.6288   1
  -1  11 -14 816.329 31.7306   4
   1  11  14 825.034 33.5584   3
 -11  -1  14 779.849 38.2665   1
  11  -1 -14 789.422 30.5059   4
 -11  -1  14 841.094 40.4494   2
  11  -1 -14 798.378 33.0786   3
  11  -1 -16 321.775 19.5384   3
   1  11  16 265.885 19.1951   3
 -11  -1  16 304.885 24.5132   1
 -11  -1  16 353.327 26.1967   2
  11  -1 -16 296.434 17.7432   4
  -1  11 -16 294.770 18.2147   4
  11  -1 -18 44.3929 11.5039   3
  -1 -11  18 47.6626 7.38332   2
   1  11  18 52.3301 10.6311   4
 -11  -1  18 53.6666 17.3632   1
 -11  -1  18 44.0712 16.4954   2
  11  -1 -20 381.974 23.2620   3
 -11  -1  20 419.061 31.0176   2
   1  11  20 396.793 22.6533   4
  11   1  20 417.612 25.0028   4
  11  -1 -20 391.534 21.7935   4
 -11  -1  20 396.796 30.2648   1
   1  11  22 124.815 16.7178   3
   1  11  22 128.671 15.3529   4
 -11  -1  22 144.336 22.9083   2
 -11  -1  22 138.350 23.1326   1
  11   1  22 140.714 16.7494   4
 -11  -1  24 89.1907 22.8799   1
   1  11  24 82.5883 15.7199   4
 -11  -1  24 100.950 22.5954   2
 -11   2  25 129.816 24.2899   1
  -2  11  25 161.350 17.9403   4
 -11   2  23 19.2351 17.4696   2
 -11   2  23 28.0857 19.5604   1
  -2  11  23 31.6828 12.2532   4
  11   2 -23 16.7392 12.2553   4
 -11   2  21 8.15942 15.2421   2
  -2  11  21 7.24500 9.98190   4
  11  -2  21 26.6539 13.0388   4
  11   2 -21 13.8305 10.7970   4
   2  11 -21-1.96739 10.9094   4
 -11   2  21 5.66333 15.8058   1
 -11   2  19 299.324 26.0427   2
  11   2 -19 370.618 21.2832   3
 -11   2  19 326.892 25.2586   1
  11   2 -19 312.882 20.2649   4
  -2  11  19 296.385 18.2333   4
   2  11 -19 309.966 20.4394   4
  11  -2  19 348.224 21.1344   4
  11  -2  17 56.0220 11.2679   4
 -11   2  17 41.5409 15.0407   2
  -2  11  17 69.6647 12.5069   3
  11   2 -17 38.5214 10.1735   3
   2  11 -17 36.9656 10.7147   4
  11  -2  17 60.8184 27.0751   2
  11   2 -17 31.3070 10.4064   4
  -2  11  17 36.2002 9.36369   4
 -11   2  17 32.5382 14.4873   1
  -2  11  15 390.809 18.2229   4
  11  -2  15 309.085 34.5474   2
   2  11 -15 377.888 20.7091   4
  11   2 -15 373.789 20.4609   4
 -11   2  15 333.306 25.2923   2
  11   2 -15 390.735 21.2754   3
 -11   2  15 346.333 24.2439   1
  -2  11  15 374.974 21.7555   3
  -2  11  13 296.505 18.8572   3
 -11   2  13 308.524 21.2816   1
  11  -2  13 269.891 29.4553   2
  -2  11  13 282.185 14.6277   4
   2  11 -13 298.462 17.8004   4
 -11   2  13 319.547 23.4432   2
  11   2 -13 273.860 17.4342   4
  -2  11  11 1543.14 49.6553   3
  11  -2  11 1391.63 61.0937   2
 -11   2  11 1416.69 51.7334   1
  11   2 -11 1444.17 49.6567   2
  11   2 -11 1414.40 48.4746   4
   2  11 -11 1379.01 47.9109   4
 -11   2  11 1418.82 55.0914   2
  -2  11   9 191.858 13.3705   3
  11   2  -9 190.454 14.3683   4
  11   2  -9 194.305 14.7542   2
  11  -2   9 189.396 22.3216   2
   2  11  -9 184.709 13.6575   4
 -11   2   9 204.077 17.5808   1
   2  11  -7 88.0508 5.34613   2
  -2  11   7 101.659 9.90285   3
   2 -11   7 96.8768 11.4320   1
  11   2  -7 102.834 12.0661   2
 -11   2   7 129.664 14.7310   1
  11  -2   7 86.5033 16.6098   2
   2  11  -7 96.0302 10.7110   4
   2 -11   5 2357.31 77.6474   1
  -2  11   5 2615.47 75.7052   3
 -11   2   5 2551.81 81.6061   1
  11  -2   5 2564.32 84.7138   2
   2  11  -5 2574.64 74.1724   2
  11   2  -5 2610.91 79.5211   1
  -2  11   5 2686.63 77.4685   1
  11   2  -5 2577.72 81.1007   2
  -2  11   3 470.479 19.3357   3
  11   2  -3 487.164 24.8602   1
   2  11  -3 496.448 24.3528   2
   2 -11   3 479.614 22.8948   1
  -2  11   3 517.785 20.0136   1
 -11   2   3 517.810 29.5126   2
  11  -2   3 494.652 26.2990   2
  -2  11   1 1103.84 33.3117   1
  11   2  -1 991.768 40.9868   1
 -11   2   1 940.071 44.5690   2
  11  -2   1 1101.65 40.7165   1
  11  -2   1 1051.61 40.3821   2
   2  11  -1 1021.95 37.5923   1
   2 -11   1 998.877 37.3190   1
  -2  11   1 1030.42 32.6457   3
 -11   2  -1 1036.78 47.5774   2
  11  -2  -1 968.067 36.2477   1
  -2 -11   1 973.683 41.1138   1
   2  11   1 988.059 37.4075   1
  11   2   1 984.968 41.9595   1
  11  -2  -1 1002.82 38.1794   2
  -2  11  -1 998.782 30.2797   3
  11  -2  -3 443.351 20.2668   1
   2  11   3 450.814 24.4728   1
  11   2   3 414.167 27.2734   1
 -11   2  -3 471.257 33.2474   2
 -11  -2   3 432.962 30.8385   2
  -2  11  -3 440.238 14.6033   2
  11   2   3 447.598 28.5042   2
  -2  11  -3 446.862 17.3880   4
  11  -2  -3 492.213 23.1132   2
  -2 -11   3 506.976 26.9766   1
  11  -2  -5 2407.85 77.9502   2
  11   2   5 2628.30 91.2461   2
  -2 -11   5 2661.18 82.5362   1
 -11  -2   5 2455.21 87.4291   2
 -11  -2   5 2530.66 85.1703   1
  -2  11  -5 2554.85 72.7262   4
   2  11   5 2488.86 82.4222   1
  11  -2  -7 116.289 9.79687   4
 -11  -2   7 128.632 17.0915   1
  11   2   7 140.408 22.0983   2
  -2 -11   7 118.139 15.5417   1
 -11  -2   7 136.110 17.5102   2
  -2  11  -7 112.638 9.22872   4
  11   2   9 179.554 26.8251   2
  -2 -11   9 187.124 17.9716   1
 -11  -2   9 181.692 19.5750   2
 -11  -2   9 177.845 19.4645   1
  11  -2  -9 201.769 12.3391   4
  -2  11  -9 209.587 12.5579   4
  11  -2 -11 1355.17 43.9125   4
 -11  -2  11 1362.27 53.3005   1
  11  -2 -11 1290.02 47.0641   3
  -2  11 -11 1385.50 45.1617   4
 -11  -2  11 1398.98 55.3540   2
  -2 -11  11 1426.43 52.3949   1
  11  -2 -13 301.869 16.2865   4
  -2 -11  13 302.195 22.6868   1
 -11  -2  13 308.543 23.8857   2
 -11  -2  13 280.342 23.3668   1
  11  -2 -13 316.709 18.8713   3
  -2  11 -13 296.440 16.9154   4
  11  -2 -15 322.516 20.0172   3
   2  11  15 379.785 21.2019   3
 -11  -2  15 362.260 26.0837   1
  -2 -11  15 354.185 24.8820   1
 -11  -2  15 351.361 26.2970   2
  11  -2 -15 336.343 17.8594   4
  -2  11 -15 364.100 19.3703   4
  11  -2 -17 51.9921 10.1092   4
  11  -2 -17 31.9900 10.4411   3
  -2 -11  17 57.4684 10.6165   2
 -11  -2  17 39.4279 15.4994   2
 -11  -2  17 43.9237 16.9790   1
   2  11  19 366.802 21.1475   4
  11  -2 -19 334.647 21.7402   3
  11  -2 -19 316.849 18.8853   4
  -2 -11  19 358.806 20.4345   2
 -11  -2  19 322.643 27.7732   1
 -11  -2  19 364.933 28.6298   2
 -11  -2  21 14.9413 18.7196   1
   2  11  21 15.2156 12.3085   3
  11   2  21 15.0919 12.1194   4
   2  11  21 18.2684 11.5722   4
 -11  -2  21 8.56266 16.1499   2
 -11  -2  23 60.7150 22.9112   1
   2  11  23 17.0699 13.7333   4
 -11  -2  23 18.3884 18.8244   2
 -11   3  24 209.733 26.0098   1
  -3  11  24 210.940 19.4639   4
 -11   3  22 55.8366 19.0312   2
  11  -3  22 96.5593 31.1477   2
   3  11 -22 65.5728 13.3631   4
 -11   3  22 47.5566 17.6603   1
  11   3 -22 58.7069 13.5210   4
  -3  11  22 76.7517 12.6599   4
  11  -3  22 79.7309 15.5415   4
 -11   3  20 85.7534 18.0410   1
 -11   3  20 83.8592 17.9402   2
  11   3 -20 90.4713 12.9379   3
  -3  11  20 92.4682 12.4705   4
  11  -3  20 104.674 29.3756   2
  11   3 -20 96.6186 14.4694   4
  11  -3  20 93.0598 14.6624   4
   3  11 -20 89.1171 13.4293   4
 -11   3  18 155.565 19.8116   2
  11   3 -18 145.808 14.5121   3
  11  -3  18 176.146 31.1394   2
  -3  11  18 154.164 13.1878   4
 -11   3  18 169.765 19.3979   1
  11  -3  18 157.874 15.3385   4
  11   3 -18 149.966 15.0355   4
   3  11 -18 169.153 15.7526   4
  -3  11  18 151.598 16.3474   3
  -3  11  16 119.763 14.7920   3
  11   3 -16 98.2011 12.3584   3
   3  11 -16 123.993 13.6702   4
  11  -3  16 159.742 14.0301   4
  11  -3  16 103.089 24.1373   2
  -3  11  16 113.871 11.1891   4
  11   3 -16 104.320 12.9698   4
 -11   3  16 109.076 16.7093   1
 -11   3  16 87.3840 16.8501   2
  -3  11  14 97.5352 12.4716   3
 -11   3  14 118.813 16.5972   2
  11   3 -14 99.3014 12.1195   4
  11  -3  14 108.462 22.5586   2
   3  11 -14 120.258 12.6340   4
 -11   3  14 114.036 15.5811   1
  -3  11  14 139.344 10.8246   4
  11   3 -14 116.623 12.4129   3
  -3  11  12 409.377 16.8771   4
  11  -3  12 371.850 30.5752   2
  11   3 -12 389.915 20.9742   4
  11   3 -12 400.145 21.1211   2
   3  11 -12 376.019 20.6117   4
 -11   3  12 374.681 25.3722   2
  -3  11  12 444.733 22.8079   3
 -11   3  12 347.240 22.4779   1
  11   3 -10 676.099 29.5272   2
 -11   3  10 702.214 31.3211   1
  11  -3  10 695.523 38.3906   2
   3  11 -10 724.903 29.1105   4
  11   3 -10 749.803 30.1701   4
   3  11 -10 669.332 21.3374   3
  -3  11  10 750.316 29.9833   3
   3  11  -8 456.667 21.8212   4
  11   3  -8 443.333 22.9429   2
   3  11  -8 469.889 16.0942   2
  11  -3   8 465.627 28.5034   2
 -11   3   8 431.934 24.1120   1
  -3  11   8 486.066 21.8990   3
   3 -11   6 979.306 36.5135   1
 -11   3   6 1010.60 42.8452   2
  11  -3   6 1004.70 42.5797   2
   3  11  -6 1029.12 33.4570   2
  -3  11   6 1050.53 36.3361   1
 -11   3   6 1056.70 40.2720   1
  11   3  -6 1063.51 40.2032   2
  -3  11   6 1100.51 36.3832   3
   3  11  -4 1585.52 52.4984   2
  -3  11   4 1620.26 48.3207   1
  11   3  -4 1661.51 55.6223   1
 -11   3   4 1561.98 59.0443   2
  11  -3   4 1696.70 57.5343   2
   3 -11   4 1574.37 51.2671   1
  11   3  -4 1567.32 56.1107   2
  -3  11   4 1587.99 49.7659   3
   3  11  -2 1102.81 40.4368   1
  -3  11   2 1137.97 35.9467   3
 -11   3   2 1183.08 47.6003   2
  11   3  -2 1268.24 45.2765   1
   3 -11   2 1121.25 38.7992   1
  11  -3   2 1154.89 42.8654   1
  11  -3   2 1132.46 42.4514   2
  11   3   0 2477.33 82.7101   1
 -11   3   0 2454.71 85.8148   2
  11  -3   0 2534.53 78.2132   2
   3  11   0 2394.66 77.7301   1
  -3  11   0 2504.43 69.8681   4
  11  -3   0 2587.39 76.8853   1
  11  -3  -2 1184.69 42.1992   2
 -11  -3   2 1284.93 57.1422   2
 -11   3  -2 1121.14 51.4041   2
   3  11   2 1151.08 44.1631   1
  -3  11  -2 1144.13 34.5334   2
  -3 -11   2 1211.29 48.0584   1
  -3  11  -2 1149.83 35.0038   4
  11   3   2 1167.46 48.6940   1
  11  -3  -2 1187.94 39.0886   1
  -3 -11   4 1590.13 57.1963   1
  11  -3  -4 1617.63 51.9142   2
 -11  -3   4 1544.77 63.3882   2
  11   3   4 1542.42 62.7552   2
 -11  -3   4 1634.77 60.2273   1
  -3  11  -4 1527.81 44.8579   4
  -3  11  -4 1438.62 42.5046   2
   3  11   4 1534.66 56.0755   1
  11  -3  -6 991.005 32.2920   4
   3  11   6 1011.56 42.9100   1
  11  -3  -6 968.782 36.2947   2
 -11  -3   6 973.161 45.8090   2
  -3 -11   6 1023.27 41.6584   1
 -11  -3   6 926.956 42.7794   1
  11   3   6 974.043 50.0269   2
  -3  11  -6 925.830 31.3300   4
  11   3   8 409.115 35.5137   2
  -3  11  -8 490.131 19.3341   4
 -11  -3   8 439.208 29.2517   2
  11  -3  -8 445.411 18.6407   4
  -3 -11   8 441.739 26.3114   1
 -11  -3   8 459.535 28.9546   1
  -3 -11  10 724.375 34.9709   1
 -11  -3  10 710.915 36.5812   1
 -11  -3  10 741.182 37.5598   2
  11  -3 -10 711.017 26.0897   4
  -3  11 -10 743.880 27.2436   4
 -11  -3  12 359.604 26.4949   2
  11  -3 -12 395.007 17.6622   4
  -3 -11  12 404.092 25.9732   1
  -3  11 -12 378.127 18.6877   4
 -11  -3  12 370.016 26.4260   1
  11  -3 -14 103.344 12.3355   3
  -3 -11  14 108.733 16.3263   1
 -11  -3  14 142.332 19.3693   1
 -11  -3  14 142.161 18.5575   2
  11  -3 -14 126.054 11.1079   4
  -3  11 -14 128.243 11.6095   4
  11  -3 -16 99.1668 13.0423   3
 -11  -3  16 92.1194 19.2041   1
  -3 -11  16 104.365 17.8799   1
 -11  -3  16 67.0196 17.2240   2
  -3 -11  16 146.085 16.0041   2
  11  -3 -16 104.621 10.8113   4
  -3 -11  18 128.319 19.3109   1
 -11  -3  18 133.862 20.5683   2
  11  -3 -18 151.685 15.1288   3
  -3 -11  18 203.507 18.4646   2
 -11  -3  18 192.634 22.8090   1
  11  -3 -18 151.681 13.0904   4
 -11  -3  20 86.6375 20.4403   1
  -3 -11  20 118.081 17.0627   2
  -3 -11  20 133.748 21.3051   1
 -11  -3  20 114.635 20.9036   2
   3  11  20 130.364 15.4375   4
   3  11  22 79.9592 15.6183   3
 -11  -3  22 73.7252 22.5612   1
 -11  -3  22 79.6210 21.4715   2
   3  11  22 71.6415 14.0619   4
  11   3  22 79.3773 15.0374   4
 -11  -3  24 188.421 27.2485   2
   3  11  24 208.529 21.6933   4
 -11   4  25 125.652 24.3058   1
  -4  11  23 86.2960 13.8105   4
 -11   4  23 79.0146 20.0452   1
  11   4 -23 92.5410 16.0768   4
  -4  11  21 66.6602 13.1022   4
 -11   4  21 71.7082 18.7478   2
  11   4 -21 58.8162 12.0543   3
  11  -4  21 67.8663 24.1044   2
 -11   4  21 46.1670 16.5712   1
  11  -4  21 66.2987 13.8379   4
   4  11 -21 75.9533 13.6304   4
  11   4 -21 65.2880 14.0768   4
 -11   4  19 264.956 24.8227   2
  11  -4  19 291.463 31.0084   2
  11   4 -19 292.070 20.4515   4
  -4  11  19 327.441 18.5170   4
  11  -4  19 308.701 20.4524   4
 -11   4  19 274.797 23.4220   1
 -11   4  17 380.286 25.1393   1
  11  -4  17 406.334 33.7722   2
  11   4 -17 436.908 23.2903   4
  -4  11  17 425.339 20.2399   4
   4  11 -17 377.666 22.7345   4
  11  -4  17 435.370 22.8447   4
  -4  11  17 412.696 25.2815   3
 -11   4  17 379.752 27.3422   2
  11   4 -17 407.735 22.2703   3
  11   4 -15 52.8207 10.5945   3
 -11   4  15 52.2725 15.3091   2
  11  -4  15 62.1250 21.2554   2
 -11   4  15 33.7744 13.1642   1
  11  -4  15 47.8223 10.4841   4
  11   4 -15 37.2960 11.1726   4
  -4  11  15 54.2687 9.30397   4
   4  11 -15 52.4394 11.4508   4
  -4  11  15 42.2084 11.7967   3
   4  11 -13 1141.79 33.4646   3
 -11   4  13 1049.70 41.9779   1
  11  -4  13 1082.05 50.8983   2
   4  11 -13 1110.27 40.8209   4
  -4  11  13 1055.84 35.6266   4
  11   4 -13 1093.53 40.8725   4
  11  -4  13 1116.10 38.8369   4
  -4  11  13 1129.03 42.4458   3
  11   4 -11 1147.19 41.9482   4
  11   4 -11 1161.83 41.9329   2
  11  -4  11 1196.69 50.8306   2
   4  11 -11 1153.58 41.5453   4
 -11   4  11 1159.32 42.6462   1
  -4  11  11 1050.73 35.4273   4
   4  11 -11 1138.49 34.0779   3
  -4  11  11 1186.41 42.9051   3
   4  11  -9 69.6468 11.4736   4
  11   4  -9 75.2029 11.4294   2
   4  11  -9 61.4955 6.69864   2
  11  -4   9 84.9060 16.0538   2
 -11   4   9 68.6477 12.9543   1
  -4  11   9 79.7010 6.71587   4
  -4  11   9 70.7894 10.6625   3
  11  -4   7 2608.69 83.8242   2
 -11   4   7 2547.80 84.1280   2
 -11   4   7 2505.15 79.2481   1
   4  11  -7 2546.29 73.5722   2
  -4  11   7 2588.26 77.2103   3
  11   4  -7 2540.09 80.3580   2
  11   4  -5 3951.34 118.589   1
  -4  11   5 3998.23 110.134   1
 -11   4   5 4012.65 122.616   2
   4  11  -5 3983.70 114.768   2
  11  -4   5 3961.13 119.340   2
   4 -11   5 4061.75 113.671   1
  11   4  -5 3930.63 119.480   2
  -4  11   5 3983.26 113.663   3
   4  11  -3 1064.23 42.2119   2
   4 -11   3 1147.86 37.1315   1
 -11   4   3 1142.13 45.9130   2
  11   4  -3 1098.10 43.7083   2
   4  11  -3 1068.75 40.3492   1
  11  -4   3 1038.25 40.8034   2
  11   4  -3 1080.41 43.1407   1
   4 -11   1 3327.16 94.8290   1
   4  11  -1 3244.77 100.182   1
  11   4  -1 3465.86 104.660   1
 -11   4   1 3333.36 106.077   2
  -4  11   1 3372.44 93.5727   2
  -4  11   1 3256.03 89.7375   4
  11  -4   1 3386.73 98.5223   1
  11   4  -1 3320.65 105.496   2
  11  -4   1 3309.28 99.1868   2
  11  -4  -1 3230.86 97.5438   2
  -4  11  -1 3310.79 91.5790   2
  -4  11  -1 3240.65 89.2808   4
   4  11   1 3461.30 101.475   1
  11  -4  -1 3166.94 94.0261   1
 -11   4  -1 3392.39 107.587   2
  11   4   1 3426.66 105.953   1
  -4  11  -3 1068.53 31.9989   4
 -11   4  -3 1081.76 50.5825   2
  11  -4  -3 1041.46 38.5644   2
 -11  -4   3 980.476 51.4881   2
  11   4   3 1062.59 47.4275   1
  -4 -11   3 1044.10 45.4525   1
  -4  11  -3 1048.70 32.3450   2
  11  -4  -3 1065.41 34.1768   1
   4  11   3 1087.55 43.9246   1
 -11  -4   5 4018.16 129.996   2
  -4  11  -5 3800.71 109.258   4
  11  -4  -5 3983.98 115.769   2
  11  -4  -5 3981.18 110.033   4
   4  11   5 4207.75 124.201   1
 -11  -4   5 3968.82 125.646   1
  -4 -11   5 4287.44 124.413   1
  11   4   7 2572.87 101.272   2
 -11  -4   7 2564.23 92.9978   2
  -4 -11   7 2581.71 88.0883   1
  11  -4  -7 2549.16 82.0422   2
  -4  11  -7 2783.21 77.2027   4
 -11  -4   7 2619.45 90.6477   1
  11  -4  -7 2790.54 76.5993   4
  11  -4  -9 70.0501 10.9278   3
  -4 -11   9 73.3196 15.9238   1
 -11  -4   9 68.1758 17.1483   2
 -11  -4   9 98.1452 18.4792   1
  11  -4  -9 69.4850 8.24327   4
  -4  11  -9 85.5294 9.52768   4
  -4 -11  11 1179.69 48.3925   1
 -11  -4  11 1209.96 51.0390   2
 -11  -4  11 1191.71 49.7407   1
  11  -4 -11 1158.46 36.8562   4
  -4  11 -11 1065.55 37.9901   4
 -11  -4  13 1049.02 49.3221   2
  -4 -11  13 1147.13 48.6291   1
 -11  -4  13 1099.34 49.6191   1
  11  -4 -13 1196.47 38.1395   4
  11  -4 -15 19.5230 10.0274   3
  -4 -11  15 31.6635 15.6435   2
 -11  -4  15 46.6825 16.0991   2
 -11  -4  15 60.6975 18.5304   1
  -4 -11  15 35.7827 15.8021   1
  11  -4 -15 54.0283 8.87952   4
  11  -4 -17 362.734 22.4569   3
 -11  -4  17 418.276 30.8438   1
  -4 -11  17 463.590 27.9391   2
  -4 -11  17 372.011 27.8550   1
 -11  -4  17 402.643 29.9060   2
  11  -4 -19 297.586 20.3178   3
 -11  -4  19 343.027 29.7725   1
  -4 -11  19 329.913 26.6193   2
 -11  -4  19 309.872 27.1709   2
  -4 -11  19 275.518 26.1526   1
  -4 -11  21 65.6690 19.5873   1
 -11  -4  21 98.4240 21.8231   2
 -11  -4  21 75.5717 22.2164   1
   4  11  21 60.2834 14.1953   3
   4  11  21 95.7318 15.9092   4
 -11  -4  23 86.5945 23.3672   2
   4  11  23 111.863 17.1663   4
 -11  -4  25 124.793 27.7723   2
 -11   5  24 16.3715 18.2543   1
  11  -5  22 180.891 18.8987   4
   5 -11  22 154.520 20.9001   4
 -11   5  22 189.039 22.2422   1
  11   5 -22 170.826 16.0771   3
  -5  11  22 177.591 16.6205   4
  11   5 -22 184.674 19.0660   4
  11   5 -20 612.526 28.0938   3
   5 -11  20 543.515 31.9909   4
  11  -5  20 520.718 36.7273   2
  -5  11  20 561.736 26.5854   4
  11   5 -20 546.115 29.0409   4
  11  -5  20 630.914 29.5756   4
   5  11 -20 567.332 29.5873   4
 -11   5  20 576.533 32.2213   1
 -11   5  20 631.613 36.0653   2
 -11   5  18 37.0730 15.2122   2
  11  -5  18 34.9715 18.3106   2
  11   5 -18 46.6716 12.7249   4
  -5  11  18 36.6954 9.94329   4
 -11   5  18 56.6626 15.4777   1
   5  11 -18 31.5164 11.7959   4
   5 -11  18 57.0852 14.5422   4
  11  -5  18 46.9210 11.4027   4
  11  -5  16 596.914 37.0718   2
  11   5 -16 717.459 30.8834   4
  -5  11  16 686.333 26.5291   4
   5  11 -16 630.851 29.9487   4
  11  -5  16 696.916 29.4375   4
   5 -11  16 629.866 31.2510   4
  11   5 -16 643.227 28.9910   3
 -11   5  16 655.110 35.7926   2
 -11   5  16 693.839 32.3016   1
   5  11 -14 1038.98 33.2419   3
  -5  11  14 1050.19 35.5253   4
 -11   5  14 1059.26 41.0969   1
  11  -5  14 1012.01 48.2679   2
  11  -5  14 1035.26 37.8797   4
   5 -11  14 1072.38 41.1944   4
   5  11 -14 1137.37 41.1541   4
  11   5 -14 1118.41 41.2257   4
  11   5 -12 257.149 18.3070   4
  11   5 -12 274.365 17.6687   2
  11  -5  12 221.262 22.2215   2
   5  11 -12 278.702 18.2209   4
  -5  11  12 252.444 13.3798   4
  11  -5  12 251.407 15.2013   4
   5  11 -12 281.636 12.4739   3
 -11   5  12 246.563 18.1756   1
  11   5 -10 2061.05 68.0716   2
   5  11 -10 2131.20 61.6645   2
  11  -5  10 2181.60 73.4346   2
 -11   5  10 2095.03 67.7322   1
  11   5 -10 2188.34 69.3672   4
   5  11 -10 2124.41 68.1950   4
  -5  11  10 2203.48 60.7305   4
  11   5  -8 2252.38 73.7081   2
   5  11  -8 2334.89 73.6475   4
  11  -5   8 2282.28 75.7294   2
  -5  11   8 2385.68 64.3811   4
 -11   5   8 2192.24 77.2139   2
   5  11  -8 2272.09 67.9249   2
 -11   5   8 2296.47 72.3257   1
  -5  11   6 192.005 9.54011   1
  11   5  -6 211.149 17.2516   1
  11  -5   6 225.313 17.0782   2
  -5  11   6 206.507 7.58137   4
   5  11  -6 212.991 13.5935   2
  11   5  -6 226.892 17.1830   2
 -11   5   6 221.167 19.0319   2
   5 -11   4 5011.52 138.831   1
   5  11  -4 5022.93 144.763   2
   5  11  -4 5158.35 145.171   1
  -5  11   4 4898.00 140.043   2
  11   5  -4 4972.26 146.847   1
 -11   5   4 5089.17 149.121   2
  11  -5   4 4890.12 143.796   2
  11   5  -4 5027.94 147.853   2
  11   5  -2 4923.33 142.813   1
  11   5  -2 4814.77 143.451   2
   5  11  -2 4441.11 143.259   2
  -5  11   2 4602.36 132.719   2
 -11   5   2 4999.09 144.219   2
   5  11  -2 4917.60 139.750   1
  11  -5   2 4663.29 136.762   2
   5 -11   2 4837.99 132.045   1
  11  -5   0 204.392 14.8357   2
  -5  11   0 212.815 11.5176   2
  11  -5   0 185.348 12.9116   1
 -11   5   0 191.874 19.6987   2
  11   5   0 200.062 20.2470   2
   5  11   0 198.222 17.9359   1
  -5  11   0 179.165 6.76370   4
  11   5   0 204.035 20.9096   1
   5  11   2 4718.45 144.041   1
  11  -5  -2 4854.80 138.099   2
 -11   5  -2 4739.41 148.289   2
  -5 -11   2 4833.40 148.411   1
  11   5   2 4638.26 147.699   1
  -5  11  -2 4939.37 130.003   4
  -5  11  -2 4770.32 133.144   2
  11  -5  -2 4770.26 132.515   1
 -11  -5   4 5025.15 155.885   1
 -11   5  -4 5085.76 158.071   2
 -11  -5   4 4919.78 161.444   2
  11  -5  -4 4930.00 143.797   2
  -5  11  -4 4853.66 138.803   2
  11   5   4 5078.58 156.328   1
   5  11   4 5074.04 152.446   1
  -5 -11   4 4969.65 153.453   1
  -5  11  -4 5282.32 137.254   4
 -11  -5   6 225.941 23.1346   1
 -11  -5   6 185.557 23.7545   2
  -5 -11   6 228.361 22.1784   1
  11  -5  -6 231.530 10.3101   4
   5  11   6 253.035 24.1102   1
  -5  11  -6 194.469 10.5455   4
 -11  -5   8 2387.23 83.8252   1
  11   5   8 2322.26 96.1453   2
 -11  -5   8 2253.69 85.3170   2
  -5 -11   8 2322.30 81.3300   1
  11  -5  -8 2448.57 67.3384   4
  11  -5  -8 2267.57 73.2560   3
 -11  -5  10 2166.56 75.6627   1
 -11  -5  10 2067.03 76.2082   2
  11  -5 -10 2141.89 66.1199   3
  11  -5 -10 1920.68 59.0439   4
  -5 -11  10 2133.34 74.1547   1
  -5 -11  12 301.511 24.2902   1
 -11  -5  12 272.993 24.5692   1
 -11  -5  12 240.302 23.5108   2
  11  -5 -12 241.117 12.8048   4
  -5 -11  14 1163.34 49.4625   2
  -5 -11  14 1105.38 49.0726   1
 -11  -5  14 981.752 48.9409   2
 -11  -5  14 1062.01 49.9794   1
  11  -5 -14 1120.57 36.6137   4
  11  -5 -16 684.592 31.2074   3
  -5 -11  16 712.639 38.4269   2
 -11  -5  16 717.866 39.2838   2
  -5 -11  16 614.870 36.8938   1
 -11  -5  16 747.268 40.7326   1
 -11  -5  18 34.0820 19.7948   1
  11  -5 -18 44.0022 11.4667   3
  -5 -11  18 42.5101 19.2274   2
 -11  -5  18 38.1542 17.7907   2
  -5 -11  18 30.7624 16.7915   1
  -5 -11  20 538.868 36.6666   1
   5  11  20 628.743 32.6675   3
  -5 -11  20 666.686 37.2935   2
 -11  -5  20 611.719 39.0357   1
 -11  -5  22 160.931 27.3349   1
 -11  -5  22 173.008 24.6757   2
   5  11  22 169.142 18.8388   4
 -11  -5  24 25.7895 21.2506   2
 -11   6  23 68.1451 18.0894   1
 -11   6  21 23.1614 15.1557   1
 -11   6  21 8.32987 15.7095   2
  11   6 -21 4.37742 9.61362   3
   6 -11  21 22.4261 14.7652   4
  11  -6  21 11.1644 11.6685   4
  11  -6  21 14.4058 16.2435   2
  -6  11  21 17.1233 11.5257   4
   6  11 -21 7.71909 12.5569   4
  11   6 -19 265.157 18.5712   3
  -6  11  19 278.343 24.0314   2
 -11   6  19 278.204 24.7851   2
   6 -11  19 292.354 22.4429   4
   6  11 -19 295.494 21.4985   4
  11   6 -19 279.245 21.1329   4
  11  -6  19 284.859 19.9041   4
 -11   6  19 307.462 23.3812   1
  -6  11  19 263.455 18.5073   4
 -11   6  17 307.301 25.4043   2
   6  11 -17 359.999 16.4450   3
  -6  11  17 404.242 20.0541   4
 -11   6  17 401.733 23.8963   1
  11  -6  17 385.854 28.0036   2
   6 -11  17 381.143 23.6350   4
  11   6 -17 360.594 22.4065   4
   6  11 -17 382.956 23.1806   4
  11  -6  17 404.393 21.9889   4
  11   6 -17 401.611 22.0414   3
 -11   6  15 44.1642 12.6117   1
  11   6 -15 43.8708 11.4853   4
   6  11 -15 38.8673 6.76296   3
   6  11 -15 45.5905 10.6784   4
  11  -6  15 51.5298 10.2396   4
   6 -11  15 57.2949 12.7762   4
  -6  11  15 53.8602 9.14775   4
  11   6 -15 43.1003 10.1222   3
 -11   6  13 973.143 37.7121   1
  11  -6  13 944.667 42.7144   2
  11   6 -13 962.388 37.3304   2
  -6  11  13 965.093 32.4532   4
   6 -11  13 1019.19 38.1862   4
   6  11 -13 992.472 38.8066   4
  11  -6  13 999.500 35.8014   4
  11   6 -13 898.298 38.0807   4
   6  11 -13 971.973 31.9947   3
 -11   6  11 1435.18 50.0061   1
  11   6 -11 1435.08 50.6635   2
   6  11 -11 1436.18 45.6977   2
  11  -6  11 1487.53 55.0757   2
   6 -11  11 1486.14 49.6610   4
  11   6 -11 1517.00 52.4746   4
  -6  11  11 1489.26 44.0751   4
   6  11 -11 1511.95 51.9024   4
  11  -6  11 1505.73 47.4089   4
 -11   6  11 1400.84 55.5023   2
 -11   6   9 297.384 17.9938   1
   6  11  -9 293.848 15.0198   2
  11   6  -9 282.259 18.5511   2
   6  11  -9 299.025 19.0781   4
  -6  11   9 277.515 11.1430   4
  11  -6   9 284.594 19.7054   2
  -6  11   9 294.713 18.3333   2
  11  -6   9 272.846 14.4131   4
 -11   6   9 309.915 21.9632   2
 -11   6   7 1521.19 47.4591   1
  11   6  -7 1591.12 52.1660   2
  -6  11   7 1616.56 49.4439   2
  11  -6   7 1495.75 49.9967   2
   6  11  -7 1429.40 46.7971   2
 -11   6   7 1529.13 54.1798   2
   6 -11   5 2121.18 61.4956   1
  11   6  -5 2192.74 70.2864   1
  -6  11   5 2054.66 64.4124   2
   6  11  -5 1960.21 66.8031   2
 -11   6   5 2057.12 70.9151   2
  11   6  -5 2125.42 70.1873   2
  11  -6   5 2046.62 66.1145   2
  11  -6   3 39.0128 9.22484   2
   6 -11   3 30.3610 6.51055   1
  -6  11   3 52.1868 8.33857   2
   6  11  -3 18.1929 11.8209   2
  11   6  -3 34.4692 12.1114   2
 -11   6   3 26.5557 11.2671   2
   6  11  -3 36.8990 10.9458   1
  11   6  -3 31.9052 12.3555   1
  -6  11   1 1576.56 52.4624   2
  11  -6   1 1689.37 54.9713   2
   6  11  -1 1835.87 66.4895   2
  11   6  -1 1772.12 63.0359   1
  11   6  -1 1666.42 63.5920   2
 -11   6   1 1729.33 62.0214   2
  11  -6   1 1698.58 52.8070   1
   6  11  -1 1758.26 60.3171   1
  11   6   1 1792.16 65.3723   1
  -6  11  -1 1673.23 52.3791   2
  11  -6  -1 1804.84 55.7951   2
  11  -6  -1 1686.15 49.8164   1
  11   6   1 1676.81 66.5687   2
 -11   6  -1 1670.00 63.1349   2
   6  11   1 1668.68 61.1256   1
  11   6   3 34.3655 17.0310   1
   6  11   3 50.6698 15.3847   1
 -11   6  -3 28.7804 17.3224   2
  11   6   3 33.0078 18.1761   2
  11  -6  -3 35.8617 8.50079   2
  -6  11  -3 30.0101 6.87083   2
  -6 -11   3 26.2828 16.4842   1
 -11  -6   5 2100.05 81.6472   2
  -6  11  -5 2054.03 61.3054   2
  11   6   5 2026.67 76.4316   1
  11  -6  -5 1951.92 55.7424   4
   6  11   5 2060.23 74.0763   1
 -11  -6   5 2080.69 75.9476   1
  -6 -11   5 2046.72 74.0309   1
  -6 -11   7 1606.13 62.2054   1
 -11  -6   7 1693.68 68.9348   2
  11  -6  -7 1556.50 45.2194   4
 -11  -6   7 1578.84 63.6228   1
  11  -6  -7 1584.74 52.5089   3
 -11  -6   9 340.720 27.3169   1
 -11  -6   9 317.662 28.7003   2
  -6 -11   9 302.980 25.0896   1
  11  -6  -9 285.332 12.3399   4
  11  -6  -9 318.237 18.2246   3
  -6 -11  11 1510.95 58.6374   1
 -11  -6  11 1491.55 59.1948   1
 -11  -6  11 1510.68 61.0278   2
  11  -6 -11 1307.57 42.1682   4
  11  -6 -11 1472.10 49.3169   3
  -6 -11  13 1071.38 49.5562   2
 -11  -6  13 1002.42 49.5489   2
 -11  -6  13 1043.32 49.2405   1
  -6 -11  13 1023.81 48.3915   1
  -6 -11  15 75.2840 18.7304   1
  -6 -11  15 27.4890 18.8664   2
 -11  -6  15 38.1467 17.6036   1
 -11  -6  15 41.3773 17.6961   2
  -6 -11  17 402.536 32.3560   2
 -11  -6  17 367.823 30.3038   2
  -6 -11  17 338.994 29.3757   1
 -11  -6  17 377.260 31.2463   1
  -6 -11  19 263.827 27.6310   1
  -6 -11  19 276.702 29.2084   2
 -11  -6  19 288.647 28.3259   2
 -11  -6  19 284.235 29.3719   1
 -11  -6  21 33.3551 22.4299   1
  -6 -11  21 44.1191 21.3650   1
 -11  -6  21 39.1081 19.1550   2
 -11  -6  23 92.4484 24.1077   2
 -11   7  22 47.0022 16.3401   1
   7 -11  22 47.1133 17.2537   4
  11  -7  22 41.8885 14.0312   4
   7 -11  20 83.0313 16.2976   4
  11   7 -20 59.8579 11.8991   3
 -11   7  20 73.5259 18.0374   2
  11  -7  20 76.0715 16.3653   2
  11  -7  20 63.5657 14.1792   4
  -7  11  20 77.8020 13.5144   4
 -11   7  20 74.7269 15.6381   1
   7  11 -20 83.8296 14.9183   4
  11   7 -20 86.1867 15.3611   4
  11   7 -18 131.624 14.0645   3
   7  11 -18 130.733 11.2364   3
  -7  11  18 152.519 14.6488   4
  11  -7  18 133.938 18.7212   2
   7 -11  18 135.605 17.1523   4
  -7  11  18 150.781 19.1849   2
 -11   7  18 126.144 17.0975   1
  11   7 -18 154.956 17.0895   4
  11  -7  18 134.019 15.5646   4
   7  11 -16 46.1031 7.98815   3
  11  -7  16 55.2852 14.8832   2
  11   7 -16 35.8560 11.3945   4
   7 -11  16 26.1552 11.8135   4
  -7  11  16 44.3188 9.52614   4
   7  11 -16 33.9260 10.9787   4
  11  -7  16 39.8199 10.3825   4
 -11   7  16 39.5905 12.5707   1
  -7  11  16 39.2048 12.4289   2
  11   7 -16 40.3504 10.4783   3
  -7  11  14 93.4112 10.2106   4
 -11   7  14 126.555 14.5290   1
   7 -11  14 91.8237 13.6073   4
  11  -7  14 115.288 16.3160   2
   7  11 -14 109.482 13.8582   4
  -7  11  14 97.0847 14.7225   2
  11  -7  14 131.363 12.7421   4
  11   7 -14 96.3335 13.7813   4
  -7  11  12 455.125 18.2597   4
  11  -7  12 449.990 25.7688   2
   7 -11  12 479.404 23.1559   4
  11   7 -12 430.761 22.8871   2
  -7  11  12 420.334 25.4488   2
   7  11 -12 429.630 19.3663   2
  11   7 -12 475.240 25.3339   4
  11  -7  12 486.698 21.5048   4
   7  11 -12 475.237 25.2460   4
 -11   7  12 467.799 23.5693   1
 -11   7  12 462.453 28.0496   2
  11   7 -10 493.352 25.0111   2
   7  11 -10 512.816 26.1082   4
   7  11 -10 559.668 22.5210   2
 -11   7  10 584.246 24.3796   1
  -7  11  10 494.011 25.8523   2
   7 -11  10 516.584 23.2662   4
  11  -7  10 518.167 25.9315   2
  11  -7  10 542.543 22.1182   4
 -11   7  10 527.045 28.9117   2
  -7  11   8 229.231 16.4676   2
 -11   7   8 232.712 14.7972   1
  11  -7   8 232.762 16.6623   2
  11  -7   8 243.971 12.7561   4
 -11   7   8 254.787 20.1520   2
   7  11  -8 246.146 15.3587   2
  11   7  -8 222.562 17.2899   2
   7 -11   6 94.6100 6.00491   3
  11  -7   6 119.104 8.97822   4
  11   7  -6 140.951 16.7215   1
  11  -7   6 110.082 12.1708   2
  -7  11   6 131.499 13.1471   2
   7  11  -6 114.947 12.9311   2
 -11   7   6 138.382 17.1974   2
  11   7  -6 124.627 15.6060   2
   7 -11   4 159.895 9.53039   1
   7 -11   4 163.222 8.28314   3
  -7  11   4 165.215 12.6096   2
  11  -7   4 160.847 8.63400   4
  11   7  -4 162.116 17.1958   1
   7  11  -4 167.350 16.4589   2
  11   7  -4 143.827 16.9603   2
   7  11  -4 157.019 15.8318   1
 -11   7   4 163.243 16.5807   2
  11  -7   4 172.871 13.0747   2
  -7  11   2 378.358 17.9125   2
   7 -11   2 355.705 14.3472   3
  11  -7   2 382.575 18.0436   1
  11  -7   2 379.789 18.6497   2
 -11   7   2 369.314 23.5872   2
   7  11  -2 359.440 26.0610   2
  11   7  -2 368.878 25.5168   2
  11   7  -2 363.207 24.1502   1
   7  11  -2 373.347 23.9560   1
   7 -11   2 311.686 13.0619   1
   7 -11   0 359.556 15.8738   3
   7  11   0 481.915 33.1661   2
  11  -7   0 377.522 19.2215   2
  11   7   0 420.104 27.7572   1
  -7  11   0 333.809 17.9857   2
  11   7   0 399.875 28.3793   2
 -11   7   0 385.807 25.4819   2
   7  11   0 426.601 25.8738   1
  11  -7   0 373.403 14.4599   1
   7 -11  -2 381.645 16.2529   3
   7  11   2 351.299 25.8226   1
  11   7   2 400.309 30.4139   2
 -11   7  -2 382.490 26.0428   2
  11  -7  -2 338.737 11.3805   4
  11  -7  -2 384.224 18.6186   2
  -7  11  -2 372.212 17.9901   2
  11   7   2 366.045 27.5179   1
  11   7   4 119.509 20.0703   1
 -11   7  -4 119.700 18.7926   2
  11   7   4 127.377 23.6521   2
  -7  11  -4 143.736 12.7074   2
   7  11   4 145.980 20.0191   1
   7 -11  -4 126.427 10.0022   3
 -11  -7   4 147.053 21.2969   1
  -7 -11   4 195.294 22.1089   1
 -11  -7   6 138.425 22.0603   1
  -7 -11   6 127.220 21.1937   1
 -11  -7   6 121.572 25.3877   2
   7  11   6 151.516 22.3766   1
  11  -7  -6 117.834 11.7743   3
 -11  -7   8 187.732 23.5453   1
 -11  -7   8 244.724 28.4907   2
  -7 -11   8 186.407 22.6161   1
  11  -7  -8 247.170 15.4541   3
 -11  -7  10 519.748 34.2773   1
 -11  -7  10 474.099 35.0174   2
  -7 -11  10 550.950 34.0167   1
  11  -7 -10 520.286 24.5086   3
 -11  -7  12 501.786 35.0175   2
 -11  -7  12 424.945 31.9674   1
  -7 -11  12 444.736 31.3085   1
  11  -7 -12 407.965 22.2026   3
 -11  -7  14 82.5158 21.1041   2
 -11  -7  14 116.819 22.0364   1
  11  -7 -14 122.464 13.6334   3
  -7 -11  14 97.1777 24.9078   2
  -7 -11  14 82.2592 19.1061   1
  -7 -11  16 40.6681 21.7016   2
 -11  -7  16 41.3822 18.7925   1
 -11  -7  16 33.7919 19.5419   2
  -7 -11  16 31.0136 16.6459   1
  -7 -11  18 140.116 23.7567   1
  -7 -11  18 124.335 26.9004   2
 -11  -7  18 175.461 25.4896   2
 -11  -7  18 134.399 24.5686   1
 -11  -7  20 52.0847 21.9715   1
 -11  -7  20 60.7190 21.5243   2
  -7 -11  20 75.6108 21.7039   1
 -11  -7  22 35.7353 20.3322   2
  11   8 -21 55.3563 11.9311   3
  11  -8  21 57.1618 14.3516   4
   8 -11  21 62.2405 15.7681   4
   8 -11  19 130.893 16.8715   4
  11   8 -19 122.885 13.4438   3
   8  11 -19 122.854 11.2441   3
  -8  11  19 125.412 19.0741   2
  11   8 -19 138.975 16.7656   4
  11  -8  19 117.689 15.2672   4
 -11   8  19 109.106 16.3997   1
  11   8 -17 132.083 13.8498   3
 -11   8  17 134.668 16.0621   1
  11  -8  17 133.182 14.7272   4
  -8  11  17 115.478 17.4712   2
   8 -11  17 130.630 15.7392   4
  11  -8  17 126.268 16.0697   2
  11   8 -17 134.588 16.0024   4
   8  11 -15 227.962 19.0861   4
 -11   8  15 236.528 22.5963   2
  -8  11  15 235.771 21.6826   2
 -11   8  15 263.320 18.5686   1
  11  -8  15 248.852 19.3237   2
  11   8 -15 250.882 19.3316   4
   8 -11  15 223.373 18.1427   4
  11  -8  15 271.393 17.6229   4
  11   8 -13 18.1803 9.89712   2
 -11   8  13 37.4568 13.9111   2
  11  -8  13 31.5970 9.46928   4
  -8  11  13 35.7532 12.6723   2
   8 -11  13 39.6731 11.2737   4
   8  11 -13 60.3649 12.6302   4
 -11   8  13 47.6131 11.5868   1
  11  -8  13 23.4214 11.4240   2
  11   8 -13 44.7251 12.0206   4
   8  11 -11 275.569 18.9965   4
  11   8 -11 258.570 17.8275   2
  11  -8  11 217.283 14.3107   4
   8  11 -11 233.161 14.7875   2
  -8  11  11 249.751 18.6657   2
 -11   8  11 259.846 15.8506   1
  11   8 -11 249.722 19.3484   4
   8 -11  11 252.306 16.0461   4
  11  -8  11 264.119 17.3509   2
 -11   8  11 255.784 20.9015   2
 -11   8   9 98.2931 10.6112   1
 -11   8   9 134.055 17.0612   2
   8  11  -9 132.302 12.2341   2
  11   8  -9 97.5729 13.3945   2
  -8  11   9 111.143 14.3951   2
  11  -8   9 119.831 10.4627   4
  11  -8   9 113.607 12.6887   2
   8 -11   9 135.643 12.1011   4
  -8  11   7 365.745 20.9553   2
   8  11  -7 379.586 20.8856   2
   8 -11   7 353.185 13.0894   3
  11  -8   7 366.104 15.9211   4
  11   8  -7 347.540 21.4300   2
 -11   8   7 383.042 23.4495   2
  11  -8   7 379.388 19.3474   2
  11  -8   5 1095.93 38.1405   2
  -8  11   5 1059.56 40.0339   2
  11   8  -5 1181.20 45.2310   1
   8  11  -5 1053.30 43.0939   1
   8  11  -5 1045.97 42.1596   2
  11   8  -5 1089.98 44.2286   2
  11  -8   5 1159.55 34.0526   4
 -11   8   5 1035.45 43.3039   2
   8 -11   5 1069.62 33.1891   3
   8 -11   3 1060.01 33.2489   3
   8 -11   3 1075.68 32.1863   1
  11   8  -3 1036.23 44.9359   1
  11  -8   3 1102.74 37.5716   2
  11   8  -3 1057.68 45.0954   2
   8  11  -3 1072.63 45.1610   2
 -11   8   3 1088.77 43.4940   2
   8  11  -3 1107.85 44.1421   1
  11  -8   3 1028.26 31.5040   4
  -8  11   3 1045.40 38.3411   2
   8 -11   1 682.032 23.9193   3
 -11   8   1 713.578 33.3507   2
  11  -8   1 654.836 21.8145   1
   8  11  -1 700.376 37.5287   2
  11  -8   1 717.367 27.0866   2
  11   8  -1 742.324 37.6559   2
   8  11  -1 709.528 34.2511   1
  11   8  -1 612.769 34.0114   1
  11  -8   1 622.591 19.6104   4
  -8  11   1 745.379 28.3434   2
   8 -11  -1 806.479 27.2927   3
   8  11   1 728.309 43.0580   2
  11   8   1 774.718 41.8209   2
   8  11   1 698.786 36.5540   1
 -11   8  -1 751.845 36.1387   2
  11  -8  -1 741.421 29.0200   2
  -8  11  -1 736.146 30.2465   2
   8  11   3 1099.43 48.9038   1
   8 -11  -3 1178.79 37.3743   3
  11   8   3 1137.91 55.7428   2
 -11   8  -3 1045.81 47.1545   2
  -8  11  -3 1018.97 39.8419   2
  -8 -11   3 1055.21 51.3758   1
   8 -11  -5 889.035 33.8976   3
 -11   8  -5 1009.26 47.5712   2
  11   8   5 989.914 55.7968   2
  -8  11  -5 1084.68 39.9611   2
   8  11   5 936.700 46.6451   1
 -11  -8   5 1070.97 50.6958   1
  -8 -11   5 1018.33 48.8040   1
  11  -8  -5 1002.32 36.1667   3
 -11  -8   7 310.246 28.5554   1
   8 -11  -7 330.586 17.7891   3
  -8 -11   7 314.799 27.8947   1
   8  11   7 330.802 29.3661   1
 -11  -8   7 334.873 34.3860   2
  11  -8  -7 327.805 18.5492   3
  11  -8  -9 105.099 12.4278   3
 -11  -8   9 124.292 25.7936   2
 -11  -8   9 76.5156 19.5811   1
  -8 -11   9 85.2855 20.0378   1
  11  -8 -11 256.719 16.9890   3
 -11  -8  11 224.882 28.7197   2
 -11  -8  11 231.310 24.7823   1
  -8 -11  11 228.647 24.2345   1
  -8 -11  13 12.1233 16.5762   1
  11  -8 -13 33.2372 10.8321   3
  -8 -11  13 46.7402 24.8002   2
 -11  -8  13 54.2102 23.2241   2
 -11  -8  13 30.3426 18.3514   1
 -11  -8  15 236.141 27.5333   1
  11  -8 -15 248.694 18.9312   3
  -8 -11  15 289.964 33.2616   2
  -8 -11  15 235.960 27.0723   1
 -11  -8  15 251.574 29.5498   2
  -8 -11  17 176.940 28.6510   2
 -11  -8  17 132.528 24.2030   1
 -11  -8  17 117.773 23.7213   2
  -8 -11  17 107.542 22.6110   1
  -8 -11  19 138.626 28.2165   2
 -11  -8  19 91.0133 23.4279   2
 -11  -8  19 122.645 24.6883   1
 -11  -8  21 26.5623 21.8874   2
   9 -11  22 225.541 21.6985   4
  11  -9  22 191.038 19.6492   4
   9 -11  20 219.030 20.8338   4
  11  -9  20 220.030 18.9700   4
  11   9 -20 213.983 19.8262   4
   9 -11  18 24.4244 12.6168   4
  11   9 -18 49.3070 13.0678   4
   9  11 -18 47.0871 9.51836   3
 -11   9  18 31.9133 12.7833   1
  -9  11  18 38.3811 15.8901   2
  11  -9  18 19.0319 12.0067   4
   9  11 -16 143.814 12.3796   3
  11   9 -16 142.811 16.6382   4
 -11   9  16 115.271 14.7311   1
 -11   9  16 104.891 19.4679   2
  -9  11  16 128.820 18.2551   2
   9 -11  16 132.144 15.9100   4
  11  -9  16 128.597 13.8301   4
  11  -9  16 105.697 13.1833   2
  11   9 -16 125.830 13.4184   3
  -9  11  14 419.735 25.9404   2
   9 -11  14 401.859 21.6857   4
  11   9 -14 414.990 24.0309   4
  11  -9  14 385.841 19.9869   4
  11  -9  14 389.419 19.9311   2
 -11   9  14 369.316 19.7271   1
 -11   9  14 358.425 25.3790   2
  -9  11  12 183.242 10.4357   1
 -11   9  12 199.985 19.0807   2
   9 -11  12 174.443 14.5299   4
  11   9 -12 187.785 14.8968   2
   9  11 -12 178.885 13.7171   2
  -9  11  12 208.760 18.8989   2
 -11   9  12 195.481 13.9968   1
  11   9 -12 170.306 16.7077   4
  11  -9  12 142.311 12.5768   4
  11  -9  12 174.507 13.8521   2
  11   9 -10 729.422 31.0982   2
   9  11 -10 745.397 29.4202   2
  -9  11  10 716.944 33.3425   2
  -9  11  10 609.740 20.8695   1
   9 -11  10 727.878 27.8888   4
 -11   9  10 747.035 35.4290   2
  11  -9  10 743.501 27.0790   4
 -11   9  10 776.758 26.2017   1
   9  11 -10 685.919 32.7978   4
  11  -9  10 788.043 28.7900   2
  11  -9   8 1011.58 35.0960   2
   9 -11   8 972.466 33.7215   4
  -9  11   8 921.975 39.1384   2
  11  -9   8 1025.48 33.1156   4
   9  11  -8 977.614 37.6397   2
 -11   9   8 934.175 41.3271   2
  11   9  -8 998.087 39.5294   2
  -9  11   6 879.618 36.7603   2
  11  -9   6 911.111 33.0848   2
  11   9  -6 852.323 39.4057   1
  11  -9   6 966.522 30.2619   4
   9  11  -6 975.688 38.4627   2
  11   9  -6 960.612 39.5668   2
 -11   9   6 891.903 39.1855   2
   9 -11   6 925.421 29.4416   3
   9 -11   4 81.9227 7.54407   3
  -9  11   4 55.4428 11.1932   2
  11  -9   4 73.6269 6.11242   4
  11  -9   4 76.1672 9.34037   2
   9  11  -4 94.0710 15.2062   1
  11   9  -4 72.2723 15.0637   2
 -11   9   4 70.3754 14.0220   2
   9  11  -4 89.1852 14.9865   2
   9  11  -2 1025.06 41.8600   1
   9  11  -2 924.918 42.8990   2
  11  -9   2 969.382 32.6318   2
  11   9  -2 937.269 43.0231   2
  11  -9   2 839.731 25.3389   4
 -11   9   2 980.729 39.7362   2
  11  -9   2 812.975 27.7179   1
  -9  11   2 900.958 35.5130   2
   9 -11   2 894.884 29.6883   3
   9 -11   0 4557.33 129.870   3
   9  11   0 4686.97 148.939   2
  11   9   0 4797.19 148.398   2
   9  11   0 4585.84 142.662   1
 -11   9   0 4781.78 140.665   2
  -9  11   0 4742.31 135.680   2
   9 -11  -2 863.317 30.8640   3
   9  11   2 842.216 42.1965   1
   9  11   2 844.741 50.0504   2
  11   9   2 879.387 48.0852   2
 -11   9  -2 903.372 40.4973   2
  -9  11  -2 918.514 36.4948   2
  11  -9  -2 853.131 32.1925   3
   9 -11  -4 79.0869 9.36558   3
   9  11   4 106.219 19.7517   1
  11   9   4 83.8455 23.5289   2
 -11   9  -4 50.6757 16.7457   2
  -9  11  -4 68.5057 13.8727   2
  11  -9  -4 70.3422 9.98551   3
  -9 -11   4 88.7690 21.2365   1
   9 -11  -6 819.590 32.3395   3
  11   9   6 862.933 54.8052   2
  -9 -11   6 958.162 48.2739   1
  11  -9  -6 957.727 34.3185   3
   9  11   6 823.883 45.7287   1
   9 -11  -8 1007.46 36.0268   3
 -11  -9   8 973.782 54.4280   2
   9  11   8 910.564 49.6446   1
  -9 -11   8 879.558 47.7479   1
  11  -9  -8 943.045 36.1567   3
 -11  -9  10 729.899 43.5563   1
  11  -9 -10 738.377 31.0962   3
  -9 -11  10 786.382 43.3178   1
 -11  -9  10 731.392 47.5743   2
  11  -9 -12 213.832 16.4631   3
 -11  -9  12 156.419 26.2710   2
  -9 -11  12 166.525 23.7148   1
 -11  -9  12 144.665 24.2618   1
  11  -9 -14 392.249 22.3160   3
  -9 -11  14 451.646 38.6615   2
 -11  -9  14 402.289 36.3205   2
 -11  -9  14 337.564 31.4998   1
 -11  -9  16 96.4529 23.3819   1
  -9 -11  16 160.272 30.3264   2
 -11  -9  16 121.870 26.4075   2
 -11  -9  18 67.3414 22.7411   1
  -9 -11  18 27.0281 25.2677   2
 -11  -9  18 68.7428 23.8638   2
 -11  -9  20 209.451 30.5907   2
  10 -11  21-7.05590 13.8522   4
  11 -10  21 22.3658 13.1333   4
  10 -11  19 481.176 28.1231   4
 -11  10  19 499.664 34.3694   2
 -10  11  19 487.889 33.4997   2
  11 -10  19 522.181 27.8650   4
  11  10 -19 496.416 28.5369   4
 -11  10  17 695.245 38.2057   2
 -10  11  17 632.352 27.7400   1
 -10  11  17 686.514 37.1782   2
  11  10 -17 654.732 32.5253   4
  10 -11  17 631.683 30.7690   4
  11 -10  17 694.805 30.8888   4
 -11  10  17 684.590 29.7299   1
  11  10 -17 651.969 28.2705   3
  10  11 -17 652.447 27.4576   3
 -10  11  15 419.544 20.6688   1
 -11  10  15 460.499 29.9660   2
 -11  10  15 483.946 22.7520   1
 -10  11  15 494.574 30.7278   2
  11  10 -15 445.961 26.5131   4
  10 -11  15 485.318 24.7829   4
  11 -10  15 459.096 23.8381   4
  10  11 -15 443.699 21.9169   3
 -11  10  13 629.145 34.3561   2
 -10  11  13 650.502 24.2391   1
 -10  11  13 688.714 34.3042   2
  11  10 -13 636.072 28.2052   2
  10  11 -13 662.501 27.6929   2
  10 -11  13 630.142 28.0886   4
  11 -10  13 619.640 27.1724   4
 -11  10  13 678.744 26.1941   1
  11  10 -13 578.714 30.7978   4
  11 -10  13 682.739 25.7677   2
  11 -10  11 1707.37 49.6379   2
 -11  10  11 1551.00 58.8871   2
  11  10 -11 1583.93 53.7084   2
  10  11 -11 1630.17 52.7207   2
 -10  11  11 1628.56 58.3759   2
  11 -10  11 1599.77 50.4292   4
  10 -11  11 1601.80 51.1665   4
 -11  10  11 1562.26 46.9673   1
 -10  11  11 1405.41 44.2343   1
  11  10 -11 1358.28 55.1210   4
  10 -11   9 23.4278 5.98270   2
 -11  10   9 18.5654 12.8809   2
  10  11  -9 14.9387 10.0829   2
  11  10  -9 39.4196 11.1537   2
 -10  11   9 32.4848 12.1835   2
  11 -10   9 21.6315 8.34164   2
  10 -11   9 22.1221 8.36915   4
  11 -10   9 24.9215 8.44415   4
 -10  11   7 1539.20 55.1280   2
  11 -10   7 1506.28 46.6937   4
  11 -10   7 1588.51 48.3711   2
  10 -11   7 1479.98 46.8309   4
  10  11  -7 1512.38 54.3766   2
  11  10  -7 1546.44 55.1749   2
 -11  10   7 1483.64 56.3773   2
  11  10  -5 4339.81 129.515   2
  11 -10   5 4368.51 119.935   2
  11 -10   5 4394.05 116.274   4
  10  11  -5 4255.46 128.753   2
 -11  10   5 4102.64 127.388   2
  10  11  -5 3874.98 128.068   1
  10 -11   5 4036.50 117.519   3
 -10  11   5 4274.71 126.551   2
  10  11  -3 749.613 37.9625   2
  11 -10   3 754.699 22.7558   4
  10  11  -3 859.907 38.0948   1
  11  10  -3 848.705 39.5325   2
 -11  10   3 794.448 35.1796   2
 -10  11   3 744.762 32.9083   2
  10 -11   3 719.835 22.4312   1
  10 -11   3 783.857 27.1491   3
  10  11  -1 3045.21 106.895   2
  11  10  -1 3242.32 107.967   2
  10  11  -1 3165.66 103.856   1
 -11  10   1 3303.99 101.167   2
 -10  11   1 3199.61 98.4280   2
  10 -11   1 3168.54 91.6625   3
  10  11   1 3275.82 114.420   2
  11  10   1 3129.17 112.796   2
  10  11   1 3208.20 107.540   1
 -11  10  -1 3211.94 103.601   2
 -10  11  -1 3366.73 101.929   2
  11 -10  -1 3207.67 95.1424   3
  10 -11  -1 3356.72 94.7404   3
  10 -11  -3 807.187 30.4524   3
  10  11   3 759.162 42.0778   1
  10  11   3 798.654 49.5614   2
  11  10   3 730.965 46.9131   2
 -11  10  -3 840.509 39.6886   2
 -10  11  -3 837.390 37.5187   2
  11 -10  -3 870.347 31.4919   3
  10 -11  -5 4193.54 120.353   3
 -11  10  -5 4336.12 134.004   2
  11  10   5 4029.98 146.758   2
 -10  11  -5 4039.10 129.674   2
  11  10   5 3802.23 135.299   1
 -10 -11   5 4232.54 139.378   1
  10  11   5 4024.02 136.077   1
  11 -10  -5 4445.69 121.538   3
  11 -10  -7 1514.48 49.9120   3
  10 -11  -7 1360.41 48.7242   3
  11  10   7 1562.89 67.0080   1
 -10 -11   7 1450.57 64.8183   1
  10  11   7 1552.95 66.1820   1
  11 -10  -9 13.5212 8.61563   3
  10 -11  -9 20.1325 9.12748   3
 -10 -11   9-3.86515 18.5607   1
  10 -11 -11 1571.13 54.4440   3
 -11 -10  11 1672.74 75.8297   2
  11 -10 -13 663.842 30.2349   3
 -10 -11  13 665.001 47.6401   2
 -11 -10  13 624.483 45.8807   2
 -10 -11  15 507.746 43.6594   2
 -11 -10  15 489.614 41.8872   2
 -11 -10  15 470.279 37.1905   1
 -10 -11  17 803.776 53.0717   2
 -11 -10  17 776.955 49.9582   2
 -11 -10  17 644.978 44.5279   1
 -11 -10  19 504.233 41.6656   1
 -11 -10  19 665.128 46.5972   2
 -10 -11  19 612.327 47.9244   2
  11 -11  20 417.216 26.5974   4
  11  11 -18 44.8828 10.7983   3
 -11  11  18 43.6727 17.4110   2
  11 -11  18 16.1383 12.0899   4
  11  11 -18 34.6978 13.5294   4
 -11  11  16 598.097 26.1136   1
 -11  11  16 596.937 35.3378   2
  11 -11  16 593.621 29.0187   4
  11  11 -16 589.993 31.1758   4
  11  11 -16 557.329 25.9057   3
 -11  11  14 1207.70 53.6226   2
 -11  11  14 1362.39 43.6809   1
  11 -11  14 1334.85 47.3721   4
 -11  11  12 45.9748 6.34585   1
 -11  11  12 56.2679 14.6122   2
  11 -11  12 49.2441 6.77262   2
  11  11 -12 38.2543 10.1433   2
  11 -11  12 56.9384 10.7579   4
  11  11 -10 1484.47 52.3352   2
  11 -11  10 1508.48 48.6405   4
 -11  11  10 1459.10 56.7275   2
  11 -11   8 1849.49 55.4632   4
  11 -11   8 1792.62 54.7465   2
  11  11  -8 1812.68 62.3427   2
 -11  11   8 1767.01 64.3160   2
  11 -11   6 494.963 18.9503   4
  11  11  -6 553.740 28.9149   2
 -11  11   6 493.121 27.7719   2
  11  11  -4 2737.72 90.2580   2
 -11  11   4 2630.47 86.5419   2
  11  11  -2 2473.90 87.5466   2
 -11  11   2 2533.84 81.6421   2
  11 -11   2 2451.55 73.5730   3
  11  11   0 3598.86 123.113   2
 -11  11   0 3587.49 114.164   2
  11 -11   0 3771.01 106.407   3
  11  11   0 3684.63 119.230   1
  11  11   2 2552.48 96.2172   2
 -11  11  -2 2365.94 82.6901   2
  11  11   2 2325.22 87.2299   1
  11 -11  -2 2574.80 75.1153   3
 -11  11  -4 2825.71 91.6116   2
  11  11   4 2729.31 105.877   2
  11 -11  -4 2609.62 80.4695   3
  11  11   4 2623.87 95.6095   1
  11 -11  -6 556.627 25.0199   3
  11  11   6 525.938 45.0369   2
  11  11   6 580.612 38.8332   1
  11 -11  -8 1755.35 57.5656   3
  11  11   8 1652.76 73.4788   1
  11 -11 -10 1460.04 51.1127   3
  11 -11 -12 27.9433 9.85155   3
 -11 -11  14 1380.89 72.8078   2
 -11 -11  16 751.478 53.7106   2
 -11 -11  18 43.7878 28.5794   2
 -11 -11  18 55.8052 23.9196   1
  12   0   0 8312.75 229.639   1
   0  12   0 8005.88 218.685   3
 -12   0   0 8150.33 242.956   2
   0  12   0 8189.68 222.539   1
  12   0   0 8167.92 230.538   2
   0  12  -2 367.806 13.1876   3
   0  12   2 301.456 14.5031   3
   0  12   2 362.431 18.6663   1
  12   0  -2 364.491 20.6680   1
  12   0   2 398.556 24.5507   2
  12   0   2 349.495 24.1471   1
   0 -12   2 375.996 22.8188   1
  12   0  -2 358.817 21.5442   2
   0  12  -4 244.176 8.93990   3
   0  12   4 214.511 15.9588   1
   0 -12   4 227.415 17.9794   1
   0  12   4 237.580 12.8764   3
   0  12  -4 229.138 13.2232   2
   0  12  -4 260.761 14.2948   4
  12   0   4 227.105 21.0805   2
  12   0  -4 248.878 15.7246   1
   0  12   6 2769.46 80.8270   3
  12   0   6 2680.71 94.3731   2
   0  12  -6 2838.93 80.9140   4
   0 -12   6 2845.83 86.8304   1
 -12   0   6 2794.47 90.5862   1
   0  12   8 250.591 14.8325   3
   0 -12   8 248.589 18.5533   1
 -12   0   8 246.866 22.4975   2
  12   0  -8 243.350 16.6353   2
 -12   0   8 223.638 21.4243   1
   0  12  -8 226.214 14.2124   4
  12   0   8 237.654 25.8591   2
 -12   0  10 1084.33 48.2117   2
   0  12  10 1143.59 39.3543   3
   0  12 -10 1023.40 37.3709   4
  12   0  10 1041.21 54.0983   2
 -12   0  10 1059.36 45.1953   1
  12   0 -10 1045.27 40.5015   2
  12   0 -10 1152.70 38.8440   4
   0 -12  10 1041.76 42.6459   1
   0 -12  12 105.373 15.7777   1
 -12   0  12 96.6918 17.6764   1
   0  12  12 106.159 12.1398   3
  12   0 -12 109.670 11.7129   4
  12   0  12 134.056 25.8458   2
   0  12 -12 112.934 11.9932   4
 -12   0  12 150.287 19.4018   2
   0  12  14 132.397 13.9787   3
 -12   0  14 139.145 18.7756   1
  12   0  14 198.296 33.1365   2
  12   0 -14 113.333 12.2986   4
   0  12 -14 150.177 13.6186   4
 -12   0  14 158.870 20.3005   2
   0 -12  14 163.080 17.7592   1
  12   0 -14 115.445 13.8835   3
   0  12  16 154.431 15.3044   3
 -12   0  16 131.652 19.7363   1
  12   0  16 201.759 35.5921   2
  12   0 -16 155.816 15.5322   3
   0  12 -16 152.136 14.8269   4
 -12   0  16 166.817 22.3577   2
  12   0 -16 153.499 14.0389   4
   0  12  18 65.0340 13.1362   3
  12   0 -18 34.0965 11.1958   3
   0  12  18 67.8798 11.2237   4
 -12   0  18 40.2890 17.0464   1
  12   0 -18 40.4155 10.2185   4
   0  12 -18 45.5683 11.5084   4
 -12   0  18 52.6807 17.8628   2
  12   0 -20 86.1037 13.1227   4
  12   0 -20 87.0518 14.0187   3
 -12   0  20 76.8019 18.9562   2
 -12   0  20 76.9363 20.7105   1
   0  12  20 89.8751 13.1221   4
  12   0  20 92.9101 15.0445   4
   0  12 -20 79.3609 13.7721   4
  12   0  22 13.5160 13.2294   4
   0  12  22 5.42565 11.6883   4
  12   0 -22 13.5939 11.0548   4
 -12   0  22 16.7503 20.0725   2
 -12   0  22 11.9935 19.5061   1
 -12   0  24 132.517 26.0683   1
   0  12  24 146.694 17.3438   4
  -1  12  25 220.561 20.5176   4
  -1  12  23 20.3312 12.1690   4
  12   1 -23 34.9966 12.7680   4
 -12   1  23 29.4535 20.6012   1
  12   1 -21 20.2930 11.2982   3
 -12   1  21 17.4426 18.2296   1
  -1  12  21 18.0640 10.1347   4
  12   1 -21 18.9264 11.7705   4
  12  -1  21 9.50296 12.3707   4
 -12   1  21 32.0929 18.9563   2
 -12   1  19 450.699 31.9800   1
  12   1 -19 524.655 26.5742   4
 -12   1  19 550.832 35.5720   2
   1  12 -19 505.293 26.9612   4
  12  -1  19 533.880 27.6838   4
  -1  12  19 508.468 24.9472   4
  -1  12  19 501.547 27.9223   3
  12   1 -17 174.617 15.7339   3
  -1  12  17 128.881 15.3766   3
  12  -1  17 178.545 36.6205   2
 -12   1  17 143.897 20.0266   1
  -1  12  17 161.283 13.2661   4
  12   1 -17 149.664 14.6575   4
   1  12 -17 183.064 16.0012   4
 -12   1  17 169.146 22.1050   2
  -1  12  15 406.104 22.3502   3
  12   1 -15 330.995 19.3421   4
  12  -1  15 382.772 39.0756   2
 -12   1  15 396.740 28.0783   2
   1  12 -15 352.922 20.1737   4
 -12   1  15 290.938 24.3175   1
  -1  12  15 333.223 17.7286   4
  12   1 -15 362.031 21.2863   3
  12  -1  13 451.811 37.9713   2
  12   1 -13 468.223 22.6770   4
  -1  12  13 451.383 23.6735   3
   1  12 -13 461.636 22.6757   4
 -12   1  13 450.868 27.5520   1
 -12   1  13 448.606 29.8318   2
  -1  12  11 2005.84 63.5526   3
  12  -1  11 1924.48 78.1806   2
 -12   1  11 1901.32 67.8255   1
  12   1 -11 1973.65 64.8914   2
  12   1 -11 1940.44 62.3193   4
   1  12 -11 1978.84 61.9661   4
 -12   1  11 1981.83 71.9592   2
   1 -12  11 1932.17 65.6429   1
  -1  12   9 231.402 14.8752   3
  12   1  -9 237.771 15.7235   4
  12   1  -9 214.484 15.9585   2
   1  12  -9 243.534 15.1272   4
  12  -1   9 233.587 24.3608   2
 -12   1   9 243.292 20.7262   1
 -12   1   9 254.399 21.8970   2
   1 -12   9 230.539 17.4996   1
  -1  12   7 382.973 18.9240   3
   1 -12   7 400.768 22.3849   1
  12   1  -7 421.761 22.4768   2
   1  12  -7 375.522 18.9853   4
  12  -1   7 369.565 28.1261   2
  -1  12   7 377.649 22.9636   1
 -12   1   7 406.589 25.5433   1
  -1  12   5 3600.43 104.589   3
   1 -12   5 3866.51 110.241   1
   1  12  -5 3624.76 101.865   2
  12  -1   5 3579.54 116.097   2
   1  12  -5 3701.92 106.045   4
 -12   1   5 3698.96 113.394   1
  12   1  -5 3654.39 108.195   1
  -1  12   5 3716.44 108.194   1
  -1  12   3 888.376 28.9044   3
  12   1  -3 806.396 33.9109   1
  12  -1   3 894.873 38.4978   2
 -12   1   3 728.178 40.0907   2
  -1  12   3 834.006 30.6208   1
   1 -12   3 771.163 34.1653   1
  -1  12   1 2654.99 73.3110   3
  -1  12   1 2527.92 74.9838   1
 -12  -1  -1 2349.98 96.3750   2
 -12   1   1 2640.55 92.0009   2
  12   1  -1 2535.93 82.0359   1
   1 -12   1 2543.02 80.5819   1
  12  -1   1 2497.87 82.8280   2
   1  12  -1 2555.44 77.0939   1
  12  -1   1 2546.41 82.9336   1
  -1  12  -1 2668.27 72.0990   3
   1  12   1 2431.47 77.7201   1
 -12   1  -1 2711.65 95.6169   2
  12  -1  -1 2440.22 79.7584   1
  12   1   1 2556.84 84.8131   1
  12   1   1 2478.80 84.8749   2
  12  -1  -1 2558.41 82.0563   2
   1  12   3 836.386 33.8554   1
  12  -1  -3 812.219 32.3372   1
  12   1   3 853.412 40.2287   2
  12   1   3 810.829 39.6017   1
  -1 -12   3 945.849 37.7891   1
  -1  12  -3 828.100 29.1473   4
  -1  12  -3 837.141 25.2023   3
  12  -1  -3 840.589 34.6921   2
  -1 -12   5 3769.51 112.831   1
  12   1   5 3759.79 120.465   2
  -1  12  -5 3714.25 104.408   4
 -12  -1   5 3887.77 117.175   1
   1  12   5 3564.88 111.297   1
  12   1   7 405.767 31.3149   2
 -12  -1   7 403.740 28.4253   2
   1  12   7 364.283 24.4044   1
  -1  12  -7 434.813 18.4391   4
  -1 -12   7 397.222 24.2774   1
 -12  -1   7 406.608 26.8000   1
 -12  -1   9 205.303 21.8919   2
  -1 -12   9 244.152 19.6891   1
  12   1   9 222.688 26.8006   2
 -12  -1   9 200.690 20.7501   1
  12  -1  -9 240.009 14.2043   4
  -1  12  -9 233.064 13.8604   4
   1  12  11 1963.47 59.9450   3
  12   1  11 1825.57 79.3106   2
  -1 -12  11 1678.23 63.4184   1
 -12  -1  11 1809.72 66.3982   1
  -1  12 -11 1821.18 57.3773   4
  12  -1 -11 1765.87 56.8818   4
 -12  -1  11 1861.25 69.5329   2
   1  12  13 450.628 23.2389   3
  12   1  13 449.390 42.0173   2
  -1 -12  13 449.391 26.8444   1
 -12  -1  13 457.452 30.2874   2
  12  -1 -13 457.095 21.2785   4
 -12  -1  13 447.441 29.4731   1
  -1  12 -13 458.483 22.2842   4
  12  -1 -13 469.176 24.1669   3
 -12  -1  15 370.409 28.0088   2
  12  -1 -15 361.230 19.2035   4
  -1 -12  15 370.254 25.6054   1
  -1  12 -15 340.398 19.4660   4
   1  12  15 347.668 20.9985   3
 -12  -1  15 318.065 25.7199   1
  12  -1 -15 368.367 21.1539   3
 -12  -1  17 143.446 19.8888   1
  12  -1 -17 162.218 14.9566   3
  12  -1 -17 131.176 13.4320   4
 -12  -1  17 116.553 20.4222   2
  -1  12 -17 111.534 13.0873   4
   1  12  17 127.707 14.4666   3
  12  -1 -19 524.301 27.9285   3
 -12  -1  19 493.130 34.6348   1
 -12  -1  19 531.535 35.8333   2
  12  -1 -19 495.636 24.8110   4
   1  12  19 534.330 25.5820   4
  12  -1 -21 11.5487 11.5386   3
 -12  -1  21 16.9826 17.9943   1
   1  12  21 25.0612 10.9313   4
 -12  -1  21 38.7266 19.5381   2
  12   1  21 38.5895 13.3454   4
  12  -1 -21 19.2663 11.8433   4
   1  12  23 50.7961 13.7761   4
 -12  -1  23 41.3802 20.1057   2
 -12  -1  23 12.9163 20.3466   1
  -2  12  24 211.780 18.9188   4
 -12   2  24 232.716 28.9207   1
  12   2 -22 281.512 21.0291   3
  12  -2  22 291.218 45.1021   2
 -12   2  22 249.586 27.4931   1
  -2  12  22 276.756 19.2033   4
  12  -2  22 309.933 23.4819   4
   2  12 -22 285.210 21.7294   4
  12   2 -22 259.868 20.6099   4
 -12   2  22 301.667 28.9824   2
  12   2 -20 230.523 18.5379   3
 -12   2  20 300.547 25.9365   1
  12  -2  20 233.421 38.9321   2
  -2  12  20 217.591 16.1891   4
   2  12 -20 236.475 18.9499   4
  12   2 -20 212.088 18.4149   4
  12  -2  20 225.994 19.0033   4
 -12   2  20 284.664 26.3171   2
  12   2 -18 273.295 19.5021   3
  12  -2  18 315.462 20.2780   4
 -12   2  18 331.683 25.6644   1
  12  -2  18 286.182 37.3981   2
  12   2 -18 269.521 19.1303   4
  -2  12  18 294.203 17.5510   4
   2  12 -18 328.398 21.3245   4
  -2  12  18 272.511 20.8985   3
 -12   2  18 287.388 25.5094   2
  12   2 -16 173.874 15.3626   3
  -2  12  16 140.188 15.2962   3
 -12   2  16 168.874 19.4382   1
  12  -2  16 192.990 29.4767   2
  12   2 -16 145.460 14.6662   4
 -12   2  16 161.657 20.3403   2
   2  12 -16 174.670 15.4131   4
  -2  12  16 155.157 12.5558   4
  12  -2  14 162.103 26.6708   2
  12   2 -14 169.046 14.3670   4
 -12   2  14 133.188 18.1795   1
   2  12 -14 191.440 15.3131   4
  -2  12  14 195.576 12.5117   4
 -12   2  14 178.820 19.9990   2
  12   2 -14 184.637 15.1280   3
  -2  12  14 195.594 16.4667   3
  -2  12  12 915.953 34.7196   3
  12  -2  12 820.357 45.9373   2
   2  12 -12 808.606 32.6925   4
  12   2 -12 813.317 34.4108   2
  12   2 -12 848.371 33.4612   4
 -12   2  12 889.071 41.6154   2
 -12   2  12 825.262 37.5919   1
   2 -12  10 719.955 30.4205   1
 -12   2  10 718.179 33.0471   1
  12   2 -10 657.148 29.3639   2
  12  -2  10 670.778 39.3778   2
   2  12 -10 674.930 28.0962   4
  12   2 -10 680.791 28.8773   4
  -2  12  10 665.514 28.4509   3
 -12   2  10 601.778 34.4256   2
  -2  12   8 554.433 24.4065   3
  12   2  -8 575.533 27.0433   2
  12  -2   8 597.803 33.8255   2
   2  12  -8 548.142 24.7940   4
   2 -12   8 601.639 26.9476   1
 -12   2   8 556.715 29.2420   1
  -2  12   6 4110.73 116.261   3
 -12   2   6 4037.88 123.186   1
   2  12  -6 4113.70 117.764   4
  12  -2   6 4034.42 126.869   2
   2  12  -6 4064.25 111.899   2
  -2  12   6 4122.75 118.470   1
   2 -12   6 4024.49 119.093   1
  12   2  -6 4041.50 121.424   2
  12   2  -4 25.0182 11.1988   1
  -2  12   4 25.4658 6.25972   3
   2  12  -4 30.1168 8.90084   2
 -12   2   4 42.0672 14.2501   2
  12  -2   4 37.3967 12.7127   2
   2 -12   4 25.5695 10.5994   1
  -2  12   4 24.7044 7.77393   1
  12   2  -4 27.7402 10.8600   2
   2  12  -2 1393.67 46.1869   1
 -12   2   2 1407.79 57.1505   2
  12   2  -2 1324.27 49.8454   1
  12  -2   2 1362.52 51.0554   1
  12  -2   2 1297.68 50.2271   2
   2 -12   2 1417.37 48.0001   1
  -2  12   2 1376.30 42.4319   1
  -2  12   2 1296.10 42.2499   3
  12  -2   0 8590.64 254.107   1
  12   2   0 9247.89 259.164   1
 -12   2   0 9218.78 267.247   2
   2  12   0 9161.26 253.094   1
  12  -2   0 9310.83 256.328   2
  -2  12   0 9337.95 246.551   3
 -12   2  -2 1373.56 60.9298   2
  12   2   2 1369.63 53.8209   1
  12   2   2 1313.15 53.8745   2
   2  12   2 1309.95 47.2884   1
  -2 -12   2 1266.53 51.2894   1
  -2  12  -2 1336.50 40.8545   4
  12  -2  -2 1345.20 45.5824   1
  12  -2  -2 1332.71 47.9855   2
  -2  12  -4 20.1428 2.84699   2
  12  -2  -4 23.9271 9.74238   2
  -2 -12   4 17.9461 13.6492   1
  -2  12  -4 18.5904 6.49114   4
   2  12   4 20.5736 12.3194   1
 -12  -2   4 20.6785 16.6297   2
  12   2   4 21.5289 14.6423   2
  12  -2  -4 24.0763 8.53793   1
  12   2   6 4011.54 134.573   2
  -2 -12   6 4182.14 125.817   1
   2  12   6 4017.14 125.770   1
 -12  -2   6 4051.70 132.006   2
  -2  12  -6 4153.52 115.363   4
 -12  -2   6 4208.72 129.471   1
  12  -2  -8 549.916 22.7226   4
  12   2   8 561.794 38.4280   2
 -12  -2   8 593.243 33.9929   2
  -2  12  -8 558.089 22.4990   4
  -2 -12   8 595.831 30.5823   1
 -12  -2   8 568.217 32.3400   1
  -2 -12  10 648.403 33.0121   1
  12   2  10 680.635 45.6590   2
 -12  -2  10 627.526 34.5290   1
  -2  12 -10 678.766 26.0756   4
 -12  -2  10 622.903 36.0995   2
  12  -2 -10 716.048 26.3496   4
  -2  12 -12 914.790 32.5634   4
 -12  -2  12 837.547 42.2025   2
 -12  -2  12 770.810 39.7586   1
  12  -2 -12 875.352 31.1496   4
  -2 -12  12 832.683 38.9621   1
  12  -2 -12 822.727 34.2991   3
  12   2  12 779.788 52.7065   2
  12  -2 -14 165.735 14.8252   3
   2  12  14 186.934 15.0563   3
  -2 -12  14 153.093 18.8823   1
 -12  -2  14 198.333 22.7022   1
 -12  -2  14 235.142 23.4305   2
  12  -2 -14 190.689 13.7000   4
  -2  12 -14 182.018 13.8330   4
  -2 -12  16 111.585 18.2904   1
  12  -2 -16 141.272 14.2916   3
   2  12  16 140.553 14.9446   3
 -12  -2  16 134.100 20.8072   1
  12  -2 -16 193.748 14.2130   4
 -12  -2  16 167.793 21.6869   2
  -2  12 -16 163.747 14.3221   4
  12  -2 -18 375.149 22.4684   3
 -12  -2  18 302.657 27.6664   1
  -2 -12  18 309.255 26.5725   1
   2  12  18 303.727 21.3807   3
 -12  -2  18 302.436 28.5053   2
  12  -2 -18 341.240 19.2471   4
 -12  -2  20 261.171 27.3075   1
  -2 -12  20 228.054 24.2601   1
 -12  -2  20 239.078 26.6245   2
   2  12  20 241.052 18.3253   4
  12  -2 -20 226.538 16.4718   4
  -2 -12  22 268.331 28.0039   1
 -12  -2  22 294.609 30.5475   1
   2  12  22 303.734 21.4626   4
 -12  -2  22 304.359 30.9653   2
  -3  12  23-3.56862 11.3259   4
 -12   3  23-6.44328 18.9724   1
 -12   3  21 112.865 21.8156   2
  12  -3  21 113.125 30.0893   2
  12   3 -21 132.680 16.5682   4
 -12   3  21 154.559 22.1463   1
  -3  12  21 156.693 15.1973   4
  12  -3  21 154.971 17.6286   4
   3  12 -21 128.955 16.0893   4
  12   3 -19 490.007 25.7788   3
  12  -3  19 507.979 41.2579   2
 -12   3  19 464.040 30.6496   1
  -3  12  19 462.760 22.6343   4
  12   3 -19 488.126 25.7675   4
   3  12 -19 511.045 27.0014   4
  12  -3  19 471.914 26.0251   4
 -12   3  19 480.180 32.8124   2
  -3  12  19 431.565 27.1497   3
  12   3 -17 11.6177 9.84468   3
  -3  12  17 2.42103 7.66757   4
 -12   3  17 22.8624 15.2375   1
  12  -3  17 3.36011 10.3599   4
  12   3 -17 6.08453 9.83419   4
 -12   3  17 46.7826 15.6358   2
   3  12 -17 8.05278 9.75490   4
  -3  12  17 11.0990 10.7560   3
  -3  12  15 94.1938 14.5509   3
  12   3 -15 86.9463 12.3464   3
  12  -3  15 89.4596 23.0477   2
  -3  12  15 97.3482 10.5858   4
  12  -3  15 81.7688 11.9012   4
  12   3 -15 109.298 13.5783   4
   3  12 -15 96.5880 13.2401   4
 -12   3  15 124.593 17.7638   1
 -12   3  15 118.064 18.1265   2
  12  -3  13 362.344 31.0735   2
   3  12 -13 341.374 19.4021   4
  -3  12  13 340.629 15.7586   4
 -12   3  13 352.585 25.2706   2
 -12   3  13 323.030 22.9623   1
  12   3 -13 329.774 19.6622   4
  -3  12  13 318.558 20.0178   3
  12  -3  11 734.393 38.8314   2
  12   3 -11 607.411 28.0145   2
 -12   3  11 629.439 30.7595   1
   3  12 -11 606.484 27.3085   4
  -3  12  11 624.226 22.2741   4
  12   3 -11 609.390 27.8652   4
  -3  12  11 612.082 27.7721   3
  12   3  -9 595.237 28.5476   2
   3 -12   9 597.552 27.7513   1
  12  -3   9 662.840 35.7739   2
   3  12  -9 694.308 28.1746   4
 -12   3   9 656.704 31.2531   1
  -3  12   9 603.943 27.1168   3
  12   3  -7 562.389 27.2033   2
   3 -12   7 566.670 25.4384   1
  12  -3   7 582.802 31.6004   2
   3  12  -7 592.962 25.6248   4
  -3  12   7 583.707 25.2421   1
 -12   3   7 589.958 29.2281   1
   3  12  -7 555.041 19.7526   2
  -3  12   7 586.111 24.2197   3
  12   3  -5 3097.34 95.7618   1
  -3  12   5 3107.27 89.6173   1
   3  12  -5 3123.09 90.9570   2
  12  -3   5 3193.36 99.2834   2
   3 -12   5 2980.16 92.8981   1
  12   3  -5 3258.52 97.8035   2
 -12   3   5 3149.52 102.537   2
  -3  12   5 3168.48 90.9200   3
  12   3  -3 4833.22 142.645   1
   3 -12   3 4849.22 138.059   1
   3  12  -3 4724.56 141.542   2
 -12   3   3 4806.00 148.426   2
  -3  12   3 4864.54 132.712   1
  12  -3   3 4807.58 142.680   2
  12   3  -3 4862.71 144.247   2
  -3  12   3 4848.18 134.805   3
 -12   3   1 2107.12 77.9498   2
  12   3  -1 2215.14 73.8923   1
   3  12  -1 2138.50 69.1027   1
  12  -3   1 2167.89 70.5926   2
  12  -3   1 2177.15 70.1365   1
  -3  12   1 2163.65 62.9670   3
   3  12   1 2184.13 70.0990   1
  -3  12  -1 2080.82 60.7805   4
 -12   3  -1 2222.07 80.7861   2
  -3  12  -1 2165.32 61.1372   2
  12  -3  -1 2085.00 66.2634   1
  12   3   1 2179.09 75.0710   1
  12  -3  -1 2174.72 69.3983   2
  -3  12  -3 4582.91 124.921   2
  12  -3  -3 4966.49 135.323   2
   3  12   3 4588.39 136.979   1
 -12   3  -3 4536.12 149.502   2
 -12  -3   3 4587.31 150.376   2
  -3 -12   3 4717.37 140.962   1
  -3  12  -3 4642.72 126.380   4
  12   3   3 4704.15 143.203   1
  12  -3  -3 4630.54 129.795   1
  -3 -12   5 2980.37 97.4685   1
  12  -3  -5 3033.82 91.5542   2
 -12  -3   5 3002.32 104.516   2
  12   3   5 3077.74 105.820   2
  -3  12  -5 2935.14 84.7345   4
 -12  -3   5 3064.82 100.916   1
   3  12   5 3014.37 96.6257   1
  12   3   7 549.376 38.1674   2
 -12  -3   7 480.115 32.7264   2
  12  -3  -7 529.523 24.7881   2
  -3 -12   7 522.305 29.7934   1
  12  -3  -7 462.549 20.1826   4
   3  12   7 521.269 31.2373   1
  -3  12  -7 556.970 20.5309   4
 -12  -3   7 519.393 32.0520   1
 -12  -3   9 567.021 34.6184   1
  12   3   9 524.366 41.6596   2
 -12  -3   9 627.030 36.2220   2
  12  -3  -9 631.504 23.4471   4
  -3 -12   9 538.211 31.7616   1
  -3  12  -9 643.960 24.5630   4
 -12  -3  11 573.933 34.5945   2
  -3 -12  11 581.527 31.7064   1
  12   3  11 557.979 44.5337   2
 -12  -3  11 513.330 32.6620   1
  12  -3 -11 550.740 22.2253   4
  -3  12 -11 549.614 23.1673   4
 -12  -3  13 328.077 26.9520   2
 -12  -3  13 341.909 26.9365   1
  12  -3 -13 343.176 16.8333   4
  -3 -12  13 342.671 25.4532   1
  -3  12 -13 342.863 17.8182   4
  12  -3 -13 331.181 19.9540   3
 -12  -3  15 82.9416 19.2815   2
  12  -3 -15 72.6190 11.7276   3
 -12  -3  15 91.8820 20.0162   1
  -3 -12  15 85.5319 18.2674   1
  12  -3 -15 91.6493 11.0497   4
  12  -3 -17 2.92235 9.39874   3
   3  12  17 17.3602 9.85260   3
  -3 -12  17-2.93173 15.2930   1
 -12  -3  17 14.4249 16.5284   1
 -12  -3  17 13.5503 16.6281   2
  12  -3 -17 9.63700 8.01074   4
  12  -3 -19 440.342 26.5821   3
 -12  -3  19 497.408 35.4647   1
  -3 -12  19 501.923 33.8160   1
 -12  -3  19 519.765 35.4176   2
  12  -3 -19 550.194 24.2823   4
  -3 -12  21 121.406 22.3778   1
 -12  -3  21 132.098 24.9052   1
   3  12  21 148.919 16.4999   4
 -12  -3  21 149.127 24.1211   2
 -12  -3  23 12.0654 18.8718   2
   3  12  23 11.8892 13.8648   4
 -12   4  24 132.131 25.4250   1
  12   4 -22 217.345 19.0244   3
 -12   4  22 225.025 25.1080   1
  -4  12  22 247.359 18.6027   4
  12   4 -22 272.699 22.0748   4
  12  -4  22 250.984 20.7460   4
 -12   4  20 341.580 28.4331   2
  12   4 -20 281.361 20.1513   3
  12   4 -20 303.394 21.4050   4
  12  -4  20 312.920 21.7666   4
  12  -4  20 250.596 29.6515   2
 -12   4  20 289.056 25.5503   1
  -4  12  20 268.874 18.3779   4
   4  12 -20 319.535 22.6123   4
 -12   4  18 191.018 22.7286   2
   4  12 -18 254.943 19.0313   4
  -4  12  18 218.045 15.2150   4
  12   4 -18 199.862 17.5531   4
 -12   4  18 235.359 21.8820   1
  -4  12  18 241.503 20.2122   3
  12  -4  18 250.439 18.2772   4
  12   4 -18 213.602 17.4232   3
  12  -4  16 337.862 19.6526   4
 -12   4  16 314.461 23.9518   1
  12  -4  16 329.659 30.0053   2
   4  12 -16 292.701 19.9465   4
  -4  12  16 315.632 16.8207   4
 -12   4  16 310.147 25.5144   2
  -4  12  16 322.348 22.0288   3
  12   4 -16 346.951 20.8456   4
  12  -4  14 166.267 22.4042   2
   4  12 -14 186.966 15.6002   4
  -4  12  14 208.149 12.9621   4
  12   4 -14 204.524 16.4927   4
  12  -4  14 207.653 14.9505   4
 -12   4  14 182.707 18.6093   1
  -4  12  14 238.638 18.1266   3
 -12   4  14 237.609 21.5543   2
  12   4 -12 256.290 18.0159   4
 -12   4  12 252.912 20.1468   1
  12   4 -12 241.647 17.0260   2
  12  -4  12 280.455 25.4097   2
   4  12 -12 249.951 17.2654   4
  -4  12  12 271.620 13.2039   4
  -4  12  12 249.576 17.8632   3
 -12   4  10 275.351 21.3714   1
  12   4 -10 266.866 18.5155   2
  12   4 -10 304.325 19.8027   4
  12  -4  10 285.843 25.1208   2
   4  12 -10 311.402 19.3867   4
  -4  12  10 296.495 12.9626   4
  -4  12  10 248.885 18.5795   3
   4  12  -8 879.792 28.6084   2
  12   4  -8 908.553 36.6261   2
   4 -12   8 867.021 33.3518   1
   4  12  -8 907.185 35.0375   4
 -12   4   8 867.000 40.6525   2
  12  -4   8 885.465 39.7296   2
  -4  12   8 901.172 27.1439   4
  -4  12   8 813.082 32.4710   1
 -12   4   8 805.631 36.3481   1
  -4  12   8 919.651 34.2474   3
  -4  12   6 2315.34 67.4016   1
  12   4  -6 2335.23 74.6777   1
   4 -12   6 2174.23 70.4067   1
  12  -4   6 2373.40 77.0350   2
 -12   4   6 2345.13 80.1457   2
   4  12  -6 2322.34 68.9841   2
  12   4  -6 2246.25 75.1528   2
  -4  12   6 2385.03 70.6496   3
   4  12  -4 2038.34 66.1643   2
  12   4  -4 2059.21 69.0030   1
   4 -12   4 2077.62 63.5220   1
 -12   4   4 2118.22 73.5819   2
  12  -4   4 2032.99 68.1781   2
  12   4  -4 2068.70 69.7070   2
  -4  12   4 1996.44 57.8777   1
  -4  12   2 2422.19 66.9331   4
   4  12  -2 2521.71 82.6618   2
 -12   4   2 2457.54 84.3001   2
  12   4  -2 2455.01 81.8758   2
  12  -4   2 2532.07 77.7642   1
  12   4  -2 2349.34 80.0407   1
   4 -12   2 2345.12 72.8384   1
  12  -4   2 2407.76 77.0708   2
   4  12  -2 2408.29 76.8421   1
  12   4   0 4841.95 149.668   1
  12  -4   0 4899.33 141.155   1
  -4  12   0 4985.38 134.120   4
  -4  12   0 4968.09 137.018   2
 -12   4   0 4941.17 153.694   2
   4  12   0 5153.01 145.940   1
  12  -4   0 5016.23 143.941   2
  -4  12  -2 2411.49 69.1227   2
  12  -4  -2 2453.18 76.5826   2
 -12  -4   2 2527.53 96.7062   2
 -12   4  -2 2389.48 88.0702   2
  -4  12  -2 2426.79 68.0264   4
   4  12   2 2457.60 79.8995   1
  12  -4  -2 2463.02 72.1426   1
  -4 -12   2 2269.81 83.4462   1
  12   4   2 2590.47 86.0137   1
 -12  -4   4 1942.15 80.0888   2
  12  -4  -4 2055.23 65.0930   2
  -4  12  -4 1905.54 56.7752   2
  12   4   4 1984.09 74.8990   1
  -4  12  -4 2135.65 57.9388   4
  -4 -12   4 1897.33 72.0069   1
   4  12   4 2060.72 70.9641   1
  -4 -12   6 2257.66 79.6260   1
  12   4   6 2150.26 87.6645   2
 -12  -4   6 2183.78 85.0962   2
  12  -4  -6 2295.72 66.2829   4
  12  -4  -6 2222.01 71.8459   2
   4  12   6 2131.54 78.9559   1
 -12  -4   6 2302.73 82.5748   1
  -4  12  -6 2401.95 66.6989   4
  12   4   8 907.175 53.4911   2
 -12  -4   8 849.170 45.4396   2
  -4 -12   8 914.402 42.0857   1
  12  -4  -8 871.010 29.9328   4
  -4  12  -8 940.550 30.7472   4
 -12  -4   8 862.671 43.0217   1
 -12  -4  10 283.342 27.4295   2
 -12  -4  10 348.546 27.8216   1
  12   4  10 303.302 36.5206   2
  12  -4 -10 287.973 14.8020   4
  -4 -12  10 308.325 24.7398   1
  -4  12 -10 306.490 16.3208   4
  -4 -12  12 293.848 24.1545   1
  12  -4 -12 236.685 13.0109   4
 -12  -4  12 254.408 24.9492   2
  -4  12 -12 204.544 13.9191   4
 -12  -4  12 194.505 23.1930   1
 -12  -4  14 231.993 23.8481   2
 -12  -4  14 240.220 24.7423   1
  -4 -12  14 209.404 21.9394   1
  12  -4 -14 192.447 12.7633   4
  12  -4 -16 331.073 21.1148   3
 -12  -4  16 334.266 28.7459   2
  -4 -12  16 330.282 27.9406   1
 -12  -4  16 304.391 28.3628   1
  12  -4 -16 320.902 16.9261   4
  12  -4 -18 227.755 18.6957   3
 -12  -4  18 229.244 25.4510   2
 -12  -4  18 295.228 28.6948   1
  -4 -12  18 260.911 26.1369   1
  12  -4 -20 251.944 20.3597   3
  -4 -12  20 310.803 28.8119   1
 -12  -4  20 333.651 30.4786   2
 -12  -4  20 290.104 29.8350   1
 -12  -4  22 203.707 29.1273   1
   4  12  22 254.966 21.5830   4
 -12  -4  22 206.891 27.4365   2
 -12  -4  24 125.171 26.7154   2
 -12   5  23 114.860 21.4931   1
 -12   5  21 51.6809 19.3247   2
  12   5 -21 49.2783 13.4078   3
  12  -5  21 34.3592 17.6176   2
  -5  12  21 45.3663 12.1929   4
   5  12 -21 36.4716 14.0663   4
  12  -5  21 56.2751 14.1641   4
 -12   5  21 50.0426 17.0347   1
 -12   5  19 236.940 25.2082   2
 -12   5  19 249.660 22.9296   1
  -5  12  19 265.125 17.9112   4
  12   5 -19 268.049 20.6096   4
   5  12 -19 258.841 20.5852   4
  12  -5  19 288.924 20.1842   4
 -12   5  17 284.645 25.5758   2
  12  -5  17 284.458 26.9005   2
 -12   5  17 297.818 22.9104   1
  -5  12  17 309.558 17.1647   4
   5  12 -17 301.307 20.8918   4
  12  -5  17 346.667 20.6107   4
  12   5 -17 285.274 19.9123   4
  12   5 -17 260.001 18.2927   3
   5  12 -15 33.8240 6.09867   3
  12  -5  15 35.0321 17.6900   2
  12   5 -15 38.9790 10.9290   3
  12  -5  15 29.0022 10.2527   4
  -5  12  15 28.7369 8.76120   4
   5  12 -15 27.9335 11.1736   4
  12   5 -15 37.2769 11.8671   4
 -12   5  15 37.8580 14.2966   1
  12  -5  13 526.078 32.3466   2
   5  12 -13 531.627 26.2859   4
  12   5 -13 526.839 25.7247   2
  12   5 -13 547.669 26.7286   4
  -5  12  13 548.181 20.8961   4
 -12   5  13 488.173 27.1557   1
  12  -5  13 530.277 23.6323   4
   5  12 -13 526.789 18.7359   3
  12   5 -11 989.302 39.2782   2
 -12   5  11 1065.57 40.6684   1
  12  -5  11 938.132 43.6947   2
  12   5 -11 1001.46 39.7809   4
   5  12 -11 1019.53 39.4535   4
  -5  12  11 1043.30 32.3037   4
  -5  12   9 78.4119 6.55269   4
 -12   5   9 77.6068 14.5517   1
  12   5  -9 79.3720 13.0065   2
   5  12  -9 76.6138 8.26387   2
  12  -5   9 77.8182 15.5225   2
   5  12  -9 89.6763 12.9255   4
 -12   5   9 74.2775 15.2247   2
 -12   5   7 1184.50 48.8843   2
 -12   5   7 1208.08 43.2760   1
  12  -5   7 1189.49 45.8234   2
  -5  12   7 1147.02 33.1936   4
   5  12  -7 1194.81 38.8318   2
   5 -12   7 1169.81 39.9791   1
  12   5  -7 1132.61 44.3322   2
  -5  12   7 1137.56 36.4757   1
  12   5  -5 2208.34 66.7629   1
   5 -12   5 2159.93 59.8379   1
   5  12  -5 2156.85 62.7276   2
  12  -5   5 2085.18 64.7609   2
  12   5  -5 2136.00 66.9306   2
 -12   5   5 2179.87 70.6969   2
  12   5  -3 365.171 23.4963   1
   5 -12   3 322.797 16.3553   1
   5  12  -3 296.653 22.5357   2
 -12   5   3 345.539 24.6446   2
  -5  12   3 292.159 15.7855   2
   5  12  -3 334.778 20.6585   1
  12   5  -3 291.111 21.6824   2
  12  -5   3 297.659 19.1628   2
   5  12  -1 1681.15 66.2531   2
   5  12  -1 1731.40 60.1445   1
  -5  12   1 1616.07 52.6485   2
 -12   5   1 1746.91 65.5034   2
  12   5  -1 1734.89 63.4268   1
  12   5  -1 1770.16 65.2003   2
  12  -5   1 1836.96 56.3587   1
  12  -5   1 1774.22 57.7469   2
  -5  12  -1 1711.13 51.3630   2
  12   5   1 1745.21 65.2904   1
  12  -5  -1 1684.77 56.3293   2
 -12   5  -1 1708.18 66.4529   2
  12   5   1 1484.65 64.2690   2
   5  12   1 1751.94 61.1505   1
  -5  12  -1 1707.87 47.5685   4
  12  -5  -1 1718.09 52.3091   1
  12   5   3 313.905 26.2544   1
  -5  12  -3 311.403 14.2648   2
   5  12   3 313.267 23.9318   1
 -12   5  -3 357.751 30.0604   2
  12  -5  -3 316.351 18.8573   2
 -12  -5   3 346.504 33.9080   2
  -5 -12   3 336.759 27.5126   1
  -5  12  -3 352.358 12.8188   4
  -5  12  -5 1906.00 60.6021   2
 -12  -5   5 2203.08 85.3097   2
  -5  12  -5 2172.55 60.7646   4
  12  -5  -5 2142.58 67.7189   2
  12  -5  -5 2177.44 60.9266   4
   5  12   5 2186.52 76.5373   1
 -12  -5   5 2173.89 79.7973   1
  -5 -12   5 2249.76 77.8856   1
  12   5   5 2235.49 80.8918   1
  -5 -12   7 1239.85 52.8641   1
 -12  -5   7 1277.66 55.4521   1
  12   5   7 1216.48 62.7758   2
 -12  -5   7 1218.21 57.2701   2
  12  -5  -7 1167.37 37.4055   4
   5  12   7 1253.88 54.0002   1
  -5  12  -7 1310.17 38.9786   4
  12   5   9 66.1406 25.9672   2
 -12  -5   9 118.888 21.2329   1
 -12  -5   9 92.4975 21.2719   2
  12  -5  -9 86.1575 8.36439   4
  -5 -12   9 105.303 18.9574   1
  12  -5  -9 90.5255 11.8203   3
 -12  -5  11 1045.57 48.4977   1
 -12  -5  11 992.537 48.6030   2
  -5 -12  11 968.013 45.9227   1
  12  -5 -11 989.608 32.2254   4
  12  -5 -11 925.845 37.7866   3
 -12  -5  13 498.983 34.3024   2
 -12  -5  13 535.812 34.5213   1
  12  -5 -13 577.388 21.8640   4
  -5 -12  13 547.199 33.8612   1
  -5 -12  15 53.1112 18.6512   1
 -12  -5  15 52.1333 19.8391   1
 -12  -5  15 28.0443 19.7271   2
  12  -5 -15 41.6491 8.73925   4
  12  -5 -17 316.026 21.1345   3
 -12  -5  17 241.210 28.3807   1
 -12  -5  17 284.221 28.6445   2
  -5 -12  17 265.408 26.7173   1
  12  -5 -19 279.550 21.2194   3
  -5 -12  19 245.871 27.8114   1
 -12  -5  19 250.195 28.5581   2
 -12  -5  19 270.557 29.9299   1
 -12  -5  21 53.3204 21.3977   2
  -5 -12  21 51.8553 20.9578   1
 -12  -5  21 12.0039 22.4305   1
 -12  -5  23 79.4854 22.9720   2
  12   6 -22 48.8650 12.1708   3
  12  -6  22 54.3785 14.7172   4
 -12   6  22 27.1910 16.8047   1
 -12   6  20 169.703 23.8281   2
  12   6 -20 174.797 15.8312   3
  12  -6  20 111.860 19.8708   2
 -12   6  20 156.308 20.1833   1
  -6  12  20 164.606 21.4213   2
  -6  12  20 159.035 15.7001   4
  12  -6  20 141.085 17.4678   4
  12   6 -20 162.752 17.5105   4
   6  12 -20 177.628 18.1440   4
 -12   6  18 110.402 19.3809   2
   6  12 -18 84.8013 14.1357   4
  -6  12  18 83.0598 11.8691   4
  -6  12  18 103.744 16.5366   2
  12  -6  18 88.5486 13.9738   4
 -12   6  18 83.8083 16.5612   1
 -12   6  16 126.637 16.4488   1
   6  12 -16 115.557 8.85989   3
  12  -6  16 139.172 13.6061   4
   6  12 -16 124.206 14.4322   4
  12   6 -16 138.835 13.6951   3
  12   6 -16 116.405 14.8410   4
  -6  12  16 104.896 11.3021   4
  12  -6  16 150.279 19.7147   2
  12  -6  14 473.714 30.2721   2
   6  12 -14 459.271 25.8351   4
  -6  12  14 491.199 20.6662   4
  12   6 -14 504.179 26.8692   4
  12  -6  14 521.109 23.8083   4
 -12   6  14 558.130 27.8051   1
  12   6 -12 757.652 32.8096   2
 -12   6  12 809.995 33.3296   1
  -6  12  12 800.937 26.1928   4
  12   6 -12 782.462 33.7541   4
  12  -6  12 724.042 36.2646   2
   6  12 -12 762.713 33.0656   4
 -12   6  12 635.651 36.4015   2
  12  -6  12 779.102 29.4423   4
   6  12 -10 1236.05 44.8835   4
  12   6 -10 1155.55 44.0619   2
  12  -6  10 1174.37 46.4601   2
   6  12 -10 1149.39 37.9444   2
  -6  12  10 1143.31 44.0541   2
  -6  12  10 1195.92 35.1701   4
 -12   6  10 1271.09 49.9244   2
  12  -6  10 1096.92 38.5441   4
 -12   6  10 1223.55 44.0768   1
 -12   6   8 550.119 30.0849   2
  -6  12   8 532.400 24.9104   2
  -6  12   8 464.267 15.3935   4
 -12   6   8 541.259 25.0949   1
  12  -6   8 547.696 26.1869   2
  -6  12   8 479.577 18.1041   1
   6  12  -8 497.694 21.5751   2
  12   6  -8 541.454 26.5644   2
  12   6  -6 316.489 21.7556   1
   6 -12   6 279.975 15.7740   1
  -6  12   6 326.600 18.4037   2
   6  12  -6 301.617 18.3593   2
 -12   6   6 315.857 23.7474   2
  12  -6   6 305.879 19.9846   2
  12   6  -6 340.067 22.2106   2
  -6  12   4 903.858 33.4524   2
   6  12  -4 896.409 37.4890   1
   6  12  -4 967.226 38.7742   2
  12   6  -4 1022.41 40.9983   1
 -12   6   4 904.000 41.2640   2
  12   6  -4 880.098 39.6872   2
  12  -6   4 896.015 35.5210   2
   6 -12   4 909.786 31.6279   1
  12  -6   2 790.697 31.7111   2
  -6  12   2 769.948 28.9377   2
  12   6  -2 759.953 37.2515   2
   6  12  -2 761.410 37.9333   2
 -12   6   2 835.879 38.7493   2
   6  12  -2 757.941 34.6314   1
  12  -6   2 784.781 31.2544   1
   6 -12   2 768.423 26.7676   1
  12   6  -2 808.622 37.6745   1
  12  -6   0 149.446 14.2160   2
   6  12   0 150.173 22.9063   2
 -12   6   0 155.044 21.0631   2
  12   6   0 154.752 20.9456   2
   6  12   0 124.381 17.3984   1
  12  -6   0 130.305 10.8909   1
  12   6   0 152.567 20.4582   1
  -6  12   0 144.169 11.5054   2
  12  -6  -2 834.802 32.4828   2
 -12   6  -2 794.272 42.1708   2
   6  12   2 862.638 39.1931   1
  -6  12  -2 827.764 29.1837   2
  12   6   2 799.018 43.3847   2
  12   6   2 838.830 41.5070   1
 -12  -6   4 893.937 51.6408   2
 -12   6  -4 879.710 46.8983   2
  -6  12  -4 849.140 30.5005   2
  12  -6  -4 831.710 33.6269   2
  12  -6  -4 887.094 26.8431   4
  12   6   4 927.363 45.8174   1
  -6 -12   4 912.242 44.5574   1
   6  12   4 842.431 41.1859   1
  12  -6  -6 298.690 12.0408   4
 -12  -6   6 332.471 33.1622   2
   6  12   6 303.218 27.7509   1
 -12  -6   6 312.007 28.7163   1
  -6 -12   8 554.052 35.1042   1
 -12  -6   8 527.727 37.4552   2
   6  12   8 506.017 35.5670   1
  12  -6  -8 571.308 19.4615   4
 -12  -6   8 633.481 37.5398   1
  12  -6  -8 578.752 26.1796   3
  12  -6 -10 1104.76 35.1426   4
 -12  -6  10 1231.18 54.1770   1
 -12  -6  10 1115.34 55.0247   2
  -6 -12  10 1137.82 51.5414   1
  12  -6 -10 1217.14 43.0036   3
  12  -6 -12 769.952 32.4248   3
 -12  -6  12 707.802 40.9254   1
 -12  -6  12 738.869 43.5258   2
  12  -6 -12 734.426 25.7896   4
  -6 -12  12 803.565 41.5873   1
 -12  -6  14 498.199 35.8204   2
 -12  -6  14 533.297 36.5703   1
  -6 -12  14 499.571 33.6685   1
 -12  -6  16 163.998 24.9450   1
 -12  -6  16 153.919 23.7472   2
  -6 -12  16 135.149 21.7370   1
  12  -6 -18 87.6046 13.8542   3
  -6 -12  18 111.121 25.2383   2
  -6 -12  18 92.3993 22.2872   1
 -12  -6  18 111.228 24.5282   1
 -12  -6  18 78.5587 21.0969   2
  -6 -12  20 175.932 26.4233   1
 -12  -6  20 133.816 27.0539   1
 -12  -6  20 177.598 27.4927   2
 -12  -6  22 64.9553 22.8205   2
  12   7 -21 21.7193 11.1154   3
   7 -12  21 45.4697 15.7875   4
  12  -7  21 65.7892 14.3393   4
 -12   7  19 68.0020 18.3532   2
   7 -12  19 63.4863 16.0273   4
  -7  12  19 75.9541 12.5780   4
  12  -7  19 69.3178 16.1590   2
  -7  12  19 76.8697 16.4551   2
  12   7 -19 68.9365 14.5426   4
  12  -7  19 56.6230 13.5198   4
   7  12 -19 55.0746 14.1344   4
 -12   7  19 76.4146 17.3383   1
   7  12 -17 65.1492 8.25319   3
 -12   7  17 80.9818 15.7790   1
  -7  12  17 44.6380 14.8913   2
  12   7 -17 76.9734 14.0343   4
  -7  12  17 72.3735 11.0830   4
   7  12 -17 47.1315 13.0763   4
   7 -12  17 45.6917 13.3797   4
  12  -7  17 61.0692 11.9814   4
  12   7 -15 267.245 19.9677   4
  -7  12  15 233.279 21.0934   2
  -7  12  15 274.785 15.2360   4
  12  -7  15 234.708 21.2582   2
   7  12 -15 277.207 19.8459   4
 -12   7  15 261.654 19.8243   1
  12  -7  15 247.676 16.9130   4
   7 -12  15 268.843 20.1307   4
   7  12 -15 253.292 13.6871   3
 -12   7  13 134.396 19.2581   2
 -12   7  13 134.935 15.4522   1
   7 -12  13 161.643 15.6167   4
  12   7 -13 121.633 14.8822   4
  12   7 -13 145.491 14.3805   2
  -7  12  13 137.696 10.3619   4
  -7  12  13 122.357 16.7153   2
   7  12 -13 124.557 14.8184   4
  12  -7  13 140.562 17.7533   2
  12  -7  13 132.272 12.7899   4
 -12   7  11 209.069 20.4706   2
 -12   7  11 233.243 17.4031   1
  12   7 -11 228.701 16.8606   2
   7  12 -11 232.395 13.3031   2
   7  12 -11 208.018 17.2550   4
  -7  12  11 237.658 18.2790   2
  -7  12  11 210.001 10.3036   4
  12  -7  11 228.305 14.3881   4
  12   7 -11 228.294 18.3739   4
  12  -7  11 202.259 17.9270   2
   7  12  -9 427.075 19.9826   2
  12   7  -9 421.259 23.9076   2
  -7  12   9 419.437 23.0562   2
   7  12  -9 402.159 23.7765   4
  12  -7   9 475.549 24.0900   2
  12  -7   9 422.501 18.7108   4
 -12   7   9 453.920 27.5810   2
 -12   7   9 429.089 21.7317   1
  -7  12   7 756.853 31.0341   2
 -12   7   7 762.795 36.7192   2
   7  12  -7 754.570 30.2871   2
  12  -7   7 718.548 30.8716   2
  12  -7   7 730.179 25.8150   4
  12   7  -7 733.041 33.5381   2
  12   7  -5 456.440 26.6711   1
  -7  12   5 437.595 21.6857   2
   7  12  -5 435.724 24.0617   2
 -12   7   5 451.345 27.2907   2
  12   7  -5 464.443 26.8156   2
   7 -12   5 468.512 18.9321   1
  12  -7   5 428.208 21.9992   2
  12   7  -3 141.547 17.4251   1
  -7  12   3 178.382 12.6789   2
  12  -7   3 151.017 13.3228   2
   7 -12   3 152.880 10.0387   1
   7  12  -3 152.629 17.6342   2
  12   7  -3 183.717 18.9200   2
 -12   7   3 164.311 19.0829   2
   7  12  -3 178.743 17.2785   1
  12   7  -1 116.663 18.3739   2
  12   7  -1 136.981 18.5949   1
  12  -7   1 130.413 10.4523   1
  12  -7   1 117.510 12.5926   2
   7  12  -1 119.761 20.9838   2
 -12   7   1 113.948 17.8889   2
   7  12  -1 128.839 16.2655   1
  -7  12   1 127.242 11.1121   2
   7  12   1 132.341 23.3506   2
 -12   7  -1 144.077 20.7256   2
   7  12   1 162.249 18.7410   1
  12  -7  -1 137.186 12.6893   2
  12   7   1 147.568 21.1665   2
  12   7   1 183.224 21.8128   1
  -7  12  -1 135.971 11.4129   2
  12  -7  -1 135.041 7.55919   1
  12   7   3 209.531 23.9751   1
 -12   7  -3 174.325 23.3670   2
  -7  12  -3 180.046 13.1898   2
  12   7   3 198.961 25.1791   2
  12  -7  -3 159.125 13.4749   2
   7  12   3 184.791 21.2617   1
  -7 -12   3 205.837 24.2417   1
  -7  12  -5 392.990 20.1163   2
 -12  -7   5 311.846 35.3418   2
  12   7   5 342.287 34.3170   2
 -12  -7   5 430.947 32.8538   1
  12  -7  -5 373.256 12.4091   4
  -7 -12   5 456.904 31.5818   1
   7  12   5 403.771 29.4742   1
  12   7   5 363.376 31.1190   1
 -12  -7   7 783.623 47.2372   2
 -12  -7   7 718.021 41.7696   1
   7  12   7 710.456 41.0079   1
  12  -7  -7 725.550 22.3505   4
  12  -7  -7 757.536 30.4717   3
  -7 -12   7 712.973 40.2207   1
  -7 -12   9 456.472 32.3869   1
 -12  -7   9 483.940 37.1804   2
  12  -7  -9 475.396 16.4881   4
 -12  -7   9 439.742 33.5553   1
  12  -7  -9 441.469 22.7870   3
 -12  -7  11 228.812 28.6442   2
 -12  -7  11 201.137 25.6108   1
  -7 -12  11 239.597 25.7924   1
  12  -7 -11 244.742 17.3094   3
  12  -7 -13 144.635 14.5870   3
  -7 -12  13 137.267 22.9241   1
 -12  -7  13 177.263 25.0177   1
 -12  -7  13 121.481 23.8597   2
  12  -7 -15 221.031 18.4240   3
  -7 -12  15 242.679 26.9040   1
 -12  -7  15 230.055 27.3231   2
 -12  -7  15 231.092 27.3615   1
 -12  -7  17 31.4561 20.2896   1
  -7 -12  17 113.493 28.0070   2
 -12  -7  17 85.3687 21.2710   2
  -7 -12  17 91.8720 21.5028   1
 -12  -7  19 74.6388 23.9952   1
 -12  -7  19 73.5494 22.5212   2
  -7 -12  19 92.9334 23.0345   1
 -12  -7  21 27.5808 21.8885   2
   8 -12  22 67.9822 17.5282   4
  12   8 -20 134.275 14.4830   3
  12  -8  20 111.616 15.8705   4
  12   8 -20 121.869 17.0507   4
   8 -12  20 118.472 18.5526   4
  12   8 -18 69.5300 11.9647   3
  -8  12  18 81.9350 17.0633   2
   8  12 -18 56.0840 8.97452   3
  12  -8  18 73.3773 14.6880   2
  12  -8  18 47.8976 12.5054   4
 -12   8  18 64.9807 15.3725   1
   8 -12  18 57.7703 14.2876   4
  12   8 -18 79.9936 14.6772   4
 -12   8  16 65.3057 17.0228   2
  12   8 -16 78.8191 14.1037   4
  -8  12  16 56.7188 15.4793   2
   8 -12  16 63.6661 13.8080   4
   8  12 -16 63.4675 9.19426   3
   8  12 -16 69.1225 13.7611   4
  12  -8  16 45.9575 10.9515   4
 -12   8  16 53.0852 13.6127   1
  12  -8  16 72.6824 14.6642   2
  12   8 -16 54.9291 11.8364   3
 -12   8  14 149.440 19.7162   2
 -12   8  14 168.256 16.6387   1
  12   8 -14 181.288 16.3543   2
  -8  12  14 183.298 18.8538   2
  12   8 -14 205.380 18.5658   4
   8  12 -14 205.536 18.0295   4
  12  -8  14 213.488 15.5699   4
  12  -8  14 195.719 17.5112   2
   8  12 -14 167.863 12.7045   3
   8 -12  14 172.783 16.6033   4
 -12   8  12 139.762 18.4108   2
  12   8 -12 202.969 17.9289   4
   8  12 -12 186.257 12.8696   2
  12   8 -12 186.149 15.5468   2
  -8  12  12 181.454 17.8245   2
   8 -12  12 179.245 15.4038   4
 -12   8  12 206.229 16.6890   1
   8  12 -12 205.886 17.7163   4
  12  -8  12 184.405 13.6519   4
  12  -8  12 186.001 16.4290   2
  12   8 -10 497.946 25.4066   2
   8  12 -10 499.715 21.8940   2
  -8  12  10 482.199 25.9432   2
   8  12 -10 511.727 26.3784   4
 -12   8  10 511.941 22.8595   1
  12  -8  10 516.049 20.8202   4
  12  -8  10 510.152 24.4870   2
 -12   8  10 522.815 29.6737   2
   8  12  -8 119.462 13.1341   2
  12  -8   8 125.017 13.2611   2
  12   8  -8 141.851 15.7072   2
  -8  12   8 116.770 13.9396   2
 -12   8   8 121.552 16.9283   2
  12  -8   8 121.915 10.1408   4
  12   8  -6 143.134 16.7338   1
   8 -12   6 110.857 6.64677   3
  12  -8   6 116.284 12.3640   2
  -8  12   6 128.867 13.4749   2
  12  -8   6 123.637 9.32478   4
   8  12  -6 127.475 13.9778   2
 -12   8   6 140.727 16.9860   2
  12   8  -6 112.979 15.5634   2
  -8  12   4 1136.15 41.3787   2
   8 -12   4 1119.31 35.5188   1
   8 -12   4 1174.45 34.8851   3
  12  -8   4 1080.97 39.9259   2
   8  12  -4 1203.18 46.5966   2
   8  12  -4 1092.58 45.3063   1
  12   8  -4 1137.36 47.3308   2
 -12   8   4 1158.42 47.3837   2
  12   8  -4 1125.94 47.0465   1
  12  -8   4 1125.74 34.3972   4
   8 -12   2 298.458 14.0286   3
  12   8  -2 341.520 25.8155   1
  12  -8   2 373.845 18.7869   2
   8  12  -2 363.924 26.9960   2
   8  12  -2 324.543 23.7152   1
 -12   8   2 335.014 24.4004   2
  12   8  -2 278.535 24.5930   2
  12  -8   2 318.743 15.7967   1
  12  -8   2 303.122 11.6563   4
  -8  12   2 341.023 19.1677   2
   8 -12   0 337.302 14.9775   3
   8  12   0 362.423 30.1569   2
  12  -8   0 329.911 17.8087   2
  12   8   0 390.146 27.0574   1
 -12   8   0 395.818 26.6414   2
   8  12   0 362.542 25.1800   1
  -8  12   0 325.151 18.0869   2
  12   8   0 274.065 25.2166   2
  12  -8   0 310.265 10.3369   4
   8 -12  -2 308.044 15.4140   3
   8  12   2 337.801 34.0578   2
   8  12   2 300.865 24.9543   1
  12   8   2 294.465 27.0741   1
 -12   8  -2 280.596 25.2828   2
  12   8   2 291.623 28.7049   2
  12  -8  -2 282.701 17.4172   2
  -8  12  -2 318.500 18.6348   2
   8 -12  -4 1112.65 38.4076   3
 -12   8  -4 1202.05 53.5678   2
  12   8   4 1104.50 58.2878   2
  -8  12  -4 1185.65 42.0816   2
  -8 -12   4 1110.76 53.9711   1
   8  12   4 1033.17 49.8021   1
   8  12   6 165.206 22.6962   1
  -8 -12   6 132.770 22.8472   1
  12   8   6 122.970 28.0729   2
 -12  -8   6 180.402 23.9013   1
  12  -8  -6 131.728 12.5396   3
  12  -8  -8 116.956 12.3793   3
 -12  -8   8 108.956 23.2955   1
 -12  -8   8 83.0944 25.1627   2
  -8 -12   8 142.559 22.7652   1
   8  12   8 113.848 23.9455   1
  12  -8 -10 493.314 24.7367   3
  -8 -12  10 532.940 35.8707   1
 -12  -8  10 501.297 40.5435   2
 -12  -8  10 456.633 35.5843   1
  12  -8 -12 216.612 16.5268   3
 -12  -8  12 218.670 29.9394   2
 -12  -8  12 230.053 27.0117   1
  -8 -12  12 222.990 25.6132   1
  -8 -12  14 181.590 26.5011   1
 -12  -8  14 134.587 25.6683   2
 -12  -8  14 171.585 25.2422   1
 -12  -8  16 42.5948 22.2361   1
  12  -8 -16 64.7768 12.8375   3
  -8 -12  16 72.1828 22.6126   1
 -12  -8  16 38.3363 23.4239   2
 -12  -8  18 99.7460 24.9004   1
  -8 -12  18 27.6471 28.1419   2
 -12  -8  18 86.0899 25.0212   2
  -8 -12  18 38.7817 21.4369   1
 -12  -8  20 114.524 27.0235   2
   9 -12  21 37.2777 15.6397   4
  12  -9  21 35.7746 13.6527   4
  12   9 -19 220.352 16.7687   3
  -9  12  19 171.321 22.1199   2
   9 -12  19 203.183 20.0283   4
  12  -9  19 194.405 18.7410   4
  12   9 -19 236.701 20.5990   4
   9  12 -17 87.6505 10.2167   3
 -12   9  17 83.7479 17.5886   2
   9 -12  17 77.4074 14.7796   4
  -9  12  17 75.4693 16.3458   2
  12   9 -17 59.5472 14.2376   4
  12  -9  17 103.739 13.1393   4
  12  -9  17 82.9045 12.8516   2
 -12   9  17 84.0119 15.4749   1
  12   9 -17 80.7988 12.7679   3
   9  12 -15 225.205 19.6897   4
 -12   9  15 233.305 23.8993   2
  -9  12  15 247.582 22.8437   2
  12   9 -15 223.564 20.1404   4
   9  12 -15 218.721 14.7082   3
   9 -12  15 250.200 19.5276   4
 -12   9  15 225.301 18.5168   1
  12  -9  15 224.189 16.9712   4
 -12   9  13 24.1859 13.5411   2
 -12   9  13 22.4552 11.2830   1
  -9  12  13 3.66933 11.6425   2
   9  12 -13 5.37734 9.85572   4
  -9  12  13 11.7295 6.05840   1
   9 -12  13 2.40170 9.71226   4
  12  -9  13 15.4605 8.86236   4
  12   9 -13 20.6556 11.1703   4
  12   9 -13 14.5135 9.11279   2
  12  -9  13 8.30609 9.05727   2
  12   9 -11 495.230 24.7371   2
  -9  12  11 481.131 26.8230   2
   9  12 -11 502.233 22.2744   2
  12   9 -11 493.009 27.4927   4
   9 -12  11 513.389 23.1969   4
   9  12 -11 509.064 27.1750   4
  12  -9  11 527.177 21.4465   4
 -12   9  11 543.479 21.9833   1
  12  -9  11 471.066 22.4034   2
 -12   9  11 466.707 28.4940   2
  12   9  -9 269.899 19.6752   2
  -9  12   9 244.182 20.0439   2
  12  -9   9 256.490 14.6723   4
 -12   9   9 269.359 22.7562   2
  12  -9   9 308.674 17.7643   2
   9  12  -9 244.682 17.5992   2
  12  -9   7 254.058 15.8083   2
  -9  12   7 254.555 18.5836   2
  12  -9   7 225.673 12.3630   4
   9 -12   7 225.958 9.97146   3
  12   9  -7 257.019 19.7131   2
 -12   9   7 221.061 20.1023   2
   9  12  -7 219.365 17.6783   2
  -9  12   5 1632.02 56.3766   2
   9 -12   5 1604.60 48.1308   3
  12  -9   5 1667.82 53.4168   2
  12   9  -5 1670.62 61.4110   1
   9  12  -5 1685.99 60.2182   1
   9  12  -5 1690.33 59.3796   2
  12  -9   5 1632.56 48.1550   4
  12   9  -5 1620.74 60.5781   2
 -12   9   5 1657.16 61.0103   2
   9 -12   5 1638.39 48.8914   1
   9 -12   3 635.770 23.0957   3
   9 -12   3 539.559 19.5201   1
  12  -9   3 617.862 24.6593   1
  12   9  -3 658.583 35.1766   1
  12  -9   3 701.758 27.2520   2
   9  12  -3 707.487 35.8875   2
  12   9  -3 651.934 35.0935   2
 -12   9   3 674.758 34.0686   2
  12  -9   3 700.831 20.5972   4
   9  12  -3 764.028 35.5024   1
  -9  12   3 641.156 29.0946   2
   9 -12   1 557.062 20.1679   3
   9  12  -1 530.418 33.4120   2
  12  -9   1 553.756 23.1277   2
  12   9  -1 579.592 33.7332   2
 -12   9   1 632.309 32.1368   2
  -9  12   1 601.982 25.7394   2
   9  12  -1 522.383 30.2815   1
   9 -12  -1 523.151 21.4507   3
   9  12   1 495.338 37.7442   2
  12   9   1 503.406 35.3024   2
 -12   9  -1 555.690 31.7959   2
   9  12   1 515.949 31.9141   1
  -9  12  -1 572.435 26.3523   2
   9 -12  -3 581.825 24.8551   3
   9  12   3 619.711 36.6257   1
   9  12   3 640.456 45.9923   2
 -12   9  -3 689.724 38.4730   2
  12   9   3 668.115 44.0146   2
  -9  12  -3 689.755 31.3207   2
  12  -9  -3 665.052 27.5905   3
   9 -12  -5 1632.73 52.9494   3
 -12   9  -5 1685.40 68.5825   2
  -9  12  -5 1751.87 59.5647   2
  12   9   5 1604.24 75.8183   2
  -9 -12   5 1586.81 69.3555   1
 -12  -9   5 1447.03 68.3093   1
   9  12   5 1723.53 67.9927   1
  12  -9  -5 1658.99 54.7739   3
  -9 -12   7 278.790 28.2637   1
   9 -12  -7 204.433 14.7136   3
  12   9   7 198.369 32.2377   2
   9  12   7 231.520 27.6953   1
 -12  -9   7 236.414 27.5459   1
  12  -9  -7 226.550 15.7237   3
  12  -9  -9 256.551 17.8878   3
 -12  -9   9 338.102 31.5189   1
 -12  -9   9 270.230 34.5937   2
  -9 -12   9 270.966 28.8076   1
   9  12   9 319.283 33.0252   1
 -12  -9  11 521.725 38.3717   1
  12  -9 -11 530.003 25.9776   3
 -12  -9  11 452.844 40.2519   2
  12  -9 -13 14.2593 9.37359   3
 -12  -9  13 2.34690 22.9387   2
  -9 -12  13 1.97005 18.4869   1
 -12  -9  13-8.25104 18.8948   1
  -9 -12  15 223.835 28.7782   1
  12  -9 -15 234.041 18.9743   3
 -12  -9  15 230.685 32.4327   2
 -12  -9  15 235.210 30.4521   1
  -9 -12  17 61.4267 23.1041   1
  -9 -12  17 81.5900 32.6035   2
 -12  -9  17 75.7605 26.3375   2
 -12  -9  17 111.276 25.4785   1
 -12  -9  19 194.292 31.2826   1
 -12  -9  19 209.845 32.4516   2
  12 -10  20 181.900 19.0306   4
  10 -12  20 183.661 20.5848   4
 -12  10  18 10.4347 16.0081   2
  12 -10  18 0.95264 10.4189   4
 -10  12  18-17.7210 16.8691   2
  10 -12  18 19.2075 12.3402   4
  12  10 -18-8.06684 12.4717   4
  12  10 -16 361.755 20.8353   3
 -12  10  16 384.972 22.4512   1
 -10  12  16 347.556 27.2295   2
  10 -12  16 376.005 23.2442   4
  12 -10  16 363.764 22.1359   4
  10  12 -16 345.401 19.1616   3
 -12  10  16 364.954 28.8396   2
 -10  12  14 437.758 18.5053   1
 -10  12  14 466.739 29.0151   2
 -12  10  14 451.077 22.3102   1
  10 -12  14 406.454 23.3259   4
  12 -10  14 452.395 22.6507   4
  12 -10  14 439.962 21.0853   2
 -12  10  14 368.239 29.2276   2
  12  10 -14 424.237 26.1868   4
 -12  10  12 13.9909 12.9492   2
  12 -10  12 17.1867 8.15811   2
 -10  12  12 26.3375 12.9905   2
  12  10 -12 19.1112 10.0562   2
  10  12 -12 13.6287 9.02281   2
  12  10 -12 11.3550 11.7629   4
  10 -12  12 22.8719 9.73193   4
  12 -10  12 7.16079 8.93095   4
 -12  10  12 23.9250 7.79042   1
  10  12 -10 1510.99 51.4588   2
  12  10 -10 1360.53 52.1929   2
  12 -10  10 1512.39 48.5930   2
 -10  12  10 1530.60 56.4198   2
  10 -12  10 1528.88 49.1709   4
  12 -10  10 1426.27 47.5920   4
 -12  10  10 1504.82 58.2306   2
 -10  12   8 688.302 32.7643   2
  12 -10   8 708.451 27.5667   2
  12 -10   8 712.942 25.6857   4
 -12  10   8 672.941 34.6245   2
  10  12  -8 624.301 30.3016   2
  12  10  -8 738.485 33.1071   2
  12 -10   6 235.245 12.0567   4
  12 -10   6 221.174 14.4168   2
  10 -12   6 208.209 11.2091   3
  10  12  -6 207.165 19.3931   2
  12  10  -6 235.559 20.1501   2
 -12  10   6 207.284 19.6320   2
 -10  12   6 243.923 19.1793   2
  10  12  -4 1428.37 55.2996   1
  10 -12   4 1395.86 43.7180   3
  12 -10   4 1458.55 46.9459   2
  10 -12   4 1380.72 41.1714   1
  10  12  -4 1413.08 55.7261   2
  12  10  -4 1383.03 55.5575   2
 -12  10   4 1434.11 55.0024   2
  12 -10   4 1428.30 41.2307   4
 -10  12   4 1424.29 51.7374   2
 -12  10   2 780.015 38.3701   2
  10  12  -2 892.857 40.7208   1
  10  12  -2 858.559 42.4535   2
  12  10  -2 922.557 43.4531   2
 -10  12   2 797.227 35.0877   2
  10 -12   2 831.611 29.1964   3
  10 -12   0 810.722 30.1290   3
  10  12   0 847.763 46.3965   2
  12  10   0 908.384 46.1936   2
 -12  10   0 882.056 40.7842   2
 -10  12   0 888.957 36.8044   2
  10  12   0 863.738 41.8211   1
  10 -12  -2 866.210 31.5785   3
  10  12   2 904.615 50.9729   2
  12  10   2 808.198 48.4791   2
  10  12   2 851.987 43.4638   1
 -12  10  -2 862.591 42.4487   2
  12 -10  -2 916.791 33.3737   3
 -10  12  -2 827.115 37.4149   2
  10  12   4 1478.83 61.8027   1
  10 -12  -4 1460.74 47.0494   3
  10  12   4 1268.41 68.2469   2
 -12  10  -4 1430.80 60.1735   2
  12  10   4 1311.68 67.5180   2
 -10  12  -4 1436.95 54.1035   2
  12 -10  -4 1341.36 47.2852   3
  10  12   6 235.181 27.4266   1
  10 -12  -6 213.114 14.9519   3
  12  10   6 209.987 32.9879   2
 -10 -12   6 233.575 28.9970   1
  12 -10  -6 206.461 15.3837   3
  12  10   8 547.124 40.9867   1
  12 -10  -8 694.350 29.3365   3
  10 -12  -8 622.831 27.7670   3
  12  10   8 654.360 50.9047   2
  10  12   8 749.447 45.2660   1
 -10 -12   8 679.560 43.5983   1
  12 -10 -10 1570.36 52.8699   3
  10  12  10 1443.32 68.8291   1
 -12 -10  10 1389.41 66.6071   1
 -10 -12  10 1439.29 66.7314   1
  12 -10 -12 26.0975 10.3142   3
 -10 -12  12 38.0255 20.3836   1
 -12 -10  12-10.4947 26.4177   2
 -12 -10  12 6.51288 19.8925   1
  12 -10 -14 421.904 24.1373   3
 -12 -10  14 358.517 34.2565   1
 -10 -12  14 396.144 35.2079   1
 -12 -10  16 339.769 38.7767   2
 -12 -10  16 381.993 36.1766   1
 -12 -10  18 10.4899 25.1831   2
 -12 -10  18-23.4562 24.1880   1
  11 -12  21 56.4352 17.1714   4
  12 -11  21 58.6003 15.6992   4
  12 -11  19 60.5340 14.8866   4
  11 -12  19 56.9399 15.3413   4
 -12  11  17 286.483 27.2290   2
 -11  12  17 265.233 26.3267   2
  12 -11  17 275.262 20.6828   4
  12  11 -17 232.855 21.3608   4
  11 -12  17 298.033 21.5682   4
 -11  12  15 628.320 36.5325   2
  12 -11  15 661.897 29.6553   4
  11 -12  15 589.262 29.0052   4
 -12  11  15 596.265 36.5119   2
 -11  12  13 427.549 28.8059   2
  12 -11  13 454.009 19.3223   2
  12 -11  13 460.610 22.8794   4
  12  11 -13 426.887 22.8136   2
  11  12 -13 409.667 22.0053   2
  11 -12  13 454.933 23.5923   4
  12  11 -13 380.420 25.7088   4
 -12  11  13 407.355 17.5263   1
 -12  11  13 469.389 30.6387   2
 -11  12  11 439.731 28.0725   2
  12  11 -11 447.893 24.8136   2
  11  12 -11 473.520 24.0681   2
  12 -11  11 481.030 20.5657   2
  12 -11  11 500.162 22.5616   4
  11 -12  11 511.086 23.1452   4
 -12  11  11 491.567 30.2836   2
  11  12  -9 889.051 36.8014   2
  12 -11   9 928.717 31.9712   2
  11 -12   9 900.122 32.3246   4
  12 -11   9 912.030 32.1063   4
 -12  11   9 820.927 40.7933   2
  12  11  -9 850.937 37.3140   2
 -11  12   9 884.559 40.2572   2
  12 -11   7 1368.56 43.4796   2
  12 -11   7 1327.45 41.6886   4
  11  12  -7 1371.19 50.6908   2
  12  11  -7 1341.38 51.1011   2
 -12  11   7 1266.52 51.9334   2
 -11  12   7 1288.18 50.9527   2
  11 -12   7 1258.78 40.6988   3
  12 -11   5 2219.10 63.4432   4
  11  12  -5 2234.31 77.2817   2
  12  11  -5 2301.72 78.0965   2
 -12  11   5 2185.74 76.9197   2
 -11  12   5 2181.48 75.1506   2
  11 -12   5 2276.62 66.1951   3
  11  12  -5 2267.34 78.1047   1
  11  12  -3 115.307 18.5713   1
  11  12  -3 158.605 20.4589   2
  12  11  -3 144.843 20.6192   2
 -12  11   3 181.189 18.9524   2
 -11  12   3 179.178 17.8845   2
  11 -12   3 148.028 11.2436   3
  11  12  -1 1502.02 61.8899   2
  12  11  -1 1403.85 60.6724   2
 -12  11   1 1412.97 55.4344   2
 -11  12   1 1432.26 53.4699   2
  12 -11   1 1352.51 46.5601   3
  11  12  -1 1411.26 57.6373   1
  11 -12   1 1463.25 46.0465   3
  11 -12  -1 1389.10 46.2040   3
  11  12   1 1432.94 65.2188   2
  12  11   1 1417.06 63.9615   2
 -12  11  -1 1427.52 56.8364   2
 -11  12  -1 1392.44 53.7946   2
  11  12   1 1465.52 59.6042   1
  12 -11  -1 1412.73 47.2933   3
  11 -12  -3 162.669 12.6290   3
  11  12   3 151.861 22.1739   1
  11  12   3 151.134 26.5185   2
  12  11   3 186.663 27.9433   2
 -12  11  -3 165.472 21.3089   2
 -11  12  -3 164.286 20.1090   2
  12  11   3 126.220 21.7857   1
  12 -11  -3 163.805 13.0706   3
  12 -11  -5 2206.56 71.0654   3
  11 -12  -5 2305.80 70.9552   3
 -12  11  -5 2331.49 84.9922   2
 -11  12  -5 2279.98 81.4719   2
  11  12   5 2240.79 97.0061   2
  12  11   5 2370.70 97.1605   2
  12  11   5 2255.12 86.9854   1
  11  12   5 2315.49 87.1229   1
  12 -11  -7 1200.24 43.6667   3
  11 -12  -7 1196.32 43.6634   3
  12  11   7 1217.00 69.0942   2
  11  12   7 1264.71 60.3966   1
 -11 -12   7 1342.10 62.6331   1
  12  11   7 1174.72 59.1450   1
  11  12   9 769.706 49.5257   1
  12 -11  -9 873.960 35.7032   3
  11 -12  -9 957.610 35.9074   3
  12  11   9 916.930 52.7070   1
 -11 -12   9 849.823 50.9080   1
  12 -11 -11 462.006 24.5084   3
  12 -11 -13 421.405 23.7472   3
 -12 -11  15 667.754 46.7302   1
 -12 -11  15 642.851 51.7849   2
 -11 -12  17 362.164 44.7713   2
 -12 -11  17 350.072 40.9736   2
 -12 -11  17 274.057 34.1303   1
  12 -12  20 132.307 18.8980   4
  12 -12  18 165.737 17.5963   4
 -12  12  16 461.969 33.1958   2
  12 -12  16 468.855 26.3971   4
  12  12 -16 529.563 24.4280   3
 -12  12  14 286.337 26.0046   2
  12 -12  14 334.333 20.6542   4
  12  12 -14 324.969 19.9319   2
  12  12 -12 727.170 32.0116   2
  12 -12  12 769.469 30.9534   4
 -12  12  12 716.527 38.1610   2
  12  12 -10 2234.96 75.5315   2
  12 -12  10 2431.00 71.4195   4
 -12  12  10 2228.78 80.9784   2
 -12  12   8 267.699 22.2143   2
  12 -12   8 279.660 14.8273   4
  12  12  -8 280.696 20.5254   2
  12 -12   6 260.644 13.8335   3
  12  12  -6 256.536 21.5329   2
 -12  12   6 209.246 20.2925   2
  12  12  -4 3359.58 101.079   2
 -12  12   4 3277.40 98.1599   2
  12 -12   4 3464.33 87.3077   3
  12  12  -2 822.152 42.5971   1
  12  12  -2 914.329 45.6624   2
 -12  12   2 890.960 40.7471   2
  12 -12   2 957.060 33.2132   3
  12 -12   0 34.2186 8.15619   3
  12  12   0 33.2343 16.2193   1
  12  12   0 41.2261 18.4988   2
 -12  12   0 46.1524 15.7492   2
  12 -12  -2 877.552 33.1807   3
  12  12   2 887.575 50.4385   2
 -12  12  -2 919.435 42.9615   2
  12  12   2 866.634 45.0474   1
  12 -12  -4 3409.16 102.036   3
  12  12   4 3383.18 117.920   1
 -12  12  -4 3599.21 115.247   2
  12  12   4 3471.03 127.520   2
  12 -12  -6 310.482 18.0560   3
  12  12   6 207.270 26.9755   1
  12  12   6 259.195 36.1762   2
 -12 -12   6 202.550 29.8910   1
  12  12   8 256.286 30.6857   1
  12 -12  -8 252.199 17.3989   3
  12  12   8 231.086 35.8790   2
  12 -12 -10 2260.22 73.1288   3
  12  12  10 2225.91 92.9782   1
  12 -12 -12 710.897 32.2033   3
   0  13  -1 759.165 24.6604   3
   0  13   1 727.517 25.7159   3
 -13   0  -1 787.797 47.5052   2
 -13   0   1 761.612 44.2918   2
  13   0  -1 805.074 34.3610   1
  13   0   1 717.096 34.9045   2
  13   0  -1 733.108 34.1459   2
   0  13   1 730.203 29.1187   1
  13   0   1 791.984 35.8243   1
   0  13  -3 311.214 11.5843   3
   0  13   3 288.580 14.2085   3
  13   0  -3 316.524 19.5981   1
  13   0   3 288.681 23.0034   2
   0  13   3 284.430 17.8650   1
  13   0   3 319.269 24.7375   1
   0 -13   3 294.896 21.6447   1
   0  13   5 2902.93 84.3275   1
   0  13  -5 2941.08 79.3794   4
   0  13   5 2921.05 78.9220   3
   0 -13   5 2784.14 86.3555   1
  13   0  -5 2839.72 81.8582   1
  13   0   5 2870.10 93.0158   2
   0  13   7 87.3289 10.3085   3
   0 -13   7 67.3460 15.0529   1
   0  13   7 110.144 15.8901   1
  13   0   7 125.337 21.9197   2
 -13   0   7 69.7286 18.0263   2
   0  13  -7 110.355 11.4138   4
 -13   0   7 88.9961 18.1390   1
   0  13   9 129.938 12.3369   3
 -13   0   9 138.815 19.7080   1
  13   0  -9 135.699 12.6100   4
  13   0   9 146.086 23.8232   2
  13   0  -9 119.721 13.9598   2
 -13   0   9 110.637 19.3411   2
   0  13  -9 114.408 11.7112   4
   0 -13   9 130.481 16.5379   1
   0  13  11 491.475 23.5107   3
 -13   0  11 452.883 29.8760   1
  13   0  11 408.782 34.8436   2
  13   0 -11 472.259 24.2993   2
  13   0 -11 473.999 22.4773   4
 -13   0  11 507.802 32.1695   2
   0 -13  11 512.789 28.2558   1
   0  13 -11 459.664 21.8603   4
   0  13  13 117.739 13.9447   3
   0 -13  13 98.8892 16.7766   1
  13   0  13 98.9260 26.9158   2
 -13   0  13 106.471 19.3826   2
  13   0 -13 129.491 13.3136   4
 -13   0  13 134.811 20.3004   1
  13   0 -13 129.436 14.1898   3
   0  13 -13 129.179 12.9285   4
  13   0 -15 21.1218 11.0841   3
   0  13  15 15.1596 9.97634   3
 -13   0  15 20.9697 16.5252   1
  13   0  15-8.06134 23.7517   2
   0 -13  15 19.9678 15.0153   1
   0  13 -15 29.5301 10.5827   4
  13   0 -15 27.1413 10.1785   4
 -13   0  15 40.4958 17.6113   2
  13   0 -17 19.6196 11.2078   3
   0  13  17 27.0022 11.6746   3
  13   0  17-6.33158 27.6770   2
   0 -13  17 14.8761 15.3984   1
  13   0 -17 3.88599 9.82098   4
 -13   0  17 8.94770 17.4620   1
 -13   0  17 16.0196 16.6267   2
   0  13 -17 22.6257 11.0993   4
   0  13  17 4.14530 8.59437   4
  13   0 -19 252.191 20.2451   3
   0  13  19 218.044 20.0539   3
  13   0  19 303.248 47.0573   2
   0  13  19 210.413 17.0009   4
 -13   0  19 261.344 26.6912   1
  13   0 -19 203.976 17.7136   4
 -13   0  19 247.245 27.2219   2
 -13   0  21 27.9346 20.3227   1
  13   0 -21 31.3498 13.0450   3
  13   0  21 19.2158 42.4530   2
   0  13  21 23.1071 11.3240   4
 -13   0  21-9.90628 18.5990   2
  13   0 -21 19.4917 10.9965   4
  13   0  21 23.4788 13.1794   4
 -13   0  23 83.3314 24.0268   1
  13   0  23 30.5470 56.5302   2
  13   0 -23 67.5522 13.9285   4
   0  13  23 37.3461 14.8360   4
  13   1 -22 104.127 16.1023   3
 -13   1  22 119.460 24.4490   1
  -1  13  22 99.3520 14.4702   4
  13   1 -22 118.255 15.1984   4
  -1  13  20 198.223 19.7078   3
 -13   1  20 222.261 26.1038   1
 -13   1  20 236.996 27.0603   2
  13   1 -20 203.221 18.6894   3
  13  -1  20 255.855 42.8278   2
   1  13 -20 221.014 18.8260   4
  -1  13  20 216.778 16.5743   4
  13   1 -20 253.285 19.1547   4
  13  -1  20 197.595 19.0134   4
  13   1 -18 262.732 19.7058   3
  -1  13  18 255.842 16.4575   4
 -13   1  18 208.063 24.6574   1
  13   1 -18 207.962 17.5430   4
   1  13 -18 215.732 18.1173   4
 -13   1  18 237.099 25.5531   2
  13  -1  18 266.725 19.6130   4
  -1  13  18 244.961 19.7852   3
  -1  13  16 236.614 18.9134   3
  13  -1  16 184.285 32.2874   2
 -13   1  16 217.304 23.6307   1
  13   1 -16 223.322 17.2724   4
 -13   1  16 217.581 24.3622   2
  -1  13  16 213.489 14.8201   4
  13   1 -16 262.047 18.9187   3
  -1  13  14 477.161 25.3424   3
   1 -13  14 480.557 28.3798   1
  13  -1  14 532.721 41.3266   2
  13   1 -14 521.074 24.6169   4
 -13   1  14 484.605 32.4329   2
   1  13 -14 520.580 24.8881   4
  13   1 -14 497.736 25.2765   3
 -13   1  14 463.573 30.1987   1
  -1  13  12 144.796 13.6990   3
  13  -1  12 109.348 23.3572   2
   1 -13  12 128.124 16.6554   1
  13   1 -12 114.880 12.6858   4
   1  13 -12 134.121 12.8451   4
 -13   1  12 107.472 17.8557   1
 -13   1  12 115.417 19.0189   2
 -13   1  10 1075.79 45.8941   1
  -1  13  10 990.502 37.9919   3
  13  -1  10 965.000 50.5866   2
  13   1 -10 980.471 39.9883   2
  13   1 -10 1065.19 38.5559   4
   1  13 -10 1062.47 37.5625   4
 -13   1  10 1040.50 48.1115   2
   1 -13  10 1045.90 42.2063   1
   1 -13   8 774.514 34.8199   1
  -1  13   8 826.247 31.3827   3
  13   1  -8 821.492 34.7462   2
  13  -1   8 842.533 43.4666   2
   1  13  -8 808.200 31.1552   4
  -1  13   8 832.635 36.0781   1
 -13   1   8 801.722 38.5791   1
  13   1  -6 1333.35 52.0763   2
  -1  13   6 1511.70 47.9921   3
   1  13  -6 1408.88 40.5463   3
  13  -1   6 1655.48 61.0591   2
   1  13  -6 1638.42 49.5421   4
   1 -13   6 1606.93 54.1531   1
 -13   1   6 1634.99 58.4122   1
  -1  13   6 1660.21 52.9716   1
  -1  13   4 204.201 11.9260   3
  13   1  -4 194.613 16.2977   1
   1  13  -4 203.582 13.8746   2
   1 -13   4 212.711 18.3388   1
  -1  13   4 217.433 15.1607   1
  13  -1   4 193.161 19.6915   2
  -1  13   2 689.273 24.3331   3
 -13   1   2 690.191 40.2148   2
  -1  13   2 660.013 26.0618   1
   1 -13   2 651.374 31.6201   1
  13  -1   2 677.197 33.5766   2
  13   1  -2 661.633 31.2194   1
  13  -1   2 669.363 33.8332   1
  -1  13   0 2622.28 75.1539   3
   1  13   0 2627.64 80.2806   1
  13  -1   0 2641.42 84.5328   1
  13   1   0 2710.33 87.2534   1
 -13   1   0 2786.96 99.2455   2
  13   1   0 2587.99 87.3904   2
  13  -1   0 2719.69 86.2121   2
 -13   1  -2 675.638 43.8873   2
  -1 -13   2 624.129 32.1884   1
  13   1   2 648.306 34.6457   1
  13  -1  -2 623.458 28.6340   1
  13   1   2 612.787 33.3348   2
   1  13   2 650.342 27.9318   1
  13  -1  -2 649.370 30.4879   2
  -1  13  -2 648.333 21.0541   3
  13  -1  -4 242.307 17.4531   2
  13  -1  -4 212.217 15.2238   1
  -1 -13   4 221.352 20.0711   1
  -1  13  -4 219.142 12.9561   4
  13   1   4 208.617 21.4712   2
   1  13   4 204.677 16.7411   1
  13   1   4 229.016 23.0917   1
  -1 -13   6 1567.86 58.8117   1
  13   1   6 1519.98 64.7600   2
 -13  -1   6 1526.12 65.6496   2
  -1  13  -6 1710.36 50.6360   4
 -13  -1   6 1517.09 61.9588   1
   1  13   6 1625.70 58.1725   1
  13  -1  -8 887.589 31.6017   4
  13   1   8 716.367 43.7766   2
  -1  13  -8 777.073 29.1876   4
 -13  -1   8 805.731 42.1685   2
   1  13   8 801.581 38.1148   1
  -1 -13   8 786.510 36.8658   1
 -13  -1   8 793.932 40.3980   1
 -13  -1  10 986.082 45.8877   1
  -1 -13  10 1018.83 43.1918   1
   1  13  10 976.940 37.1395   3
  13   1  10 1017.53 54.3548   2
  13  -1 -10 954.043 38.9347   2
 -13  -1  10 1005.56 48.3497   2
  13  -1 -10 1037.82 36.3223   4
  -1  13 -10 1018.46 35.8911   4
 -13  -1  12 127.238 20.6327   2
   1  13  12 136.122 13.4621   3
  13   1  12 149.399 27.4896   2
  13  -1 -12 148.935 12.7137   4
 -13  -1  12 105.395 19.4583   1
  -1  13 -12 131.617 12.6069   4
  -1 -13  12 152.577 18.7990   1
   1  13  14 526.978 26.0096   3
 -13  -1  14 523.519 32.9180   1
  13   1  14 501.185 44.7692   2
 -13  -1  14 459.883 32.7775   2
  13  -1 -14 479.463 23.1536   4
  -1  13 -14 515.570 24.5263   4
  13  -1 -14 492.855 25.8027   3
  -1 -13  14 496.561 30.3994   1
   1  13  16 205.511 17.8414   3
  13   1  16 211.342 39.4363   2
 -13  -1  16 205.791 24.3637   1
  -1 -13  16 198.067 21.9803   1
  13  -1 -16 225.492 16.2188   4
 -13  -1  16 259.772 26.6708   2
  -1  13 -16 199.762 16.5769   4
  13  -1 -16 199.737 17.3066   3
  13  -1 -18 226.852 18.2265   3
   1  13  18 245.126 19.2661   3
 -13  -1  18 245.914 26.5743   1
  -1 -13  18 227.660 24.1216   1
  13  -1 -18 239.086 17.5510   4
 -13  -1  18 261.966 27.4686   2
   1  13  18 249.483 17.5924   4
   1  13  20 198.565 19.3213   3
  -1 -13  20 173.088 23.3492   1
 -13  -1  20 195.895 26.6285   2
   1  13  20 228.194 17.5128   4
  13  -1 -20 218.948 16.6531   4
 -13  -1  20 248.078 27.8177   1
 -13  -1  22 92.3196 24.7605   1
 -13  -1  22 101.144 23.7545   2
   1  13  22 113.355 17.0385   4
  13  -1 -22 120.884 14.5717   4
   1  13  24 248.450 22.1790   4
  13  -2  23 67.5059 33.8584   2
 -13   2  23 70.9292 21.7021   1
  -2  13  23 71.2506 14.3113   4
  13   2 -21 196.930 18.4595   3
 -13   2  21 191.210 25.1778   1
   2  13 -21 179.859 18.0383   4
  -2  13  21 179.544 15.5754   4
  13   2 -21 192.256 18.2635   4
  13  -2  21 223.464 20.3574   4
 -13   2  21 189.443 25.3544   2
 -13   2  19 849.786 43.6134   1
  13  -2  19 899.293 58.6085   2
  -2  13  19 878.114 33.7027   4
  13   2 -19 890.480 36.7122   4
 -13   2  19 828.810 45.9517   2
   2  13 -19 858.123 36.9925   4
  13  -2  19 850.373 37.5770   4
  -2  13  19 809.294 39.0409   3
  -2  13  17 83.6336 13.7303   3
  13  -2  17 92.5101 26.1845   2
  -2  13  17 108.377 11.7385   4
  13   2 -17 76.3117 12.8227   4
 -13   2  17 80.4370 18.3902   1
   2  13 -17 104.410 13.4868   4
 -13   2  17 109.714 19.9206   2
  13  -2  17 101.872 13.3298   4
  13   2 -15 81.1522 12.0028   4
  -2  13  15 95.2759 13.8046   3
 -13   2  15 71.1146 17.1670   1
  13  -2  15 62.7191 23.9825   2
   2  13 -15 68.1282 11.9011   4
 -13   2  15 103.710 18.4846   2
  -2  13  15 68.4697 9.67232   4
  13   2 -15 72.0543 12.3645   3
  13  -2  13 552.188 38.5565   2
 -13   2  13 493.257 30.3353   1
  13   2 -13 517.308 25.1985   4
   2 -13  13 548.627 29.3493   1
   2  13 -13 546.148 25.4138   4
 -13   2  13 532.248 33.6176   2
  -2  13  13 574.558 26.9951   3
  -2  13  11 1052.55 39.0441   3
 -13   2  11 1057.00 47.8902   2
 -13   2  11 1007.32 44.1547   1
  13  -2  11 1071.72 51.4998   2
  13   2 -11 1006.89 40.1332   2
   2 -13  11 1084.79 41.7655   1
  13   2 -11 983.761 38.3334   4
   2  13 -11 973.611 37.9476   4
  -2  13   9 263.859 16.6495   3
  13   2  -9 275.951 18.7653   2
  13  -2   9 238.234 24.4626   2
   2  13  -9 278.975 17.0024   4
   2 -13   9 259.622 19.3813   1
 -13   2   9 302.112 23.1784   1
  -2  13   7 754.611 28.7171   3
   2  13  -7 685.508 21.8343   2
  13   2  -7 724.842 32.7220   2
  13  -2   7 782.562 38.7178   2
   2  13  -7 730.471 29.4139   4
 -13   2   7 787.380 36.3098   1
  -2  13   7 737.868 30.9954   1
   2 -13   7 789.492 32.4231   1
  -2  13   5 2941.66 86.9916   3
  -2  13   5 3014.43 88.1149   1
  13  -2   5 2869.24 96.7660   2
   2 -13   5 2990.01 91.9074   1
  13   2  -5 3070.86 92.1849   1
   2  13  -5 3018.79 86.1208   2
 -13   2   5 2891.65 100.926   2
  13   2  -5 2951.04 93.9552   2
  13   2  -3 3219.30 97.2350   1
   2  13  -3 3069.19 96.0482   2
 -13   2   3 3082.04 105.773   2
  -2  13   3 3164.17 89.6726   1
  13  -2   3 3003.45 98.7698   1
  13  -2   3 3105.91 99.2842   2
   2 -13   3 3063.59 95.5601   1
  -2  13   3 3098.06 89.3798   3
 -13   2   1 2657.85 96.3118   2
   2  13  -1 2815.34 82.8112   1
  13   2  -1 2697.39 87.7832   1
  13  -2   1 2692.57 86.8442   2
  13  -2   1 2794.83 86.3619   1
  -2  13   1 2604.45 77.1300   3
   2  13   1 2659.37 82.8445   1
 -13   2  -1 2531.17 97.6126   2
  -2  13  -1 2749.82 76.7547   4
  13  -2  -1 2625.44 82.4051   1
  13  -2  -1 2649.85 85.1964   2
  -2  13  -1 2710.13 75.0730   3
  13   2   1 2754.59 89.7174   1
  13  -2  -3 3062.56 94.0130   2
  -2  13  -3 3015.86 83.1161   2
   2  13   3 2989.30 93.6701   1
  13   2   3 3015.71 101.849   2
  -2 -13   3 3186.46 99.7436   1
  -2  13  -3 2969.11 86.3748   4
  13   2   3 3166.91 101.865   1
  13  -2  -3 3027.82 90.3485   1
  -2 -13   5 3135.48 101.104   1
  13  -2  -5 3114.01 96.0435   2
 -13  -2   5 3001.13 108.453   2
  13   2   5 3113.08 106.944   2
  -2  13  -5 3141.58 88.9758   4
   2  13   5 3096.48 98.2973   1
  13   2   7 796.866 43.8165   2
  -2 -13   7 740.728 35.9544   1
 -13  -2   7 643.260 39.5774   2
   2  13   7 660.731 35.2211   1
  -2  13  -7 709.124 26.1677   4
 -13  -2   7 761.397 39.4452   1
 -13  -2   9 262.973 25.6628   2
 -13  -2   9 287.030 25.6138   1
  13  -2  -9 272.123 15.1058   4
  13   2   9 271.346 29.3152   2
  -2 -13   9 285.735 22.9847   1
  -2  13  -9 281.352 15.2360   4
  -2 -13  11 1050.07 45.5063   1
 -13  -2  11 970.690 46.9226   1
  13   2  11 1032.81 58.3448   2
 -13  -2  11 1078.32 50.3043   2
  13  -2 -11 1022.29 36.3399   4
  -2  13 -11 1097.41 37.1513   4
   2  13  13 495.388 25.2773   3
  13   2  13 535.263 44.6994   2
 -13  -2  13 469.701 32.2135   1
  -2 -13  13 444.461 29.6066   1
 -13  -2  13 575.614 36.2343   2
  13  -2 -13 546.333 22.6681   4
  -2  13 -13 502.267 23.2499   4
  13  -2 -13 490.270 25.2877   3
  13  -2 -15 58.6696 11.4264   3
 -13  -2  15 83.2221 19.1003   1
   2  13  15 77.9312 12.6128   3
  13   2  15 75.8628 32.3963   2
  -2  13 -15 79.8164 11.4720   4
  -2 -13  15 64.3666 17.2671   1
  13  -2 -15 81.1451 10.4663   4
 -13  -2  15 68.6519 19.3500   2
   2  13  17 78.8200 13.2540   3
  -2 -13  17 84.3941 17.6592   1
 -13  -2  17 78.6139 20.9426   1
 -13  -2  17 63.9661 18.9538   2
  13  -2 -17 82.6622 11.3201   4
  -2  13 -17 70.8167 12.0882   4
   2  13  19 895.446 40.3263   3
  13  -2 -19 910.553 39.7064   3
  -2 -13  19 897.799 46.0622   1
 -13  -2  19 916.777 50.1975   2
  13  -2 -19 919.566 36.0879   4
   2  13  19 1060.09 39.1441   4
 -13  -2  19 933.885 48.8565   1
  13  -2 -21 178.075 18.7068   3
 -13  -2  21 184.567 27.9462   2
 -13  -2  21 203.660 28.0172   1
   2  13  21 158.011 17.8211   4
  13  -2 -21 192.854 15.5029   4
  13   2  21 227.151 20.8212   4
  -2 -13  21 256.390 27.5891   1
   2  13  23 88.0334 16.5885   4
  13   3 -22 316.270 22.8501   4
  13   3 -22 337.548 23.2115   3
 -13   3  22 326.593 29.8253   1
  -3  13  22 346.157 21.0198   4
  13  -3  20 90.6585 15.3341   4
 -13   3  20 105.547 20.8907   1
  -3  13  20 81.4981 11.9282   4
  13   3 -20 74.2614 14.3229   4
 -13   3  20 73.9602 21.4339   2
  -3  13  20 94.8724 15.7144   3
 -13   3  18 407.493 29.4157   1
  13   3 -18 446.612 24.6610   4
  -3  13  18 428.658 21.2825   4
   3  13 -18 428.187 24.8622   4
 -13   3  18 450.846 33.2223   2
  13  -3  18 486.108 25.6274   4
  -3  13  18 481.490 27.6882   3
  13   3 -18 446.823 25.0361   3
  -3  13  16 208.420 18.1269   3
  13  -3  16 207.802 27.4047   2
 -13   3  16 171.542 21.1877   1
  13   3 -16 239.631 17.5573   4
  -3  13  16 201.621 13.7492   4
   3  13 -16 211.448 16.9922   4
  13  -3  16 222.208 16.6859   4
 -13   3  16 222.656 23.4834   2
  13   3 -16 212.409 17.0936   3
  -3  13  14 200.279 17.0714   3
 -13   3  14 167.819 19.9700   1
  13   3 -14 181.627 16.0734   4
   3  13 -14 188.497 15.6379   4
  13  -3  14 160.215 24.5334   2
  -3  13  14 173.901 12.1904   4
 -13   3  14 179.220 21.0830   2
 -13   3  12 1287.19 51.6160   1
  13  -3  12 1373.79 59.7318   2
  13   3 -12 1416.40 49.5075   2
  13   3 -12 1381.60 48.1088   4
  -3  13  12 1318.76 41.6265   4
 -13   3  12 1215.14 55.4066   2
   3  13 -12 1356.37 47.3945   4
  -3  13  12 1348.94 48.4784   3
  13   3 -10 395.107 21.7361   4
  13   3 -10 404.590 22.2101   2
   3  13 -10 394.790 20.9920   4
  13  -3  10 375.277 28.8572   2
   3 -13  10 367.712 22.1064   1
  -3  13  10 354.953 20.8497   3
 -13   3  10 402.013 25.9944   1
  13   3  -8 1237.35 46.1228   2
  13  -3   8 1251.04 51.7611   2
   3  13  -8 1213.06 43.2548   4
   3 -13   8 1247.93 44.4855   1
  -3  13   8 1183.83 43.4552   1
 -13   3   8 1233.96 48.5810   1
  -3  13   8 1144.39 42.2216   3
 -13   3   6 5528.74 169.145   2
  -3  13   6 5596.69 155.164   1
  13  -3   6 5411.70 164.789   2
   3  13  -6 5591.73 153.042   2
   3 -13   6 5501.80 158.603   1
  -3  13   6 5591.72 156.082   3
  13   3  -6 5568.03 162.111   2
   3 -13   4 335.253 20.3176   1
  -3  13   4 325.309 15.1429   1
   3  13  -4 336.607 19.7009   2
 -13   3   4 340.884 26.6901   2
  13   3  -4 302.716 21.6179   1
  13  -3   4 305.832 22.1831   2
  13   3  -4 343.321 22.3008   2
  -3  13   4 328.533 16.3795   3
   3  13  -2 2038.13 75.5187   2
 -13   3   2 2290.17 82.1846   2
   3 -13   2 2340.61 71.0575   1
  13  -3   2 2213.67 73.9009   1
  13   3  -2 2203.17 75.1603   1
   3  13  -2 2224.38 70.8661   1
  -3  13   2 2196.47 65.5254   3
  13  -3   2 2278.07 73.9490   2
  13   3   0 10764.5 308.044   1
  13  -3   0 10521.1 301.148   1
 -13   3   0 10833.8 316.092   2
   3  13   0 11108.0 302.630   1
  -3  13   0 11192.4 293.788   4
  13  -3   0 11010.9 304.172   2
  13  -3  -2 2248.73 72.8195   2
  13  -3  -2 2104.21 68.4883   1
 -13  -3   2 2191.14 90.1059   2
 -13   3  -2 2172.88 86.5064   2
  -3  13  -2 2261.66 63.5298   2
   3  13   2 2193.98 73.4123   1
  -3  13  -2 2300.65 64.3100   4
  -3 -13   2 2216.03 78.9378   1
  13   3   2 2301.80 80.0631   1
   3  13   4 254.807 21.2090   1
  -3 -13   4 281.043 24.4388   1
  13  -3  -4 281.236 18.1908   2
 -13  -3   4 269.839 28.9987   2
  -3  13  -4 244.983 9.82831   2
  13   3   4 265.237 25.5040   1
  13   3   4 287.679 26.1439   2
  -3  13  -4 266.094 12.6514   4
  -3 -13   6 5381.15 163.276   1
  13  -3  -6 5497.93 156.692   2
  13   3   6 5470.83 172.610   2
 -13  -3   6 5253.74 170.836   2
 -13  -3   6 5368.68 166.575   1
  -3  13  -6 5529.98 149.551   4
   3  13   6 5206.78 161.818   1
  13  -3  -8 1210.43 38.8883   4
  13   3   8 1184.99 59.9104   2
 -13  -3   8 1182.23 54.9239   2
  -3 -13   8 1181.98 49.6856   1
  13  -3  -8 1016.95 42.7593   2
  -3  13  -8 1202.85 38.5620   4
 -13  -3   8 1219.53 53.2124   1
   3  13   8 1187.96 51.1142   1
 -13  -3  10 374.359 29.0080   1
  13   3  10 373.702 37.4832   2
 -13  -3  10 343.506 28.9785   2
  13  -3 -10 404.391 18.1992   4
  -3 -13  10 377.390 27.3191   1
  -3  13 -10 387.280 18.2255   4
  -3 -13  12 1310.80 54.6644   1
  13   3  12 1277.42 69.9067   2
 -13  -3  12 1227.26 55.6827   1
 -13  -3  12 1294.20 58.3883   2
  13  -3 -12 1388.22 43.9185   4
  -3  13 -12 1377.43 44.9277   4
  13  -3 -14 189.544 16.1760   3
  13   3  14 207.586 35.2743   2
  13  -3 -14 203.578 13.6111   4
  -3 -13  14 161.806 21.2149   1
  -3  13 -14 182.745 14.4132   4
 -13  -3  14 188.228 24.4581   2
 -13  -3  14 167.487 22.7108   1
  -3 -13  16 223.114 23.6758   1
  13  -3 -16 208.000 16.9125   3
   3  13  16 195.210 16.8331   3
 -13  -3  16 194.886 24.3106   1
 -13  -3  16 218.089 25.3370   2
  13  -3 -16 225.979 14.6434   4
  13  -3 -18 514.353 27.2991   3
   3  13  18 474.905 27.2360   3
 -13  -3  18 450.560 34.9366   2
 -13  -3  18 490.825 35.8405   1
  -3 -13  18 439.508 32.6991   1
  -3 -13  20 50.7646 19.7488   1
  13  -3 -20 71.7789 14.5530   3
 -13  -3  20 52.9929 22.9518   1
   3  13  20 77.2104 14.9301   4
 -13  -3  20 68.4420 22.4644   2
 -13  -3  22 313.277 33.3216   2
 -13  -3  22 325.143 33.6674   1
   3  13  22 363.094 24.5195   4
  13   4 -23 6.29673 12.3984   3
  13   4 -21 282.232 20.4181   3
 -13   4  21 216.817 25.2189   1
  -4  13  21 263.535 18.3380   4
  13  -4  21 266.809 21.5716   4
  13   4 -19 323.463 21.8001   3
 -13   4  19 324.809 26.7481   1
  -4  13  19 354.119 19.3740   4
  13  -4  19 293.704 30.7068   2
  13   4 -19 371.256 23.1035   4
   4  13 -19 311.476 22.3084   4
  13  -4  19 382.894 23.7350   4
  -4  13  19 354.417 24.8953   3
 -13   4  19 366.495 30.2593   2
  13   4 -17 1.88531 10.2752   3
  13   4 -17 24.9529 11.8234   4
  13  -4  17 11.1460 17.9984   2
  13  -4  17 5.07572 10.1716   4
 -13   4  17 7.46699 14.0307   1
  -4  13  17-5.94869 8.82738   4
 -13   4  17 25.4417 15.8410   2
  -4  13  17 12.7404 11.6128   3
 -13   4  15 129.462 18.8161   1
  13   4 -15 134.504 15.2239   4
  13  -4  15 101.996 21.3415   2
   4  13 -15 158.646 15.2471   4
  -4  13  15 130.925 11.1841   4
  13  -4  15 140.643 13.2522   4
 -13   4  15 107.765 19.3461   2
  13   4 -15 103.772 14.0580   3
  -4  13  15 109.885 15.1947   3
  13   4 -13 109.330 13.5837   4
  13  -4  13 151.250 21.4109   2
  13   4 -13 121.120 13.4828   2
   4  13 -13 98.5644 13.0079   4
  -4  13  13 126.115 9.91509   4
 -13   4  13 130.519 17.4288   1
  -4  13  13 122.437 13.7779   3
 -13   4  11 380.550 25.0021   1
  13   4 -11 332.804 20.7254   2
  13  -4  11 399.331 28.2237   2
  13   4 -11 360.117 21.4148   4
   4  13 -11 353.185 20.2982   4
  -4  13  11 319.079 14.4530   4
  -4  13  11 336.186 20.3736   3
   4  13 -11 318.953 12.0473   3
  13   4  -9 1171.63 45.5344   2
   4  13  -9 1210.83 36.3079   2
   4 -13   9 1196.84 44.0952   1
  13  -4   9 1188.49 50.5537   2
  -4  13   9 1175.99 42.8704   1
 -13   4   9 1100.20 50.8509   2
 -13   4   9 1229.87 48.0494   1
  -4  13   9 1261.37 36.4522   4
  -4  13   9 1201.44 43.6108   3
   4  13  -9 1210.82 44.0856   4
  13   4  -7 124.376 14.5449   2
   4  13  -7 128.153 13.6788   4
  -4  13   7 105.494 10.5663   1
  -4  13   7 127.724 11.9793   3
   4 -13   7 132.634 13.2720   1
  13  -4   7 117.777 16.6516   2
 -13   4   7 160.788 19.7755   2
   4  13  -7 137.041 9.85459   2
  13   4  -5 2349.67 77.3618   1
  -4  13   5 2417.58 67.8211   1
   4  13  -5 2401.47 73.4095   2
 -13   4   5 2420.06 84.3948   2
   4 -13   5 2240.70 73.3557   1
  13  -4   5 2410.09 78.7906   2
  13   4  -5 2368.97 78.8433   2
  -4  13   5 2363.13 71.9314   3
  13   4  -3 4712.17 140.974   1
   4  13  -3 4594.04 139.568   2
 -13   4   3 4700.98 146.775   2
  13  -4   3 4577.76 139.007   1
  13   4  -3 4769.53 142.336   2
  13  -4   3 4696.20 138.807   2
   4 -13   3 4791.98 134.823   1
  -4  13   1 1882.78 52.2319   4
 -13   4   1 1902.21 72.2553   2
  -4  13   1 1721.23 55.5131   2
  13   4  -1 1926.99 67.5340   1
  13   4  -1 1796.33 67.4957   2
  13  -4   1 1880.31 62.6527   2
   4  13  -1 1841.07 62.6178   1
  13  -4   1 1896.35 61.6282   1
  13  -4  -1 1836.32 61.2497   2
  13   4   1 1852.38 68.6259   1
  -4  13  -1 1785.46 53.7532   2
 -13   4  -1 1754.74 72.5803   2
  13  -4  -1 1813.29 57.7027   1
   4  13   1 1889.84 63.6043   1
  -4  13  -1 1830.71 51.8601   4
  13  -4  -3 4627.02 133.711   2
 -13   4  -3 4546.11 150.533   2
 -13  -4   3 4665.44 155.267   2
   4  13   3 4589.42 137.600   1
  13  -4  -3 4661.03 128.189   1
  -4 -13   3 4500.59 142.398   1
  -4  13  -3 4527.91 124.634   4
  13   4   3 4655.74 143.604   1
  -4  13  -3 4483.79 124.771   2
 -13  -4   5 2348.96 91.5248   2
  13  -4  -5 2364.43 75.3873   2
  13   4   5 2358.17 89.9513   2
 -13  -4   5 2374.69 86.4789   1
  13   4   5 2393.44 86.9927   1
  -4  13  -5 2338.55 67.7805   4
  -4 -13   5 2402.02 83.7934   1
   4  13   5 2343.44 81.3028   1
  13   4   7 123.413 23.7119   2
  -4 -13   7 164.507 20.9267   1
 -13  -4   7 167.320 23.8160   2
  13  -4  -7 130.532 10.0176   4
  13  -4  -7 132.888 13.7722   2
  -4  13  -7 147.718 10.5487   4
   4  13   7 141.639 20.6581   1
 -13  -4   7 139.738 21.7243   1
  13   4   9 1195.96 63.8847   2
 -13  -4   9 1152.27 56.2059   2
  -4 -13   9 1235.25 52.3037   1
  13  -4  -9 1200.23 38.7762   4
  -4  13  -9 1260.26 39.9148   4
 -13  -4   9 1157.56 53.6526   1
  -4  13 -11 345.641 17.0857   4
  13   4  11 348.321 37.7630   2
  -4 -13  11 312.976 26.1180   1
 -13  -4  11 305.024 27.2480   1
 -13  -4  11 320.242 28.4790   2
  13  -4 -11 321.039 15.6385   4
  13   4  13 130.588 31.5121   2
 -13  -4  13 111.956 21.4496   2
  -4 -13  13 156.899 21.3901   1
 -13  -4  13 104.769 20.3790   1
  13  -4 -13 141.700 10.8397   4
 -13  -4  15 150.282 24.1100   1
  13  -4 -15 140.192 15.0052   3
  -4 -13  15 114.036 20.3807   1
  13  -4 -15 125.912 11.5179   4
 -13  -4  15 142.044 22.7986   2
  -4 -13  17 1.65957 17.4457   1
  13  -4 -17 16.5567 10.5059   3
   4  13  17 5.46556 10.8717   3
 -13  -4  17 18.0425 18.1652   1
 -13  -4  17 15.4507 18.5473   2
  13  -4 -17 10.5276 8.16453   4
  -4 -13  19 355.346 31.0553   1
  13  -4 -19 339.830 23.4206   3
   4  13  19 376.735 25.1380   3
 -13  -4  19 386.716 33.4575   1
 -13  -4  19 364.661 33.4287   2
 -13  -4  21 287.514 32.7645   1
 -13  -4  21 229.929 30.3240   2
   4  13  21 305.988 22.8413   4
 -13  -4  23 20.0904 21.2473   2
 -13   5  20 96.3002 22.6867   2
 -13   5  20 39.4837 18.0774   1
  13   5 -20 30.9826 13.3079   3
  13   5 -20 50.6325 14.3798   4
  13  -5  20 43.7904 20.0028   2
  -5  13  20 63.0589 12.7780   4
  13  -5  20 61.4445 14.9328   4
  13   5 -18 13.1822 11.1614   3
  13  -5  18 21.3529 17.3970   2
  -5  13  18 1.27608 9.01528   4
  13   5 -18 31.5579 12.9985   4
 -13   5  18-4.96606 15.9256   1
  13  -5  18 10.9863 11.2929   4
 -13   5  18 43.6748 16.7785   2
 -13   5  16-2.28128 14.1790   1
 -13   5  16-3.29881 14.0227   2
  13  -5  16 3.14493 16.1517   2
  13   5 -16 11.4517 10.3658   4
   5  13 -16 2.89496 10.6283   4
  -5  13  16 10.2640 8.28440   4
  13  -5  16 11.1603 9.53004   4
  13   5 -16 6.39341 9.88601   3
 -13   5  14 134.322 18.1730   1
   5  13 -14 127.967 7.70570   3
  13  -5  14 129.207 20.2862   2
  -5  13  14 139.948 11.1444   4
   5  13 -14 133.187 15.2377   4
  13  -5  14 132.231 13.5430   4
  13   5 -14 139.315 15.5015   4
  13   5 -12 12.8896 9.83355   2
 -13   5  12 33.9287 14.2194   1
  13   5 -12 25.1118 10.8993   4
  13  -5  12 11.0035 15.2581   2
   5  13 -12 31.3014 10.3216   4
  -5  13  12 14.2036 6.19325   4
  13  -5  12 14.4361 8.85695   4
  13  -5  10 336.182 25.4790   2
  13   5 -10 354.977 22.1950   2
   5  13 -10 349.097 14.8070   2
   5  13 -10 349.741 21.0695   4
  -5  13  10 380.304 14.3076   4
 -13   5  10 317.315 25.6337   2
 -13   5  10 370.576 23.9912   1
  13   5  -8 1055.37 41.3448   2
   5 -13   8 989.816 37.8853   1
 -13   5   8 1007.11 41.3259   1
  13  -5   8 1065.33 43.8683   2
 -13   5   8 1081.05 47.4988   2
  -5  13   8 1051.52 30.4516   4
  -5  13   8 973.419 34.0717   1
   5  13  -8 1021.80 34.1587   2
   5  13  -8 1066.40 40.4077   4
   5  13  -6 384.871 19.7784   2
   5 -13   6 374.227 19.9635   1
  13   5  -6 419.846 24.4551   1
 -13   5   6 421.875 27.8764   2
  13  -5   6 409.932 23.6585   2
  -5  13   6 359.810 11.9987   4
  13   5  -6 477.970 25.7395   2
   5 -13   4 160.971 13.5997   1
  -5  13   4 141.029 11.9634   2
   5  13  -4 135.898 16.4636   2
 -13   5   4 181.136 21.2508   2
  13   5  -4 152.459 16.9429   2
  13   5  -4 157.861 17.7603   1
  13  -5   4 140.686 15.1802   2
   5  13  -2 1125.28 48.2455   2
  -5  13   2 1148.32 37.7919   2
 -13   5   2 1121.17 50.5980   2
   5 -13   2 1093.80 38.3273   1
  13   5  -2 1110.60 47.6435   2
  13   5  -2 1178.03 47.7039   1
  13  -5   2 1132.65 42.4837   1
  13  -5   2 1087.01 42.1240   2
   5  13  -2 1133.26 44.0145   1
  13  -5   0 3471.08 101.605   2
  13   5   0 3435.47 110.833   2
  -5  13   0 3483.19 95.6738   2
  13   5   0 3531.69 109.588   1
 -13   5   0 3497.15 113.380   2
  13  -5   0 3440.25 97.8410   1
  -5  13   0 3206.23 90.3076   4
   5  13   0 3434.35 104.506   1
  13  -5  -2 1130.44 42.3066   2
 -13   5  -2 1150.64 54.9268   2
   5  13   2 1116.21 46.7008   1
  -5  13  -2 1161.13 33.7793   4
  -5  13  -2 1143.81 36.4693   2
  13   5   2 1178.98 51.4729   1
  13  -5  -2 1102.81 37.2314   1
 -13   5  -4 145.456 26.6170   2
 -13  -5   4 125.266 26.8327   2
   5  13   4 123.273 19.5585   1
  13  -5  -4 135.082 13.7364   2
  -5  13  -4 139.247 9.18277   2
  -5  13  -4 157.215 8.76815   4
  13   5   4 136.346 22.1377   1
  -5 -13   4 190.816 23.5198   1
 -13  -5   6 378.088 34.9100   2
  13  -5  -6 434.008 22.7804   2
  13  -5  -6 412.251 16.7246   4
 -13  -5   6 484.515 33.6376   1
   5  13   6 380.548 29.5800   1
  -5  13  -6 423.779 17.1381   4
  -5 -13   6 423.009 30.7993   1
  -5 -13   8 1109.84 50.1616   1
  13   5   8 1109.37 59.9721   2
 -13  -5   8 1097.68 54.7659   2
   5  13   8 1018.54 49.6785   1
  13  -5  -8 1021.64 33.1035   4
 -13  -5   8 998.283 50.6108   1
  -5  13  -8 1045.11 34.5520   4
  13   5  10 327.871 36.6690   2
 -13  -5  10 339.720 29.6655   1
  -5 -13  10 387.050 28.7993   1
 -13  -5  10 376.893 32.1036   2
  13  -5 -10 329.508 14.8928   4
  13  -5 -10 307.156 19.9209   3
  13   5  12-8.97544 24.2384   2
  -5 -13  12 29.8164 17.1667   1
 -13  -5  12 1.91287 17.5245   2
 -13  -5  12 24.2065 18.5154   1
  13  -5 -12 13.5759 7.03255   4
 -13  -5  14 110.869 22.5398   1
 -13  -5  14 149.738 23.5994   2
  -5 -13  14 133.424 21.7485   1
  13  -5 -14 104.257 10.2418   4
 -13  -5  16 11.0819 18.8209   1
 -13  -5  16 9.79788 18.6465   2
  -5 -13  16-3.41222 17.1050   1
 -13  -5  18 29.2315 21.9019   1
  -5 -13  18 10.8539 17.8391   1
 -13  -5  18 14.2214 20.9536   2
  13  -5 -20 58.0014 14.1988   3
 -13  -5  20 59.8535 24.6558   1
  -5 -13  20 65.7602 24.0354   1
 -13  -5  20 84.6834 24.0814   2
   5  13  22 134.289 19.2537   4
 -13  -5  22 122.960 25.9200   2
  13  -6  21 1.04631 12.9002   4
 -13   6  19 101.585 21.1264   2
  13   6 -19 63.2854 13.6045   3
  13  -6  19 64.6289 14.6825   4
  -6  13  19 79.6320 17.6507   2
  13   6 -19 52.6104 14.6953   4
   6  13 -19 74.2581 15.0570   4
  -6  13  19 73.7930 12.8035   4
 -13   6  19 85.2306 18.9310   1
 -13   6  17 57.6074 16.5047   1
  -6  13  17 52.8549 14.2609   2
  13   6 -17 60.3189 13.2403   4
  13  -6  17 57.7163 16.3776   2
  -6  13  17 68.8543 10.7104   4
   6  13 -17 79.3433 14.2625   4
  13  -6  17 74.1252 12.4842   4
  13   6 -17 84.0714 12.8391   3
 -13   6  15 288.702 22.8577   1
  13  -6  15 320.378 25.1881   2
  13   6 -15 318.712 21.5295   4
  -6  13  15 325.423 16.3206   4
   6  13 -15 310.159 21.2256   4
  13  -6  15 308.642 18.8871   4
  -6  13  13 288.657 14.3243   4
 -13   6  13 295.211 22.2035   1
  13  -6  13 282.423 17.0238   4
  13   6 -13 321.613 20.4553   2
  13  -6  13 281.555 23.9357   2
  13   6 -13 276.214 20.6530   4
   6  13 -13 344.453 20.9574   4
   6  13 -13 260.052 12.8798   3
 -13   6  11 51.9634 14.2149   1
  13   6 -11 43.1198 11.9472   2
   6  13 -11 46.0835 6.81320   2
   6  13 -11 55.6050 12.0417   4
  -6  13  11 61.2881 6.37366   4
  13  -6  11 35.9718 13.4470   2
  13   6 -11 50.7634 12.1124   4
  13  -6  11 53.1496 9.00871   4
 -13   6  11 55.5116 15.5867   2
   6  13  -9 23.5808 7.74421   2
  13   6  -9 24.7760 10.8680   2
   6  13  -9 56.2922 13.0485   4
  -6  13   9 23.5546 10.8438   2
  -6  13   9 28.8695 4.08384   4
  13  -6   9 33.5357 13.4974   2
 -13   6   9 38.4925 13.5074   1
 -13   6   9 51.4149 15.5314   2
  -6  13   7 673.218 29.2601   2
 -13   6   7 724.488 37.3105   2
  13  -6   7 691.214 32.0942   2
   6  13  -7 672.960 28.0618   2
  13   6  -7 649.361 31.9087   2
   6 -13   7 675.869 27.5582   1
  13   6  -5 555.848 28.8839   1
  -6  13   5 499.334 23.4200   2
   6  13  -5 547.049 26.4760   2
 -13   6   5 480.378 30.5825   2
  13   6  -5 525.555 28.8325   2
   6 -13   5 524.044 22.7392   1
  13  -6   5 527.457 26.4140   2
  13   6  -3 491.842 28.8624   1
  -6  13   3 519.938 21.9429   2
   6  13  -3 502.512 28.7275   2
   6  13  -3 465.022 26.3099   1
 -13   6   3 536.481 31.7791   2
  13  -6   3 508.117 26.0267   1
  13   6  -3 476.593 28.7356   2
   6 -13   3 501.007 21.1082   1
  13  -6   3 461.139 24.2371   2
  13  -6   1 201.599 15.7900   2
  13   6  -1 177.377 20.2267   1
  13  -6   1 227.016 15.1739   1
  -6  13   1 201.294 12.8725   2
   6  13  -1 219.639 19.7340   1
   6  13  -1 201.814 23.2431   2
  13   6  -1 203.342 21.2593   2
 -13   6   1 223.539 23.4152   2
  13   6   1 187.031 22.0705   1
  13  -6  -1 189.235 15.1880   2
   6  13   1 198.168 20.3477   1
 -13   6  -1 181.894 23.4933   2
  13  -6  -1 186.108 11.4309   1
  13   6   1 186.239 23.1175   2
  -6  13  -1 157.934 11.5593   2
   6  13   3 462.041 29.8214   1
 -13   6  -3 535.325 36.9945   2
  13  -6  -3 507.188 24.5116   2
  13   6   3 460.749 34.8846   2
  -6 -13   3 512.354 34.6392   1
  -6  13  -3 514.247 20.6678   2
  13   6   3 508.148 33.6556   1
 -13  -6   5 497.971 41.4749   2
  -6  13  -5 493.974 20.6320   2
  13  -6  -5 533.368 18.3098   4
  13  -6  -5 537.521 25.4936   2
 -13  -6   5 543.809 37.0508   1
  13   6   5 513.769 35.8038   1
  -6 -13   5 597.740 36.5676   1
   6  13   5 531.559 33.0957   1
 -13  -6   7 684.455 46.1305   2
   6  13   7 647.080 39.3400   1
  13  -6  -7 717.605 22.9994   4
 -13  -6   7 599.860 39.7171   1
  -6 -13   7 699.611 40.9262   1
 -13  -6   9 39.4387 19.5570   1
  13   6   9 24.7470 23.7902   2
 -13  -6   9 25.3901 20.7872   2
  -6 -13   9 16.5311 17.5269   1
   6  13   9 40.8379 20.0353   1
  13  -6  -9 35.7159 6.25841   4
  13  -6  -9 30.2890 10.0451   3
  13  -6 -11 68.0474 11.2001   3
  13   6  11 62.2813 26.1253   2
 -13  -6  11 82.0227 21.2809   1
 -13  -6  11 43.3291 20.5017   2
  -6 -13  11 49.6384 17.8647   1
  13  -6 -11 69.8894 7.48975   4
  13  -6 -13 294.794 20.0121   3
  -6 -13  13 325.543 30.1170   1
 -13  -6  13 272.939 31.0197   2
 -13  -6  13 277.304 30.0933   1
  13  -6 -13 308.281 15.0639   4
  -6 -13  15 292.703 28.5012   1
 -13  -6  15 322.806 31.3287   2
 -13  -6  15 325.095 31.0162   1
 -13  -6  17 67.7601 22.7747   1
 -13  -6  17 95.3370 23.8276   2
  -6 -13  17 69.0419 20.2220   1
  -6 -13  19 100.569 25.6259   1
  13  -6 -19 74.3506 14.3007   3
 -13  -6  19 83.8902 25.5845   1
 -13  -6  19 64.2802 24.1637   2
 -13  -6  21 15.6376 23.3957   2
 -13  -6  23 18.7694 25.2152   2
  13   7 -22 45.7947 12.4272   3
  13  -7  20 159.521 17.1760   4
  13   7 -18 169.963 15.2935   3
   7  13 -18 169.045 17.2378   4
  13  -7  18 164.598 16.2009   4
  -7  13  18 125.911 18.5729   2
  -7  13  18 151.347 14.0085   4
 -13   7  18 153.526 19.8010   1
  13   7 -18 140.806 17.0372   4
   7  13 -16 185.515 11.0793   3
 -13   7  16 197.108 19.3816   1
  -7  13  16 186.576 19.4421   2
  -7  13  16 161.211 12.8175   4
  13   7 -16 185.412 17.8918   4
   7  13 -16 184.714 17.8290   4
  13  -7  16 173.476 14.8801   4
  13   7 -16 162.132 15.2777   3
  13   7 -14 200.745 17.1681   2
  -7  13  14 179.938 19.3884   2
  -7  13  14 182.605 12.5311   4
  13  -7  14 227.011 21.1184   2
  13   7 -14 185.362 18.1836   4
   7  13 -14 192.763 17.9417   4
  13  -7  14 215.392 15.9237   4
 -13   7  14 251.277 20.9487   1
 -13   7  14 174.242 21.9587   2
   7  13 -14 209.776 12.0047   3
  -7  13  12 418.297 15.8633   4
  13   7 -12 384.778 22.7359   2
  -7  13  12 381.236 24.1569   2
  13   7 -12 347.409 23.4693   4
   7  13 -12 437.467 24.7793   4
  13  -7  12 435.551 25.6921   2
  13  -7  12 427.078 20.4261   4
 -13   7  12 378.967 27.4507   2
 -13   7  12 447.476 25.0648   1
  13   7 -10 745.601 33.8794   2
   7  13 -10 804.685 29.1632   2
  -7  13  10 792.695 34.6271   2
   7  13 -10 780.349 34.7942   4
  13  -7  10 773.066 34.8734   2
 -13   7  10 808.692 40.0140   2
 -13   7  10 854.082 34.3306   1
  13  -7  10 782.264 29.0039   4
  -7  13   8 752.745 32.9227   2
 -13   7   8 812.616 39.3778   2
   7  13  -8 780.834 30.5778   2
  13  -7   8 774.568 33.9188   2
  13  -7   8 792.291 28.0276   4
  13   7  -8 840.480 36.2113   2
  13  -7   6 236.865 17.7996   2
  -7  13   6 225.235 16.3291   2
  13   7  -6 206.398 19.5042   1
   7 -13   6 243.742 14.6592   1
   7  13  -6 223.035 17.1827   2
 -13   7   6 218.476 21.9263   2
  13   7  -6 256.173 20.1545   2
  -7  13   4 2248.08 70.9780   2
   7  13  -4 2280.40 75.7454   1
   7 -13   4 2246.36 67.3447   1
   7  13  -4 2267.70 76.2672   2
 -13   7   4 2321.54 80.7714   2
  13   7  -4 2284.36 78.4172   1
  13   7  -4 2327.41 78.9796   2
  13  -7   4 2281.61 72.3404   2
  -7  13   2 1376.51 47.2183   2
  13  -7   2 1477.27 49.6406   2
   7  13  -2 1443.14 58.1716   2
 -13   7   2 1447.40 58.4007   2
  13   7  -2 1368.63 56.4719   2
   7  13  -2 1395.96 53.8117   1
  13   7  -2 1476.42 57.2104   1
  13  -7   2 1428.32 47.3212   1
   7  13   0 1127.49 53.9424   2
  13  -7   0 1126.46 41.6809   2
  13   7   0 1148.38 50.2668   1
 -13   7   0 1124.67 51.3657   2
  13   7   0 1124.99 51.5929   2
   7  13   0 1169.45 47.8038   1
  -7  13   0 1158.72 39.7630   2
  13  -7   0 1169.86 36.4614   1
  13   7   2 1512.08 61.4392   1
 -13   7  -2 1527.37 62.7854   2
  13  -7  -2 1391.10 49.4500   2
  13   7   2 1517.36 63.9099   2
   7  13   2 1516.49 57.8142   1
  -7  13  -2 1410.99 47.2205   2
   7  13   4 2211.79 78.8148   1
 -13   7  -4 2246.59 84.7681   2
  13   7   4 2225.74 87.3338   2
  -7  13  -4 2182.47 66.4240   2
  13  -7  -4 2130.16 68.7987   2
  13  -7  -4 2134.55 59.4492   4
  -7 -13   4 2195.10 82.8656   1
  13   7   4 2078.89 81.8082   1
  -7 -13   6 192.938 25.7808   1
   7  13   6 217.430 24.7355   1
 -13  -7   6 195.348 30.5339   2
 -13  -7   6 206.568 26.8634   1
  13   7   6 153.884 25.4295   1
 -13  -7   8 770.036 50.3241   2
   7  13   8 888.174 46.3210   1
 -13  -7   8 881.485 47.2127   1
  13  -7  -8 785.963 25.0771   4
  13  -7  -8 856.031 34.2127   3
  -7 -13   8 828.164 44.9598   1
  -7 -13  10 737.714 42.7640   1
  13   7  10 682.027 51.8380   2
 -13  -7  10 681.615 45.5295   2
 -13  -7  10 740.044 44.8489   1
  13  -7 -10 797.833 25.2118   4
  13  -7 -10 795.716 32.9621   3
  13  -7 -12 336.326 20.6191   3
 -13  -7  12 356.206 34.3363   2
 -13  -7  12 356.062 32.3110   1
  -7 -13  12 311.194 29.1084   1
  -7 -13  14 168.753 26.0178   1
  13  -7 -14 192.824 17.2077   3
 -13  -7  14 205.779 28.5799   2
 -13  -7  14 207.987 28.7079   1
  -7 -13  16 181.810 25.5412   1
 -13  -7  16 171.379 26.1188   2
 -13  -7  16 176.300 26.8924   1
 -13  -7  18 141.717 27.4880   1
 -13  -7  18 185.692 27.0346   2
  -7 -13  18 137.935 24.8590   1
 -13  -7  20 134.411 28.0030   2
 -13  -7  22 68.6538 25.7743   2
  13   8 -21 17.6786 11.1035   3
  13  -8  21 26.3705 13.0172   4
  13   8 -19 134.313 17.2713   4
  13  -8  19 120.372 15.7127   4
   8  13 -17 219.113 13.4758   3
 -13   8  17 242.800 21.0004   1
  -8  13  17 225.152 22.7164   2
   8  13 -17 269.432 20.5984   4
  13  -8  17 260.085 17.9314   4
  13  -8  17 227.043 19.5827   2
  13   8 -17 277.571 18.4954   3
   8  13 -15 96.0323 9.93797   3
 -13   8  15 96.2055 19.2523   2
   8  13 -15 73.2925 14.5856   4
  -8  13  15 67.1458 15.8549   2
  13   8 -15 131.375 16.5100   4
  13  -8  15 95.0941 12.7794   4
 -13   8  15 113.180 16.7397   1
 -13   8  13 430.689 24.0601   1
  13  -8  13 378.033 23.1983   2
  -8  13  13 340.883 23.8776   2
  13   8 -13 378.005 21.9306   2
  13   8 -13 345.767 23.0017   4
   8  13 -13 368.698 23.4942   4
  13  -8  13 355.900 19.1406   4
 -13   8  13 312.049 25.8982   2
  13   8 -11 184.368 17.5024   4
   8  13 -11 171.434 12.3414   2
   8  13 -11 151.213 15.8743   4
  -8  13  11 146.604 16.2180   2
  13  -8  11 178.501 12.8561   4
 -13   8  11 175.208 15.7715   1
  13  -8  11 169.799 15.7837   2
  -8  13  11 126.196 6.44476   1
 -13   8  11 135.640 18.5316   2
   8  13  -9 54.6938 10.7285   2
  13   8  -9 54.5979 14.0080   2
  -8  13   9 80.1189 13.8901   2
  13  -8   9 69.8399 9.80249   4
 -13   8   9 44.8098 15.1872   2
  13  -8   9 59.1250 12.6214   2
  -8  13   7 1256.57 46.8387   2
 -13   8   7 1286.33 53.4102   2
   8  13  -7 1342.17 46.4115   2
  13  -8   7 1276.44 40.2087   4
   8 -13   7 1244.84 41.9890   1
  13   8  -7 1237.89 49.2855   2
  13  -8   7 1275.90 45.4766   2
  13  -8   5 2282.23 72.9782   2
  -8  13   5 2368.46 74.2733   2
  13   8  -5 2371.18 80.1073   1
   8  13  -5 2348.40 77.1966   2
 -13   8   5 2319.48 81.6471   2
  13   8  -5 2352.35 79.9930   2
  13  -8   5 2368.40 66.9166   4
   8 -13   5 2284.22 68.4748   1
  -8  13   3 796.744 32.1286   2
   8  13  -3 814.412 37.4458   1
  13  -8   3 829.094 32.3332   2
  13   8  -3 894.236 40.6995   1
  13  -8   3 753.201 30.8334   1
   8  13  -3 785.591 39.3194   2
 -13   8   3 834.795 40.4056   2
  13   8  -3 836.087 40.2670   2
   8 -13   3 695.467 25.4171   1
  13  -8   3 873.541 25.5936   4
   8  13  -1 1842.72 67.8301   1
  13  -8   1 1865.34 60.7531   2
   8  13  -1 1955.34 73.4420   2
 -13   8   1 1905.14 71.0005   2
  13   8  -1 1929.15 72.8855   2
  13  -8   1 1875.95 55.2517   1
  13   8  -1 1917.27 70.9352   1
  13  -8   1 1865.97 52.4912   4
  -8  13   1 1945.19 60.8743   2
   8  13   1 1966.15 79.7559   2
  13   8   1 1880.58 73.4145   1
 -13   8  -1 1851.96 73.4585   2
  13   8   1 1944.12 76.6332   2
  13  -8  -1 1992.59 63.1265   2
   8  13   1 1991.75 71.4039   1
  -8  13  -1 1978.86 62.5859   2
   8  13   3 879.712 42.9097   1
 -13   8  -3 866.144 45.7022   2
  13   8   3 877.833 49.3885   2
  -8  13  -3 838.107 33.2942   2
  13   8   3 782.177 44.3307   1
  -8  13  -5 2383.47 75.0700   2
  13   8   5 2322.13 95.6385   2
  -8 -13   5 2439.22 90.8256   1
  13   8   5 2348.78 89.7859   1
  13  -8  -5 2365.17 74.5368   3
   8  13   5 2371.86 86.3733   1
 -13  -8   7 1268.56 67.3777   2
  13   8   7 1112.04 58.9683   1
 -13  -8   7 1280.75 59.7331   1
   8  13   7 1151.05 56.5569   1
  -8 -13   7 1334.75 60.0049   1
  13  -8  -7 1297.79 45.6659   3
  13  -8  -9 43.4364 10.7644   3
 -13  -8   9 52.5696 21.4525   1
 -13  -8   9 76.7705 28.9352   2
  -8 -13   9 36.2924 20.9332   1
   8  13   9 83.3013 22.9751   1
  13  -8 -11 215.713 16.7132   3
 -13  -8  11 156.197 25.1469   1
 -13  -8  11 182.151 29.0628   2
  -8 -13  11 150.908 24.4140   1
  13  -8 -13 333.480 21.2509   3
 -13  -8  13 384.732 36.5393   2
 -13  -8  13 334.846 32.7755   1
  -8 -13  13 358.519 32.9934   1
  -8 -13  15 68.5629 22.8628   1
  13  -8 -15 94.8208 14.3880   3
 -13  -8  15 84.9387 26.4482   2
 -13  -8  15 121.537 25.6754   1
  13  -8 -17 260.255 20.0089   3
  -8 -13  17 241.868 29.9089   1
 -13  -8  17 257.201 31.6725   2
 -13  -8  17 267.051 31.4406   1
 -13  -8  19 98.2192 27.5529   2
 -13  -8  19 87.7135 27.6984   1
 -13  -8  21 14.7063 23.0025   2
  13   9 -20 84.0122 13.4922   3
   9 -13  20 123.914 18.7660   4
  13  -9  20 104.484 15.7577   4
  13   9 -18 48.1433 12.0633   3
   9 -13  18 65.7943 14.7446   4
  -9  13  18 30.8793 16.0937   2
  13  -9  18 48.5528 12.4480   4
   9  13 -18 52.0232 14.0744   4
  13   9 -18 40.0971 13.7119   4
 -13   9  16 116.610 19.9200   2
   9  13 -16 54.4112 14.1394   4
  -9  13  16 78.2464 17.4007   2
   9 -13  16 85.0239 15.9522   4
  13   9 -16 49.8035 14.1190   4
  13  -9  16 74.1541 12.8721   4
  13  -9  16 76.4194 13.8083   2
 -13   9  16 61.9939 15.9851   1
 -13   9  14 54.3811 17.7814   2
 -13   9  14 81.8430 14.7203   1
  -9  13  14 75.7700 16.0043   2
  -9  13  14 68.8906 8.04386   1
  13   9 -14 98.0916 13.6128   2
  13   9 -14 74.8087 14.4095   4
   9  13 -14 61.5644 13.7877   4
  13  -9  14 79.5551 11.5330   4
  -9  13  12 125.292 15.8679   2
   9  13 -12 101.065 11.1608   2
   9  13 -12 99.7829 14.9164   4
  13  -9  12 113.925 11.3813   4
 -13   9  12 95.0123 13.1480   1
  13   9 -12 62.5435 13.8495   4
 -13   9  12 115.955 18.0390   2
   9  13 -10 235.528 16.6278   2
  13   9 -10 219.911 18.5591   2
  -9  13  10 215.119 19.5391   2
   9  13 -10 201.480 19.2012   4
  13  -9  10 229.752 14.2844   4
  13  -9  10 224.574 17.1500   2
 -13   9  10 210.346 22.0939   2
  13  -9   8 286.134 18.2418   2
  -9  13   8 278.914 20.7141   2
  13  -9   8 313.933 15.3908   4
 -13   9   8 325.082 25.2596   2
   9  13  -8 316.627 19.8366   2
  13   9  -8 348.928 23.0263   2
   9 -13   6 1418.08 44.5094   1
  -9  13   6 1448.55 51.6514   2
  13  -9   6 1494.84 49.0077   2
  13   9  -6 1577.41 56.9522   1
  13  -9   6 1330.25 43.3449   4
   9  13  -6 1450.06 52.7105   2
  13   9  -6 1438.01 54.9835   2
 -13   9   6 1415.35 57.1844   2
   9 -13   4 551.848 19.6454   3
  13  -9   4 523.690 24.4582   2
   9 -13   4 490.386 19.0718   1
   9  13  -4 571.441 31.8876   2
   9  13  -4 575.262 30.8321   1
 -13   9   4 539.399 32.4494   2
  13   9  -4 544.454 31.6520   2
  13  -9   4 553.780 18.8229   4
  13   9  -4 524.871 31.4173   1
  -9  13   4 555.782 26.9714   2
  -9  13   2 637.948 29.0668   2
   9 -13   2 689.969 23.9102   3
  13  -9   2 624.193 22.4873   1
  13  -9   2 692.123 27.8577   2
   9  13  -2 620.528 36.7821   2
 -13   9   2 683.776 36.4834   2
   9  13  -2 675.103 34.7461   1
  13   9  -2 636.702 36.5098   2
  13  -9   2 642.338 20.0734   4
  13   9  -2 670.621 36.0829   1
   9 -13   0 2087.56 62.3973   3
   9  13   0 1974.99 79.9894   2
 -13   9   0 2024.15 76.2439   2
  13   9   0 2098.70 80.2671   2
  13  -9   0 2188.48 66.5297   2
  13   9   0 2061.82 77.1447   1
  -9  13   0 2060.95 67.7312   2
   9  13   0 2071.92 74.9401   1
   9 -13  -2 646.496 25.7679   3
  13   9   2 616.477 38.0517   1
   9  13   2 670.963 44.8604   2
 -13   9  -2 672.963 39.5065   2
  13   9   2 695.705 43.0888   2
   9  13   2 665.086 37.3360   1
  -9  13  -2 744.969 31.0210   2
   9  13   4 451.496 33.2211   1
 -13   9  -4 504.927 37.0055   2
  13   9   4 543.723 41.1052   2
  -9  13  -4 531.609 27.7621   2
  13  -9  -4 547.043 25.0770   3
  13   9   6 1401.01 71.2637   2
   9  13   6 1357.68 62.1461   1
 -13  -9   6 1462.13 67.3296   1
  -9 -13   6 1489.45 66.9097   1
  13  -9  -6 1504.84 51.1331   3
  -9 -13   8 324.169 32.0404   1
   9  13   8 363.447 33.0048   1
 -13  -9   8 309.185 31.8098   1
  13  -9  -8 374.348 20.7253   3
  13  -9 -10 208.399 16.5607   3
 -13  -9  10 240.889 29.1692   1
 -13  -9  10 250.050 34.4155   2
  -9 -13  10 218.121 27.6400   1
   9  13  10 194.676 28.5231   1
  13  -9 -12 70.6682 12.1614   3
  -9 -13  12 96.1930 22.9736   1
 -13  -9  12 111.640 28.1817   2
 -13  -9  12 95.7215 24.7010   1
  -9 -13  14 91.0261 22.6870   1
  13  -9 -14 73.6932 13.1078   3
 -13  -9  14 66.7237 27.4628   2
 -13  -9  14 125.102 26.6358   1
  13  -9 -16 71.3054 13.6244   3
 -13  -9  16 38.3823 26.0336   2
 -13  -9  16 73.3435 25.1337   1
  -9 -13  16 87.4049 24.0508   1
 -13  -9  18 28.5082 25.3441   2
 -13  -9  18 35.5335 24.5363   1
 -13  -9  20 68.4528 28.7506   2
  10 -13  21 30.5662 18.2189   4
  13 -10  21 19.0111 13.7635   4
  13  10 -19 197.635 16.7153   3
  13 -10  19 188.923 18.5694   4
  10 -13  19 207.092 20.5392   4
  10 -13  17 20.7152 13.9541   4
 -13  10  17 14.3965 16.7320   2
 -10  13  17 17.3809 16.1711   2
  10  13 -17 23.6697 13.3058   4
  13 -10  17 11.7384 10.5164   4
  13 -10  15 103.019 12.8851   2
 -13  10  15 94.3024 19.0252   2
  13  10 -15 74.8101 15.3190   4
 -10  13  15 88.6850 18.9520   2
  10  13 -15 98.2800 16.2251   4
  13 -10  15 73.4740 12.5617   4
  10 -13  15 129.522 16.1226   4
  10  13 -15 102.765 11.4442   3
 -13  10  13 56.4673 17.0824   2
 -10  13  13 89.6458 16.6515   2
  10 -13  13 75.3410 13.1643   4
  13  10 -13 66.5356 12.5248   2
  10  13 -13 73.4736 14.5053   4
  13 -10  13 65.2399 11.5780   4
  13  10 -13 89.7021 15.5944   4
 -13  10  13 72.8512 11.4853   1
  13 -10  11 89.8256 11.4608   2
 -10  13  11 101.239 16.1265   2
  13  10 -11 76.1387 13.0155   2
  10  13 -11 71.4239 11.4219   2
  13  10 -11 116.831 16.3787   4
  10  13 -11 106.133 15.1795   4
  13 -10  11 92.2535 10.8987   4
 -13  10  11 85.7531 17.3125   2
  10  13  -9 153.593 15.0287   2
  13  10  -9 106.807 15.1847   2
 -10  13   9 123.289 16.6337   2
  13 -10   9 158.709 13.4448   2
  13 -10   9 166.249 11.8561   4
 -13  10   9 143.928 18.0916   2
  10 -13   7 36.9915 5.23415   3
 -10  13   7 53.1805 12.8355   2
  13 -10   7 45.3523 9.75159   2
  13 -10   7 48.9981 7.89031   4
 -13  10   7 41.2356 14.4903   2
  10  13  -7 43.5464 12.5482   2
  13  10  -7 42.7556 14.0953   2
  10 -13   5 1198.58 37.2107   3
  10 -13   5 1126.96 36.7897   1
  13 -10   5 1229.50 42.1632   2
  13  10  -5 1243.77 51.1595   1
  13 -10   5 1253.54 36.8469   4
  10  13  -5 1131.94 48.2189   2
 -13  10   5 1259.43 51.2160   2
  13  10  -5 1191.09 49.8482   2
  10  13  -5 1277.07 50.1327   1
 -10  13   5 1155.63 46.0417   2
  10 -13   3 500.078 19.5352   3
  13  10  -3 504.616 31.5228   1
  13 -10   3 491.909 23.0813   2
  10  13  -3 479.548 31.2448   2
  13  10  -3 574.350 33.0657   2
 -13  10   3 482.063 31.3274   2
 -10  13   3 437.110 25.3535   2
  10  13  -3 497.088 30.3467   1
  13 -10   3 473.129 15.7789   4
  10 -13   1 586.336 23.0783   3
  10  13  -1 599.961 33.9787   1
  10  13  -1 592.189 36.8176   2
  13  10  -1 573.974 36.3613   2
 -13  10   1 617.467 34.8355   2
 -10  13   1 601.392 29.3111   2
  10 -13  -1 574.179 23.3476   3
  10  13   1 574.807 39.5976   2
 -13  10  -1 572.887 34.7680   2
  13  10   1 551.753 38.3256   2
 -10  13  -1 599.950 29.3378   2
  10  13   1 549.479 33.7307   1
  10 -13  -3 514.597 22.2785   3
 -13  10  -3 512.639 35.3630   2
  10  13   3 481.313 33.0582   1
  10  13   3 410.587 38.9464   2
  13  10   3 540.911 40.6839   2
 -10  13  -3 467.556 27.5583   2
  13 -10  -3 483.502 23.6191   3
  10 -13  -5 1167.40 41.1992   3
  10  13   5 1255.64 67.1192   2
 -10  13  -5 1187.64 48.5580   2
  13  10   5 1202.56 63.7475   2
 -10 -13   5 1215.67 60.2200   1
  13 -10  -5 1195.20 42.8896   3
  10  13   5 1100.05 54.7129   1
  13 -10  -7 61.4857 10.7479   3
  10  13   7 57.8383 21.8578   1
  13  10   7 34.2508 23.5981   2
 -13 -10   7 17.8815 22.0798   1
 -10 -13   7 69.6302 24.4099   1
 -13 -10   9 126.470 26.1533   1
  13 -10  -9 154.118 14.6496   3
 -10 -13   9 178.217 28.0475   1
  10  13   9 106.631 26.2158   1
  13 -10 -11 83.4876 12.2800   3
 -13 -10  11 59.2750 23.3297   1
 -13 -10  11 80.1638 29.0185   2
 -10 -13  11 99.7190 24.4143   1
  10  13  11 81.9315 25.7803   1
  13 -10 -13 43.2615 12.2324   3
 -13 -10  13 57.1894 30.5447   2
 -13 -10  13 107.258 25.7263   1
 -10 -13  13 85.9237 23.8189   1
 -13 -10  15 119.810 27.9304   1
  13 -10 -15 110.413 14.9892   3
 -13 -10  15 134.066 33.2019   2
 -10 -13  15 57.5860 24.5449   1
 -13 -10  17 42.8868 28.1867   2
 -13 -10  17-12.3309 25.1306   1
 -10 -13  17 4.74262 22.6678   1
 -13 -10  19 194.698 36.9823   2
  13 -11  20 128.662 18.5514   4
  11 -13  18 7.93011 12.8193   4
  13 -11  18 24.0547 13.6776   4
 -13  11  16 65.4481 20.0239   2
 -11  13  16 59.8225 17.7150   2
  13 -11  16 73.3253 13.4406   4
  13  11 -16 73.5307 15.9002   4
  11 -13  16 67.1880 15.5485   4
  13  11 -16 64.5761 12.8794   3
  11  13 -16 73.5415 11.2131   3
 -13  11  14 228.045 24.8907   2
 -11  13  14 196.777 22.3908   2
  13  11 -14 215.215 17.5391   2
  11 -13  14 260.271 19.3358   4
  13 -11  14 223.952 16.9909   4
  13  11 -14 206.900 20.9761   4
 -13  11  12 114.357 19.5463   2
 -11  13  12 121.832 18.2140   2
  13 -11  12 139.777 12.0972   2
  13  11 -12 134.266 14.7245   2
  11  13 -12 137.646 13.2300   2
  11 -13  12 111.017 13.8510   4
  13  11 -12 86.8489 16.0587   4
  11  13 -12 141.124 17.4272   4
  13 -11  12 134.787 13.1840   4
 -11  13  10 730.461 36.0083   2
  11  13 -10 718.190 31.2632   2
  13  11 -10 656.547 31.9856   2
  13 -11  10 689.878 27.4258   4
 -13  11  10 655.400 36.8708   2
  11  13  -8 53.8169 13.2250   2
  13  11  -8 42.4795 13.4233   2
 -11  13   8 36.0142 13.5499   2
  13 -11   8 51.3285 9.29815   2
  13 -11   8 52.0378 9.13407   4
 -13  11   8 50.2394 15.4741   2
 -11  13   6 110.610 16.1444   2
  11 -13   6 96.7833 8.50249   1
  13 -11   6 110.619 8.93190   4
  13 -11   6 93.4614 10.9746   2
  11  13  -6 121.676 16.9588   2
 -13  11   6 101.752 17.3662   2
  13  11  -6 127.481 17.8327   2
  11 -13   6 114.657 8.88919   3
  11 -13   4 724.242 26.0587   3
  11  13  -4 732.947 37.2681   1
  11  13  -4 771.162 38.2070   2
  13  11  -4 733.455 37.9214   2
 -13  11   4 678.993 36.6586   2
 -11  13   4 751.152 34.4749   2
  11 -13   2 46.3356 7.90680   3
  11  13  -2 24.0138 17.1195   2
  11  13  -2 53.2300 16.3148   1
  13  11  -2 47.3060 16.5980   2
 -13  11   2 58.4359 16.3319   2
 -11  13   2 39.2977 13.4375   2
  11 -13   0 256.370 14.7391   3
  11  13   0 276.004 28.5675   2
  13  11   0 261.737 26.7926   2
 -13  11   0 202.591 22.5857   2
  11  13   0 270.088 24.5312   1
 -11  13   0 237.438 20.5943   2
  13 -11   0 266.629 16.5916   3
  13 -11  -2 52.2900 10.0906   3
  11 -13  -2 39.5631 8.58735   3
  11  13   2 28.8986 20.9894   2
 -13  11  -2 61.9869 19.4155   2
  13  11   2 58.5036 22.8044   2
 -11  13  -2 34.1969 14.4256   2
  11  13   2 41.0966 17.7651   1
  11 -13  -4 758.737 30.6835   3
  11  13   4 754.889 43.8971   1
  11  13   4 708.932 50.5002   2
 -13  11  -4 833.677 45.9896   2
 -11  13  -4 844.761 40.1695   2
  13  11   4 779.814 50.7724   2
  13 -11  -4 804.335 32.1310   3
  13 -11  -6 104.856 12.4936   3
  11 -13  -6 130.708 12.9403   3
  11  13   6 55.1016 27.1032   2
  11  13   6 94.2571 22.1739   1
  13  11   6 89.5039 27.6012   2
 -11 -13   6 107.590 26.5417   1
  11  13   8 78.3908 24.5847   1
  13 -11  -8 64.4438 11.2925   3
  11 -13  -8 28.1174 9.80560   3
  13  11   8 66.3393 28.7240   2
 -11 -13   8 95.4369 25.5814   1
  13  11   8 53.2340 24.0889   1
  13 -11 -10 674.756 30.5935   3
  13  11  10 625.636 49.5226   2
  13  11  10 576.080 44.4632   1
  11  13  10 711.330 46.6450   1
 -13 -11  10 602.540 44.3602   1
 -11 -13  10 635.808 45.8993   1
  13 -11 -12 137.532 15.5355   3
 -13 -11  12 82.6199 25.8407   1
 -11 -13  12 145.113 27.7004   1
  11  13  12 99.9092 28.3435   1
  13 -11 -14 253.758 19.3711   3
 -13 -11  14 244.467 40.2706   2
 -13 -11  14 234.929 32.8164   1
 -11 -13  14 193.662 31.5064   1
 -13 -11  16 64.4885 33.5511   2
 -13 -11  16 59.0253 26.4148   1
 -11 -13  16 72.8655 26.9563   1
 -13 -11  18 25.8385 30.7401   2
  13 -12  17 10.0619 12.3763   4
  12 -13  17 15.9524 12.6794   4
 -12  13  15 961.231 48.7131   2
  13 -12  15 1001.39 39.6043   4
  13  12 -15 936.356 43.8205   4
  12 -13  15 1015.75 40.4296   4
 -13  12  15 961.296 49.0735   2
 -13  12  13 175.234 22.4935   2
  13 -12  13 236.768 17.5335   4
 -12  13  13 203.351 22.4772   2
  12 -13  13 236.170 17.9758   4
  12  13 -13 220.588 16.7569   2
  13  12 -13 197.523 17.2173   2
  13  12 -13 200.315 20.6135   4
 -13  12  11 137.170 21.0233   2
 -12  13  11 144.682 19.5456   2
  13  12 -11 162.973 15.8803   2
  12  13 -11 153.345 15.6184   2
  13 -12  11 136.405 11.0324   2
  12 -13  11 182.813 15.0262   4
  13 -12  11 140.182 14.3705   4
  13 -12   9 1838.53 55.6603   4
 -13  12   9 1717.28 67.1436   2
 -12  13   9 1732.76 66.0868   2
  12 -13   9 1772.70 52.2424   3
  12  13  -9 1773.57 61.9485   2
  13  12  -9 1706.74 62.2937   2
  13 -12   7 296.499 14.4725   4
  12  13  -7 302.571 22.1847   2
  13  12  -7 326.884 23.4636   2
 -12  13   7 307.343 23.8566   2
 -13  12   7 275.092 23.9197   2
  12 -13   5 90.8206 9.22282   3
  12 -13   5 77.6684 5.78666   1
  12  13  -5 134.761 18.8690   2
  12  13  -5 93.0816 17.5090   1
  13  12  -5 79.0522 17.0478   2
 -13  12   5 87.9136 16.3852   2
 -12  13   5 121.693 17.8596   2
  12  13  -3 1322.51 56.8332   2
  13  12  -3 1301.19 56.4594   2
 -13  12   3 1335.51 54.6215   2
 -12  13   3 1358.37 53.7103   2
  12  13  -3 1326.65 55.7136   1
  13 -12   3 1407.12 45.4252   3
  12 -13   3 1329.11 43.7494   3
  13 -12   1 50.3311 9.24991   3
  12 -13   1 51.6044 8.40278   3
  12  13  -1 64.1987 18.7205   2
  13  12  -1 64.5505 19.1740   2
 -13  12   1 42.5754 15.4703   2
 -12  13   1 46.2404 15.0833   2
  12  13  -1 40.5055 16.4899   1
  13 -12  -1 69.9986 10.1502   3
  12 -13  -1 61.3259 9.15696   3
  12  13   1 38.3048 17.3784   1
  12  13   1 43.7580 20.1602   2
  13  12   1 43.2175 19.2845   2
 -13  12  -1 53.8903 17.3833   2
 -12  13  -1 78.7225 16.8156   2
  12 -13  -3 1395.14 46.8460   3
 -13  12  -3 1432.03 60.0113   2
  12  13   3 1355.37 67.1271   2
  13  12   3 1384.65 61.3386   1
 -12  13  -3 1395.69 56.7149   2
  13  12   3 1355.20 66.7248   2
  12  13   3 1368.56 60.4982   1
  13 -12  -3 1322.89 47.3546   3
  13 -12  -5 83.5587 11.7616   3
  12 -13  -5 101.908 12.1835   3
 -13  12  -5 118.222 26.2640   2
 -12  13  -5 126.002 22.4342   2
  12  13   5 96.4875 28.9829   2
  13  12   5 80.9966 26.9676   2
  13  12   5 134.469 24.7704   1
  12  13   5 86.8902 21.3771   1
  13 -12  -7 314.031 19.4922   3
  13  12   7 334.460 33.1462   1
  12  13   7 284.045 31.3359   1
  12  13   7 351.559 40.2388   2
  13  12   7 358.736 39.1230   2
 -12 -13   7 309.657 34.9424   1
  13 -12  -9 1885.98 61.4242   3
  12 -13  -9 1734.16 60.0761   3
  13  12   9 1715.12 86.6237   2
  13  12   9 1757.32 79.6776   1
  12  13   9 1702.83 78.4186   1
 -12 -13   9 1828.83 81.8438   1
 -12 -13  11 147.028 28.9768   1
  13 -12 -11 131.078 15.0087   3
  13  12  11 137.830 29.8103   1
  12  13  11 124.463 29.1263   1
  13 -12 -13 169.281 16.6425   3
  12  13  13 189.309 31.3016   1
 -13 -12  15 903.299 58.5669   1
  13  13 -14 622.286 29.4680   2
  13 -13  14 687.710 30.7417   4
 -13  13  14 630.834 39.2795   2
  13  13 -12 790.341 34.5717   2
  13 -13  12 817.659 32.8725   4
 -13  13  12 774.186 42.3643   2
  13  13 -10 1274.06 48.4946   2
  13 -13  10 1318.43 43.6182   4
 -13  13  10 1262.58 54.4448   2
  13 -13  10 1215.32 39.3872   3
 -13  13   8 527.819 32.8483   2
  13 -13   8 638.314 23.6043   3
 -13  13   6 682.519 36.1768   2
  13  13  -6 655.318 34.7828   2
  13 -13   6 691.868 26.2000   3
  13  13  -4 961.874 46.8074   1
  13  13  -4 1142.75 49.1519   2
 -13  13   4 1033.19 46.5740   2
  13 -13   4 1078.12 36.8472   3
  13  13  -2 345.006 27.8716   1
  13  13  -2 402.455 29.8042   2
 -13  13   2 377.564 27.2001   2
  13 -13   0 108.331 10.9838   3
 -13  13   0 134.848 19.2636   2
  13  13   0 132.966 20.3548   1
  13 -13  -2 380.947 20.0722   3
 -13  13  -2 425.551 30.6317   2
  13  13   2 408.834 36.2338   2
  13  13   2 404.564 31.5007   1
  13 -13  -4 1118.19 41.1726   3
 -13  13  -4 1228.86 54.8677   2
  13  13   4 1098.86 55.2624   1
  13  13   4 1082.24 61.8767   2
  13  13   6 661.751 44.3029   1
  13 -13  -6 673.565 29.9893   3
  13 -13  -8 603.141 28.1317   3
  13  13   8 505.163 47.4313   2
  13  13   8 608.714 43.5304   1
  13 -13 -10 1140.30 44.3179   3
  13  13  10 1088.26 68.6882   2
  13  13  10 1277.98 66.1563   1
  13  13  12 869.882 56.2288   1
  13  13  14 582.401 48.7533   1
   0  14   0 28.7841 5.71988   3
 -14   0   0 23.1892 20.7208   2
  14   0   0 24.0400 13.6025   1
  14   0   0 30.2882 12.9453   2
   0  14  -2 12.1399 4.58473   3
  14   0   2 35.6475 15.6168   1
   0  14   2 13.5987 5.78561   3
 -14   0   2 16.7435 19.4578   2
  14   0  -2 13.1874 11.6535   1
   0  14   2 25.2787 9.20415   1
   0 -14   2 16.0541 13.4320   1
  14   0   2 31.4425 13.9315   2
  14   0  -2 28.0942 11.9082   2
   0  14   4 837.234 30.4379   3
   0  14  -4 837.129 31.4206   2
  14   0   4 835.426 41.4174   2
   0  14   4 836.213 34.1400   1
  14   0   4 868.808 42.5437   1
   0 -14   4 974.086 40.6588   1
   0  14  -4 868.966 31.6855   4
  14   0  -4 857.926 34.9455   1
   0  14  -4 873.752 25.8916   3
   0  14   6-4.24000 6.27007   3
   0  14   6 6.64155 10.7310   1
  14   0   6 4.81931 13.7345   2
   0 -14   6 9.10721 13.5676   1
   0  14  -6-0.60104 6.81988   4
   0 -14   8 66.7981 16.2818   1
   0  14   8 73.5614 9.78904   3
  14   0  -8 47.4758 11.6807   2
  14   0   8 88.9731 19.2035   2
 -14   0   8 79.3839 18.1751   2
   0  14  -8 67.0666 10.0859   4
 -14   0   8 54.7405 18.1846   1
   0  14   8 78.0276 15.0710   1
   0  14  10 1557.83 52.5743   3
  14   0  10 1509.48 67.5055   2
  14   0 -10 1571.54 55.3545   2
 -14   0  10 1516.90 65.0339   2
   0  14 -10 1530.70 50.7771   4
 -14   0  10 1628.80 62.8730   1
  14   0 -10 1580.95 51.9624   4
   0 -14  10 1443.10 57.3269   1
   0  14  12 335.217 20.3503   3
  14   0  12 383.823 34.1466   2
   0 -14  12 345.311 25.2285   1
 -14   0  12 321.026 27.6730   1
  14   0 -12 317.701 18.6339   4
 -14   0  12 306.274 28.7324   2
   0  14 -12 364.276 19.3690   4
   0  14  14 44.0678 10.9292   3
  14   0  14 68.7995 23.4048   2
   0 -14  14 28.7292 14.7126   1
  14   0 -14 53.1789 11.3149   4
 -14   0  14 60.9154 19.1381   2
 -14   0  14 22.1957 17.7193   1
   0  14 -14 31.6653 10.3288   4
  14   0 -14 37.2693 10.7055   3
 -14   0  16 151.179 22.4741   1
  14   0 -16 146.835 15.9151   3
   0  14  16 140.264 15.6691   3
   0 -14  16 150.731 21.1009   1
  14   0  16 168.690 32.3362   2
  14   0 -16 133.369 14.1678   4
 -14   0  16 155.818 24.4878   2
   0  14 -16 154.171 15.6331   4
  14   0 -18 42.9033 12.4109   3
   0  14  18 17.9596 11.4057   3
 -14   0  18 23.3345 17.9185   1
  14   0  18-3.28059 27.8939   2
 -14   0  18 11.8602 17.9341   2
  14   0 -18 20.6117 10.0689   4
   0 -14  18 34.5959 16.4604   1
   0  14  18 12.5777 9.26265   4
   0  14  20 121.096 17.2007   3
  14   0 -20 136.729 16.6767   3
  14   0  20 165.632 41.1238   2
 -14   0  20 136.287 24.7543   1
   0 -14  20 116.181 22.2854   1
 -14   0  20 112.137 23.3557   2
  14   0 -20 152.503 16.5019   4
   0  14  20 118.633 13.9945   4
  14   0  20 137.144 17.5833   4
  14   0  22 135.801 48.9131   2
 -14   0  22 132.012 27.2833   1
   0  14  22 104.036 15.1352   4
  14  -1  23 100.832 42.1582   2
 -14   1  23 58.5854 22.7937   1
   1 -14  21 133.375 23.4245   1
 -14   1  21 156.182 26.6135   1
  -1  14  21 144.041 15.1508   4
  14   1 -21 158.415 16.6111   4
   1  14 -21 142.372 17.1818   4
  -1  14  19 95.3988 14.9470   3
   1 -14  19 117.645 20.9869   1
  14  -1  19 123.893 34.2500   2
 -14   1  19 112.740 22.4742   1
 -14   1  19 114.946 23.5976   2
  -1  14  19 153.340 14.8893   4
   1  14 -19 94.1767 14.7591   4
  14  -1  19 136.117 17.0649   4
  14   1 -17 179.386 17.0508   3
  -1  14  17 178.621 17.2703   3
 -14   1  17 233.794 24.3088   1
  14  -1  17 209.399 32.0111   2
   1 -14  17 198.762 22.4673   1
   1  14 -17 223.760 18.1159   4
 -14   1  17 133.724 22.9157   2
  -1  14  17 184.566 14.0267   4
  -1  14  15 356.909 22.2102   3
  14  -1  15 334.374 35.0503   2
   1 -14  15 330.088 25.7335   1
  14   1 -15 314.535 19.8579   4
 -14   1  15 357.502 29.8164   2
   1  14 -15 335.061 20.6299   4
 -14   1  15 339.800 27.6652   1
  14   1 -15 354.626 21.8429   3
  -1  14  13 164.502 15.4579   3
  14  -1  13 208.784 27.8641   2
  14   1 -13 196.709 15.7355   4
 -14   1  13 182.243 22.8757   1
 -14   1  13 162.443 22.1506   2
   1 -14  13 181.229 19.7626   1
   1  14 -13 173.369 14.9554   4
  -1  14  11 382.056 20.8392   3
   1 -14  11 386.630 25.1290   1
  14   1 -11 350.068 22.0889   2
  14  -1  11 340.519 31.8200   2
  14   1 -11 378.280 20.8832   4
 -14   1  11 346.829 29.0516   2
   1  14 -11 365.617 19.9361   4
 -14   1  11 339.540 27.1328   1
  -1  14   9 1294.82 45.1410   3
  14   1  -9 1250.81 48.5741   2
 -14   1   9 1148.71 56.0516   2
  14  -1   9 1248.33 57.4190   2
  14   1  -9 1281.12 45.7577   4
   1  14  -9 1346.69 45.1155   4
  -1  14   9 1314.53 50.2340   1
 -14   1   9 1326.63 54.6613   1
   1 -14   9 1372.85 50.7239   1
  -1  14   7 352.536 18.7421   3
  14   1  -7 404.813 23.6979   2
  14  -1   7 400.834 29.2418   2
   1 -14   7 413.621 25.2704   1
   1  14  -7 398.345 20.2343   4
 -14   1   7 344.745 27.1903   1
  -1  14   7 394.901 23.1261   1
  14  -1   5 904.835 42.4897   2
  -1  14   5 806.270 30.7519   3
   1 -14   5 913.357 38.9781   1
   1  14  -5 891.333 25.6627   3
  -1  14   5 799.457 33.6390   1
   1  14  -5 864.310 28.8741   2
   1  14  -5 848.314 32.4719   4
  14   1  -5 845.489 35.1119   1
  -1  14   3 385.970 17.2223   3
  14   1  -3 382.871 23.1208   1
  -1  14   3 375.025 19.2349   1
 -14   1   3 383.216 31.5865   2
  14  -1   3 426.404 26.4099   2
  14  -1   3 427.726 28.0820   1
   1 -14   3 424.092 25.4702   1
  14  -1   1 821.245 37.7717   1
  -1  14   1 829.046 27.8978   3
 -14   1   1 780.393 46.5239   2
  14   1  -1 827.718 37.1342   1
  14  -1   1 795.117 37.4807   2
  14   1  -1 784.318 37.6096   2
  14   1   1 789.143 39.2186   1
 -14   1  -1 758.586 48.8082   2
  14  -1  -1 870.605 36.3887   1
  14   1   1 780.386 39.2209   2
   1  14   1 864.120 33.4557   1
  14  -1  -1 794.216 36.7719   2
  -1  14  -1 883.769 27.6855   3
  -1  14  -3 412.919 18.4415   4
  14  -1  -3 363.046 21.3401   1
  14   1   3 395.805 27.1168   2
  -1 -14   3 436.001 27.8125   1
  14   1   3 456.105 29.8697   1
   1  14   3 396.841 21.9973   1
  -1  14  -3 381.456 14.0283   3
  14  -1  -3 429.057 24.2706   2
  14  -1  -5 690.692 33.7197   2
   1  14   5 853.861 35.8194   1
  14   1   5 792.184 41.9639   2
  -1  14  -5 838.674 29.3524   4
  -1 -14   5 836.274 39.1858   1
 -14  -1   7 327.376 29.6878   2
   1  14   7 374.016 18.8824   3
  -1 -14   7 353.930 26.0376   1
 -14  -1   7 361.958 28.9885   1
  -1  14  -7 410.826 18.7521   4
   1  14   7 427.452 26.3182   1
  14   1   7 332.521 30.1719   2
   1  14   9 1286.49 45.7676   3
  14   1   9 1329.34 63.0365   2
 -14  -1   9 1357.82 60.7657   2
  14  -1  -9 1380.06 45.6469   4
   1  14   9 1368.47 54.3273   1
  -1 -14   9 1281.29 52.7907   1
  -1  14  -9 1362.60 44.7666   4
 -14  -1   9 1344.44 57.1842   1
   1  14  11 348.989 19.8367   3
  14   1  11 346.808 32.7442   2
  14  -1 -11 337.633 18.5097   4
 -14  -1  11 311.706 28.4582   2
  -1  14 -11 333.204 17.9999   4
  -1 -14  11 309.812 24.9339   1
 -14  -1  11 360.627 28.3320   1
   1  14  13 158.715 15.0811   3
  14   1  13 189.138 29.7457   2
  -1 -14  13 179.495 21.2379   1
 -14  -1  13 182.293 25.5572   2
  14  -1 -13 164.810 13.8562   4
  -1  14 -13 214.249 15.5045   4
 -14  -1  13 198.653 24.3114   1
  14  -1 -13 213.739 16.8301   3
   1  14  15 367.403 23.0509   3
  14  -1 -15 361.528 20.3915   4
  14   1  15 393.853 40.6324   2
 -14  -1  15 432.251 33.3389   2
  -1 -14  15 374.134 28.5878   1
  -1  14 -15 378.205 21.0370   4
 -14  -1  15 368.070 29.9692   1
  14  -1 -15 400.815 23.2851   3
   1  14  17 228.998 18.9895   3
  14  -1 -17 199.496 17.7909   3
 -14  -1  17 184.909 24.7839   1
  14   1  17 267.355 40.8595   2
 -14  -1  17 191.811 26.2068   2
  14  -1 -17 168.835 15.2219   4
  -1  14 -17 202.178 16.3870   4
  -1 -14  17 220.942 23.4641   1
   1  14  19 147.698 17.6012   3
  14  -1 -19 164.717 17.2593   3
 -14  -1  19 149.595 25.4393   1
  14   1  19 117.479 42.8912   2
  -1 -14  19 141.231 22.9188   1
  -1  14 -19 127.249 15.3335   4
 -14  -1  19 105.324 23.3335   2
  14  -1 -19 127.554 13.8716   4
   1  14  19 140.636 15.1714   4
  14   1  21 168.133 56.2618   2
 -14  -1  21 153.064 26.2830   1
 -14  -1  21 162.790 27.7946   2
   1  14  21 145.968 16.6217   4
  14  -1 -21 168.653 16.0149   4
   1  14  23 54.4458 16.0081   4
  14  -2  22 148.431 32.7442   2
 -14   2  22 133.481 25.4098   1
  14   2 -22 87.4629 15.4575   4
  14  -2  20 133.108 30.7416   2
 -14   2  20 99.2750 22.2381   1
  -2  14  20 141.437 14.1430   4
  14   2 -20 135.236 15.9103   4
 -14   2  20 114.385 23.5911   2
   2  14 -20 124.529 15.7301   4
  14  -2  20 167.257 17.8778   4
  -2  14  18 23.3682 12.3880   3
 -14   2  18 9.19319 16.4160   1
  14  -2  18 22.3975 23.9040   2
  14   2 -18 17.2239 10.8842   4
  -2  14  18 27.0959 9.44379   4
   2  14 -18 9.90585 11.5779   4
 -14   2  18 60.2064 20.6515   2
  14  -2  18 35.6568 12.8332   4
 -14   2  16 266.890 24.6574   1
  14  -2  16 311.815 32.4720   2
   2 -14  16 252.022 22.8040   1
  14   2 -16 258.632 18.3770   4
   2  14 -16 270.801 18.6724   4
  -2  14  16 219.044 14.6256   4
 -14   2  16 232.693 26.4416   2
  14   2 -16 246.198 19.3485   3
  -2  14  16 250.914 19.7584   3
 -14   2  14 527.066 32.4990   1
  14  -2  14 456.783 36.4097   2
  14   2 -14 461.844 24.2590   4
   2 -14  14 499.158 29.0990   1
 -14   2  14 452.836 32.7876   2
   2  14 -14 537.605 25.3528   4
  -2  14  14 473.319 20.7735   4
  -2  14  14 547.639 26.8477   3
  -2  14  12 71.5298 11.6898   3
  14   2 -12 65.3013 11.5158   4
 -14   2  12 65.4541 17.9410   1
  14  -2  12 70.9578 21.5344   2
 -14   2  12 60.6584 16.8862   2
  14   2 -12 77.0913 12.4477   2
   2  14 -12 62.3360 10.5899   4
   2 -14  12 72.8991 15.2425   1
  14   2 -10 774.514 34.3575   2
  14  -2  10 748.211 42.4964   2
   2 -14  10 797.265 35.6958   1
  14   2 -10 763.970 32.5842   4
   2  14 -10 824.854 32.2786   4
 -14   2  10 833.584 40.5460   1
  -2  14  10 783.614 32.2383   3
  14   2  -8 952.163 39.0038   2
  14  -2   8 918.493 44.9371   2
   2  14  -8 913.556 34.8386   4
 -14   2   8 905.994 42.3247   1
  -2  14   8 889.516 37.2144   1
   2 -14   8 939.158 38.6728   1
  -2  14   8 843.651 33.7620   3
  14   2  -6 1013.70 42.5642   2
  -2  14   6 1088.13 38.7257   1
   2 -14   6 1055.96 42.1827   1
   2  14  -6 1037.13 38.7040   4
  14  -2   6 1112.31 47.7923   2
   2  14  -6 1063.60 33.0340   2
  -2  14   6 1075.16 37.4864   3
  -2  14   4 169.932 12.6139   1
   2 -14   4 221.683 18.9909   1
  14   2  -4 179.422 17.1081   1
   2  14  -4 180.779 14.8211   2
 -14   2   4 160.806 22.0830   2
  14  -2   4 189.003 20.8368   1
  14  -2   4 191.805 19.5459   2
  -2  14   4 193.345 12.6463   3
 -14   2   2 1179.90 55.0067   2
   2 -14   2 1065.41 43.1844   1
  14  -2   2 1107.05 45.3634   2
  14   2  -2 1121.75 45.2517   1
  14  -2   2 1019.35 44.4579   1
  -2  14   2 1088.90 35.8735   3
 -14   2   0 2282.06 91.6580   2
  14   2   0 2406.76 81.8698   1
  14  -2   0 2395.75 77.4201   1
  14  -2   0 2364.52 79.2074   2
   2  14   0 2294.33 74.9338   1
  -2  14   0 2473.08 69.2819   3
  14  -2  -2 1082.62 40.6465   1
 -14   2  -2 1223.43 61.0082   2
  14   2   2 1125.62 49.0982   2
  14   2   2 1147.51 49.1542   1
   2  14   2 1130.89 42.4995   1
  14  -2  -2 1153.94 43.9379   2
  -2  14  -2 1020.75 35.4240   4
  -2 -14   4 210.710 22.3127   1
  -2  14  -4 191.204 7.95095   2
  14  -2  -4 192.303 16.7261   2
 -14  -2   4 210.192 26.9420   2
  14   2   4 170.500 22.0060   2
  -2  14  -4 206.711 12.0641   4
   2  14   4 199.679 17.4346   1
  14  -2  -4 206.873 14.9975   1
  14   2   4 196.661 24.1311   1
  -2 -14   6 1036.82 46.2006   1
  14  -2  -6 1057.68 41.1232   2
 -14  -2   6 1029.05 52.9358   2
  14   2   6 993.967 50.5816   2
  -2  14  -6 978.066 34.0020   4
 -14  -2   6 984.945 48.1124   1
   2  14   6 1054.82 43.6275   1
  14   2   8 915.660 50.5519   2
  -2 -14   8 905.810 42.6847   1
 -14  -2   8 927.761 48.7012   2
  14  -2  -8 912.102 33.6172   4
 -14  -2   8 955.907 46.5841   1
  -2  14  -8 932.700 32.8679   4
   2  14   8 947.626 43.3828   1
  14   2  10 694.341 45.9777   2
 -14  -2  10 737.672 43.4112   2
  14  -2 -10 791.059 29.2628   4
  -2 -14  10 690.996 37.2775   1
  -2  14 -10 762.338 28.8796   4
 -14  -2  10 750.140 41.1262   1
   2  14  12 85.5022 12.2239   3
  14   2  12 53.8471 24.5977   2
 -14  -2  12 67.2291 19.1894   1
 -14  -2  12 91.4395 21.0091   2
  14  -2 -12 63.4137 9.83002   4
  -2 -14  12 114.690 18.1502   1
  -2  14 -12 104.432 11.6396   4
  14  -2 -12 59.9262 11.7373   3
   2  14  14 519.838 26.4800   3
 -14  -2  14 468.601 33.9626   1
  -2 -14  14 502.440 32.2908   1
  14   2  14 516.641 46.6772   2
 -14  -2  14 493.847 36.5441   2
  14  -2 -14 532.184 23.4378   4
  -2  14 -14 524.955 24.1871   4
  14  -2 -14 540.126 27.4739   3
   2  14  16 263.648 19.2976   3
 -14  -2  16 284.465 28.8806   2
  14  -2 -16 258.034 16.1306   4
  -2  14 -16 221.090 16.6506   4
  -2 -14  16 253.071 25.1512   1
 -14  -2  16 230.068 25.8454   1
  14  -2 -16 240.098 19.0896   3
  14  -2 -18 36.4165 11.7759   3
 -14  -2  18 19.9486 19.5694   1
   2  14  18 28.5334 12.0171   3
  14   2  18 19.8577 36.3841   2
  -2 -14  18 49.7747 19.8444   1
 -14  -2  18 41.0723 21.1873   2
  14  -2 -18 14.1123 9.33322   4
  14  -2 -20 128.344 16.5120   3
 -14  -2  20 132.178 26.2112   1
 -14  -2  20 140.416 26.5731   2
  14  -2 -20 153.436 14.6776   4
   2  14  20 118.179 15.4054   4
  -2 -14  20 120.693 23.4800   1
   2  14  22 126.028 16.5907   4
  14   3 -21 73.9062 14.7736   3
 -14   3  21 64.6722 20.9244   1
  14   3 -21 65.4954 15.0801   4
  14  -3  21 93.5377 17.0509   4
 -14   3  19 217.821 24.4536   1
  -3  14  19 229.438 15.8760   4
  14   3 -19 228.925 19.2858   4
  14  -3  19 256.370 19.9130   4
   3  14 -19 245.862 19.9978   4
 -14   3  19 215.394 26.8088   2
  -3  14  19 217.273 20.4748   3
  14   3 -17 203.065 17.7029   3
 -14   3  17 237.016 24.9269   1
  14   3 -17 210.213 18.2112   4
  -3  14  17 222.664 14.7337   4
  14  -3  17 219.793 17.6008   4
 -14   3  17 228.977 25.4984   2
  -3  14  17 215.285 19.7890   3
  -3  14  15 75.9648 13.6815   3
  14  -3  15 92.7501 22.7443   2
  14   3 -15 88.9333 13.7073   4
   3  14 -15 65.4917 12.7545   4
  -3  14  15 102.219 11.0102   4
 -14   3  15 102.746 20.0577   2
 -14   3  15 123.324 20.2525   1
  14   3 -15 90.5581 13.3730   3
  -3  14  13 47.0831 11.4551   3
 -14   3  13 69.7982 17.8935   1
  14  -3  13 56.8242 18.7281   2
   3 -14  13 53.8205 14.2663   1
  14   3 -13 57.4753 12.1813   2
  14   3 -13 67.9828 12.3529   4
 -14   3  13 64.1070 17.4385   2
   3  14 -13 64.8515 11.8180   4
  -3  14  13 56.4788 8.11095   4
   3 -14  11 861.773 38.2727   1
  14   3 -11 931.091 38.3008   2
  14  -3  11 978.435 47.3694   2
   3  14 -11 908.027 36.0731   4
 -14   3  11 951.058 42.8470   1
  14   3 -11 950.698 37.3471   4
  -3  14  11 880.190 36.3698   3
  14  -3   9 245.376 23.8785   2
  14   3  -9 229.224 18.5386   2
   3 -14   9 215.834 18.8141   1
   3  14  -9 245.159 16.9186   4
  -3  14   9 241.306 18.2361   1
 -14   3   9 267.691 24.0951   1
  -3  14   9 224.390 16.0214   3
  -3  14   7 198.692 14.3161   1
  14   3  -7 186.553 17.1999   2
   3 -14   7 160.541 16.4017   1
   3  14  -7 188.031 15.3638   4
 -14   3   7 183.024 22.1641   2
  14  -3   7 192.740 20.2482   2
  -3  14   7 213.084 14.2713   3
  -3  14   5 2508.05 72.0524   1
   3 -14   5 2513.81 78.4610   1
  14   3  -5 2350.99 78.7065   1
   3  14  -5 2454.89 73.8898   2
 -14   3   5 2392.37 88.5891   2
  14  -3   5 2349.98 82.0081   2
  14   3  -5 2350.27 80.7953   2
  -3  14   5 2459.08 73.9507   3
  14   3  -3 2030.93 69.9598   1
  -3  14   3 2089.42 61.8667   3
   3  14  -3 2014.87 69.0652   2
 -14   3   3 2106.13 79.4213   2
   3 -14   3 1955.31 67.1863   1
  14  -3   3 2070.22 71.2649   1
  14  -3   3 2064.95 70.6554   2
  14   3  -3 1908.22 70.7654   2
  14  -3   1 1211.69 45.3147   1
   3  14  -1 1166.35 43.4684   1
 -14   3   1 1137.96 55.4788   2
  14   3  -1 1136.59 48.0285   1
  14  -3   1 1141.69 45.6396   2
  14   3   1 1189.20 50.8852   1
   3  14   1 1167.34 44.6665   1
 -14   3  -1 1256.85 59.5220   2
  -3  14  -1 1178.42 36.7462   2
  -3  14  -1 1185.15 36.6752   4
  14  -3  -1 1156.44 42.7599   1
  14  -3  -1 1175.31 45.2249   2
  14  -3  -3 1986.45 61.8919   1
  -3  14  -3 1958.02 55.9148   2
  14  -3  -3 2078.36 66.9191   2
 -14   3  -3 1882.96 82.9388   2
 -14  -3   3 1870.27 83.0048   2
  14   3   3 1916.95 74.3424   2
   3  14   3 1875.58 66.9857   1
  -3  14  -3 1954.62 57.5866   4
  -3 -14   3 2087.08 74.5088   1
  14   3   3 1967.24 74.0664   1
   3  14   5 2441.43 81.6617   1
  14  -3  -5 2283.20 77.1023   2
 -14  -3   5 2377.59 93.4060   2
  14   3   5 2388.62 89.3124   2
  14   3   5 2396.34 87.7723   1
  -3  14  -5 2448.53 69.8733   4
  -3 -14   5 2340.35 84.3910   1
   3  14   7 204.254 21.7841   1
  14  -3  -7 221.794 16.8035   2
 -14  -3   7 192.720 25.4825   2
  14   3   7 241.805 27.9824   2
  -3 -14   7 216.058 22.6238   1
  14  -3  -7 202.308 13.3471   4
  -3  14  -7 228.719 12.8917   4
 -14  -3   7 220.900 25.6975   1
 -14  -3   9 208.673 24.2173   1
  14   3   9 213.646 28.5451   2
 -14  -3   9 202.025 24.8485   2
  14  -3  -9 200.415 13.2166   4
  -3  14  -9 215.786 13.5603   4
   3  14   9 225.885 24.1028   1
  -3 -14   9 233.456 23.8331   1
  14   3  11 925.196 57.0976   2
 -14  -3  11 853.538 48.4751   2
  14  -3 -11 937.684 32.6307   4
  -3 -14  11 920.214 44.1140   1
  -3  14 -11 895.150 33.0470   4
 -14  -3  11 931.325 46.9029   1
  14   3  13 57.6841 27.4859   2
 -14  -3  13 54.4763 19.3761   1
 -14  -3  13 47.1843 19.5231   2
  -3 -14  13 88.4992 18.1483   1
  14  -3 -13 48.9314 8.76904   4
  -3  14 -13 63.5226 10.0609   4
  14  -3 -15 83.1107 13.0975   3
  -3 -14  15 75.5312 19.8822   1
   3  14  15 90.2746 13.2919   3
  14   3  15 114.078 33.2802   2
 -14  -3  15 34.1090 20.4735   2
 -14  -3  15 108.177 23.7353   1
  14  -3 -15 82.7932 10.3691   4
  -3  14 -15 75.7137 11.3904   4
  14  -3 -17 218.717 18.4975   3
   3  14  17 236.974 18.9543   3
  14   3  17 234.030 41.6600   2
  -3 -14  17 198.773 24.4765   1
 -14  -3  17 161.397 26.5898   2
  14  -3 -17 208.576 14.6620   4
 -14  -3  17 226.139 27.6933   1
  14  -3 -19 226.179 20.0793   3
 -14  -3  19 234.412 29.6700   1
   3  14  19 222.954 20.1275   3
  14   3  19 284.517 53.6675   2
 -14  -3  19 221.264 29.4898   2
  14  -3 -19 214.008 15.7030   4
  -3 -14  19 212.159 26.5575   1
 -14  -3  21 81.6076 25.4185   1
 -14  -3  21 96.9317 25.3642   2
   3  14  21 96.1050 16.5887   4
  14   4 -20 56.6989 12.9138   3
  14  -4  20 48.8964 19.1601   2
 -14   4  20 48.6100 19.7686   1
  14  -4  20 46.7522 14.9964   4
   4  14 -20 44.3804 13.5537   4
 -14   4  18 25.2579 16.2162   1
  14  -4  18 43.1341 18.9128   2
  -4  14  18 56.1236 10.4224   4
  14   4 -18 42.1920 12.4748   4
  14  -4  18 37.8263 11.8855   4
 -14   4  18 24.6264 18.2248   2
  -4  14  18 50.6463 13.9260   3
  14  -4  16 67.6589 19.5418   2
  14   4 -16 97.1412 14.1813   4
   4  14 -16 71.9952 14.2943   4
  -4  14  16 103.724 11.0419   4
 -14   4  16 106.416 20.1980   2
  14  -4  16 73.2666 13.1700   4
  -4  14  16 97.5961 15.7189   3
 -14   4  16 79.7068 18.5929   1
  14   4 -16 81.9634 13.8550   3
 -14   4  14 218.506 23.9648   2
  14  -4  14 172.584 23.0350   2
  -4  14  14 248.581 13.6235   4
  14   4 -14 230.733 18.2724   4
 -14   4  14 233.261 22.8229   1
   4  14 -14 222.153 17.6420   4
  -4  14  14 232.404 18.5876   3
 -14   4  12 221.517 22.3166   1
  14   4 -12 209.903 17.3339   2
  14   4 -12 205.588 17.4805   4
  14  -4  12 198.290 22.9421   2
   4  14 -12 220.433 17.0768   4
  -4  14  12 211.533 11.8825   4
   4 -14  12 197.838 18.0656   1
  -4  14  12 203.759 17.1003   3
 -14   4  10 192.041 20.6686   1
   4  14 -10 146.914 15.1189   4
  14   4 -10 170.779 16.6430   2
  14  -4  10 167.990 21.2893   2
  -4  14  10 156.110 9.30190   4
  -4  14  10 183.712 15.9740   1
   4 -14  10 156.000 16.6827   1
  -4  14  10 160.891 14.7584   3
   4  14  -8 710.718 24.0916   2
  -4  14   8 722.136 28.0803   1
  14   4  -8 682.109 32.9690   2
   4 -14   8 706.240 31.3855   1
  14  -4   8 712.032 36.2492   2
 -14   4   8 730.342 39.4337   2
   4  14  -8 721.312 31.0344   4
  -4  14   8 744.922 30.1129   3
   4 -14   6 298.077 19.3897   1
  14   4  -6 288.088 20.8667   1
   4  14  -6 295.852 15.9846   2
 -14   4   6 305.435 26.3632   2
  14  -4   6 289.073 21.9282   2
  -4  14   6 298.346 16.9104   3
  14   4  -6 325.968 22.0182   2
  -4  14   6 292.087 14.0538   1
   4 -14   4 129.041 14.8384   1
   4  14  -4 134.185 15.2940   2
 -14   4   4 116.245 20.0135   2
  14  -4   4 149.566 17.2177   2
  14   4  -4 126.807 16.1963   2
  14   4  -4 115.997 16.6154   1
   4  14  -2 839.869 40.3521   2
 -14   4   2 778.976 43.8003   2
  -4  14   2 874.491 30.3434   2
  -4  14   2 850.572 26.0714   4
  14   4  -2 841.984 39.9517   2
   4  14  -2 846.261 35.4192   1
  14   4  -2 774.361 38.5031   1
  14  -4   2 844.472 36.4423   1
  14  -4   2 848.772 36.6982   2
 -14   4   0 2711.47 100.481   2
  14   4   0 2850.65 94.2314   1
  -4  14   0 2770.52 80.4015   2
   4  14   0 2781.34 88.3348   1
  14  -4   0 2636.51 84.9286   1
  -4  14   0 2842.56 77.3992   4
  14  -4   0 2801.95 88.0907   2
  -4  14  -2 831.777 27.2048   2
  14  -4  -2 804.060 34.7104   2
 -14  -4   2 765.203 52.8345   2
 -14   4  -2 819.730 48.5683   2
  14  -4  -2 748.981 30.5657   1
  -4  14  -2 845.671 26.3677   4
   4  14   2 852.130 37.3397   1
  14   4   2 768.790 41.1805   1
  -4  14  -4 98.6365 6.70480   2
 -14  -4   4 116.670 25.6156   2
  14  -4  -4 99.0072 12.7276   2
  14   4   4 105.007 20.9690   2
   4  14   4 127.853 18.5235   1
  -4  14  -4 133.402 8.84627   4
  -4 -14   4 117.375 21.9637   1
  14   4   4 103.744 21.0545   1
   4  14   6 272.299 24.3897   1
  -4 -14   6 262.638 25.5507   1
  14  -4  -6 256.763 18.1499   2
 -14  -4   6 248.647 30.0220   2
  14   4   6 250.891 28.4683   2
  14  -4  -6 294.609 14.9954   4
  14   4   6 314.538 29.7152   1
 -14  -4   6 284.359 28.9542   1
  -4  14  -6 299.100 13.9662   4
  -4 -14   8 745.348 39.7867   1
  14   4   8 708.960 45.6737   2
 -14  -4   8 660.959 42.7213   2
  14  -4  -8 643.486 30.7466   2
  14  -4  -8 713.494 25.6307   4
 -14  -4   8 671.730 40.5613   1
  -4  14  -8 691.011 25.7768   4
   4  14   8 756.726 39.8178   1
 -14  -4  10 155.117 24.0196   1
  14   4  10 148.644 27.5555   2
 -14  -4  10 197.383 26.6001   2
  14  -4 -10 168.746 11.5527   4
   4  14  10 123.017 22.7899   1
  -4  14 -10 178.924 12.8237   4
  -4 -14  10 164.971 22.4032   1
  -4 -14  12 141.336 21.1336   1
  14   4  12 198.397 33.0321   2
 -14  -4  12 202.716 25.6842   1
 -14  -4  12 212.929 27.5263   2
  14  -4 -12 196.141 12.7026   4
  -4  14 -12 213.066 13.8670   4
  -4 -14  14 206.920 24.4986   1
  14   4  14 254.883 37.4142   2
 -14  -4  14 228.763 27.6245   2
 -14  -4  14 281.292 28.4307   1
  14  -4 -14 256.543 15.1211   4
  14  -4 -16 98.8388 13.8010   3
 -14  -4  16 73.1766 22.4953   2
 -14  -4  16 107.037 23.0694   1
  14  -4 -16 79.3625 10.4718   4
  -4 -14  16 65.0746 21.1157   1
 -14  -4  18 47.5825 21.9343   1
  14  -4 -18 47.6976 13.5683   3
   4  14  18 52.2779 13.9929   3
  -4 -14  18 36.3045 20.0872   1
 -14  -4  18 23.8000 21.1739   2
  14  -4 -18 36.1403 8.78556   4
 -14  -4  20 67.3171 25.1194   1
  -4 -14  20 60.2082 22.3740   1
 -14  -4  20 49.7462 23.9062   2
   4  14  22 255.749 22.2561   4
  14  -5  21 47.0581 14.7702   4
  14   5 -19 5.07173 11.6354   3
 -14   5  19 22.2870 18.5808   1
  14  -5  19 6.56528 16.9344   2
  14   5 -19 35.4268 14.2569   4
  14  -5  19 36.1683 13.4948   4
 -14   5  19 38.9061 19.4307   2
 -14   5  17 299.773 26.4360   1
  14   5 -17 306.751 21.8371   4
  -5  14  17 341.596 18.0127   4
   5  14 -17 369.666 23.1432   4
  14  -5  17 325.584 21.2927   4
 -14   5  17 324.781 28.9571   2
  14   5 -17 320.128 21.7482   3
 -14   5  15 667.772 35.0352   1
  14  -5  15 606.538 37.0708   2
   5  14 -15 616.197 30.5360   4
  -5  14  15 663.437 24.9551   4
  14  -5  15 632.887 28.2672   4
  14   5 -13 161.799 16.3805   2
 -14   5  13 174.566 21.4059   1
  -5  14  13 176.369 11.2198   4
  14   5 -13 182.394 17.0635   4
   5  14 -13 178.917 16.7148   4
  14  -5  13 153.355 13.6598   4
 -14   5  11 279.154 23.6120   1
  14   5 -11 253.481 19.3535   2
  14   5 -11 288.139 20.3715   4
   5  14 -11 256.843 18.6850   4
  -5  14  11 245.632 17.5743   1
  -5  14  11 259.965 12.0501   4
 -14   5  11 237.723 24.7281   2
   5 -14  11 280.221 19.9603   1
  14  -5  11 285.454 23.9951   2
  14   5  -9 227.558 18.8993   2
   5  14  -9 212.791 11.9632   2
  14  -5   9 202.794 21.0909   2
   5  14  -9 229.021 18.0075   4
 -14   5   9 267.497 24.7323   2
   5 -14   9 213.571 17.9316   1
 -14   5   9 227.345 21.2363   1
  -5  14   9 256.271 10.3396   4
  -5  14   9 251.628 14.5471   1
 -14   5   7 1320.03 57.8791   2
  14  -5   7 1465.92 53.7495   2
   5  14  -7 1372.64 44.7750   2
  -5  14   7 1380.03 38.9257   4
  14   5  -7 1345.93 52.1880   2
   5 -14   7 1377.52 48.2669   1
  14   5  -5 945.676 39.2514   1
   5 -14   5 888.697 34.1077   1
   5  14  -5 920.009 35.3711   2
  -5  14   5 937.311 33.2250   2
 -14   5   5 978.921 45.8228   2
  14  -5   5 864.386 37.3176   2
  14   5  -5 930.535 39.9490   2
  -5  14   5 798.943 23.8807   4
  14   5  -3 424.215 26.6149   1
   5  14  -3 415.524 26.2104   2
  -5  14   3 399.732 18.9567   2
 -14   5   3 389.378 30.6763   2
   5  14  -3 389.133 23.2809   1
  14  -5   3 410.108 24.8338   1
   5 -14   3 395.317 20.8378   1
  14   5  -3 415.609 26.8739   2
  14  -5   3 374.650 23.1333   2
  14  -5   1 242.154 17.5399   1
  -5  14   1 259.943 14.2969   2
   5  14  -1 294.408 26.4578   2
 -14   5   1 252.027 25.9684   2
  14   5  -1 283.304 23.1470   1
  14   5  -1 292.924 24.1917   2
   5  14  -1 247.876 20.1433   1
  14  -5   1 292.384 19.3365   2
  -5  14  -1 234.047 12.6286   2
  14  -5  -1 256.753 15.4261   1
  14  -5  -1 250.072 17.6205   2
 -14   5  -1 171.630 24.7042   2
  14   5   1 243.474 24.2619   1
  -5  14  -1 254.362 9.89128   4
   5  14   1 257.909 21.2244   1
  14  -5  -3 411.619 22.4873   2
 -14   5  -3 390.811 35.2083   2
   5  14   3 376.943 25.8888   1
  -5 -14   3 420.025 31.6639   1
  -5  14  -3 398.416 16.6007   2
  -5  14  -3 435.609 15.3916   4
  14   5   3 363.677 29.4966   1
   5  14   5 919.599 44.3199   1
 -14  -5   5 978.568 56.4536   2
  14  -5  -5 914.798 37.6457   2
  14  -5  -5 954.802 31.6342   4
  14   5   5 984.682 49.8107   1
  -5 -14   5 995.334 48.4984   1
  -5  14  -5 952.584 30.5373   4
 -14  -5   7 1335.20 66.0916   2
  14   5   7 1373.69 67.2914   2
  14  -5  -7 1450.33 50.3112   2
  14  -5  -7 1411.16 42.6840   4
 -14  -5   7 1339.71 61.7160   1
   5  14   7 1407.10 58.6116   1
  -5  14  -7 1324.09 42.7644   4
  -5 -14   7 1438.34 60.5337   1
 -14  -5   9 225.489 27.6913   1
  14   5   9 259.129 33.9133   2
 -14  -5   9 259.384 31.3602   2
  14  -5  -9 258.728 12.8639   4
  -5 -14   9 216.617 25.2980   1
   5  14   9 224.066 26.3916   1
  -5  14  -9 229.977 13.7742   4
 -14  -5  11 231.617 27.6972   1
  14   5  11 275.037 36.1928   2
 -14  -5  11 313.074 32.2747   2
  14  -5 -11 259.644 13.7042   4
  -5 -14  11 304.030 27.5806   1
  14  -5 -11 257.680 18.8602   3
  -5 -14  13 192.201 24.1007   1
  14   5  13 134.195 34.3191   2
 -14  -5  13 173.789 25.6553   1
  14  -5 -13 177.826 12.0260   4
 -14  -5  13 154.376 26.5413   2
  14   5  15 721.381 57.0381   2
 -14  -5  15 612.301 41.5442   1
 -14  -5  15 735.879 45.0154   2
  -5 -14  15 651.682 40.1041   1
  14  -5 -15 650.448 25.6455   4
  14  -5 -17 315.847 22.3804   3
 -14  -5  17 321.570 33.7426   2
  -5 -14  17 352.286 31.5544   1
 -14  -5  17 278.985 31.3992   1
 -14  -5  19 23.4624 24.2968   1
  14  -5 -19 32.3550 14.2363   3
   5  14  19 43.8623 14.2839   3
 -14  -5  19 20.4128 21.6991   2
  -5 -14  19 39.4715 23.1225   1
 -14  -5  21 40.3430 24.4930   2
  14   6 -22 52.3241 13.1495   3
  14   6 -20 164.887 17.3588   3
  14  -6  20 176.529 18.5181   4
  -6  14  18 458.544 30.6755   2
 -14   6  18 570.008 32.8911   1
   6  14 -18 525.627 29.0716   4
  14  -6  18 505.690 27.1442   4
 -14   6  18 462.259 36.4020   2
  -6  14  16 162.722 18.9372   2
  -6  14  16 140.445 12.0496   4
  14   6 -16 151.016 16.6476   4
 -14   6  16 133.689 19.5110   1
  14  -6  16 162.269 15.5442   4
  14   6 -16 139.077 15.3053   3
 -14   6  14 489.311 29.1513   1
  14   6 -14 379.963 23.7296   2
  14  -6  14 431.319 28.8914   2
  -6  14  14 423.846 18.0395   4
   6  14 -14 369.790 23.9142   4
  14   6 -14 386.746 24.4736   4
  14  -6  14 413.333 21.4346   4
  14  -6  12 1261.52 49.0959   2
  14   6 -12 1098.36 43.6738   2
  -6  14  12 1112.84 44.7863   2
  14   6 -12 1175.89 45.1373   4
   6  14 -12 1072.83 43.7324   4
  -6  14  12 1110.65 34.5966   4
 -14   6  12 1151.09 52.1599   2
 -14   6  12 1209.14 47.3539   1
  14  -6  12 1060.77 39.1839   4
   6  14 -12 1097.76 34.7378   3
   6  14 -10 1155.45 44.8606   4
  14   6 -10 1163.63 45.7052   2
   6  14 -10 1183.24 37.3119   2
  -6  14  10 1131.14 44.2141   2
  -6  14  10 1122.97 33.9136   4
 -14   6  10 1219.23 46.8048   1
  14  -6  10 1193.77 47.7171   2
 -14   6  10 1135.24 52.2292   2
   6 -14  10 1221.55 43.4540   1
  14  -6  10 1168.58 39.3769   4
  14   6  -8 859.443 35.9589   2
  -6  14   8 843.415 32.5801   2
   6  14  -8 847.170 34.2900   4
 -14   6   8 815.356 40.5161   2
   6 -14   8 862.708 32.0115   1
  14  -6   8 807.452 35.2489   2
   6  14  -8 756.175 28.0200   2
  14   6  -6 951.680 41.2358   1
  -6  14   6 934.447 36.1640   2
 -14   6   6 944.252 46.2661   2
   6  14  -6 908.590 36.1110   2
   6 -14   6 932.429 35.8487   1
  14  -6   6 978.912 39.8653   2
  14   6  -6 941.212 41.3482   2
  -6  14   4 1825.15 58.2449   2
   6  14  -4 1775.24 63.3392   2
  14   6  -4 1814.75 66.6443   2
  14   6  -4 1832.31 66.2377   1
 -14   6   4 1747.08 70.4226   2
  14  -6   4 1802.08 61.7418   2
   6 -14   4 1863.96 57.9866   1
   6  14  -2 1215.33 47.0430   1
  14  -6   2 1152.85 43.9451   2
  -6  14   2 1244.47 40.9543   2
   6  14  -2 1092.58 49.5827   2
 -14   6   2 1288.65 55.5873   2
  14   6  -2 1163.50 50.6969   2
  14   6  -2 1155.57 49.8873   1
  14  -6   2 1180.05 43.0190   1
   6  14   0 47.1543 14.5469   1
  -6  14   0 54.0172 8.77262   2
   6  14   0 37.7622 19.7791   2
  14  -6   0 55.0275 12.0931   2
  14  -6   0 58.9081 10.0849   1
 -14   6   0 32.3765 19.1635   2
  14   6   0 38.6785 15.1803   2
  14   6   0 45.3288 16.9090   1
  14   6   2 1126.35 52.7238   1
 -14   6  -2 1200.68 58.0946   2
  14  -6  -2 1125.61 43.2775   2
  14   6   2 1201.12 55.3745   2
   6  14   2 1181.62 49.2145   1
  -6  14  -2 1214.90 38.9718   2
  14  -6  -4 1798.83 52.1752   4
   6  14   4 1827.86 67.5807   1
 -14   6  -4 1656.13 75.8419   2
  14  -6  -4 1817.79 60.3267   2
  -6  14  -4 1722.23 54.0675   2
  -6 -14   4 1846.11 73.1105   1
  14   6   4 1839.57 72.4900   1
 -14  -6   6 952.075 56.8881   2
  14  -6  -6 942.085 29.9873   4
  -6 -14   6 1055.33 51.4099   1
  14   6   6 918.313 50.3459   1
   6  14   6 991.342 47.1321   1
 -14  -6   6 944.999 51.1599   1
 -14  -6   8 793.882 52.0267   2
  14   6   8 863.221 54.7682   2
 -14  -6   8 937.212 49.6012   1
  14  -6  -8 890.415 28.1560   4
   6  14   8 831.789 46.0428   1
  14  -6  -8 876.872 36.0051   3
  -6 -14   8 754.099 44.4935   1
  -6 -14  10 1335.16 58.5453   1
  14   6  10 1196.35 67.2291   2
 -14  -6  10 1195.02 61.8090   2
   6  14  10 1256.40 58.3046   1
  14  -6 -10 1165.44 37.1804   4
 -14  -6  10 1181.98 58.0102   1
  14  -6 -10 1222.78 45.5504   3
  14   6  12 1020.53 64.5604   2
 -14  -6  12 1143.85 59.8275   2
  -6 -14  12 1111.80 54.3917   1
  14  -6 -12 1199.67 36.9938   4
  14  -6 -12 1142.18 44.4887   3
 -14  -6  12 1000.16 54.8815   1
  14  -6 -14 317.698 22.6251   3
  -6 -14  14 363.629 32.1973   1
  14   6  14 353.918 43.4371   2
 -14  -6  14 463.752 37.8510   2
 -14  -6  14 382.530 34.3715   1
  14  -6 -14 420.355 18.2388   4
  -6 -14  16 179.218 25.9727   1
 -14  -6  16 164.370 27.9247   2
 -14  -6  16 135.053 25.9568   1
 -14  -6  18 565.419 42.5955   1
 -14  -6  18 593.169 43.8193   2
  -6 -14  18 499.403 39.0972   1
 -14  -6  20 184.051 29.9439   2
 -14  -6  22 32.4152 24.8053   2
  14  -7  19 140.995 16.8825   4
 -14   7  17 563.013 32.1724   1
  -7  14  17 504.886 31.9609   2
  14  -7  17 575.372 31.9783   2
  14   7 -17 606.044 31.0603   4
   7  14 -17 543.569 29.9410   4
  14  -7  17 587.550 28.0749   4
  14   7 -17 554.348 28.6187   3
 -14   7  15 592.224 31.9009   1
  -7  14  15 507.300 21.2104   4
   7  14 -15 526.222 29.0115   4
  -7  14  15 542.200 30.8063   2
 -14   7  15 559.249 36.2052   2
  14   7 -15 568.822 29.5997   4
  14  -7  15 526.345 30.5753   2
  14  -7  15 533.463 25.2912   4
  14   7 -13 988.212 40.2100   2
  -7  14  13 949.970 42.0769   2
  -7  14  13 976.449 31.1471   4
  14   7 -13 933.545 40.9896   4
   7  14 -13 975.987 40.9332   4
  14  -7  13 978.349 42.4979   2
 -14   7  13 1035.46 49.0719   2
  14  -7  13 948.296 36.3751   4
 -14   7  13 1121.71 43.5852   1
   7  14 -13 973.002 32.2204   3
  14   7 -11 689.702 32.7262   2
   7  14 -11 741.900 26.3305   2
  -7  14  11 702.793 33.3510   2
  14   7 -11 709.052 33.8443   4
   7  14 -11 659.176 32.4587   4
 -14   7  11 751.525 34.5729   1
  14  -7  11 698.656 34.0006   2
 -14   7  11 771.633 40.6732   2
  14  -7  11 675.405 27.5294   4
   7  14  -9 447.552 20.9464   2
  14   7  -9 430.322 25.7870   2
  -7  14   9 458.747 25.0305   2
   7  14  -9 507.135 26.8270   4
   7 -14   9 497.944 23.5496   1
 -14   7   9 432.352 30.9961   2
  14  -7   9 524.970 27.1413   2
  14  -7   9 480.886 20.5416   4
  -7  14   7 2713.93 82.0262   2
   7 -14   7 2473.39 78.1354   1
 -14   7   7 2519.60 90.5282   2
   7  14  -7 2730.78 80.6039   2
  14  -7   7 2487.73 82.4450   2
  14  -7   7 2617.25 75.3653   4
  14   7  -7 2569.68 85.7328   2
 -14   7   5 1745.51 70.4332   2
  14   7  -5 1936.29 67.9124   1
  -7  14   5 1913.12 61.5941   2
   7 -14   5 1940.54 58.8007   1
   7  14  -5 1901.47 64.4212   2
  14   7  -5 1799.89 66.9870   2
  14  -7   5 1787.29 62.2743   2
  14  -7   3 77.0173 12.8317   1
  14   7  -3 95.5458 16.9763   1
  14  -7   3 70.8500 11.7066   2
  -7  14   3 70.7249 10.1948   2
   7  14  -3 82.2624 16.6721   2
 -14   7   3 70.7129 17.9876   2
  14   7  -3 90.6515 16.7380   2
   7 -14   3 65.5962 8.56830   1
   7  14  -3 86.5565 14.6493   1
  14  -7   1 3176.60 94.8657   2
   7  14  -1 2883.73 104.443   2
 -14   7   1 3083.10 106.213   2
   7  14  -1 3126.64 99.8780   1
  14  -7   1 3101.16 89.9123   1
  14   7  -1 3062.28 104.495   2
  14   7  -1 3216.46 103.944   1
  -7  14   1 3071.59 91.8646   2
   7  14   1 3061.29 111.580   2
  14   7   1 3223.78 106.157   1
  14  -7  -1 3071.14 94.7783   2
 -14   7  -1 3088.88 109.229   2
  14  -7  -1 3161.81 87.4262   1
  14   7   1 3071.21 107.757   2
   7  14   1 3155.87 101.870   1
  -7  14  -1 3032.58 91.6298   2
  14   7   3 81.5762 20.2928   1
 -14   7  -3 105.453 23.8952   2
  14   7   3 100.995 21.4019   2
  14  -7  -3 62.6907 11.3098   2
  14  -7  -3 72.5733 5.77863   4
  -7  14  -3 85.9763 10.2670   2
   7  14   3 64.4861 16.4316   1
   7  14   5 1804.67 70.8996   1
  -7  14  -5 1829.88 56.9016   2
  14  -7  -5 1784.09 50.9516   4
  -7 -14   5 1962.28 76.5045   1
  14   7   5 1864.24 75.6970   1
 -14  -7   7 2541.26 96.2887   1
 -14  -7   7 2646.38 104.462   2
  14   7   7 2612.46 97.5034   1
   7  14   7 2566.50 92.5157   1
  14  -7  -7 2483.94 69.8866   4
  -7 -14   7 2648.15 95.0245   1
  14  -7  -7 2480.33 79.5724   3
 -14  -7   9 482.065 41.9954   2
 -14  -7   9 494.424 37.7603   1
  14  -7  -9 450.071 16.6689   4
   7  14   9 434.491 35.0669   1
  14  -7  -9 505.836 25.2898   3
  -7 -14   9 507.296 36.8538   1
  -7 -14  11 766.767 44.5456   1
  14   7  11 672.755 52.2870   2
 -14  -7  11 746.529 49.2266   2
   7  14  11 711.582 45.8198   1
 -14  -7  11 755.654 45.5017   1
  14  -7 -11 687.085 31.9667   3
  14   7  13 799.091 60.2726   2
 -14  -7  13 891.974 54.2655   2
  -7 -14  13 897.390 50.1328   1
  -7 -14  15 438.535 36.1055   1
 -14  -7  15 582.709 41.0580   1
 -14  -7  15 524.130 41.2350   2
 -14  -7  17 527.387 41.8114   1
 -14  -7  17 610.028 45.7608   2
  -7 -14  17 599.739 42.0468   1
 -14  -7  19 135.072 30.1557   2
 -14  -7  21 40.5359 24.3504   2
  14  -8  20 285.977 21.5403   4
  14   8 -18 77.3510 13.5922   3
  -8  14  18 82.2112 18.2120   2
  14   8 -18 56.8091 14.6432   4
  14  -8  18 60.5114 13.0942   4
 -14   8  16 375.322 26.3959   1
  -8  14  16 365.277 26.3155   2
  14   8 -16 336.979 24.0201   4
   8  14 -16 382.950 24.4965   4
  14  -8  16 395.722 24.7236   2
  14  -8  16 338.743 21.0538   4
 -14   8  16 329.568 29.7574   2
  -8  14  14 545.851 31.5413   2
  14   8 -14 555.388 27.8867   2
  14   8 -14 538.531 29.6566   4
   8  14 -14 568.358 30.0131   4
  14  -8  14 533.869 28.8240   2
  14  -8  14 542.956 25.2115   4
 -14   8  14 547.184 35.3004   2
 -14   8  14 591.185 30.9288   1
   8  14 -14 526.249 21.5314   3
  -8  14  12 187.152 8.20611   1
   8  14 -12 227.006 13.3259   2
  14   8 -12 211.963 17.8311   2
  -8  14  12 197.102 18.9245   2
  14   8 -12 237.439 20.3411   4
   8  14 -12 238.768 19.4687   4
 -14   8  12 286.253 20.9381   1
  14  -8  12 256.030 15.6245   4
  14  -8  12 256.337 19.3552   2
 -14   8  12 243.513 24.1644   2
  14   8 -10 1374.15 51.0978   2
   8  14 -10 1368.51 45.0286   2
  -8  14  10 1295.70 50.3213   2
   8  14 -10 1407.58 51.6853   4
 -14   8  10 1271.34 56.9283   2
  14  -8  10 1298.02 44.1054   4
  14  -8  10 1362.38 49.4616   2
   8 -14   8 1751.66 57.6757   1
  -8  14   8 1876.67 63.1480   2
 -14   8   8 1817.02 70.0789   2
  14  -8   8 1839.63 55.6153   4
   8  14  -8 1872.69 59.7456   2
  14  -8   8 1789.81 61.2257   2
  14   8  -8 1787.02 64.2748   2
  14  -8   6 5.85994 10.0810   2
  -8  14   6 19.5956 11.2636   2
   8 -14   6 20.8430 9.42359   1
 -14   8   6 24.4666 16.0832   2
  14   8  -6 16.3549 13.6276   1
   8  14  -6 26.2425 12.3626   2
  14  -8   6 28.1823 6.99666   4
  14   8  -6 34.5517 13.7405   2
  -8  14   4 2852.63 89.8014   2
  14  -8   4 2884.92 90.1282   2
   8  14  -4 2887.88 95.0042   1
   8  14  -4 2884.12 95.8097   2
 -14   8   4 2965.88 100.952   2
  14  -8   4 2919.79 90.3669   1
  14   8  -4 2990.30 98.4865   2
  14   8  -4 3213.51 99.6104   1
  14  -8   4 2996.08 82.7132   4
   8 -14   4 2936.23 84.6272   1
  14  -8   2 2928.38 84.7099   1
  14  -8   2 2943.48 89.0658   2
   8  14  -2 2874.94 98.4148   2
 -14   8   2 2747.16 99.5942   2
  14   8  -2 2841.10 98.7422   2
   8  14  -2 2870.45 95.0079   1
  14   8  -2 3013.34 98.6896   1
  -8  14   2 2890.47 88.4239   2
  14   8   0 273.450 25.0920   1
  14  -8   0 257.709 11.2261   1
  14  -8   0 254.130 17.2159   2
   8  14   0 259.121 27.9877   2
 -14   8   0 227.920 25.5999   2
  14   8   0 233.719 24.8313   2
  -8  14   0 263.268 16.6151   2
   8  14   0 267.571 23.0715   1
  -8  14  -2 2893.87 87.0959   2
  14   8   2 2828.99 100.166   1
   8  14   2 2757.60 106.781   2
 -14   8  -2 2853.88 102.809   2
  14   8   2 2717.56 102.813   2
  14  -8  -2 2887.76 88.1235   2
   8  14   2 2920.25 97.0931   1
   8  14   4 2919.99 102.394   1
 -14   8  -4 2850.13 108.801   2
  -8  14  -4 3056.92 91.0630   2
  14   8   4 3119.94 112.549   2
  14   8   4 3026.81 106.436   1
  14   8   6 4.14363 19.8112   1
   8  14   6 15.4864 18.7610   1
  14   8   6 40.9115 24.3361   2
  -8 -14   6 28.3675 22.9976   1
  14  -8  -6 20.5782 10.2623   3
 -14  -8   8 1789.06 83.6614   2
 -14  -8   8 1675.17 75.1961   1
  14   8   8 1813.23 77.7110   1
   8  14   8 1766.50 73.3911   1
  -8 -14   8 1575.26 72.3328   1
  14  -8  -8 1795.17 59.9594   3
 -14  -8  10 1277.89 69.1900   2
   8  14  10 1304.29 63.3623   1
 -14  -8  10 1254.22 63.1903   1
  14  -8 -10 1269.13 47.9805   3
  -8 -14  10 1471.20 64.5871   1
  -8 -14  12 223.878 29.2044   1
  14  -8 -12 216.498 17.7644   3
 -14  -8  12 288.206 32.3307   1
  14   8  12 230.279 36.7391   2
 -14  -8  12 203.002 32.1151   2
 -14  -8  14 613.529 43.3901   1
  14  -8 -14 552.858 28.5458   3
  -8 -14  14 574.421 40.4276   1
 -14  -8  14 490.156 43.5164   2
  14  -8 -16 328.406 22.5331   3
 -14  -8  16 268.826 34.6780   2
 -14  -8  16 273.248 33.2848   1
 -14  -8  18 73.1300 27.1042   2
 -14  -8  20 278.684 36.4593   2
  14  -9  19 297.222 21.6882   4
  14   9 -19 299.103 20.4070   3
  14  -9  17 238.630 17.7084   4
  -9  14  17 258.401 24.9214   2
  14   9 -17 202.197 20.1646   4
   9  14 -17 207.858 20.4066   4
  -9  14  15 86.4605 16.9678   2
  14   9 -15 87.4905 15.9863   4
   9  14 -15 60.0815 14.6765   4
  14  -9  15 66.0602 11.9078   4
 -14   9  15 53.6358 17.2719   2
   9  14 -15 77.1029 9.78784   3
  -9  14  13 356.821 25.1236   2
  14   9 -13 371.839 22.3809   2
  14   9 -13 352.971 24.3974   4
   9  14 -13 349.811 23.8732   4
 -14   9  13 391.523 22.9057   1
  14  -9  13 345.161 19.1181   4
 -14   9  13 349.050 28.8255   2
  14   9 -11 416.469 24.9225   2
  -9  14  11 426.145 26.3737   2
   9  14 -11 422.880 20.7440   2
  14   9 -11 468.808 27.4328   4
   9  14 -11 409.791 25.7081   4
  14  -9  11 437.073 20.3643   4
 -14   9  11 396.259 29.5715   2
  14  -9  11 407.126 22.9056   2
   9  14  -9 68.8565 11.6716   2
  14  -9   9 69.3483 11.8347   2
  14   9  -9 79.3924 14.3700   2
  -9  14   9 70.7257 13.7965   2
  14  -9   9 74.5538 9.53363   4
 -14   9   9 56.2627 17.4289   2
  14  -9   7 1214.16 43.6550   2
  -9  14   7 1185.81 46.0600   2
   9 -14   7 1143.58 40.0250   1
 -14   9   7 1143.84 52.0098   2
  14  -9   7 1253.08 38.6348   4
   9  14  -7 1176.86 45.1660   2
  14   9  -7 1204.90 48.5457   2
  -9  14   5 2084.77 67.6794   2
  14  -9   5 2121.98 65.8035   2
  14   9  -5 1920.97 72.0685   1
   9 -14   5 1970.96 59.9686   1
   9  14  -5 2059.71 70.6518   2
 -14   9   5 2112.46 75.8830   2
  14   9  -5 2076.05 73.1907   2
  14  -9   5 1967.95 58.5339   4
   9  14  -3 910.436 41.5471   1
  14  -9   3 893.519 35.0852   2
  14   9  -3 936.214 44.2341   2
  14   9  -3 863.685 42.4081   1
   9  14  -3 893.260 42.9463   2
 -14   9   3 942.170 44.9493   2
  14  -9   3 879.052 27.5800   4
  -9  14   3 946.283 37.0812   2
  14  -9   3 886.783 31.9203   1
   9  14  -1 2095.51 74.8905   1
   9  14  -1 2125.89 79.6285   2
  14  -9   1 2106.24 66.8715   2
 -14   9   1 2054.15 78.1536   2
  14   9  -1 2089.63 79.4517   2
  14  -9   1 2068.06 56.9158   4
  -9  14   1 2017.76 67.6475   2
  14   9  -1 2241.13 78.3177   1
   9  14   1 2150.74 85.1148   2
 -14   9  -1 2117.82 81.2040   2
  14   9   1 2046.49 79.0055   1
  14   9   1 2145.60 83.0198   2
  14  -9  -1 2171.26 68.2842   2
  -9  14  -1 2098.95 68.6998   2
   9  14   1 2092.65 77.0439   1
  14   9   3 976.121 49.8592   1
   9  14   3 881.326 55.1196   2
 -14   9  -3 1047.91 52.7559   2
   9  14   3 971.741 46.8617   1
  14   9   3 978.474 52.8245   2
  -9  14  -3 939.430 38.8785   2
   9  14   5 2087.15 79.5170   1
  -9  14  -5 2051.32 68.5275   2
  14   9   5 2160.62 89.1175   2
  -9 -14   5 2022.95 83.3555   1
  14   9   5 2006.62 81.7677   1
  14  -9  -5 1988.26 66.0883   3
  14   9   7 1237.94 65.7360   2
 -14  -9   7 1199.67 59.9568   1
  -9 -14   7 1310.86 61.5820   1
   9  14   7 1124.64 55.6073   1
  14  -9  -7 1116.67 42.6376   3
  14  -9  -9 84.3399 13.0156   3
  -9 -14   9 80.7405 24.4521   1
 -14  -9   9 104.812 25.8592   1
   9  14   9 56.8224 21.9740   1
  14  -9 -11 419.807 24.2393   3
 -14  -9  11 451.345 38.2984   1
 -14  -9  11 484.950 44.8859   2
   9  14  11 457.029 39.2643   1
  -9 -14  11 518.698 39.4091   1
  14  -9 -13 371.962 22.9180   3
  14   9  13 296.548 38.4660   2
 -14  -9  13 418.173 37.0003   1
 -14  -9  13 341.330 39.0772   2
  -9 -14  13 304.139 33.9660   1
  14  -9 -15 57.2339 12.5432   3
 -14  -9  15 64.4641 27.3175   2
 -14  -9  15 60.8372 26.0052   1
  -9 -14  15 56.7542 23.1835   1
  14  -9 -17 229.615 19.8836   3
 -14  -9  17 210.192 34.2061   2
 -14  -9  17 222.972 33.1424   1
 -14  -9  19 291.095 37.9282   2
  14 -10  20 92.0849 16.1877   4
  14  10 -18 80.1465 13.6124   3
  14 -10  18 68.2077 13.8153   4
 -14  10  16 134.740 22.8929   2
  10  14 -16 121.795 17.0101   4
 -10  14  16 153.122 20.4808   2
  14 -10  16 128.937 14.3073   4
  14 -10  14 144.275 13.8421   2
 -10  14  14 105.619 18.4231   2
  14  10 -14 127.598 15.1261   2
  14  10 -14 127.629 16.9587   4
  10  14 -14 130.995 16.5120   4
  14 -10  14 120.080 13.0506   4
 -14  10  14 122.853 20.9992   2
  14 -10  12 40.3339 10.6858   2
 -10  14  12 57.9625 14.9534   2
  14  10 -12 43.6104 11.6881   2
  10  14 -12 39.4885 13.3730   4
  14 -10  12 51.3801 10.2498   4
 -14  10  12 57.9813 18.3498   2
  14  10 -12 59.6560 14.3842   4
  10  14 -10 304.783 19.0771   2
  14 -10  10 319.368 18.9401   2
 -10  14  10 322.705 23.9540   2
  10  14 -10 287.534 22.5850   4
  14 -10  10 332.412 16.9845   4
 -14  10  10 340.787 26.9321   2
 -10  14   8 312.751 22.2179   2
  14 -10   8 366.037 19.4904   2
  14 -10   8 281.376 15.0177   4
  10 -14   8 322.150 16.9091   1
 -14  10   8 283.075 25.3799   2
  14  10  -8 291.049 22.0095   2
  14  10  -6 875.553 40.7035   1
 -14  10   6 804.582 41.1009   2
  14 -10   6 793.641 27.2835   4
  10  14  -6 808.321 36.8813   2
  14  10  -6 833.862 39.0563   2
 -10  14   6 829.003 36.4747   2
  10 -14   6 782.249 27.9250   1
  10 -14   4 396.507 17.4013   3
  14 -10   4 447.605 20.4009   1
  14 -10   4 454.554 22.4277   2
  10  14  -4 494.162 29.9307   2
 -14  10   4 453.416 30.8549   2
  14 -10   4 482.103 16.4530   4
  14  10  -4 489.693 30.1017   2
  10  14  -4 441.919 28.5078   1
  14  10  -4 462.518 30.4961   1
 -10  14   4 501.370 26.3426   2
  14  10  -2 693.847 37.0491   1
  10  14  -2 728.415 37.9868   2
  14 -10   2 739.705 28.0632   2
 -14  10   2 700.713 38.2243   2
  14  10  -2 694.143 37.8023   2
  10  14  -2 703.122 35.7248   1
 -10  14   2 674.830 30.3841   2
  10  14   0 983.293 50.7623   2
 -14  10   0 938.750 47.1456   2
  14  10   0 956.351 48.8638   2
 -10  14   0 969.013 39.3476   2
  14  10   0 890.584 45.7743   1
  10  14   0 972.940 45.3260   1
  10 -14  -2 658.015 25.9061   3
  10  14   2 715.839 45.7338   2
 -14  10  -2 689.153 41.2862   2
  14  10   2 610.123 38.4063   1
 -10  14  -2 706.757 32.0884   2
  10  14   2 586.833 36.5935   1
  14 -10  -2 634.333 28.1459   3
  10  14   4 445.787 32.5496   1
 -10  14  -4 443.718 26.9837   2
  10  14   4 402.767 40.6344   2
 -14  10  -4 443.037 36.5447   2
  14  10   4 376.680 36.8413   2
  14 -10  -4 470.135 23.3455   3
  14  10   6 844.774 54.2296   2
 -10 -14   6 850.747 50.6251   1
  10  14   6 772.267 45.7722   1
  10  14   8 262.939 30.0743   1
  14  10   8 276.005 36.8972   2
 -14 -10   8 285.500 32.6390   1
 -10 -14   8 287.241 32.7928   1
  14 -10  -8 312.025 19.6623   3
  14 -10 -10 357.210 21.7384   3
 -10 -14  10 346.145 34.8869   1
  14  10  10 317.363 39.1556   2
  10  14  10 330.012 34.4887   1
 -14 -10  10 398.660 36.8261   1
  14 -10 -12 32.4383 11.9109   3
 -14 -10  12 22.1704 23.0281   1
 -14 -10  12 77.7945 31.3420   2
 -10 -14  12 49.5956 24.3734   1
  10  14  12 49.1212 25.1471   1
  14 -10 -14 135.481 15.9137   3
 -14 -10  14 92.6003 27.9509   1
 -14 -10  14 127.318 34.2444   2
 -10 -14  14 137.611 28.5468   1
  14 -10 -16 122.487 16.3006   3
 -14 -10  16 139.608 34.6488   2
 -14 -10  16 91.1699 28.3547   1
 -10 -14  16 103.896 29.0327   1
 -14 -10  18 84.1592 33.4456   2
  14 -11  17 32.2312 11.6390   4
  14  11 -17 14.7221 10.6244   3
 -11  14  15 88.7104 19.3710   2
  14  11 -15 101.047 17.1578   4
  11  14 -15 103.279 17.0946   4
  14 -11  15 93.1090 13.7258   4
 -14  11  15 88.1590 20.9236   2
 -11  14  13 80.3411 17.4910   2
  14  11 -13 109.509 15.3422   2
  11  14 -13 91.2877 12.5430   2
  14  11 -13 125.498 17.9677   4
  11  14 -13 134.649 18.0691   4
  14 -11  13 129.803 13.8450   4
 -14  11  13 91.4294 20.6978   2
 -11  14  11 133.554 19.0188   2
  14  11 -11 119.551 15.4606   2
  11  14 -11 134.219 17.7860   4
  11  14 -11 143.838 14.2894   2
  14 -11  11 142.795 12.9997   2
  14  11 -11 167.649 18.6529   4
  14 -11  11 160.330 13.2104   4
 -14  11  11 125.595 20.7244   2
  14 -11   9 323.266 18.1518   2
  14 -11   9 373.533 17.6787   4
 -14  11   9 295.741 25.9695   2
  11  14  -9 343.927 21.3416   2
 -11  14   9 326.896 24.1475   2
  14  11  -9 353.902 23.2536   2
 -11  14   7 170.641 18.1534   2
  11 -14   7 164.377 9.17312   3
  14 -11   7 183.985 11.5131   4
 -14  11   7 156.818 21.4904   2
  11 -14   7 170.862 11.5660   1
  11 -14   5 371.779 15.3424   3
  11 -14   5 294.940 12.3715   1
  14  11  -5 379.435 27.3566   1
 -11  14   5 373.911 24.1971   2
  14 -11   5 361.197 19.2302   2
  14 -11   5 364.266 13.7984   4
  14 -11   5 319.791 17.4973   1
 -14  11   5 341.376 26.9742   2
  11  14  -5 331.475 24.6984   2
  14  11  -5 369.307 26.6739   2
  11  14  -3 25.5519 14.3066   1
  11 -14   3 29.7010 7.09787   3
  11  14  -3 15.1292 15.4929   2
 -14  11   3 37.0925 15.3811   2
  14  11  -3 30.0167 15.7219   2
 -11  14   3 11.1755 11.9846   2
  14  11  -3 29.2989 15.2173   1
  14  11  -1 116.847 20.4879   2
  11 -14   1 97.1909 9.67199   3
  11  14  -1 86.1184 18.1304   1
  11  14  -1 102.745 21.2016   2
 -14  11   1 78.5488 18.9924   2
 -11  14   1 96.4717 15.0323   2
  11 -14  -1 122.457 11.0051   3
  14  11   1 104.226 21.8703   2
  11  14   1 116.468 19.9212   1
  11  14   1 126.551 25.3349   2
 -14  11  -1 116.795 22.0308   2
 -11  14  -1 133.218 17.1379   2
  14 -11  -1 116.135 12.2941   3
  14 -11  -3 16.1741 8.85454   3
  11 -14  -3 11.8627 7.75006   3
  11  14   3 7.36650 21.7017   2
 -14  11  -3 22.6796 20.6025   2
 -11  14  -3 12.2568 14.3553   2
  14  11   3 37.5324 22.3247   2
  11  14   3 27.7158 17.2273   1
  11 -14  -5 331.636 18.7037   3
 -11  14  -5 321.118 27.2676   2
  11  14   5 343.317 38.4349   2
  14  11   5 367.276 38.0966   2
  11  14   5 356.088 31.4534   1
  14 -11  -5 368.797 20.6220   3
  14 -11  -7 166.220 15.3939   3
  11  14   7 105.592 23.9047   1
  14  11   7 189.561 31.9239   2
 -11 -14   7 135.799 29.8381   1
  14 -11  -9 276.270 19.1700   3
  11  14   9 320.770 34.6244   1
  14  11   9 237.775 35.5511   2
 -14 -11   9 322.508 35.4161   1
 -11 -14   9 219.784 31.8506   1
 -14 -11  11 144.083 29.7001   1
 -11 -14  11 110.619 27.0657   1
  14 -11 -11 143.916 15.5385   3
  14  11  11 117.889 30.5358   2
  14  11  11 165.191 30.1593   1
  11  14  11 140.861 29.5917   1
 -14 -11  13 105.070 30.0502   1
  14 -11 -13 114.091 15.7211   3
 -11 -14  13 139.223 30.3160   1
  11  14  13 96.4549 28.8632   1
  14 -11 -15 63.5206 14.4102   3
 -14 -11  15 100.231 36.7817   2
 -14 -11  15 66.8814 27.5393   1
 -11 -14  15 81.2504 27.6103   1
 -14 -11  17 6.98980 33.4077   2
 -12  14  14 346.642 29.0165   2
  14  12 -14 324.396 21.2383   2
  14 -12  14 349.787 21.5233   4
  14  12 -14 294.560 24.9198   4
 -14  12  14 292.509 28.8718   2
  14  12 -12 318.259 22.2875   2
  12  14 -12 370.705 21.4919   2
  14  12 -12 354.654 26.1208   4
  12  14 -12 346.037 25.1985   4
  14 -12  12 345.318 20.1451   4
 -14  12  12 333.542 29.4018   2
 -12  14  12 348.718 27.7797   2
  12  14 -10 1086.82 42.4249   2
  14  12 -10 994.855 43.4659   2
  14 -12  10 1136.05 38.5645   4
 -14  12  10 1027.45 49.9411   2
 -12  14  10 1058.28 48.0544   2
 -12  14   8 153.281 19.2962   2
  12 -14   8 128.316 8.48018   3
  14 -12   8 155.824 11.6395   4
 -14  12   8 146.263 20.2983   2
  12 -14   6 63.4393 7.53211   3
  12 -14   6 56.7385 6.41557   1
 -14  12   6 60.9896 16.2866   2
  12  14  -6 60.4639 14.9683   2
  14  12  -6 76.6153 17.0956   2
 -12  14   6 71.9097 15.1653   2
  12 -14   4 691.594 25.4728   3
  12  14  -4 654.985 36.5449   2
 -14  12   4 621.129 37.0792   2
  12  14  -4 767.109 38.1619   1
  14  12  -4 648.168 36.8957   2
 -12  14   4 691.781 35.3420   2
  12 -14   2 213.439 13.0451   3
 -14  12   2 186.843 22.9949   2
  12  14  -2 199.577 23.5423   2
  14  12  -2 214.420 24.6036   2
 -12  14   2 209.804 20.2480   2
  14 -12   2 213.551 14.8218   3
  12  14  -2 171.870 20.9132   1
  14 -12   0 5.25784 8.21558   3
  12 -14   0 2.46321 7.07783   3
  12  14   0 1.95615 16.8196   2
 -14  12   0 6.55940 16.0973   2
 -12  14   0-2.56873 13.0878   2
  12  14   0 16.4082 15.3241   1
  12 -14  -2 212.436 14.3818   3
  12  14   2 192.250 23.8102   1
 -14  12  -2 219.987 26.0236   2
  12  14   2 191.158 28.0177   2
 -12  14  -2 225.623 22.5646   2
  14  12   2 232.931 29.2676   2
  14 -12  -2 218.118 16.0555   3
  12 -14  -4 691.589 29.7108   3
 -14  12  -4 759.237 45.6115   2
 -12  14  -4 752.873 40.3488   2
  12  14   4 798.253 52.3175   2
  12  14   4 743.358 43.2893   1
  14  12   4 702.369 49.0071   2
  14 -12  -4 713.863 31.0647   3
  14 -12  -6 73.2022 11.5606   3
  12  14   6 123.958 30.0042   2
  14  12   6 94.5045 23.2526   1
  12  14   6 56.2708 22.0568   1
  14  12   8 133.317 27.3005   1
  14 -12  -8 140.354 14.6717   3
  12  14   8 108.728 25.7113   1
  12  14   8 168.037 34.1398   2
  14  12   8 138.105 33.1775   2
 -12 -14   8 154.903 30.4428   1
  14 -12 -10 1076.59 42.3381   3
  14  12  10 939.886 62.9835   2
  14  12  10 943.810 58.7782   1
 -12 -14  10 1041.78 60.7690   1
  12  14  10 1171.71 62.2817   1
 -14 -12  12 327.967 38.6137   1
 -12 -14  12 317.512 37.0028   1
  14  12  12 354.143 40.9899   2
  14  12  12 291.705 36.2725   1
  12  14  12 310.585 37.1005   1
  14 -12 -14 277.849 21.8197   3
  12  14  14 288.657 37.7070   1
 -13  14  13 276.694 27.0489   2
  13  14 -13 290.576 19.9564   2
 -14  13  13 274.052 28.5593   2
  14  13 -11 451.940 26.4490   2
  13  14 -11 486.609 26.0656   2
 -14  13  11 412.098 31.9202   2
 -13  14  11 505.807 33.0335   2
 -14  13   9 862.383 44.3497   2
 -13  14   9 819.188 43.4064   2
  14 -13   9 925.977 31.9300   3
  13  14  -9 922.539 39.4974   2
 -14  13   7 655.396 37.7686   2
 -13  14   7 728.385 37.1199   2
  13  14  -7 691.296 34.6317   2
  14  13  -7 687.881 35.1090   2
  14 -13   7 691.345 26.4098   3
  13 -14   7 610.562 22.6455   1
  13 -14   5 642.728 24.7900   3
 -14  13   5 561.568 34.6961   2
  13  14  -5 657.517 35.7089   2
 -13  14   5 633.063 35.2150   2
  14 -13   5 696.111 26.9025   3
  13 -14   3 291.120 15.8566   3
 -13  14   3 316.455 25.0857   2
 -14  13   3 292.601 26.3507   2
  13  14  -3 298.325 26.1488   2
  14  13  -3 294.822 26.2289   2
  14 -13   3 281.750 16.5812   3
  13  14  -3 297.698 26.1003   1
  13 -14   1 393.769 19.4245   3
  13  14  -1 381.654 29.7282   1
  13  14  -1 412.490 32.1434   2
 -14  13   1 435.488 30.5411   2
 -13  14   1 428.604 29.6250   2
  14 -13   1 401.684 20.3409   3
  13 -14  -1 400.449 20.2077   3
 -14  13  -1 447.283 32.2742   2
  14  13   1 367.673 30.4378   1
 -13  14  -1 375.866 28.7208   2
  13  14   1 387.745 34.0030   2
  13  14   1 356.724 30.2451   1
  14  13   1 412.647 34.6627   2
  14 -13  -1 435.132 21.3173   3
  14 -13  -3 337.213 19.0454   3
  13 -14  -3 298.125 17.8910   3
 -14  13  -3 293.448 30.0914   2
 -13  14  -3 337.490 29.2348   2
  13  14   3 301.057 34.6641   2
  14  13   3 260.966 28.1889   1
  13  14   3 292.150 28.9541   1
  14 -13  -5 593.506 27.8829   3
  13 -14  -5 628.663 27.7686   3
  14  13   5 575.977 41.3803   1
  13  14   5 646.126 41.8480   1
  14  13   5 590.282 47.4742   2
  13  14   7 601.057 43.7044   1
  14 -13  -7 680.378 30.5729   3
  14  13   7 717.907 52.4452   2
  13  14   7 592.100 50.9950   2
  14  13   7 632.738 43.7995   1
  14 -13  -9 775.072 35.2232   3
  13 -14  -9 873.269 36.1442   3
  14  13   9 845.508 60.1261   2
 -13 -14   9 975.906 57.7467   1
  14  13   9 920.712 55.8847   1
  13  14   9 886.547 54.2964   1
  13  14  11 537.698 45.5293   1
  14 -13 -11 444.639 25.9183   3
 -13 -14  11 448.364 44.0338   1
  14  13  11 548.663 45.0642   1
  14  13  13 185.251 34.6369   2
  14  13  13 287.749 38.9327   1
  13  14  13 277.138 37.7624   1
  14  14 -12 63.8912 12.6292   2
 -14  14  12 77.5419 20.6457   2
 -14  14  10 738.105 41.7691   2
 -14  14   8 334.683 28.0720   2
  14  14  -8 327.402 24.2698   2
  14 -14   6 8.70098 7.50150   3
 -14  14   6-9.41636 15.6039   2
  14  14  -6 9.70275 13.1293   2
  14  14  -4 656.504 37.9522   1
 -14  14   4 684.002 38.0117   2
  14  14  -4 615.799 36.9037   2
  14 -14   4 726.507 27.5605   3
  14  14  -2 317.852 27.9061   1
  14  14  -2 359.685 30.0171   2
 -14  14   2 307.238 27.2454   2
  14 -14   0 546.051 24.1363   3
  14  14   0 505.621 34.2831   1
 -14  14   0 474.040 33.5169   2
  14  14   0 458.619 36.6486   2
  14 -14  -2 330.601 18.9186   3
  14  14   2 330.548 30.0908   1
 -14  14  -2 335.054 29.8839   2
  14  14   2 318.068 33.5079   2
  14 -14  -4 659.985 29.1883   3
 -14  14  -4 637.141 42.1888   2
  14  14   4 689.423 42.9883   1
  14 -14  -6 3.55844 8.54229   3
  14  14   6-8.79146 24.7685   2
  14  14   6-4.47033 20.7748   1
  14 -14  -8 297.682 20.2491   3
  14  14   8 301.629 34.3083   1
  14  14   8 294.353 39.9059   2
  14 -14 -10 655.003 31.7715   3
  14  14  10 739.282 56.7534   2
  14  14  10 693.349 50.5481   1
   0  15  -1 639.749 22.1638   3
   0  15   1 639.696 23.3375   3
  15   0   1 596.805 33.0850   1
 -15   0  -1 628.275 47.1558   2
 -15   0   1 556.907 43.2698   2
  15   0   1 616.170 33.5054   2
  15   0  -1 641.305 31.7217   1
  15   0  -1 607.411 32.2221   2
   0  15   1 623.771 26.3149   1
   0  15   3 2871.94 80.5464   3
   0  15   3 2651.45 83.4467   1
  15   0  -3 2767.72 86.5191   1
   0  15  -3 2751.51 81.7763   4
  15   0   3 2657.99 92.7183   2
   0 -15   3 2719.86 91.3052   1
  15   0   3 2668.52 92.9223   1
  15   0  -3 2689.66 89.3464   2
   0  15  -3 2713.76 76.2029   3
   0  15   5 11.2175 10.5538   1
   0  15   5 6.59262 6.32753   3
   0 -15   5 16.4393 15.2047   1
   0  15  -5-1.24183 8.18460   4
  15   0   5 17.4055 14.4951   2
  15   0  -5 26.7426 11.1187   1
  15   0   5 6.24494 16.3497   1
   0  15   7 543.835 28.2437   1
   0  15   7 490.876 22.9896   3
   0 -15   7 543.429 31.0912   1
  15   0   7 527.062 34.6624   2
   0  15  -7 515.742 22.9322   4
   0  15   9 3750.45 110.283   3
  15   0  -9 3864.01 115.020   2
  15   0   9 3636.11 126.215   2
 -15   0   9 3691.36 127.553   2
  15   0  -9 3803.85 110.697   4
   0 -15   9 3669.72 117.655   1
   0  15  -9 3732.07 108.943   4
 -15   0   9 3882.91 123.686   1
   0  15   9 3511.00 116.004   1
   0  15  11 226.806 16.5073   3
 -15   0  11 242.153 26.1039   1
  15   0  11 216.231 27.8526   2
  15   0 -11 229.220 18.5947   2
  15   0 -11 222.162 16.4547   4
   0 -15  11 238.003 23.2843   1
 -15   0  11 226.230 27.4243   2
   0  15 -11 239.778 16.2698   4
   0  15  11 218.197 22.3285   1
 -15   0  13 578.739 37.3145   1
   0  15  13 633.049 29.1821   3
   0 -15  13 563.305 33.5535   1
  15   0  13 685.120 45.0819   2
 -15   0  13 662.296 41.3665   2
  15   0 -13 587.253 27.0277   4
   0  15 -13 629.204 27.2667   4
   0  15  15 1220.04 47.1441   3
 -15   0  15 1208.39 55.5340   1
  15   0  15 1268.49 65.8694   2
   0 -15  15 1213.68 53.0067   1
 -15   0  15 1128.21 58.2303   2
  15   0 -15 1169.83 43.5765   4
   0  15 -15 1289.25 45.5904   4
  15   0 -15 1193.85 47.2225   3
  15   0 -17 129.001 15.9259   3
   0  15  17 108.755 15.4182   3
   0 -15  17 128.360 21.5290   1
 -15   0  17 104.548 23.6201   2
  15   0 -17 114.513 13.7842   4
 -15   0  17 157.409 23.4823   1
   0  15 -17 119.421 14.4844   4
   0  15  17 107.749 12.7184   4
   0 -15  19 30.0091 19.4340   1
   0  15  19 40.2741 13.4902   3
  15   0 -19 53.4826 13.3689   3
  15   0  19 13.5518 31.3590   2
 -15   0  19 57.6426 23.6791   2
  15   0 -19 31.6162 11.2660   4
   0  15  19 44.7972 10.9250   4
   0  15 -19 55.4312 13.9306   4
 -15   0  19 73.8663 23.8302   1
 -15   0  21 469.432 38.5801   1
   0  15  21 429.236 25.3719   4
  15   0 -21 514.353 26.2439   4
 -15   1  22 93.4901 25.2339   1
  15  -1  22 132.148 37.1909   2
  15   1 -22 83.6828 14.7736   4
 -15   1  20 221.169 28.4192   1
  15   1 -20 243.118 20.9888   3
  15  -1  20 184.914 37.9943   2
   1 -15  20 240.686 27.0068   1
  -1  15  20 230.837 17.9074   4
  15  -1  20 287.276 22.6374   4
  15  -1  18 367.272 39.6002   2
   1 -15  18 293.738 27.3700   1
  15   1 -18 358.674 21.2362   4
 -15   1  18 339.694 32.4266   2
   1  15 -18 336.172 21.4948   4
  -1  15  18 310.110 18.5469   4
 -15   1  18 308.198 29.1987   1
  -1  15  18 316.638 22.9763   3
  15   1 -18 321.752 22.5843   3
  -1  15  16 225.804 19.0478   3
  15  -1  16 262.813 32.9469   2
  15   1 -16 262.254 17.9950   4
 -15   1  16 262.486 26.5029   1
 -15   1  16 246.628 28.6835   2
  -1  15  16 268.015 15.9865   4
   1 -15  16 238.270 24.1787   1
  15   1 -16 242.355 19.8408   3
  -1  15  14 342.094 21.8821   3
  15  -1  14 374.870 34.4123   2
 -15   1  14 366.973 29.7493   1
  15   1 -14 376.216 21.5290   4
 -15   1  14 388.505 32.7668   2
   1  15 -14 361.175 21.1650   4
   1 -15  14 300.616 25.8182   1
  -1  15  12 1577.86 55.2165   3
   1 -15  12 1617.76 60.9419   1
  15  -1  12 1590.12 69.9772   2
  15   1 -12 1583.97 57.6036   2
 -15   1  12 1622.77 68.9908   2
  15   1 -12 1616.42 54.8369   4
   1  15 -12 1593.33 53.9931   4
 -15   1  12 1553.43 64.2366   1
  -1  15  10 1361.49 49.4777   3
  15   1 -10 1468.86 53.5508   2
  15   1 -10 1407.59 50.1467   4
  15  -1  10 1501.74 64.5621   2
 -15   1  10 1471.30 64.7072   2
   1  15 -10 1519.65 49.7040   4
  -1  15  10 1375.81 54.6597   1
 -15   1  10 1416.00 60.1186   1
   1 -15  10 1464.25 55.9378   1
  -1  15   8 1022.79 37.4495   3
  15   1  -8 997.020 41.8089   2
  15  -1   8 983.987 49.3577   2
   1 -15   8 1031.52 43.8443   1
   1  15  -8 1039.45 37.5367   4
 -15   1   8 966.169 47.2828   1
  -1  15   8 1002.15 41.2006   1
  -1  15   6 1219.73 39.0465   3
   1 -15   6 1246.36 47.4373   1
  15  -1   6 1313.19 52.8684   2
  -1  15   6 1301.50 42.5792   1
   1  15  -6 1333.64 40.8785   4
  -1  15   4 2023.06 62.4055   3
   1  15  -4 2062.36 57.7829   3
  -1  15   4 2058.22 64.7240   1
   1  15  -4 2026.16 64.3519   2
 -15   1   4 1813.75 80.6804   2
   1  15  -4 1978.51 64.4631   4
  15  -1   4 2140.63 75.3433   2
  15  -1   4 1962.74 74.4134   1
   1 -15   4 2260.16 73.3057   1
  15   1  -4 2089.72 68.8587   1
  -1  15   2 769.201 28.2047   3
   1  15  -2 786.794 26.0821   3
 -15   1   2 831.072 48.7243   2
  -1  15   2 846.269 30.6270   1
  15  -1   2 769.251 38.3733   2
  15   1  -2 773.794 36.0336   1
  15  -1   2 798.290 38.7199   1
   1  15   0 1522.39 47.2881   3
 -15  -1   0 1457.85 74.4193   2
 -15   1   0 1525.70 73.0317   2
   1  15   0 1634.28 52.6153   1
  15   1   0 1603.74 59.3131   1
  15  -1   0 1610.23 57.4629   1
  15   1   0 1484.84 59.2535   2
  15  -1   0 1563.14 58.5151   2
  -1  15   0 1551.25 47.4183   3
   1  15   2 752.649 28.0990   3
   1  15   2 812.795 33.1411   1
  -1  15  -2 802.811 29.4459   4
  15   1   2 790.380 40.2645   2
  15   1   2 784.524 39.7272   1
  15  -1  -2 824.370 37.0390   2
  -1  15  -2 800.977 25.9434   3
  15  -1  -2 800.807 34.5550   1
  15  -1  -4 1966.75 67.1843   2
   1  15   4 1936.98 59.3727   3
  15  -1  -4 1981.27 63.2517   1
  -1  15  -4 1843.53 53.5439   2
  15   1   4 1919.24 73.3908   2
  -1  15  -4 2011.82 59.5626   4
  -1 -15   4 1997.41 71.9401   1
  15   1   4 2041.16 74.5536   1
   1  15   4 1932.39 64.4878   1
   1  15   6 1311.75 49.9951   1
   1  15   6 1258.80 43.4524   3
 -15  -1   6 1230.67 61.5132   2
  15   1   6 1221.39 56.9337   2
  -1  15  -6 1341.80 43.2002   4
  -1 -15   6 1356.23 54.2688   1
   1  15   8 1013.25 36.8098   3
  -1 -15   8 1057.54 45.8219   1
 -15  -1   8 1053.70 52.9430   2
  15   1   8 941.536 50.9476   2
  15  -1  -8 977.794 36.9073   4
 -15  -1   8 984.694 48.6802   1
  -1  15  -8 978.886 35.1584   4
   1  15   8 867.184 42.1526   1
   1  15  10 1455.56 48.9346   3
  15   1  10 1327.23 64.5316   2
 -15  -1  10 1333.30 63.9001   2
  15  -1 -10 1188.93 50.1301   2
  15  -1 -10 1430.58 47.4356   4
  -1 -15  10 1329.15 55.7494   1
   1  15  10 1338.12 56.0108   1
  -1  15 -10 1462.29 46.7433   4
 -15  -1  10 1372.32 60.3060   1
   1  15  12 1605.69 54.9561   3
  15   1  12 1572.38 73.7558   2
 -15  -1  12 1524.45 69.1703   2
  15  -1 -12 1593.59 52.6140   4
  -1  15 -12 1546.61 52.3474   4
  -1 -15  12 1605.65 62.2903   1
 -15  -1  12 1582.85 65.9505   1
   1  15  14 369.597 22.8739   3
  -1 -15  14 335.552 27.6150   1
  15   1  14 389.895 39.3656   2
 -15  -1  14 375.656 33.3758   2
 -15  -1  14 372.652 31.6201   1
  15  -1 -14 400.708 20.7548   4
  15  -1 -14 366.463 23.0888   3
   1  15  16 250.441 20.0190   3
  15   1  16 248.660 36.5866   2
  -1 -15  16 241.179 25.5843   1
 -15  -1  16 241.056 29.1592   2
 -15  -1  16 244.733 27.2346   1
  15  -1 -16 266.431 17.3265   4
  -1  15 -16 220.938 17.0709   4
  15  -1 -18 321.502 22.3001   3
   1  15  18 341.865 23.5005   3
 -15  -1  18 271.586 31.3653   2
  -1 -15  18 320.681 28.5586   1
  15  -1 -18 304.119 19.1604   4
  -1  15 -18 302.818 20.8219   4
 -15  -1  18 303.203 31.4098   1
   1  15  18 391.755 21.1074   4
 -15  -1  20 296.838 32.6685   1
  -1 -15  20 159.918 27.0574   1
 -15  -1  20 219.438 32.0641   2
  15  -1 -20 246.547 18.0809   4
   1  15  20 215.431 18.1729   4
  15   1  22 125.114 49.4732   2
   1  15  22 116.968 16.8796   4
 -15   2  21 73.5252 23.6417   1
  15   2 -21 66.6130 14.2483   4
  -2  15  19 28.0137 14.1761   3
  15   2 -19 41.5538 13.7246   3
  15  -2  19 73.8247 24.4775   2
   2 -15  19 9.36663 18.0983   1
  15   2 -19 55.2166 13.1061   4
 -15   2  19 62.4292 23.9029   2
  -2  15  19 65.9321 11.3194   4
   2  15 -19 39.7469 13.4888   4
  15  -2  19 59.6562 14.7400   4
 -15   2  19 54.5215 20.2273   1
  15   2 -17 209.893 19.1558   3
  15  -2  17 274.909 32.2956   2
  15   2 -17 258.039 19.4177   4
   2  15 -17 238.821 18.9990   4
 -15   2  17 261.436 28.2027   2
  -2  15  17 253.597 15.9801   4
   2 -15  17 263.246 24.4211   1
 -15   2  17 218.299 24.9418   1
  -2  15  17 264.920 20.7090   3
   2 -15  15 308.481 25.5079   1
 -15   2  15 373.225 28.8703   1
   2  15 -15 305.460 20.0569   4
 -15   2  15 360.988 31.1592   2
  -2  15  15 286.394 16.4621   4
  15   2 -15 351.922 22.1072   3
  -2  15  15 306.691 21.4940   3
  -2  15  13 193.097 17.3909   3
   2 -15  13 222.332 21.5198   1
 -15   2  13 243.705 25.8314   1
  15  -2  13 251.913 28.2069   2
  15   2 -13 203.583 16.4090   4
   2  15 -13 226.106 16.8450   4
 -15   2  13 210.138 25.5905   2
  -2  15  11 78.1724 12.4063   3
 -15   2  11 72.4303 19.4445   1
   2 -15  11 99.8652 16.9177   1
  15   2 -11 104.148 13.8793   2
  15  -2  11 99.2811 21.3382   2
  15   2 -11 95.7421 13.5191   4
   2  15 -11 95.0206 12.6564   4
 -15   2  11 89.5930 21.2066   2
  -2  15  11 105.220 15.8304   1
  15   2  -9 537.393 27.8154   2
  15  -2   9 500.200 34.6440   2
   2  15  -9 490.912 24.3016   4
 -15   2   9 491.374 32.9386   1
   2 -15   9 502.166 28.6639   1
  -2  15   9 513.523 26.7945   1
  -2  15   9 475.953 23.5603   3
   2  15  -7 248.749 8.84337   3
  15   2  -7 302.328 21.2656   2
  -2  15   7 301.655 19.0080   1
   2 -15   7 313.028 22.7393   1
   2  15  -7 316.951 18.5990   4
  15  -2   7 288.988 25.6110   2
  -2  15   7 299.442 16.8296   3
 -15   2   5 259.303 27.3177   2
  15   2  -5 273.254 20.1693   1
  15  -2   5 329.622 24.6048   2
   2  15  -5 302.963 18.3112   4
   2 -15   5 275.069 21.8682   1
  -2  15   5 312.246 16.9352   1
  15   2  -5 283.043 21.4805   2
  -2  15   5 301.810 16.2732   3
  -2  15   3 27.8636 6.86118   3
  15  -2   3 10.1880 14.7089   1
  -2  15   3 40.9646 8.10220   1
  15   2  -3 51.9172 13.5461   1
   2  15  -3 35.4852 12.2916   2
 -15   2   3 49.7567 20.5450   2
   2 -15   3 29.9395 14.2844   1
  15  -2   3 39.7224 14.0428   2
  15   2  -1 197.546 21.1156   1
 -15   2   1 210.242 28.0016   2
  15  -2   1 172.879 19.2784   1
  -2  15   1 207.915 12.3020   3
  15  -2   1 197.168 18.6890   2
  15  -2  -1 195.333 18.6070   2
   2  15   1 190.476 17.4762   1
 -15   2  -1 148.363 27.7104   2
  15  -2  -1 192.443 17.9878   1
  15   2   1 212.881 22.5496   1
  -2  15  -1 195.627 12.6410   4
  15   2   1 200.831 22.3805   2
  15   2   3 4.61758 16.8053   1
  15  -2  -3 37.4938 11.7995   2
  15  -2  -3 42.9461 11.0476   1
  -2  15  -3 40.0766 4.73713   2
   2  15   3 41.9366 12.5381   1
  -2  15  -3 33.0043 7.64431   4
  15   2   3 53.0234 15.3916   2
  -2 -15   3 38.0440 17.6703   1
  -2 -15   5 337.431 27.0860   1
  15  -2  -5 322.175 21.2482   2
   2  15   5 304.592 22.0446   1
 -15  -2   5 290.520 32.0098   2
  15   2   5 337.562 28.2929   2
  -2  15  -5 286.449 15.1639   4
  15   2   5 363.014 29.6887   1
  -2 -15   7 310.377 27.2234   1
  15  -2  -7 254.828 19.6827   2
 -15  -2   7 316.706 31.6742   2
  15   2   7 280.767 29.3045   2
  -2  15  -7 280.233 15.7739   4
   2  15   7 290.651 23.9055   1
  -2 -15   9 413.372 29.9655   1
 -15  -2   9 441.143 36.3506   2
  15   2   9 432.559 36.4053   2
  15  -2  -9 465.166 21.9049   4
 -15  -2   9 443.901 34.1084   1
   2  15   9 494.393 31.7071   1
  -2  15  -9 512.395 21.7948   4
 -15  -2  11 109.842 23.8029   1
  -2 -15  11 102.303 19.3200   1
   2  15  11 96.0903 12.4728   3
  15   2  11 94.5682 26.5410   2
 -15  -2  11 92.5833 22.9034   2
  15  -2 -11 78.6943 11.0951   4
   2  15  11 85.5707 20.2648   1
  -2  15 -11 102.220 11.6338   4
   2  15  13 240.602 18.3596   3
  15   2  13 195.538 32.8974   2
 -15  -2  13 251.458 27.7573   1
 -15  -2  13 245.832 29.8555   2
  15  -2 -13 228.830 15.2061   4
  -2  15 -13 199.025 15.5798   4
  -2 -15  13 224.571 25.2898   1
  15  -2 -13 197.384 17.8936   3
   2  15  15 304.807 21.1565   3
 -15  -2  15 287.890 29.3663   1
 -15  -2  15 334.974 32.0372   2
  15  -2 -15 306.924 17.8981   4
  -2  15 -15 313.379 19.0801   4
  -2 -15  15 334.785 28.5565   1
  15  -2 -15 329.778 22.0028   3
   2  15  17 270.087 21.2240   3
  -2 -15  17 251.019 26.5727   1
 -15  -2  17 189.542 27.8753   2
 -15  -2  17 215.122 27.5250   1
  15  -2 -17 253.805 17.2532   4
  -2  15 -17 229.746 17.7321   4
  15  -2 -17 253.826 20.3296   3
  15  -2 -19 58.5198 14.2194   3
  15   2  19 54.0956 40.8718   2
 -15  -2  19 78.4921 24.9366   2
  -2 -15  19 25.4396 21.1924   1
 -15  -2  19 57.9830 23.8026   1
 -15  -2  21 64.3060 25.7797   1
   2  15  21 84.1159 15.1947   4
 -15   3  20 93.3038 22.7966   1
  15   3 -20 65.9610 14.7081   4
   3 -15  20 53.7158 19.8794   1
  15  -3  20 71.8065 15.1163   4
  15   3 -18 69.4751 13.8392   3
  15  -3  18 69.9445 22.3380   2
   3 -15  18 41.9540 17.1681   1
  -3  15  18 81.5779 11.0812   4
   3  15 -18 61.7354 14.0842   4
 -15   3  18 65.2047 20.9762   2
 -15   3  18 48.8780 19.5084   1
  15  -3  18 51.6228 13.0286   4
  -3  15  18 52.7937 13.8925   3
   3 -15  16 98.6990 19.1150   1
  15  -3  16 143.097 24.6621   2
 -15   3  16 112.539 20.8825   1
  15   3 -16 111.024 14.4245   4
   3  15 -16 119.400 15.3148   4
 -15   3  16 99.9684 22.1941   2
  -3  15  16 105.052 11.0963   4
  15  -3  16 100.286 14.3306   4
  15   3 -16 102.951 14.6113   3
  -3  15  16 90.2456 15.2014   3
   3 -15  14 142.893 18.7627   1
 -15   3  14 165.378 22.2362   1
  15  -3  14 158.029 23.5107   2
  15   3 -14 165.580 16.2038   4
   3  15 -14 158.813 16.0183   4
 -15   3  14 166.103 22.8918   2
  -3  15  14 133.846 11.0602   4
  -3  15  14 159.350 16.0837   3
   3 -15  12 189.351 19.7681   1
 -15   3  12 243.963 25.0261   1
  15   3 -12 212.585 18.4097   2
  15   3 -12 238.977 18.3028   4
  15  -3  12 223.616 25.8405   2
   3  15 -12 251.357 17.6606   4
  -3  15  12 235.053 12.6204   4
  -3  15  12 224.959 18.0726   3
   3 -15  10 406.868 25.2047   1
  15   3 -10 402.607 24.0803   2
  15  -3  10 431.974 31.3259   2
  15   3 -10 399.707 23.1670   4
 -15   3  10 381.977 29.5536   1
  -3  15  10 392.559 23.3484   1
   3  15 -10 424.127 22.4678   4
  -3  15  10 407.291 22.0780   3
  15   3  -8 287.911 21.3067   2
  -3  15   8 306.497 18.4914   1
   3  15  -8 293.852 19.0278   4
  15  -3   8 294.663 24.9795   2
 -15   3   8 254.797 27.4019   2
   3 -15   8 308.089 22.0630   1
  -3  15   8 294.152 17.7481   3
  15   3  -6 12.8432 11.4176   2
 -15   3   6 30.2516 16.2610   2
   3 -15   6 5.92844 12.8990   1
   3  15  -6 18.0800 10.0559   4
  -3  15   6 19.2432 8.07299   1
  15  -3   6 32.1786 13.7761   2
   3  15  -6 10.2686 6.26216   2
  -3  15   6 8.94770 7.18953   3
   3  15  -4 467.887 24.3485   2
 -15   3   4 467.875 34.0728   2
  15  -3   4 461.737 29.5257   1
  15  -3   4 481.290 28.1870   2
  15   3  -4 515.125 27.9689   1
   3 -15   4 478.100 26.8006   1
  -3  15   4 501.989 19.4373   1
  15   3  -4 458.419 27.3548   2
  -3  15   4 440.884 20.5374   3
   3  15  -2 585.030 34.2480   2
 -15   3   2 634.727 41.9615   2
  15  -3   2 688.219 33.2974   2
  15   3  -2 668.499 34.1388   1
  15  -3   2 692.811 33.5148   1
 -15   3   0 1031.99 56.0890   2
  15   3   0 961.751 45.8127   1
  15  -3   0 1075.07 41.6231   1
  -3  15   0 1084.76 33.9609   4
   3  15   0 1075.50 41.6779   1
  15  -3   0 1092.76 43.8357   2
  15  -3  -2 645.758 30.9924   2
 -15   3  -2 649.407 45.2896   2
  -3  15  -2 660.750 22.4506   2
  15  -3  -2 683.123 28.7918   1
  15   3   2 610.805 36.0149   2
  -3  15  -2 650.944 23.2563   4
   3  15   2 646.612 31.2484   1
  15   3   2 676.628 37.7410   1
  15  -3  -4 491.963 25.7762   2
 -15  -3   4 503.702 40.4567   2
   3  15   4 503.220 27.7186   1
  15   3   4 457.137 32.4008   2
  -3  15  -4 468.790 18.4961   4
  -3 -15   4 484.703 32.6655   1
  15   3   4 439.555 31.9802   1
  -3  15  -4 426.262 15.0921   2
  -3 -15   6-6.24917 16.9711   1
 -15  -3   6-2.35045 18.8011   2
   3  15   6 33.2537 15.2026   1
  15  -3  -6 21.1992 9.52351   2
  15   3   6-1.98076 17.4129   2
  -3  15  -6 11.6384 7.03203   4
  15   3   6 27.5997 18.2968   1
   3  15   8 289.303 25.5917   1
  15  -3  -8 283.649 19.8588   2
 -15  -3   8 244.183 29.0703   2
  15   3   8 247.881 29.6204   2
  -3 -15   8 321.103 28.2681   1
  15  -3  -8 312.553 16.7257   4
  -3  15  -8 297.848 15.6922   4
 -15  -3   8 300.552 30.0155   1
  -3 -15  10 355.883 28.8127   1
 -15  -3  10 450.079 36.4131   2
  15   3  10 427.581 37.4672   2
  15  -3 -10 372.112 18.6755   4
 -15  -3  10 468.990 35.2665   1
  -3  15 -10 393.643 19.3403   4
   3  15  10 348.597 30.1057   1
  -3 -15  12 271.614 26.2312   1
 -15  -3  12 230.444 27.3129   1
  15   3  12 275.253 34.4522   2
 -15  -3  12 223.318 28.1295   2
  15  -3 -12 229.389 14.7618   4
  -3  15 -12 223.018 15.0683   4
  15  -3 -14 157.768 15.5803   3
   3  15  14 132.966 15.0260   3
  15   3  14 138.737 31.6845   2
 -15  -3  14 157.685 26.5495   1
  -3 -15  14 157.770 23.1692   1
 -15  -3  14 153.218 26.5057   2
  -3  15 -14 129.343 13.3384   4
  15  -3 -16 142.203 16.5990   3
   3  15  16 131.301 15.9301   3
 -15  -3  16 121.042 25.3857   2
 -15  -3  16 135.830 25.4577   1
  -3 -15  16 107.413 22.8833   1
  15  -3 -16 104.274 11.9329   4
  15  -3 -18 71.6353 13.6912   3
  -3 -15  18 84.3689 22.4254   1
   3  15  18 61.6149 14.5348   3
  15   3  18 91.7037 37.8003   2
 -15  -3  18 46.2841 22.3823   2
 -15  -3  18 62.7309 24.1032   1
  15  -3 -18 55.1563 10.4231   4
  15   3  20 140.490 49.8014   2
 -15  -3  20 84.6257 26.6174   2
  15  -3 -20 75.8001 11.8823   4
 -15  -3  20 75.2262 26.3640   1
   3  15  22 109.840 17.9852   4
  15  -4  19 1.87845 18.3673   2
   4  15 -19 16.1177 13.1133   4
  15  -4  19 31.3463 13.2702   4
 -15   4  19 31.2215 18.8828   1
  15  -4  17 230.755 26.7099   2
  -4  15  17 297.463 16.8704   4
   4  15 -17 298.045 21.6515   4
 -15   4  17 333.863 28.4776   1
  15  -4  17 322.619 20.9955   4
 -15   4  17 340.095 31.5221   2
  -4  15  17 311.319 23.2659   3
 -15   4  15 372.003 29.6455   1
  15  -4  15 407.714 31.9986   2
  15   4 -15 366.230 23.0593   4
   4  15 -15 421.165 23.8601   4
 -15   4  15 394.541 32.9901   2
  -4  15  15 406.341 18.5806   4
  15  -4  15 399.624 22.3318   4
  -4  15  15 350.023 24.5231   3
   4 -15  15 393.947 27.0007   1
 -15   4  13 144.692 21.7403   1
   4 -15  13 139.022 17.6364   1
  15   4 -13 124.271 15.6273   2
  15   4 -13 122.677 15.2116   4
   4  15 -13 121.049 14.7215   4
  -4  15  13 136.642 10.3816   4
  -4  15  13 139.561 15.8090   3
   4 -15  11 70.3920 14.9737   1
  15   4 -11 59.3445 12.5451   2
  15   4 -11 77.9284 13.5049   4
  15  -4  11 94.2568 19.5009   2
   4  15 -11 100.173 13.3500   4
  -4  15  11 56.7971 7.10256   4
  -4  15  11 60.3056 13.1530   1
 -15   4  11 106.616 20.5557   1
  -4  15  11 82.6768 12.3316   3
  15   4  -9 106.093 13.8541   2
  -4  15   9 100.888 12.3953   1
   4  15  -9 83.7428 12.4912   4
 -15   4   9 63.7001 18.0403   2
  15  -4   9 98.7294 17.8490   2
  -4  15   9 99.7341 7.21944   4
   4 -15   9 81.5589 14.7430   1
  -4  15   9 101.200 12.2137   3
  15   4  -7 1289.93 49.8272   2
   4  15  -7 1236.26 46.0687   4
 -15   4   7 1349.14 58.5492   2
   4 -15   7 1236.36 46.9269   1
  15  -4   7 1211.07 51.2250   2
   4  15  -7 1268.01 39.9465   2
  -4  15   7 1272.15 40.5531   1
  -4  15   7 1239.97 44.3515   3
   4 -15   5 526.865 27.2145   1
  15   4  -5 552.185 28.9463   1
 -15   4   5 480.113 34.3175   2
   4  15  -5 500.237 23.9135   2
  15  -4   5 510.795 29.1881   2
  15   4  -5 507.924 29.2801   2
  15   4  -3 334.797 24.2373   1
   4  15  -3 333.758 23.7640   2
 -15   4   3 340.988 29.3287   2
  -4  15   3 355.031 13.3397   4
   4 -15   3 327.869 21.3268   1
  15  -4   3 302.999 23.4651   1
  15   4  -3 344.940 24.3896   2
  15  -4   3 334.415 22.7337   2
  15  -4   1 122.183 14.7556   2
  15   4  -1 119.702 17.2209   1
   4  15  -1 115.675 19.8800   2
  -4  15   1 113.431 9.76759   2
 -15   4   1 124.348 23.2629   2
   4  15  -1 122.749 14.4525   1
  -4  15   1 115.880 7.06695   4
  15  -4   1 124.044 14.5918   1
   4  15   1 83.3419 14.4315   1
  15  -4  -1 117.568 14.1765   2
 -15   4  -1 136.788 26.5647   2
  -4  15  -1 97.5151 8.41137   2
  15   4   1 85.2222 18.2506   1
  -4  15  -1 119.142 7.46439   4
  15  -4  -1 118.892 13.2414   1
  15  -4  -3 355.797 21.5015   2
  15   4   3 327.468 28.8236   1
 -15   4  -3 293.943 35.1464   2
 -15  -4   3 369.803 38.0443   2
   4  15   3 335.466 24.0677   1
  -4  15  -3 355.407 14.5807   4
  -4  15  -3 340.968 14.1374   2
  15  -4  -3 381.952 18.5352   1
   4  15   5 487.377 29.7240   1
 -15  -4   5 528.513 41.4092   2
  15  -4  -5 465.053 25.2823   2
  15   4   5 501.234 35.8922   2
  15   4   5 487.664 35.1167   1
  -4 -15   5 494.518 34.2152   1
  -4  15  -5 465.526 18.6211   4
 -15  -4   7 1273.25 64.5672   2
  15   4   7 1304.01 63.4233   2
  15  -4  -7 1287.26 47.9423   2
  15  -4  -7 1266.75 41.3771   4
  15   4   7 1251.31 60.0904   1
 -15  -4   7 1288.18 59.5704   1
  -4  15  -7 1286.79 41.2169   4
   4  15   7 1205.08 53.5900   1
  -4 -15   7 1294.01 56.9603   1
  15   4   9 91.9898 25.1243   2
 -15  -4   9 90.8741 24.4054   2
  -4 -15   9 71.4352 19.0983   1
  15  -4  -9 66.8793 8.71402   4
  -4  15  -9 108.988 10.2716   4
 -15  -4   9 81.6527 21.7961   1
   4  15   9 81.2138 19.7062   1
 -15  -4  11 53.4739 20.6360   1
  15   4  11 138.451 28.9358   2
 -15  -4  11 77.0012 23.5442   2
  15  -4 -11 87.1173 9.94570   4
   4  15  11 59.5557 21.4930   1
  -4 -15  11 66.3581 20.6243   1
  -4  15 -11 88.4245 10.3120   4
  -4 -15  13 107.564 22.2770   1
 -15  -4  13 121.876 24.8768   1
  15   4  13 134.828 31.9952   2
 -15  -4  13 128.068 25.5172   2
  15  -4 -13 115.483 10.8839   4
  15   4  15 371.804 46.3594   2
 -15  -4  15 405.362 34.9864   1
 -15  -4  15 372.881 35.3564   2
  -4 -15  15 416.300 33.0321   1
  15  -4 -17 271.923 21.3165   3
   4  15  17 273.347 22.0132   3
 -15  -4  17 258.624 32.4551   2
 -15  -4  17 250.121 31.0710   1
  -4 -15  17 271.408 29.5236   1
  15  -4 -17 314.104 17.2456   4
  15   4  19 35.4069 41.3420   2
 -15  -4  19 43.4843 23.7284   2
 -15  -4  19 23.8886 23.5175   1
  -4 -15  19 27.8011 21.7344   1
  15   5 -20 71.9219 14.8134   3
  15  -5  20 102.489 16.7422   4
 -15   5  18 675.480 38.0124   1
   5  15 -18 613.611 31.9349   4
  15  -5  18 683.427 31.4397   4
  15   5 -18 614.324 31.6830   3
 -15   5  16 108.979 20.4685   1
  15   5 -16 87.2744 14.5607   4
  -5  15  16 113.546 11.3479   4
   5  15 -16 92.1676 15.2839   4
 -15   5  16 97.2533 21.2630   2
  15  -5  16 97.2986 13.8059   4
  15   5 -16 106.051 14.8393   3
   5 -15  14 327.301 23.7330   1
  15   5 -14 324.445 22.3191   2
 -15   5  14 332.533 27.6289   1
  15  -5  14 294.417 26.7162   2
   5  15 -14 319.107 21.4826   4
  -5  15  14 329.944 15.7242   4
  15  -5  14 322.412 19.5223   4
   5 -15  12 1368.38 51.9763   1
  15   5 -12 1401.41 52.3989   2
  15   5 -12 1391.52 52.0407   4
  15  -5  12 1343.13 57.1533   2
   5  15 -12 1441.06 51.6036   4
  -5  15  12 1366.57 49.1730   1
  -5  15  12 1369.10 42.3117   4
 -15   5  12 1555.45 58.4201   1
  -5  15  10 854.007 31.3623   1
  15   5 -10 873.814 37.6625   2
   5 -15  10 817.585 35.8010   1
   5  15 -10 812.506 35.1467   4
  15  -5  10 811.248 39.8053   2
 -15   5  10 803.475 43.9227   2
  -5  15  10 817.210 25.9574   4
  15   5  -8 331.915 22.3319   2
   5  15  -8 304.414 20.7280   4
 -15   5   8 386.533 30.4188   2
  15  -5   8 364.928 24.8839   2
  -5  15   8 331.932 11.7574   4
   5 -15   8 312.397 21.1675   1
   5  15  -8 305.487 15.0731   2
  -5  15   8 330.597 14.4387   1
   5 -15   6 816.427 33.2017   1
  15   5  -6 839.965 36.8679   1
 -15   5   6 853.463 44.2479   2
   5  15  -6 777.541 30.5893   2
  15  -5   6 839.556 37.0951   2
  -5  15   6 726.294 22.0402   4
  15   5  -6 837.353 37.9678   2
   5  15  -4 334.416 22.0688   2
  -5  15   4 322.408 17.6828   2
 -15   5   4 311.246 29.1334   2
  15  -5   4 305.967 23.4527   1
  15   5  -4 334.386 24.3152   1
   5 -15   4 346.915 20.8935   1
  15   5  -4 328.839 24.0500   2
  15  -5   4 325.472 21.7901   2
  15  -5   2 147.165 15.2357   2
   5  15  -2 143.578 16.1045   1
   5  15  -2 126.849 19.4386   2
  15  -5   2 144.181 15.5797   1
 -15   5   2 125.479 22.8199   2
  -5  15   2 132.483 11.0379   2
  15   5  -2 126.500 19.2252   1
  15   5  -2 149.453 18.8266   2
  15  -5   0 12.7940 10.6251   2
  15  -5   0 28.8020 10.8584   1
  -5  15   0 23.5337 7.33085   2
 -15   5   0 26.8757 20.0357   2
   5  15   0 8.69400 12.1413   1
  15   5   0 30.1660 14.9066   2
  -5  15   0 17.7992 3.69074   4
  15   5   0 23.4278 15.5712   1
 -15   5  -2 145.424 26.8912   2
  15  -5  -2 135.207 11.7132   1
  15  -5  -2 116.352 13.7569   2
  15   5   2 127.201 20.9705   1
   5  15   2 109.164 16.2423   1
  -5  15  -2 138.465 7.69981   4
  -5  15  -2 114.347 8.99608   2
  15   5   4 308.470 28.2063   1
 -15  -5   4 296.077 35.6747   2
  15  -5  -4 322.012 20.2935   2
   5  15   4 328.711 24.6830   1
  -5  15  -4 284.686 12.8723   2
  -5 -15   4 290.973 28.9212   1
  -5  15  -4 294.530 12.8646   4
   5  15   6 713.422 39.5338   1
 -15  -5   6 788.780 52.6343   2
  15   5   6 724.893 46.4469   2
  15  -5  -6 758.508 33.6393   2
  15  -5  -6 769.328 27.3469   4
  15   5   6 796.015 46.1731   1
  -5 -15   6 680.738 42.5645   1
  -5  15  -6 838.791 27.2021   4
   5  15   8 329.258 28.4685   1
  -5 -15   8 310.183 30.0296   1
 -15  -5   8 322.875 34.7781   2
  15   5   8 327.754 34.8691   2
  15  -5  -8 357.978 15.4941   4
 -15  -5   8 279.982 31.1126   1
  -5  15  -8 328.062 15.8668   4
  -5 -15  10 791.746 45.2883   1
  15   5  10 886.347 55.0868   2
 -15  -5  10 738.882 49.8181   2
   5  15  10 817.358 46.0942   1
  15  -5 -10 867.053 29.0922   4
 -15  -5  10 818.636 47.5227   1
  15  -5 -10 803.544 35.4306   3
  15   5  12 1301.30 73.0804   2
 -15  -5  12 1475.35 69.3065   2
  -5 -15  12 1385.59 62.0078   1
  15  -5 -12 1409.79 44.3789   4
 -15  -5  12 1380.34 64.7174   1
  15  -5 -12 1366.75 51.8648   3
  -5 -15  14 317.697 30.0484   1
  15   5  14 342.747 41.8896   2
 -15  -5  14 292.337 31.8526   1
 -15  -5  14 330.559 33.9464   2
  15  -5 -14 283.628 15.7648   4
  15   5  16 82.1751 34.8532   2
  -5 -15  16 90.6385 23.4450   1
 -15  -5  16 95.0266 25.3680   2
 -15  -5  16 128.377 26.6358   1
  15  -5 -16 88.7734 10.3751   4
  15  -5 -18 560.421 31.7716   3
   5  15  18 701.425 34.9725   3
 -15  -5  18 664.076 46.0351   1
  15   5  18 673.307 63.3369   2
 -15  -5  18 609.680 46.9360   2
  -5 -15  18 607.873 41.9728   1
 -15  -5  20 73.3251 26.5460   2
  15   6 -19 108.390 16.0661   3
  15   6 -19 111.357 17.1342   4
  15  -6  19 119.231 16.0115   4
 -15   6  17 391.693 30.2742   1
  -6  15  17 379.356 27.6459   2
   6  15 -17 432.323 26.6183   4
  15  -6  17 431.851 24.1699   4
  15   6 -17 383.147 24.6911   3
  -6  15  15 1156.18 48.6195   2
  15   6 -15 1242.65 47.4640   4
  -6  15  15 1098.27 37.5565   4
  15  -6  15 1141.91 50.1798   2
   6  15 -15 1144.76 46.0907   4
  15  -6  15 1182.72 42.7748   4
 -15   6  15 1266.56 51.8006   1
   6 -15  13 809.763 37.9287   1
  15   6 -13 840.532 37.9083   2
  -6  15  13 880.365 39.2859   2
  15   6 -13 837.189 38.0333   4
  -6  15  13 894.090 28.5395   4
  15  -6  13 852.797 41.5035   2
   6  15 -13 811.255 37.4185   4
 -15   6  13 939.430 48.5398   2
 -15   6  13 954.039 43.7745   1
  15  -6  13 843.544 33.4907   4
   6 -15  11 273.449 20.3258   1
  -6  15  11 262.767 20.3440   2
  15   6 -11 290.903 21.6469   4
   6  15 -11 301.625 21.1454   4
 -15   6  11 325.858 25.6371   1
  -6  15  11 267.305 11.2143   4
  15  -6  11 273.977 22.9354   2
 -15   6  11 287.415 27.2321   2
  15  -6  11 282.417 16.6062   4
   6  15  -9 1498.90 44.2127   2
  15   6  -9 1428.48 53.3595   2
   6 -15   9 1553.39 50.5611   1
  -6  15   9 1555.44 51.5526   2
   6  15  -9 1496.52 51.9045   4
 -15   6   9 1522.28 62.2961   2
  15  -6   9 1564.16 55.5333   2
  -6  15   7 3349.27 100.581   2
 -15   6   7 3347.40 113.761   2
   6 -15   7 3196.96 99.4128   1
   6  15  -7 3393.83 97.7213   2
  15  -6   7 3255.94 103.817   2
  15   6  -7 3336.74 105.857   2
  15  -6   5 149.054 16.9377   2
  -6  15   5 176.157 14.3586   2
  15   6  -5 167.673 19.5555   1
   6 -15   5 198.981 16.1255   1
 -15   6   5 169.482 24.6901   2
   6  15  -5 166.212 16.4991   2
  15   6  -5 155.981 18.3256   2
  -6  15   3 289.771 16.5994   2
  15   6  -3 333.894 24.9014   1
   6  15  -3 258.462 21.7860   2
   6  15  -3 290.052 21.2464   1
 -15   6   3 262.484 26.7289   2
  15   6  -3 280.504 23.4313   2
  15  -6   3 273.125 20.4559   1
  15  -6   3 255.523 18.8406   2
  -6  15   1 650.258 25.7134   2
  15  -6   1 621.662 29.5838   2
   6  15  -1 560.420 36.6548   2
 -15   6   1 669.286 41.3101   2
  15  -6   1 653.791 27.1712   1
  15   6  -1 591.551 34.9365   2
  15   6  -1 615.454 35.5397   1
   6  15  -1 587.757 31.6613   1
  15  -6  -1 684.384 30.6494   2
 -15   6  -1 631.644 42.4476   2
  15   6   1 673.649 37.8983   1
  15   6   1 608.432 37.7584   2
  15  -6  -1 673.232 25.1843   1
  -6  15  -1 617.366 25.0917   2
   6  15   1 543.915 32.0634   1
   6  15   3 231.126 22.0371   1
 -15   6  -3 251.589 31.7321   2
  15  -6  -3 277.782 18.6520   2
  15   6   3 285.487 28.0309   1
  -6  15  -3 257.658 13.9038   2
  15   6   5 158.937 24.6192   1
  -6  15  -5 142.052 8.83234   2
 -15  -6   5 92.8684 30.3118   2
  15  -6  -5 154.314 15.3600   2
   6  15   5 172.506 22.8360   1
  15  -6  -5 169.309 9.94950   4
  -6 -15   5 163.667 25.6928   1
 -15  -6   7 3397.06 127.123   2
  15   6   7 2963.23 120.180   2
 -15  -6   7 3444.45 118.810   1
  15  -6  -7 3325.97 92.2648   4
  15   6   7 3260.34 118.332   1
  -6 -15   7 3421.65 116.811   1
   6  15   7 3236.53 111.552   1
 -15  -6   9 1449.18 71.0453   2
  15   6   9 1316.33 70.3995   2
 -15  -6   9 1572.86 67.7339   1
  15  -6  -9 1257.56 41.6279   4
   6  15   9 1470.44 63.4580   1
  15  -6  -9 1557.89 52.0760   3
  -6 -15   9 1482.59 64.1444   1
 -15  -6  11 341.521 33.4531   1
  15   6  11 254.598 37.3553   2
 -15  -6  11 337.788 35.3101   2
  -6 -15  11 270.194 29.9627   1
  15  -6 -11 268.317 13.8043   4
   6  15  11 260.365 31.5690   1
  15  -6 -11 316.620 20.7437   3
  15   6  13 814.245 58.8306   2
 -15  -6  13 840.703 53.4771   2
  -6 -15  13 815.135 47.9195   1
  15  -6 -13 841.478 29.5822   4
 -15  -6  13 884.141 50.8647   1
  15  -6 -13 896.917 37.8367   3
 -15  -6  15 1179.70 61.4233   1
  15   6  15 1184.45 72.9124   2
 -15  -6  15 1185.65 64.0401   2
  -6 -15  15 1171.15 58.4331   1
  -6 -15  17 408.570 35.4069   1
 -15  -6  17 405.229 39.1090   2
 -15  -6  17 367.058 37.2699   1
 -15  -6  19 112.875 28.7885   2
  15   7 -20 151.401 16.7631   3
  15  -7  20 140.160 17.1833   4
  15   7 -18 533.451 29.7210   4
  15  -7  18 507.999 27.0088   4
  15   7 -18 457.878 27.3181   3
  -7  15  16 131.053 18.6868   2
  15   7 -16 161.137 17.8210   4
   7  15 -16 154.115 17.5180   4
  15  -7  16 145.074 18.5862   2
  15  -7  16 143.731 15.5385   4
  15   7 -14 282.522 20.9100   2
  -7  15  14 267.002 13.2701   4
  -7  15  14 272.561 22.9932   2
  15   7 -14 320.410 23.3786   4
   7  15 -14 306.412 22.4205   4
 -15   7  14 371.962 27.6614   1
  15  -7  14 267.734 22.2521   2
  15  -7  14 313.945 19.1499   4
 -15   7  14 286.849 28.4481   2
   7 -15  12 1404.32 51.6128   1
  15   7 -12 1388.77 52.5476   2
  -7  15  12 1344.54 53.1512   2
  15   7 -12 1354.59 53.4743   4
   7  15 -12 1399.67 53.0199   4
 -15   7  12 1532.93 55.5760   1
  15  -7  12 1404.71 54.4137   2
 -15   7  12 1228.51 59.4571   2
  15  -7  12 1452.48 47.2965   4
  15   7 -10 997.142 42.5787   2
   7  15 -10 1012.60 34.7539   2
  -7  15  10 991.454 41.4924   2
   7  15 -10 994.416 42.0831   4
 -15   7  10 998.408 49.3313   2
  15  -7  10 1124.47 43.7767   2
  15  -7  10 1096.69 36.4586   4
   7 -15  10 957.504 39.3066   1
   7 -15   8 651.440 28.9203   1
  -7  15   8 680.533 31.0119   2
 -15   7   8 672.772 39.9869   2
  15  -7   8 677.265 32.2736   2
  15  -7   8 635.506 25.2149   4
   7  15  -8 690.694 27.8792   2
  15   7  -8 664.835 33.6725   2
  -7  15   6 1121.24 42.1066   2
  15   7  -6 1160.11 47.8350   1
   7 -15   6 1116.43 40.5460   1
 -15   7   6 1115.41 53.0502   2
   7  15  -6 1073.78 42.1422   2
  15   7  -6 1132.36 47.4335   2
  15  -7   6 1108.99 44.2014   2
  15  -7   4 982.028 39.4263   2
  -7  15   4 979.562 37.5719   2
   7  15  -4 970.513 42.1880   2
 -15   7   4 1003.38 49.7366   2
  15  -7   4 959.687 40.2638   1
   7 -15   4 1011.03 35.3581   1
  15   7  -4 1024.43 45.2041   1
  15   7  -4 969.205 44.6831   2
  -7  15   2 944.127 35.7371   2
  15  -7   2 964.053 38.5657   2
   7  15  -2 1002.82 42.2065   1
  15  -7   2 944.229 35.7839   1
   7  15  -2 962.622 45.6853   2
 -15   7   2 940.443 49.4375   2
  15   7  -2 1002.14 45.8448   2
  15   7  -2 974.173 45.3746   1
  15   7   0 251.863 25.3838   1
  15  -7   0 297.802 19.6921   2
   7  15   0 256.767 22.2065   1
   7  15   0 280.153 28.9811   2
  15  -7   0 270.389 14.6140   1
 -15   7   0 281.328 29.5842   2
  15   7   0 274.771 26.0048   2
  -7  15   0 299.090 16.9201   2
  15   7   2 1017.54 49.2107   1
  -7  15  -2 956.350 34.5745   2
 -15   7  -2 882.149 51.4378   2
  15  -7  -2 959.181 38.3376   2
  15   7   2 927.214 49.7497   2
   7  15   2 1024.02 45.0206   1
 -15   7  -4 978.286 56.4359   2
   7  15   4 1096.13 47.9854   1
  -7  15  -4 999.899 35.4826   2
  15   7   4 933.049 52.9000   2
  15  -7  -4 1014.24 39.6359   2
  15   7   4 1008.92 51.4279   1
   7  15   6 1159.79 53.8321   1
  15  -7  -6 1141.08 34.1597   4
  -7 -15   6 1174.68 58.1807   1
  15   7   6 1195.67 58.9986   1
 -15  -7   8 579.926 48.0306   2
  15   7   8 699.890 45.5127   1
 -15  -7   8 586.096 43.2726   1
  15  -7  -8 620.954 21.1089   4
  -7 -15   8 651.172 43.4254   1
   7  15   8 672.827 41.1356   1
  15  -7  -8 687.744 30.7213   3
  15   7  10 921.664 60.7125   2
   7  15  10 991.128 53.4140   1
 -15  -7  10 1099.91 57.1807   1
  15  -7 -10 1008.69 31.5992   4
  15  -7 -10 1044.09 40.9710   3
  -7 -15  10 1061.45 54.8811   1
  -7 -15  12 1380.74 64.8752   1
  15   7  12 1206.46 72.4975   2
 -15  -7  12 1418.31 71.5806   2
   7  15  12 1369.22 66.9223   1
 -15  -7  12 1292.30 65.9890   1
  15  -7 -12 1426.16 51.8947   3
  15  -7 -14 313.990 21.5431   3
 -15  -7  14 312.176 34.9988   1
 -15  -7  14 286.415 36.3814   2
  -7 -15  14 275.039 32.8127   1
  15  -7 -16 137.356 16.8708   3
  15   7  16 133.011 36.6995   2
 -15  -7  16 158.562 31.2510   2
 -15  -7  16 156.257 29.5802   1
  -7 -15  16 126.981 26.2835   1
 -15  -7  18 440.838 41.5847   2
 -15  -7  20 158.654 32.4863   2
  15  -8  19 153.493 17.3712   4
  -8  15  17 327.115 26.8682   2
  15   8 -17 333.850 24.3684   4
  15  -8  17 326.207 21.5592   4
  15   8 -17 305.948 22.0909   3
  -8  15  15 5.38333 13.1082   2
  15   8 -15 28.1571 13.4519   4
   8  15 -15 18.3074 12.4392   4
  15  -8  15 25.8402 10.5757   4
  15  -8  15 19.9648 12.4344   2
 -15   8  15 32.6224 17.7585   2
  15   8 -13 271.578 20.6539   2
  -8  15  13 260.579 22.0962   2
  15   8 -13 280.507 22.1231   4
   8  15 -13 251.419 21.5132   4
 -15   8  13 303.151 23.8042   1
  15  -8  13 298.924 17.8061   4
  15  -8  13 304.223 21.5078   2
 -15   8  13 240.128 26.0233   2
  15   8 -11 427.701 25.8362   2
   8  15 -11 434.486 19.7522   2
  -8  15  11 425.673 26.3398   2
   8  15 -11 446.897 26.8264   4
  15   8 -11 455.282 27.5440   4
 -15   8  11 450.631 32.9165   2
  15  -8  11 430.656 21.1571   4
  15  -8  11 420.872 24.9723   2
   8 -15  11 420.007 24.0659   1
  15  -8   9 58.2472 13.0575   2
   8  15  -9 30.6524 10.0312   2
   8 -15   9 33.4215 11.4488   1
  15   8  -9 52.0552 14.0765   2
  -8  15   9 53.1117 13.3745   2
   8  15  -9 35.0180 12.9134   4
 -15   8   9 41.1650 18.0672   2
  15  -8   9 57.3410 9.04006   4
  -8  15   7 760.557 33.3805   2
 -15   8   7 789.691 41.9344   2
   8  15  -7 723.953 31.6844   2
   8 -15   7 719.662 29.7830   1
  15  -8   7 720.964 26.4990   4
  15   8  -7 748.237 36.6584   2
  15  -8   7 771.501 33.2487   2
  15  -8   5 583.780 28.2792   2
  -8  15   5 600.481 28.2666   2
  15   8  -5 545.595 32.4802   1
 -15   8   5 616.336 37.5167   2
   8  15  -5 633.966 31.8093   2
  15  -8   5 575.779 29.7755   1
  15   8  -5 629.409 34.0201   2
  15  -8   5 552.904 21.2723   4
   8 -15   5 570.621 24.0536   1
  -8  15   3 64.6598 11.0360   2
   8  15  -3 77.9167 15.5958   1
  15  -8   3 68.3661 11.6403   1
  15  -8   3 92.0058 12.6491   2
  15   8  -3 84.6749 17.5248   1
   8  15  -3 81.5035 17.7631   2
  15   8  -3 93.1981 17.6692   2
 -15   8   3 110.087 20.3848   2
  15  -8   1 1023.69 39.9009   2
   8  15  -1 1031.98 50.7838   2
 -15   8   1 1035.74 52.0482   2
   8  15  -1 1020.70 45.3957   1
  15   8  -1 1020.98 49.5261   2
  15   8  -1 1009.19 48.4881   1
  -8  15   1 1079.41 38.9315   2
  15  -8   1 1028.44 33.9599   1
   8  15   1 1072.28 54.7230   2
 -15   8  -1 1030.17 53.7312   2
  15  -8  -1 1015.54 39.7894   2
  15   8   1 1007.88 49.2935   1
  15   8   1 1036.24 51.8361   2
  -8  15  -1 1064.78 38.4795   2
   8  15   1 1010.98 46.4101   1
 -15   8  -3 82.1953 22.8386   2
  15   8   3 36.9691 17.6526   1
  15   8   3 117.982 23.4065   2
  -8  15  -3 98.8601 12.2010   2
  15  -8  -3 84.9874 12.6486   2
   8  15   3 93.6265 18.8554   1
   8  15   5 593.735 36.6781   1
  -8  15  -5 510.466 24.6523   2
  15   8   5 553.313 42.0023   2
  -8 -15   5 572.253 41.3786   1
  15   8   5 606.647 40.2583   1
  15   8   7 752.615 47.6300   1
  15  -8  -7 693.086 32.0714   3
   8  15   7 757.589 43.3465   1
  15  -8  -9 50.9496 11.7548   3
   8  15   9 42.4530 21.2910   1
  -8 -15   9 69.4864 24.3564   1
 -15  -8   9 50.6722 30.1590   2
  15   8   9 73.8633 25.1245   1
 -15  -8   9 27.5525 23.1529   1
 -15  -8  11 459.526 39.8603   1
 -15  -8  11 376.871 41.6292   2
  15   8  11 403.546 42.3663   2
   8  15  11 455.804 39.7706   1
  -8 -15  11 536.472 39.8476   1
  15  -8 -11 443.742 25.1875   3
  15  -8 -13 280.633 20.5020   3
 -15  -8  13 322.618 35.7888   1
  15   8  13 280.552 38.4377   2
 -15  -8  13 353.600 38.9426   2
  -8 -15  13 261.758 32.0232   1
   8  15  13 338.020 36.6611   1
  15  -8 -15 43.9577 12.1984   3
 -15  -8  15 34.1658 26.0540   1
 -15  -8  15 39.2735 28.0264   2
  -8 -15  15 27.0017 22.4889   1
  15   8  17 291.313 42.8279   2
 -15  -8  17 258.965 37.7675   2
 -15  -8  17 361.915 38.4615   1
 -15  -8  19 106.852 31.4897   2
  15  -9  20 61.3939 14.8414   4
  15  -9  18 92.3579 14.0311   4
  15   9 -18 118.302 15.5899   3
  -9  15  16 187.814 22.1957   2
  15   9 -16 223.487 21.2496   4
  15  -9  16 224.275 17.2904   4
   9  15 -16 206.417 20.4069   4
  -9  15  14 116.372 17.3298   2
  15   9 -14 111.085 17.3577   4
   9  15 -14 118.431 16.3652   4
  15  -9  14 118.335 12.7463   4
 -15   9  14 101.557 21.6219   2
  15  -9  14 116.687 14.6143   2
  15  -9  12 55.9768 12.3051   2
  -9  15  12 37.9878 13.7193   2
  15   9 -12 59.2889 14.2652   2
  15   9 -12 54.5744 15.4740   4
   9  15 -12 79.0540 15.9329   4
  15  -9  12 36.7609 9.93781   4
 -15   9  12 48.8554 18.8498   2
   9  15 -10 206.184 15.1308   2
  -9  15  10 209.354 19.1270   2
   9 -15  10 219.117 16.6859   1
   9  15 -10 194.243 19.2891   4
  15  -9  10 218.027 14.2357   4
 -15   9  10 208.492 24.8927   2
  15  -9   8 358.964 21.3050   2
  -9  15   8 333.367 22.6988   2
   9 -15   8 319.220 18.5837   1
  15  -9   8 337.567 16.4729   4
 -15   9   8 349.997 28.9721   2
   9  15  -8 358.103 20.9265   2
  15   9  -8 323.737 23.6440   2
  -9  15   6 597.797 30.2576   2
  15  -9   6 643.560 29.1020   2
   9 -15   6 611.748 25.0041   1
  15   9  -6 669.975 35.5393   1
 -15   9   6 693.022 39.1600   2
  15  -9   6 666.987 23.5899   4
  15   9  -6 624.659 34.3815   2
  15  -9   4 163.374 14.6815   1
  -9  15   4 180.180 15.6295   2
  15  -9   4 185.041 15.5367   2
   9  15  -4 175.115 19.7562   2
 -15   9   4 186.807 23.3818   2
   9  15  -4 166.486 18.5004   1
  15   9  -4 163.299 20.7303   1
  15  -9   4 165.616 9.62397   4
  15   9  -4 148.585 19.6627   2
  15   9  -2 925.726 45.2920   1
  15  -9   2 904.125 36.6586   2
   9  15  -2 936.481 45.9734   2
 -15   9   2 996.938 48.8301   2
  15   9  -2 915.179 45.5573   2
  15  -9   2 900.973 30.5161   1
  15  -9   2 945.363 28.1462   4
  -9  15   2 983.696 37.9036   2
   9  15  -2 898.897 42.9235   1
   9  15   0 1206.50 50.0155   1
   9  15   0 1214.14 56.0629   2
 -15   9   0 1247.44 56.1442   2
  15  -9   0 1224.01 42.4759   2
  15   9   0 1244.34 55.1590   2
  15   9   0 1317.77 54.2757   1
  -9  15   0 1267.47 43.0201   2
   9  15   2 975.080 55.2100   2
 -15   9  -2 1048.61 54.3433   2
  15   9   2 964.265 49.5426   1
  15   9   2 983.995 52.5189   2
  -9  15  -2 996.056 38.7929   2
   9  15   2 954.602 46.4527   1
   9  15   4 166.336 30.9493   2
 -15   9  -4 175.660 29.9637   2
  15   9   4 164.915 25.2133   1
  -9  15  -4 180.781 16.9301   2
  15   9   4 156.503 26.7417   2
   9  15   4 145.872 21.9146   1
   9  15   6 558.278 38.5793   1
  15   9   6 571.745 45.2993   2
  -9 -15   6 627.301 43.8204   1
  15   9   6 598.562 42.4816   1
  15  -9  -6 678.926 29.7190   3
   9  15   8 301.480 32.5625   1
  15   9   8 274.574 36.7956   2
 -15  -9   8 260.514 33.1973   1
  15   9   8 315.835 34.6025   1
  15  -9  -8 400.222 22.4064   3
  -9 -15   8 349.415 35.7755   1
   9  15  10 323.188 33.0222   1
  15  -9 -10 175.885 16.7897   3
  -9 -15  10 174.299 28.1932   1
 -15  -9  10 238.894 38.7467   2
  15   9  10 255.271 32.6989   1
 -15  -9  10 274.830 32.0113   1
 -15  -9  12 54.6430 25.5355   1
  15  -9 -12 32.3960 11.5240   3
 -15  -9  12 65.0223 30.5450   2
  -9 -15  12 63.2541 23.8985   1
   9  15  12 43.4426 24.4212   1
  15  -9 -14 98.9204 14.2416   3
 -15  -9  14 181.663 31.7699   1
  15   9  14 95.2565 31.4131   2
 -15  -9  14 143.915 33.5205   2
  -9 -15  14 150.637 29.3253   1
   9  15  14 131.641 30.5635   1
  15   9  16 184.669 36.4510   2
 -15  -9  16 268.739 39.8210   2
 -15  -9  16 240.167 34.4312   1
 -15  -9  18 155.946 34.4898   2
  15 -10  17 15.4620 12.2460   4
 -10  15  15 111.901 19.6694   2
  15  10 -15 150.085 18.6424   4
  10  15 -15 91.6505 16.8559   4
  15 -10  15 118.215 13.7732   4
 -15  10  15 89.8377 21.8587   2
 -10  15  13 49.0062 15.5913   2
  15  10 -13 58.7059 15.5414   4
  10  15 -13 45.7706 14.3779   4
  15 -10  13 60.0535 11.1509   4
 -15  10  13 57.3166 18.4386   2
  15 -10  11 138.939 14.1786   2
 -10  15  11 130.256 17.6965   2
  15  10 -11 143.467 16.4540   2
  10  15 -11 136.273 13.0898   2
  10  15 -11 136.704 17.3273   4
  15 -10  11 142.713 12.4858   4
 -15  10  11 115.998 21.8158   2
  10  15  -9 93.4924 13.1197   2
  15  10  -9 94.3241 15.8066   2
 -10  15   9 77.2937 14.5144   2
  15 -10   9 90.7426 12.4374   2
  15 -10   9 90.5659 10.5495   4
 -15  10   9 94.6227 18.9074   2
  10 -15   9 103.792 11.7707   1
  15  10  -7 180.760 19.5974   2
 -10  15   7 180.322 17.8749   2
  15 -10   7 201.112 15.6937   2
  15 -10   7 185.257 11.7918   4
 -15  10   7 187.535 22.8246   2
  10 -15   7 163.845 12.4796   1
  10  15  -7 193.880 17.7454   2
  15 -10   5 681.627 28.2902   2
  15  10  -5 576.902 33.9284   1
 -15  10   5 629.868 37.9774   2
  10  15  -5 614.669 32.6887   2
  15 -10   5 620.508 27.2294   1
  15 -10   5 652.891 21.6064   4
  10 -15   5 542.639 20.4660   1
  15  10  -5 622.573 34.6775   2
 -10  15   5 638.111 30.9692   2
  10  15  -3 611.180 33.4966   1
  15 -10   3 597.174 27.2701   2
  10  15  -3 521.064 33.5460   2
 -15  10   3 604.302 37.9900   2
  15  10  -3 589.342 35.4568   1
  15 -10   3 611.035 19.1772   4
  15  10  -3 645.792 36.5679   2
 -10  15   3 608.269 29.6931   2
 -15  10   1 213.906 25.5408   2
  15 -10   1 188.744 15.8309   2
  15  10  -1 230.351 23.9833   1
  15  10  -1 225.337 25.7223   2
  10  15  -1 196.943 21.9265   1
 -10  15   1 219.556 18.1671   2
  15  10   1 254.918 26.0181   1
  10  15   1 206.212 27.6548   2
 -15  10  -1 205.209 27.8196   2
  15  10   1 252.056 28.5000   2
  10  15   1 238.672 24.2986   1
 -10  15  -1 225.118 18.4637   2
  15  10   3 584.634 38.7396   1
  10  15   3 597.953 45.5153   2
 -15  10  -3 593.227 42.0018   2
 -10  15  -3 613.478 30.5222   2
  15  10   3 614.124 42.7142   2
  10  15   3 615.386 37.7530   1
  15 -10  -3 557.466 26.9186   3
  10  15   5 604.635 48.8368   2
 -10  15  -5 708.905 33.9729   2
  10  15   5 640.467 39.9633   1
  15  10   5 596.417 45.9934   2
  15 -10  -5 641.546 29.4756   3
  15  10   5 589.156 41.9333   1
  15 -10  -7 168.393 15.4316   3
  10  15   7 130.371 25.1307   1
  15  10   7 156.692 28.3815   2
 -10 -15   7 139.808 28.6828   1
  10  15   9 90.6910 26.0705   1
  15  10   9 82.4782 28.3440   2
 -15 -10   9 50.5858 25.7669   1
 -10 -15   9 122.425 28.1395   1
 -10 -15  11 116.826 27.1129   1
  10  15  11 113.234 27.6337   1
 -15 -10  11 160.435 29.2729   1
 -15 -10  13 105.785 29.9517   1
  15 -10 -13 62.4152 12.9518   3
 -15 -10  13 84.1416 32.7885   2
 -10 -15  13 37.6267 25.9121   1
  10  15  13 18.0954 25.5317   1
  15 -10 -15 122.045 16.0662   3
 -15 -10  15 134.551 31.5383   1
  15  10  15 65.5413 31.0267   2
 -15 -10  15 70.7198 33.3217   2
 -15 -10  17 53.8187 33.3316   2
 -11  15  14 43.4800 17.9119   2
  11  15 -14 88.2435 17.0035   4
  15 -11  14 47.2252 11.9076   4
 -15  11  14 69.1561 21.5690   2
 -11  15  12 51.6138 15.9045   2
  11  15 -12 92.7666 16.2143   4
  15 -11  12 73.4080 11.4167   4
 -15  11  12 74.6584 20.8828   2
 -11  15  10 106.424 17.3333   2
  11  15 -10 110.817 14.1875   2
  15  11 -10 85.4764 14.9289   2
  15 -11  10 89.9144 12.0421   2
  11  15 -10 85.0810 17.5152   4
  15 -11  10 106.372 11.9906   4
 -15  11  10 98.9756 20.4710   2
  11 -15  10 92.0629 12.1840   1
  11  15  -8 47.5992 13.0632   2
  15  11  -8 30.5217 13.8518   2
 -11  15   8 49.3816 15.0831   2
  11 -15   8 37.7818 9.40053   1
  15 -11   8 38.2169 10.5664   2
  15 -11   8 41.8529 8.62242   4
 -15  11   8 33.9779 16.9234   2
 -11  15   6 253.755 21.2415   2
  11 -15   6 215.882 11.5753   1
  15 -11   6 257.315 16.8357   2
  15 -11   6 259.285 12.2518   4
 -15  11   6 245.234 24.6133   2
  11  15  -6 220.559 20.3563   2
  15  11  -6 275.855 23.2362   2
  15  11  -4 60.4105 17.4475   1
  11  15  -4 32.3818 15.1769   1
  15 -11   4 44.0900 4.36853   4
 -15  11   4 39.3963 18.1792   2
  11  15  -4 77.5855 18.0859   2
  15  11  -4 40.1826 17.1787   2
 -11  15   4 62.0166 14.5542   2
  15  11  -2 181.034 22.1096   1
  11  15  -2 143.256 21.2613   2
 -15  11   2 128.449 21.5447   2
  11  15  -2 139.843 20.8074   1
  15  11  -2 117.767 20.4992   2
 -11  15   2 148.648 17.1250   2
  11  15   0 190.106 22.3232   1
  15  11   0 196.119 24.4811   1
  11  15   0 216.199 27.0346   2
 -15  11   0 182.501 25.2820   2
  15  11   0 216.566 26.2329   2
 -11  15   0 230.349 20.4171   2
  15 -11   0 229.873 16.1066   3
  11  15   2 142.689 22.2433   1
 -15  11  -2 117.088 24.8590   2
  11  15   2 207.268 28.5096   2
 -11  15  -2 146.118 18.7144   2
  15  11   2 170.813 27.6306   2
  15 -11  -2 144.514 14.3762   3
 -15  11  -4 63.1418 25.4658   2
  11  15   4 88.5253 27.2661   2
 -11  15  -4 36.3772 16.4761   2
  15  11   4 60.2792 25.2241   2
  11  15   4 63.7163 20.9086   1
  15 -11  -6 184.640 16.0432   3
  11  15   6 244.767 35.4951   2
  15  11   6 293.911 35.5136   2
  11  15   6 234.373 28.0079   1
  15 -11  -8 30.4559 11.4948   3
  11  15   8 23.9264 21.8170   1
  15  11   8 36.0583 26.4191   2
 -11 -15   8 2.56984 22.3529   1
  11  15  10 117.466 28.6798   1
  15 -11 -10 106.645 14.5103   3
  15  11  10 60.0502 29.4816   2
 -15 -11  10 50.9473 25.7529   1
 -11 -15  10 114.988 29.5673   1
 -11 -15  12 48.0189 26.6685   1
  15 -11 -12 45.1694 11.8396   3
 -15 -11  12 96.1124 29.8546   1
  11  15  14 24.5328 27.2224   1
 -15 -11  16 37.3444 38.5195   2
 -12  15  13 73.4891 19.4251   2
  15  12 -13 42.5177 13.2554   2
 -15  12  13 64.3753 20.9720   2
 -12  15  11 65.9749 18.1754   2
  15  12 -11 97.6932 15.1111   2
  12  15 -11 96.0890 13.9151   2
  15  12 -11 81.2945 16.9619   4
  12  15 -11 96.8027 17.9425   4
 -15  12  11 81.5844 20.6363   2
 -15  12   9 298.572 28.6019   2
 -12  15   9 329.147 26.4469   2
  12  15  -9 312.997 21.7894   2
  15  12  -9 351.220 24.4167   2
  15 -12   7 152.059 10.1835   4
  12 -15   7 150.830 10.0798   1
 -15  12   7 163.238 22.6870   2
  12  15  -7 180.607 18.6780   2
 -12  15   7 207.691 20.2200   2
  15  12  -7 156.227 18.9621   2
  12 -15   5 343.767 15.3102   3
 -15  12   5 373.088 29.5501   2
  12  15  -5 337.297 25.9032   2
  15  12  -5 323.609 26.9458   2
 -12  15   5 352.316 25.6525   2
  15  12  -5 354.088 27.5266   1
  12 -15   3 21.2702 7.24981   3
  12  15  -3 16.6210 15.4687   1
 -15  12   3 31.1868 18.6259   2
  12  15  -3 11.2088 16.0633   2
  15  12  -3 28.4128 17.1081   2
 -12  15   3 25.3131 13.6605   2
  12 -15   1 49.0076 8.56344   3
  12  15  -1 18.5037 17.5633   2
  12  15  -1 48.3370 17.5978   1
  15  12  -1 41.8058 18.2004   2
 -12  15   1 25.4008 13.8892   2
 -15  12   1 46.6299 18.3108   2
  15 -12   1 51.4652 9.91395   3
  15 -12  -1 41.4411 10.0871   3
 -15  12  -1 48.2298 18.9569   2
  12  15   1 17.2466 20.6254   2
 -12  15  -1 26.1660 14.8225   2
  15  12   1 23.4857 19.9584   2
  12  15   1 22.2917 17.4944   1
  15 -12  -3 36.5761 10.8489   3
  12  15   3 49.5721 20.9788   1
  12 -15  -3 21.9181 9.43132   3
 -15  12  -3 27.3868 22.6479   2
  12  15   3 17.4412 23.2801   2
 -12  15  -3 16.7062 16.8001   2
  15  12   3 16.8800 21.0923   2
  12  15   5 390.605 39.9307   2
  15  12   5 321.440 36.5894   2
  12  15   5 370.091 32.7722   1
  15 -12  -5 305.854 20.0365   3
  15 -12  -7 197.313 16.7706   3
  12  15   7 192.154 37.0111   2
  15  12   7 201.107 35.0010   2
  12  15   7 185.928 28.5171   1
  15 -12  -9 293.278 21.1060   3
  15  12   9 311.104 40.6236   2
 -15 -12   9 337.335 38.8189   1
 -12 -15   9 238.124 34.9659   1
  12  15  11 59.3207 26.2327   1
  15 -12 -11 66.4178 13.3565   3
  15  12  11 45.0774 29.2493   2
 -15 -12  11 68.2301 30.1547   1
  15  12  11 103.171 30.6508   1
 -12 -15  11 55.8863 27.1273   1
  15 -12 -13 45.5234 13.4155   3
  12  15  13 79.2567 30.6373   1
  15  13 -14 143.604 16.4461   2
 -13  15  12 58.3782 19.0648   2
  15  13 -12 82.0854 14.8282   2
  13  15 -12 56.3236 12.3445   2
 -15  13  12 67.2533 20.5745   2
  13  15 -10 359.114 23.3824   2
 -13  15  10 432.566 31.1628   2
 -15  13  10 398.527 32.5642   2
  13  15  -8 141.570 17.0068   2
 -15  13   8 139.081 21.9894   2
 -13  15   8 147.327 20.6200   2
  13 -15   6 7.67525 6.17306   3
 -15  13   6 11.9768 16.4306   2
 -13  15   6 8.77761 14.6681   2
 -15  13   4 542.894 35.3400   2
 -13  15   4 543.221 33.0799   2
  15  13  -4 523.285 34.0848   2
  15 -13   4 539.719 24.6192   3
  13  15  -4 541.105 34.0698   1
  13 -15   2 201.699 13.6721   3
  13  15  -2 251.289 26.8160   2
  13  15  -2 257.625 25.9641   1
 -13  15   2 237.103 22.7252   2
  15 -13   2 237.323 15.9661   3
  13  15   0 218.368 25.7093   1
  13 -15   0 232.809 14.6783   3
 -15  13   0 207.870 26.5281   2
  13  15   0 223.102 27.4282   2
 -13  15   0 222.377 23.0888   2
  15  13   0 202.964 26.4214   2
  15 -13   0 229.444 15.9441   3
  13 -15  -2 216.899 14.8733   3
 -15  13  -2 231.576 28.9792   2
  13  15   2 244.417 26.7102   1
 -13  15  -2 201.713 24.0071   2
  13  15   2 199.118 29.6751   2
  15 -13  -4 521.534 25.5138   3
  13 -15  -4 511.723 24.5604   3
 -13  15  -4 445.167 34.5463   2
 -15  13  -4 509.988 40.3972   2
  15  13   4 569.382 45.8730   2
  13  15   4 512.364 44.1151   2
  13  15   4 569.590 38.8878   1
  15 -13  -6 12.8926 9.75200   3
  15  13   6 11.5590 25.6703   2
  15  13   6-22.9577 22.8251   1
  13  15   6-21.6529 22.1519   1
  15 -13  -8 127.619 15.0101   3
  15  13   8 102.064 27.0596   1
  15  13   8 120.722 30.7047   2
  13  15   8 175.220 28.9118   1
  13  15  10 380.566 39.4209   1
  13  15  10 372.879 44.1403   2
  15  13  10 336.389 42.5881   2
 -13 -15  10 451.095 44.5786   1
  15 -13 -12 65.2778 14.1970   3
  15  14 -11 135.535 17.1553   2
  14  15 -11 157.724 17.1512   2
 -15  14  11 106.515 23.1966   2
 -14  15  11 134.857 22.1829   2
 -15  14   9 23.5324 18.3138   2
 -14  15   9 35.1156 17.2600   2
 -15  14   7 300.080 27.4936   2
 -14  15   7 302.759 26.9460   2
  15  14  -7 311.172 24.3682   2
  14  15  -7 294.661 24.3112   2
  14 -15   5 923.326 32.6483   3
 -15  14   5 866.387 46.4987   2
 -14  15   5 923.019 45.6374   2
  14  15  -5 863.032 43.8999   2
  15  14  -5 895.033 44.6236   2
  15 -14   5 996.453 34.8377   3
  14  15  -3 736.220 41.4501   1
 -15  14   3 796.404 43.2995   2
 -14  15   3 789.088 41.6245   2
  14  15  -3 776.180 42.0199   2
  15  14  -3 747.516 42.4202   2
  15 -14   3 792.573 31.1487   3
  14 -15   1 574.304 25.0246   3
  15  14  -1 552.889 37.1103   1
 -15  14   1 503.767 36.1216   2
 -14  15   1 578.754 35.5771   2
  14  15  -1 536.361 37.2535   2
  14  15  -1 592.193 37.2549   1
  15  14  -1 613.605 40.1899   2
  15 -14  -1 573.704 26.3826   3
  14 -15  -1 594.231 25.8378   3
 -15  14  -1 528.073 37.8989   2
 -14  15  -1 554.805 36.4818   2
  14  15   1 592.749 41.9933   2
  15  14   1 556.136 38.0270   1
  14  15   1 527.135 37.4361   1
  15 -14  -3 810.849 32.9497   3
  14 -15  -3 766.784 31.7691   3
 -15  14  -3 695.973 46.1332   2
 -14  15  -3 779.346 44.4662   2
  15  14   3 700.030 48.9976   2
  15  14   3 761.253 46.0385   1
  14  15   3 770.048 45.4733   1
  15 -14  -5 977.296 37.9963   3
  14 -15  -5 887.177 36.6104   3
  14  15   5 980.099 60.0350   2
  15  14   5 863.643 51.2168   1
  15  14   5 901.934 58.2176   2
  14  15   5 977.757 53.0637   1
  14  15   7 319.953 40.2249   2
  15  14   7 328.671 41.3485   2
  14  15   7 316.064 34.1816   1
  14  15   9 12.6855 24.8050   1
  15  14   9 41.9781 30.8729   2
  15 -14 -11 109.232 15.7577   3
  15  15 -10 73.7821 15.8098   2
 -15  15  10 82.7729 21.3038   2
 -15  15   8 753.567 43.6408   2
  15  15  -8 807.215 39.0303   2
 -15  15   6 1067.17 52.6739   2
  15  15  -6 1104.97 48.9513   2
  15  15  -4 391.830 30.6257   1
 -15  15   4 345.458 30.4647   2
  15  15  -4 372.980 30.1809   2
  15 -15   2 1186.08 41.7255   3
 -15  15   2 1090.49 54.4440   2
  15  15  -2 1135.84 55.2757   2
  15  15  -2 1188.02 55.5438   1
  15 -15   0 3447.95 102.793   3
  15  15   0 3463.54 118.692   1
 -15  15   0 3393.75 117.731   2
  15 -15  -2 1190.57 43.2055   3
 -15  15  -2 1052.05 55.3823   2
  15  15   2 1183.38 61.8973   2
  15  15   2 1115.54 56.5398   1
  15  15   4 281.521 31.9912   1
  15 -15  -4 342.756 20.7468   3
 -15  15  -4 394.163 35.5746   2
  15  15   4 335.294 38.1244   2
  15 -15  -6 1092.57 42.3732   3
  15  15   6 1050.14 57.9635   1
  15 -15  -8 756.578 34.0986   3
  15  15   8 732.341 56.8911   2
   0  16   0 3023.93 86.8450   3
 -16   0   0 3085.16 120.195   2
  16   0   0 2976.28 97.9620   1
  16   0   0 3173.51 100.537   2
  16   0   2 596.924 33.4304   1
  16   0  -2 539.167 29.0112   1
   0  16   2 561.090 21.8891   3
 -16   0   2 560.204 44.4795   2
   0  16   2 501.299 24.4179   1
  16   0   2 479.856 31.0166   2
  16   0  -2 502.549 29.8288   2
   0  16  -2 508.064 19.2461   3
   0  16   4 1546.59 49.8941   3
   0  16   4 1617.97 53.7023   1
  16   0  -4 1529.32 54.7201   1
   0  16  -4 1619.27 51.3752   4
  16   0   4 1674.98 64.0271   2
   0 -16   4 1546.27 61.5099   1
  16   0   4 1452.16 62.4413   1
  16   0  -4 1378.31 56.5573   2
   0  16   6 2357.61 75.0255   3
   0  16   6 2512.20 79.7059   1
  16   0   6 2572.00 90.6046   2
   0  16  -6 2555.27 75.8283   4
  16   0   6 2294.38 89.2679   1
   0 -16   6 2570.86 86.8866   1
   0  16   8 715.702 34.4453   1
   0  16   8 661.754 28.8121   3
   0 -16   8 666.582 37.1879   1
 -16   0   8 700.472 46.0271   2
  16   0   8 770.896 43.1082   2
   0  16  -8 719.439 28.8403   4
   0  16  10 1072.00 40.5665   3
  16   0 -10 1061.63 44.0885   2
  16   0  10 1122.84 55.9676   2
 -16   0  10 1017.68 56.1845   2
   0 -16  10 1049.03 47.9085   1
  16   0 -10 1090.86 40.6137   4
 -16   0  10 1122.75 53.7271   1
   0  16 -10 1064.56 39.3080   4
   0  16  12 2127.79 71.8046   3
  16   0  12 2078.88 88.3054   2
 -16   0  12 2197.12 89.5943   2
  16   0 -12 2314.59 71.0752   4
   0  16  12 2092.36 78.8027   1
   0  16 -12 2299.99 70.6580   4
   0 -16  12 2196.80 79.7468   1
 -16   0  12 2197.96 84.7343   1
   0  16  14 254.549 20.6478   3
 -16   0  14 356.669 31.7393   1
  16   0  14 304.907 34.1379   2
 -16   0  14 294.176 32.6257   2
   0  16 -14 285.359 19.2158   4
   0 -16  14 275.045 26.6617   1
   0  16  16 289.493 21.5851   3
   0 -16  16 300.574 27.9870   1
 -16   0  16 352.426 32.1876   1
 -16   0  16 350.611 34.2588   2
  16   0 -16 313.353 19.5949   4
   0  16 -16 281.241 20.1797   4
 -16   0  18 522.921 39.3960   1
   0 -16  18 529.668 36.6107   1
 -16   0  18 575.428 43.2201   2
   0  16 -18 505.679 27.4997   4
   0  16  18 594.172 26.1496   4
  16   0 -18 600.742 30.8969   3
   0  16  18 482.569 29.7429   3
  16   0  20 166.495 38.3984   2
 -16   0  20 139.020 28.8303   1
 -16   1  21 213.312 31.0213   1
  16   1 -21 205.927 18.6801   4
  16  -1  19 57.1799 28.6701   2
   1 -16  19 15.6570 18.2282   1
 -16   1  19 24.7515 21.0493   1
  16   1 -19 18.6960 11.2896   4
  -1  16  19 25.6846 10.7312   4
  16  -1  19 30.9760 13.8034   4
  16   1 -17 199.402 19.0400   3
  -1  16  17 182.756 18.7585   3
  16  -1  17 143.614 29.2935   2
 -16   1  17 224.265 27.4586   1
  16   1 -17 225.956 17.5939   4
 -16   1  17 181.478 28.6553   2
  -1  16  17 190.678 14.5713   4
   1  16 -17 231.291 19.1036   4
   1 -16  17 191.512 24.7568   1
   1 -16  15 1060.39 49.4101   1
  16  -1  15 1119.00 59.0047   2
 -16   1  15 1018.51 56.2234   2
  16   1 -15 1063.35 41.0722   4
   1  16 -15 1094.27 41.9123   4
  16   1 -15 1041.24 44.1510   3
  -1  16  15 1087.66 43.9359   3
 -16   1  15 1053.13 52.8583   1
  -1  16  13 689.975 32.3546   3
   1 -16  13 705.937 38.4717   1
  16  -1  13 671.459 45.3540   2
 -16   1  13 709.463 45.8262   2
  -1  16  13 714.108 38.1321   1
  16   1 -13 726.145 31.4187   4
   1  16 -13 734.086 31.2757   4
 -16   1  13 821.474 44.6035   1
  -1  16  11 284.538 19.4685   3
 -16   1  11 341.800 32.8247   2
  16   1 -11 322.159 20.6712   4
  16  -1  11 340.320 32.4531   2
   1  16 -11 309.470 19.3617   4
  -1  16  11 322.654 24.2317   1
   1 -16  11 340.806 26.1640   1
 -16   1  11 336.547 30.4117   1
  -1  16   9 2995.40 92.8769   3
  16   1  -9 3094.25 98.3726   2
   1 -16   9 3137.13 100.964   1
  16  -1   9 2956.67 106.775   2
   1  16  -9 3232.34 93.3549   4
  -1  16   9 2950.80 96.5879   1
  -1  16   7 1204.16 44.4778   3
   1 -16   7 1378.09 54.3381   1
  16   1  -7 1228.77 50.6399   2
  -1  16   7 1360.51 48.4884   1
  16  -1   7 1349.95 58.0290   2
   1  16  -7 1404.73 46.3969   4
  16   1  -5 304.197 20.8238   1
  -1  16   5 266.709 15.5521   3
   1  16  -5 283.433 17.4137   4
  16  -1   5 292.008 25.0740   2
   1 -16   5 325.573 25.8203   1
  16  -1   5 279.710 27.5217   1
  -1  16   5 308.149 18.3569   1
   1  16  -5 278.593 10.5387   3
  -1  16   3 2835.54 86.9252   3
   1  16  -3 3024.41 83.5301   3
   1  16  -3 3025.31 94.1016   2
  -1  16   3 2986.50 88.8036   1
 -16   1   3 3059.14 113.327   2
  16   1  -3 3005.11 95.0863   1
  16  -1   3 3027.60 100.203   2
  16  -1   3 3008.51 99.9743   1
   1  16  -1 1194.41 37.3053   3
  16  -1   1 1186.19 48.7248   1
 -16   1   1 1180.23 62.6213   2
  16   1  -1 1190.38 48.6459   1
  16  -1   1 1094.22 48.5021   2
  16   1  -1 1130.79 48.9686   2
  -1  16   1 1174.05 38.3196   3
   1  16   1 1200.67 38.1209   3
  16   1   1 1128.25 49.6673   1
 -16   1  -1 1202.97 65.4547   2
 -16  -1   1 1079.60 64.3103   2
   1  16   1 1112.70 42.1512   1
  16   1   1 1131.19 49.8567   2
  16  -1  -1 1105.17 45.4231   1
  16  -1  -1 1156.15 47.7586   2
  -1  16  -1 1157.21 36.5005   3
   1  16   3 2847.75 86.0647   3
   1  16   3 2839.87 90.8575   1
  16   1   3 2908.74 100.847   2
  -1  16  -3 3053.95 86.9042   4
  16  -1  -3 3026.02 92.1534   1
  16   1   3 2963.25 100.534   1
  16  -1  -3 3016.07 96.1108   2
  -1 -16   5 234.949 25.3354   1
  16  -1  -5 297.389 21.4711   2
   1  16   5 311.237 16.4401   3
  -1  16  -5 315.241 16.7849   4
   1  16   5 281.555 20.6793   1
  16   1   5 300.719 27.1814   2
  16   1   5 309.582 28.5078   1
   1  16   7 1249.60 45.1353   3
   1  16   7 1266.04 50.9099   1
 -16  -1   7 1337.10 66.1062   2
  16   1   7 1258.67 59.1365   2
  -1  16  -7 1391.59 44.5828   4
  -1 -16   7 1378.88 56.9338   1
   1  16   9 3306.89 95.8511   3
  -1 -16   9 3165.07 105.520   1
 -16  -1   9 3017.22 114.751   2
  16   1   9 2936.56 111.421   2
  16  -1  -9 3177.20 94.6860   4
 -16  -1   9 3045.76 109.552   1
  -1  16  -9 3171.86 93.2773   4
   1  16   9 3071.99 102.523   1
  -1 -16  11 321.301 26.7990   1
   1  16  11 293.445 19.6185   3
  16   1  11 329.538 33.5593   2
  16  -1 -11 353.892 22.8677   2
 -16  -1  11 304.576 32.0848   2
  16  -1 -11 361.099 20.0037   4
   1  16  11 361.962 27.7926   1
  -1  16 -11 335.416 19.0551   4
 -16  -1  11 333.579 31.9480   1
   1  16  13 740.147 33.5001   3
  16   1  13 805.166 51.4553   2
 -16  -1  13 731.396 47.3633   2
  -1  16 -13 755.778 31.2436   4
  -1 -16  13 746.793 41.3542   1
 -16  -1  13 683.783 42.9997   1
 -16  -1  15 1031.31 53.7661   1
   1  16  15 1139.39 44.5677   3
  16   1  15 1037.74 61.9673   2
 -16  -1  15 1064.83 58.1280   2
  16  -1 -15 1058.08 39.9325   4
  -1  16 -15 1134.18 41.3927   4
  16  -1 -15 1070.22 44.5712   3
  -1 -16  15 982.663 50.2781   1
  16  -1 -17 180.775 18.3854   3
   1  16  17 172.632 18.0144   3
  -1 -16  17 197.387 26.7819   1
  16   1  17 190.041 36.2962   2
 -16  -1  17 207.086 29.0118   1
 -16  -1  17 245.069 31.4845   2
  -1  16 -17 230.427 18.1451   4
  16   1  19 36.1944 33.8223   2
  -1 -16  19 35.2144 22.7553   1
 -16  -1  19 26.8315 22.9911   1
  16  -1 -19 47.1821 12.1987   4
   1  16  19 50.3231 12.8524   4
 -16  -1  21 186.539 29.9347   1
  16  -1 -21 186.129 16.9714   4
   2 -16  20 91.4597 22.5439   1
  16  -2  20 71.8626 25.1563   2
 -16   2  20 54.7308 22.4415   1
  16   2 -20 71.9226 14.4629   4
  -2  16  18 125.602 17.6481   3
  16   2 -18 130.348 16.4850   3
 -16   2  18 114.976 23.2271   1
   2  16 -18 128.264 16.8033   4
   2 -16  18 114.136 21.4978   1
  16  -2  18 144.237 17.0030   4
  -2  16  16 22.6818 12.4937   3
   2 -16  16-11.9780 16.9375   1
 -16   2  16 17.2739 19.2203   1
  16  -2  16 35.0837 21.2465   2
 -16   2  16 8.90646 19.2550   2
   2  16 -16 20.7058 11.3848   4
  -2  16  16 9.36155 7.77163   4
  16   2 -16 11.0929 11.4878   3
  -2  16  14 165.493 17.4748   3
 -16   2  14 190.950 25.1740   1
   2 -16  14 188.459 22.9683   1
  16  -2  14 173.443 25.3016   2
   2  16 -14 209.061 17.5841   4
 -16   2  14 231.440 29.1945   2
  -2  16  14 185.132 13.3492   4
   2 -16  12 840.425 40.1078   1
  16  -2  12 798.902 45.2043   2
  16   2 -12 785.628 36.4642   2
 -16   2  12 876.216 49.1902   2
  16   2 -12 765.451 34.2878   4
  -2  16  12 743.310 37.3434   1
   2  16 -12 767.089 32.9333   4
 -16   2  12 847.788 45.4451   1
  -2  16  12 812.436 34.5256   3
  16   2 -10 425.218 25.7745   2
  16  -2  10 442.629 32.2455   2
  16   2 -10 412.241 23.8230   4
 -16   2  10 454.528 33.1728   1
   2  16 -10 404.563 22.0791   4
   2 -16  10 398.830 27.6045   1
  -2  16  10 397.147 24.8183   1
  -2  16  10 407.418 22.3517   3
  -2  16   8 81.2016 11.5124   3
  16   2  -8 86.4270 14.8904   2
   2  16  -8 103.225 13.3271   4
  16  -2   8 66.6334 18.4659   2
  -2  16   8 95.7173 14.2973   1
   2 -16   8 84.0298 17.6440   1
  16   2  -6 554.380 29.7601   2
   2  16  -6 494.706 16.2053   3
 -16   2   6 520.803 38.3651   2
   2  16  -6 524.195 24.6138   4
  16  -2   6 484.274 31.1528   2
  -2  16   6 517.893 23.8439   1
  -2  16   6 489.115 22.6468   3
   2 -16   6 530.992 30.5066   1
  -2  16   4 409.521 19.6208   1
   2  16  -4 423.803 22.0792   2
 -16   2   4 432.485 35.9667   2
   2 -16   4 397.852 27.1569   1
  16  -2   4 399.228 29.3013   1
  16  -2   4 456.640 28.6862   2
  16   2  -4 405.745 25.3352   1
  -2  16   4 402.244 19.3687   3
  16  -2   2 118.904 18.9187   1
 -16   2   2 111.555 25.2335   2
  16   2  -2 132.931 18.9088   1
  16  -2   2 124.765 17.6250   2
  -2  16   2 112.762 10.6690   3
  16  -2   0 121.732 15.8509   2
  16  -2   0 90.3037 15.7556   1
 -16   2   0 77.1086 25.9722   2
  -2  16   0 74.2881 9.21595   4
  16   2   0 69.0046 16.7038   2
   2  16   0 95.6429 13.3903   1
  16   2   0 87.7952 18.1633   1
  -2  16   0 84.7492 8.24626   3
  16  -2  -2 148.691 16.4967   2
  16  -2  -2 134.749 15.5804   1
  16   2   2 92.0576 20.6494   1
  -2  16  -2 134.304 8.97879   2
  -2  16  -2 139.200 11.1289   4
  16   2   2 127.939 19.3584   2
   2  16   2 119.712 15.3880   1
  16  -2  -4 458.828 25.4590   2
  16  -2  -4 385.276 21.1668   1
  16   2   4 403.843 29.9872   2
  -2 -16   4 454.881 31.9709   1
  -2  16  -4 416.653 18.2132   4
   2  16   4 410.998 24.5892   1
  16   2   4 383.489 30.5859   1
  -2  16  -4 361.143 13.1514   2
  16  -2  -6 511.743 27.7675   2
   2  16   6 522.898 29.3987   1
 -16  -2   6 408.196 38.6084   2
  16   2   6 535.887 36.0441   2
  16   2   6 531.658 36.7465   1
  -2  16  -6 495.016 21.4408   4
  -2 -16   6 562.692 35.6607   1
   2  16   8 86.4423 11.5858   3
   2  16   8 78.0324 17.6410   1
  -2 -16   8 124.810 22.8545   1
 -16  -2   8 103.435 23.9422   2
  16   2   8 114.950 24.0700   2
  16  -2  -8 75.3581 11.9709   4
  -2  16  -8 110.451 11.6377   4
   2  16  10 458.748 24.1093   3
  -2 -16  10 434.271 32.6189   1
  16   2  10 427.894 37.7718   2
 -16  -2  10 435.252 38.1148   2
 -16  -2  10 470.439 36.0821   1
  16  -2 -10 495.251 22.6559   4
   2  16  10 448.005 31.5693   1
  -2  16 -10 492.227 22.1724   4
   2  16  12 731.460 33.2962   3
  16   2  12 767.408 51.4355   2
 -16  -2  12 741.874 48.2270   2
  -2 -16  12 748.118 41.7798   1
   2  16  12 740.560 42.4691   1
  16  -2 -12 776.102 30.5614   4
  -2  16 -12 828.563 32.0189   4
 -16  -2  12 764.002 46.0555   1
   2  16  14 189.232 18.2512   3
 -16  -2  14 167.706 28.4797   1
  -2 -16  14 186.947 24.8755   1
  16   2  14 214.928 34.5746   2
 -16  -2  14 218.931 30.0540   2
  16  -2 -14 179.574 14.5443   4
  -2  16 -14 187.472 15.5679   4
  16  -2 -14 182.000 17.4939   3
  16  -2 -16 26.3481 11.9178   3
   2  16  16 10.1696 12.3283   3
  16   2  16 25.1943 28.8514   2
 -16  -2  16 6.03896 21.0861   1
 -16  -2  16 26.4846 22.4928   2
  -2 -16  16 33.3912 20.3946   1
  -2  16 -16 25.6878 10.4801   4
  16  -2 -18 130.442 16.4669   3
  16   2  18 142.285 39.3392   2
 -16  -2  18 120.086 26.3217   1
 -16  -2  18 126.645 27.5426   2
  16  -2 -18 135.096 14.1363   4
  -2 -16  18 80.1836 23.4094   1
 -16  -2  20 103.762 29.0206   1
  16  -2 -20 63.2964 12.2739   4
   2  16  20 94.0547 16.0282   4
  16   3 -19 112.981 17.0165   3
  16  -3  19 72.4890 23.9944   2
   3 -16  19 91.8620 21.7535   1
 -16   3  19 121.616 25.1249   1
  16   3 -19 141.633 17.2706   4
  16  -3  19 130.309 17.4569   4
   3 -16  17 208.271 24.3449   1
 -16   3  17 224.619 27.0060   1
  16  -3  17 188.958 26.8948   2
   3  16 -17 270.663 20.6719   4
 -16   3  17 216.246 29.7289   2
  16  -3  17 238.134 18.9440   4
  -3  16  17 237.822 21.1920   3
  16   3 -17 239.053 20.4126   3
 -16   3  15 126.929 23.2111   1
   3 -16  15 163.432 21.4342   1
  16  -3  15 194.907 25.7500   2
  16   3 -15 179.677 16.9946   4
 -16   3  15 187.721 26.8258   2
   3  16 -15 172.456 16.2470   4
  -3  16  15 174.921 12.9120   4
  -3  16  15 148.659 16.7987   3
 -16   3  13 142.889 23.9189   1
   3 -16  13 172.439 21.1434   1
  16   3 -13 191.479 18.1109   2
  16   3 -13 196.982 17.7315   4
 -16   3  13 145.403 26.0765   2
   3  16 -13 161.411 16.2947   4
  -3  16  13 172.860 18.8914   1
  -3  16  13 154.222 11.4862   4
  -3  16  13 183.478 16.7789   3
  16   3 -11 166.918 17.3051   2
  16   3 -11 188.481 16.7150   4
  16  -3  11 139.925 22.5769   2
   3  16 -11 146.304 15.5355   4
   3 -16  11 122.102 18.4928   1
 -16   3  11 144.529 23.8326   1
  -3  16  11 152.316 15.0790   3
   3 -16   9 24.7000 14.6746   1
  16   3  -9 44.2632 12.8109   2
  -3  16   9 24.9611 11.0910   1
   3  16  -9 26.6034 11.3651   4
  16  -3   9 40.9245 16.3779   2
  -3  16   9 33.8160 10.1688   3
  16   3  -7 540.702 29.6661   2
   3 -16   7 546.109 30.3153   1
 -16   3   7 509.010 38.0259   2
   3  16  -7 510.327 25.5347   4
  16  -3   7 489.315 31.8218   2
  -3  16   7 548.948 23.6854   1
  -3  16   7 546.792 25.1132   3
  16   3  -5 129.193 16.7773   2
   3 -16   5 171.586 19.2181   1
  -3  16   5 151.807 11.1900   1
 -16   3   5 142.726 24.7115   2
   3  16  -5 148.786 12.9184   2
  16  -3   5 163.740 21.9754   1
  16   3  -5 129.124 16.4535   1
  16  -3   5 138.546 18.2717   2
  -3  16   5 152.524 12.0944   3
   3  16  -3 407.356 26.0158   2
  16   3  -3 442.176 27.5586   1
 -16   3   3 374.443 33.8693   2
  16  -3   3 444.615 26.9924   2
  16  -3   3 419.446 28.2968   1
  -3  16   3 428.764 19.5072   3
  16  -3   1 42.7086 13.0408   2
  16   3  -1 40.0539 16.0123   1
 -16   3   1 75.8565 24.0938   2
  -3  16   1 50.9197 7.11749   4
  16  -3   1 52.2740 14.3194   1
  16  -3  -1 49.9279 12.8479   2
   3  16   1 25.4121 12.1423   1
 -16   3  -1 61.8933 24.2284   2
  -3  16  -1 45.8627 6.63697   2
  -3  16  -1 48.2250 6.92988   4
  16   3   1 56.0682 18.2802   1
  16  -3  -1 43.0779 11.4954   1
  -3  16  -3 440.549 16.2194   2
  16  -3  -3 431.951 25.8427   2
 -16  -3   3 430.133 41.5684   2
  16  -3  -3 413.526 21.8679   1
  16   3   3 450.011 32.0914   2
  -3  16  -3 458.813 18.2825   4
   3  16   3 455.108 26.1386   1
  16   3   3 453.426 31.8202   1
 -16  -3   5 177.749 30.4787   2
  16  -3  -5 129.490 15.3447   2
  16   3   5 130.670 21.6132   2
  -3  16  -5 146.288 10.5735   4
   3  16   5 128.544 17.4980   1
  -3 -16   5 124.086 22.5829   1
  16   3   5 132.793 22.6591   1
   3  16   7 547.655 32.5436   1
 -16  -3   7 508.153 41.3204   2
  16  -3  -7 509.576 27.2148   2
  16   3   7 498.997 37.8996   2
  16  -3  -7 503.634 22.6611   4
  16   3   7 495.957 37.8087   1
  -3  16  -7 466.866 20.9862   4
  -3 -16   7 569.916 36.5175   1
   3  16   9 16.7213 17.1599   1
 -16  -3   9 44.4558 22.1870   2
  -3 -16   9 45.3069 20.3087   1
  16   3   9 13.9942 20.0737   2
  16  -3  -9 48.0256 12.9244   2
  16  -3  -9 28.3728 8.93283   4
 -16  -3   9 62.4844 21.1507   1
  -3  16  -9 31.8346 8.93427   4
 -16  -3  11 146.224 26.1040   1
  16   3  11 139.139 28.5119   2
 -16  -3  11 180.857 29.3014   2
  16  -3 -11 140.340 12.2899   4
  -3 -16  11 148.993 22.5124   1
  -3  16 -11 134.011 12.3563   4
   3  16  11 108.654 22.4520   1
  -3 -16  13 227.750 26.8290   1
 -16  -3  13 179.667 28.4949   1
   3  16  13 179.387 17.0841   3
 -16  -3  13 218.586 30.5489   2
  16  -3 -13 214.328 14.7593   4
   3  16  13 173.447 27.9868   1
  -3  16 -13 197.388 15.3501   4
   3  16  15 170.654 17.9018   3
  -3 -16  15 160.333 24.1210   1
 -16  -3  15 139.656 27.0768   1
 -16  -3  15 218.993 30.0608   2
  16  -3 -15 162.712 13.1684   4
  -3  16 -15 154.894 14.0171   4
   3  16  17 215.080 19.8805   3
 -16  -3  17 271.818 33.1828   1
 -16  -3  17 254.233 33.3997   2
  -3 -16  17 236.741 28.2417   1
  16  -3 -17 190.915 15.1993   4
  16   3  19 151.758 44.4288   2
 -16  -3  19 157.363 30.7398   2
 -16  -3  19 87.6360 27.5949   1
   3  16  21 7.69624 13.6309   4
   4 -16  20 60.7908 20.4846   1
 -16   4  18 287.298 29.6908   1
  16  -4  18 235.901 26.1987   2
  16   4 -18 237.731 20.1729   4
   4  16 -18 247.008 20.3492   4
  16  -4  18 250.868 19.4134   4
   4 -16  18 252.603 26.1814   1
  16   4 -18 253.555 21.2089   3
   4 -16  16 70.2105 19.6382   1
 -16   4  16 54.3555 21.2011   1
  16  -4  16 50.1322 19.4847   2
   4  16 -16 50.7435 13.8988   4
 -16   4  16 28.0630 20.6718   2
  16  -4  16 40.9294 12.5979   4
  -4  16  16 37.9896 13.9116   3
  16   4 -16 52.4609 13.5685   3
 -16   4  14 126.855 23.7646   1
   4 -16  14 158.548 20.8721   1
  16   4 -14 150.329 16.9390   4
   4  16 -14 178.197 16.7557   4
  -4  16  14 136.070 11.1061   4
  -4  16  14 132.760 17.0607   3
   4 -16  12 548.436 31.0917   1
  16   4 -12 602.156 30.6649   2
  16   4 -12 535.711 28.7570   4
  16  -4  12 569.544 35.5187   2
   4  16 -12 567.527 28.0524   4
 -16   4  12 578.818 36.7206   1
  -4  16  12 548.530 27.8407   1
  -4  16  12 593.128 21.5720   4
  -4  16  12 546.261 28.3319   3
  -4  16  10 442.980 21.9694   1
  16   4 -10 370.496 24.4391   2
   4  16 -10 396.880 23.2248   4
  16  -4  10 401.926 29.8833   2
 -16   4  10 385.639 32.6822   2
  -4  16  10 394.998 15.5689   4
   4 -16  10 414.418 26.0655   1
  -4  16  10 436.490 23.0854   3
  16   4  -8 685.895 34.9410   2
   4 -16   8 745.037 34.9293   1
 -16   4   8 676.911 43.9201   2
   4  16  -8 745.472 32.6145   4
  16  -4   8 790.806 39.2608   2
  -4  16   8 798.377 28.3908   1
  -4  16   8 719.682 31.0128   3
  16   4  -6 152.365 17.0598   2
 -16   4   6 166.205 25.2905   2
   4 -16   6 177.897 18.9521   1
   4  16  -6 157.877 12.1027   2
  16  -4   6 137.835 18.1418   2
 -16   4   4 23.1883 18.7798   2
   4  16  -4 50.1368 12.9943   2
  16   4  -4 57.7102 15.2462   1
   4 -16   4 50.0239 14.4567   1
  16  -4   4 69.2775 14.9701   2
  16   4  -4 63.3707 14.8652   2
  16  -4   4 54.4861 17.3039   1
  16  -4   2 537.127 29.0279   1
   4  16  -2 533.823 32.3575   2
 -16   4   2 615.805 42.4548   2
  -4  16   2 574.353 23.2727   2
  16   4  -2 533.659 32.3122   2
  16  -4   2 508.505 28.9365   2
  16   4  -2 584.934 32.4233   1
  16  -4   0 131.122 15.7597   2
  -4  16   0 148.738 10.3155   2
  16  -4   0 153.775 15.5711   1
 -16   4   0 140.808 27.3942   2
  -4  16   0 126.476 7.88524   4
   4  16   0 104.919 14.8356   1
  16   4   0 150.263 19.5865   1
  -4  16  -2 524.161 19.9292   2
   4  16   2 538.505 29.2442   1
  16   4   2 512.324 34.2305   1
  16  -4  -2 519.965 27.9906   2
 -16   4  -2 499.488 42.2652   2
  -4  16  -2 543.667 19.3680   4
  16  -4  -2 544.081 24.5889   1
   4  16   4 47.8654 14.3890   1
  16   4   4 71.5749 20.5442   1
 -16  -4   4 64.9671 27.0824   2
  16  -4  -4 65.6306 11.9717   2
  16   4   4 86.7822 19.4611   2
  -4  16  -4 46.0510 4.79841   2
  -4 -16   4 60.8589 21.3138   1
  -4  16  -4 51.8032 7.07457   4
  -4 -16   6 153.633 26.4356   1
  16   4   6 123.428 23.3541   2
 -16  -4   6 118.244 27.2696   2
  16  -4  -6 189.144 12.9141   4
   4  16   6 166.441 21.7703   1
  -4  16  -6 127.922 10.3876   4
  16  -4  -6 144.494 15.4473   2
  16   4   6 136.303 24.8577   1
 -16  -4   8 744.894 49.7264   2
  16   4   8 661.352 45.2126   2
  16  -4  -8 725.164 33.1454   2
  16  -4  -8 675.688 26.5064   4
 -16  -4   8 661.302 44.0566   1
   4  16   8 739.917 39.6638   1
  -4 -16   8 723.491 42.3544   1
   4  16  10 353.526 31.9971   1
  -4 -16  10 401.696 32.6371   1
 -16  -4  10 422.821 39.4783   2
  16   4  10 361.401 37.5712   2
  16  -4 -10 418.847 18.8305   4
  -4  16 -10 393.376 19.1372   4
 -16  -4  10 371.871 34.2564   1
  16   4  12 592.622 47.4930   2
  -4 -16  12 557.508 37.3337   1
 -16  -4  12 578.796 43.4018   2
   4  16  12 539.660 39.2103   1
  16  -4 -12 509.578 22.2785   4
 -16  -4  12 541.957 40.4286   1
  -4  16 -12 538.865 23.6845   4
  -4 -16  14 170.848 25.7155   1
 -16  -4  14 134.299 26.5406   1
  16   4  14 198.297 35.7308   2
 -16  -4  14 124.212 28.5739   2
  16  -4 -14 157.610 12.5953   4
  16  -4 -16 45.3681 12.8128   3
   4  16  16 52.7730 13.9780   3
  -4 -16  16 58.2553 23.1008   1
 -16  -4  16 37.3973 23.2342   1
 -16  -4  16 63.1054 26.9494   2
  16  -4 -16 29.8677 9.12084   4
  16   4  18 262.288 45.4336   2
  -4 -16  18 290.249 31.3203   1
 -16  -4  18 240.158 32.9674   1
 -16  -4  18 215.227 33.5785   2
  16   5 -19 116.242 16.5944   3
  16  -5  19 87.7632 15.9947   4
  16  -5  17 431.798 31.1535   2
  16   5 -17 418.562 26.5516   4
   5  16 -17 428.508 26.5880   4
   5 -16  17 455.721 31.3608   1
  16  -5  17 512.452 26.4297   4
  16   5 -17 422.353 26.3951   3
   5 -16  15 611.598 33.9450   1
  16  -5  15 597.756 36.1136   2
  16   5 -15 599.365 30.8050   4
   5  16 -15 604.617 30.5391   4
 -16   5  15 606.878 37.4128   1
  16  -5  15 606.388 28.0222   4
  16   5 -13 717.939 34.5380   2
  16   5 -13 686.597 33.1787   4
   5  16 -13 719.944 33.2511   4
 -16   5  13 754.022 40.9590   1
  -5  16  13 703.707 24.6787   4
  -5  16  13 745.865 31.9725   1
   5 -16  13 673.233 35.3712   1
  16  -5  13 663.885 29.5688   4
  -5  16  11 402.377 20.3023   1
   5 -16  11 392.981 25.3008   1
  16   5 -11 384.633 24.7659   2
  16   5 -11 421.829 25.2759   4
   5  16 -11 403.848 24.0857   4
  16  -5  11 389.909 28.9062   2
  -5  16  11 358.735 14.7129   4
 -16   5  11 383.334 32.3761   2
  16   5  -9 588.889 30.7324   2
   5  16  -9 512.794 27.6034   4
 -16   5   9 575.743 39.2327   2
  16  -5   9 574.879 32.9391   2
  -5  16   9 544.958 17.9968   4
   5 -16   9 618.126 30.1417   1
   5 -16   7 2388.73 80.4258   1
 -16   5   7 2526.61 94.8740   2
   5  16  -7 2633.81 81.6437   4
  16  -5   7 2533.61 85.1684   2
   5  16  -7 2606.88 74.8758   2
  -5  16   7 2475.19 68.3211   4
  16   5  -7 2564.80 85.2405   2
  16   5  -5 259.240 22.3881   2
  16   5  -5 333.890 24.0171   1
  -5  16   5 305.373 17.9069   2
   5  16  -5 341.372 20.1810   2
 -16   5   5 294.313 29.8635   2
  16  -5   5 281.327 25.2537   1
   5 -16   5 306.449 21.3471   1
  16  -5   5 289.402 22.2420   2
  16  -5   3 12.2560 11.2253   2
  16  -5   3 47.4019 15.1864   1
  16   5  -3 4.02096 14.7672   1
   5  16  -3 25.3824 14.9497   2
 -16   5   3 27.3400 19.1728   2
  -5  16   3 9.90402 7.81295   2
  16   5  -3 21.5824 13.1213   2
  16  -5   1 431.239 24.6411   2
  -5  16   1 393.114 18.5022   2
   5  16  -1 413.649 31.1920   2
   5  16  -1 399.707 24.9638   1
 -16   5   1 347.547 33.8418   2
  16  -5   1 381.184 21.9292   1
  16   5  -1 408.582 29.0239   2
  16   5  -1 409.641 29.3231   1
  16  -5  -1 355.286 23.4769   2
  16   5   1 434.338 31.1058   1
   5  16   1 448.544 26.9531   1
 -16   5  -1 408.697 36.6653   2
  16  -5  -1 444.028 21.1172   1
  -5  16  -1 436.397 14.8750   4
  -5  16  -1 375.649 18.1559   2
 -16   5  -3 15.8423 22.9610   2
   5  16   3 25.2684 13.5352   1
  16   5   3 8.79060 17.1898   1
  16  -5  -3 15.4219 10.6943   2
  -5  16  -3 19.4507 5.58907   2
  -5  16  -3 17.2589 5.19177   4
  16   5   5 270.158 29.5487   1
 -16  -5   5 273.729 37.6102   2
   5  16   5 337.988 26.8695   1
  16  -5  -5 269.343 19.7135   2
  16  -5  -5 299.751 15.1806   4
  16   5   5 251.511 29.2909   2
  -5  16  -5 265.886 13.1041   4
  -5 -16   5 283.300 29.2860   1
   5  16   7 2654.29 92.4389   1
 -16  -5   7 2577.67 107.957   2
  16   5   7 2604.51 101.961   2
  16  -5  -7 2570.17 84.7085   2
  16  -5  -7 2675.28 76.1690   4
  16   5   7 2327.83 97.1673   1
  -5 -16   7 2665.21 97.4727   1
  -5  16  -7 2618.35 75.8412   4
  16   5   9 612.389 45.3709   2
 -16  -5   9 517.431 44.5192   2
 -16  -5   9 625.110 42.4273   1
  16  -5  -9 572.672 22.0543   4
   5  16   9 518.656 37.2635   1
  -5 -16   9 604.458 39.9774   1
  16   5  11 449.559 42.5215   2
 -16  -5  11 346.780 36.6033   2
  -5 -16  11 356.928 32.7748   1
   5  16  11 363.612 34.0004   1
  16  -5 -11 408.473 24.0199   3
 -16  -5  11 363.768 35.4407   1
  16   5  13 699.285 54.4581   2
  -5 -16  13 670.942 43.9726   1
 -16  -5  13 718.547 50.6124   2
   5  16  13 748.718 47.1897   1
  16  -5 -13 774.006 27.8919   4
 -16  -5  13 741.452 48.0225   1
  16  -5 -13 691.070 34.1646   3
 -16  -5  15 619.079 46.3948   2
  -5 -16  15 607.255 41.4188   1
  16  -5 -15 589.566 24.2793   4
 -16  -5  15 611.501 44.3200   1
   5  16  17 496.270 29.3014   3
  -5 -16  17 459.152 38.8035   1
  16   5  17 429.487 51.1959   2
 -16  -5  17 389.472 39.4861   1
 -16  -5  17 433.856 42.7799   2
 -16  -5  19 116.507 30.0961   2
   6 -16  18 974.347 47.1360   1
  16   6 -18 943.974 41.8128   4
  16  -6  18 1009.02 40.4074   4
  16   6 -18 917.323 41.1746   3
  -6  16  16 119.253 18.2452   2
  16   6 -16 102.582 16.1652   4
  16  -6  16 112.281 18.5745   2
   6 -16  16 118.841 19.7880   1
   6  16 -16 100.956 15.4801   4
  16  -6  16 91.6364 14.0515   4
   6 -16  14 185.976 20.2275   1
  -6  16  14 195.026 19.6894   2
  16   6 -14 172.428 18.3332   4
   6  16 -14 166.379 17.5447   4
  16  -6  14 196.294 21.0456   2
 -16   6  14 186.923 26.3993   2
  16  -6  14 134.614 14.6493   4
 -16   6  14 193.472 24.2260   1
  16   6 -12 2447.60 80.3740   2
  -6  16  12 2421.24 79.8426   2
  -6  16  12 2274.06 66.6426   4
   6  16 -12 2438.34 79.2502   4
 -16   6  12 2453.03 92.3976   2
   6 -16  12 2447.26 80.0734   1
  16  -6  12 2527.05 74.2097   4
  16   6 -12 2387.19 80.1696   4
   6 -16  10 776.109 33.9773   1
  16   6 -10 826.678 36.0844   2
  -6  16  10 793.979 33.3536   2
   6  16 -10 737.567 33.4250   4
  -6  16  10 646.994 20.4734   4
 -16   6  10 791.356 44.8697   2
  16  -6  10 823.855 37.7779   2
   6 -16   8 240.123 19.0245   1
  16   6  -8 235.784 20.7524   2
   6  16  -8 256.339 20.3858   4
  -6  16   8 220.176 17.3332   2
 -16   6   8 281.141 28.4687   2
  16  -6   8 237.293 20.6138   2
   6  16  -8 254.112 14.7721   2
   6 -16   6 1868.49 61.6563   1
  -6  16   6 1854.37 60.9155   2
  16   6  -6 1864.93 67.0166   1
 -16   6   6 1794.92 75.4837   2
   6  16  -6 1817.30 60.0198   2
  16  -6   6 1740.21 64.4196   2
  16   6  -6 1783.19 67.0572   2
  -6  16   4 542.161 25.3792   2
 -16   6   4 612.451 40.2179   2
   6  16  -4 558.257 30.0341   2
   6 -16   4 597.149 27.1766   1
  16  -6   4 562.432 30.5087   1
  16   6  -4 610.643 33.6931   1
  16   6  -4 598.504 33.1508   2
  16  -6   4 598.295 29.8700   2
  16  -6   2 304.436 20.6582   2
  -6  16   2 310.041 17.1821   2
  16  -6   2 281.227 19.2529   1
   6  16  -2 278.033 25.3673   2
 -16   6   2 352.797 32.0392   2
  16   6  -2 310.375 25.8612   2
   6  16  -2 291.954 21.8471   1
  16   6  -2 307.239 25.6571   1
  16  -6   0 620.803 26.5971   1
  16  -6   0 698.654 31.2721   2
   6  16   0 585.163 39.7747   2
 -16   6   0 625.862 43.2604   2
  16   6   0 670.580 38.1140   1
  16   6   0 634.792 37.6821   2
   6  16   0 651.363 33.2299   1
  -6  16   0 636.938 25.6725   2
  16  -6  -2 291.723 20.2828   2
 -16   6  -2 270.168 33.2327   2
  16   6   2 278.467 27.3953   1
  16   6   2 301.220 27.7787   2
  -6  16  -2 319.471 15.8494   2
   6  16   2 288.897 24.0705   1
  16  -6  -4 597.568 29.5743   2
  -6  16  -4 588.732 22.4941   2
   6  16   4 618.757 34.5623   1
  16  -6  -4 631.953 22.5842   4
  16   6   4 607.633 39.2918   1
   6  16   6 1785.96 70.0658   1
 -16  -6   6 1737.86 86.2253   2
  16  -6  -6 1786.39 62.5570   2
  16  -6  -6 1799.57 53.2690   4
  -6 -16   6 1850.59 76.7011   1
  16   6   6 1868.02 77.8828   1
  -6 -16   8 213.906 28.3713   1
   6  16   8 237.221 26.4366   1
 -16  -6   8 275.876 35.4262   2
  16   6   8 204.273 30.4123   2
  16   6   8 224.775 30.6860   1
 -16  -6  10 813.258 54.0491   2
 -16  -6  10 760.341 49.1095   1
   6  16  10 858.752 47.7189   1
  16  -6 -10 740.769 26.5170   4
  16  -6 -10 789.076 35.1348   3
  -6 -16  10 899.991 49.2901   1
  -6 -16  12 2298.17 92.1689   1
  16   6  12 2460.81 105.274   2
 -16  -6  12 2354.23 100.567   2
   6  16  12 2385.03 93.9459   1
 -16  -6  12 2444.52 96.8771   1
  16  -6 -12 2363.98 69.4491   4
  16  -6 -14 192.473 18.1189   3
 -16  -6  14 159.483 30.4916   1
  16   6  14 173.832 35.0824   2
 -16  -6  14 172.523 31.7596   2
  -6 -16  14 247.412 30.8356   1
   6  16  14 185.312 33.1987   1
  16  -6 -14 186.024 12.5397   4
  16   6  16 123.931 37.6125   2
 -16  -6  16 107.760 29.1864   1
 -16  -6  16 142.388 32.3859   2
  -6 -16  16 92.4377 25.4157   1
 -16  -6  18 970.762 60.6480   2
  16  -7  19 32.5978 13.2593   4
  16  -7  17 436.913 24.6855   4
  16   7 -17 397.509 25.4154   3
  -7  16  15 326.548 25.4163   2
  16   7 -15 374.731 25.0567   4
   7  16 -15 328.211 23.7641   4
  16  -7  15 347.143 21.1007   4
 -16   7  15 381.964 34.0018   2
   7 -16  15 344.251 25.3806   1
   7 -16  13 476.235 27.5240   1
  16   7 -13 476.807 27.6099   2
  -7  16  13 469.594 28.2774   2
  16   7 -13 469.683 28.7928   4
   7  16 -13 509.822 28.3970   4
 -16   7  13 423.571 34.8458   2
  16  -7  13 474.733 28.9049   2
  16  -7  13 507.591 23.5255   4
  16   7 -11 176.794 18.1117   2
   7  16 -11 180.968 11.1316   2
  -7  16  11 188.606 18.3447   2
  16   7 -11 146.621 18.4875   4
   7  16 -11 172.252 18.1187   4
 -16   7  11 181.670 25.5347   2
   7 -16  11 192.021 18.3707   1
  16  -7  11 162.675 13.4075   4
  16  -7  11 180.577 18.6637   2
   7  16  -9 433.267 19.7674   2
  16   7  -9 414.318 26.6230   2
  -7  16   9 453.126 25.1325   2
   7  16  -9 442.244 25.9926   4
 -16   7   9 492.816 35.2836   2
  16  -7   9 411.511 26.1275   2
  16  -7   9 435.784 19.8699   4
   7 -16   9 423.842 24.3613   1
  -7  16   7 1289.08 46.9076   2
   7 -16   7 1309.72 45.4942   1
 -16   7   7 1183.40 57.3587   2
   7  16  -7 1219.51 44.0514   2
  16  -7   7 1171.32 47.9663   2
  16   7  -7 1217.09 50.8966   2
   7 -16   5 64.6760 12.4655   1
  16  -7   5 42.8196 12.8452   2
  -7  16   5 40.9195 10.7382   2
 -16   7   5 95.8153 22.5832   2
  16   7  -5 44.5107 15.1162   1
   7  16  -5 66.5940 14.1915   2
  16  -7   5 45.4944 15.4296   1
  16   7  -5 39.1818 15.2041   2
  16  -7   3 30.7499 12.1260   2
  -7  16   3 32.6692 9.17432   2
  16  -7   3 31.1872 12.4645   1
   7  16  -3 30.3206 15.5040   2
  16   7  -3 40.9028 16.2199   1
 -16   7   3 32.1987 18.7242   2
  16   7  -3 33.8546 14.3287   2
  16  -7   1 252.881 18.3261   2
   7  16  -1 228.505 25.6191   2
 -16   7   1 241.908 29.0068   2
  16   7  -1 280.140 25.5945   1
  16   7  -1 234.229 24.1756   2
   7  16  -1 220.108 20.8431   1
  16  -7   1 245.480 15.5747   1
  -7  16   1 258.035 16.2641   2
   7  16   1 256.540 23.3350   1
  16  -7  -1 277.886 19.2042   2
   7  16   1 265.496 31.4470   2
 -16   7  -1 240.530 29.9743   2
  16   7   1 241.435 25.5215   2
  -7  16  -1 277.151 15.8845   2
  16   7   1 253.365 26.4163   1
   7  16   3 21.6473 15.0778   1
 -16   7  -3 35.4680 24.3412   2
  16   7   3 22.2858 18.9428   1
  16  -7  -3 30.9767 11.3299   2
  -7  16  -3 34.0447 8.66066   2
  16  -7  -3 33.7114 5.69707   4
  16   7   5 50.9080 20.0318   1
  16  -7  -5 36.8230 12.2063   2
  16  -7  -5 52.0679 5.68892   4
  -7 -16   5 38.2112 21.9287   1
   7  16   5 65.9009 19.2311   1
   7  16   7 1223.94 56.8277   1
 -16  -7   7 1335.17 73.7448   2
  -7 -16   7 1254.22 62.2970   1
  16  -7  -7 1240.08 37.0658   4
  16   7   7 1232.32 62.7486   1
  -7 -16   9 366.464 35.6395   1
   7  16   9 400.483 34.2785   1
 -16  -7   9 408.297 42.8841   2
  16   7   9 440.222 41.5122   2
  16  -7  -9 435.002 16.3011   4
 -16  -7   9 408.572 38.3312   1
  16   7   9 437.371 39.1478   1
  16  -7  -9 396.865 24.3558   3
  16  -7 -11 171.364 16.9129   3
  -7 -16  11 234.581 30.8037   1
 -16  -7  11 208.541 37.7017   2
  16   7  11 172.154 32.9365   2
 -16  -7  11 177.193 29.6947   1
   7  16  11 198.506 29.9072   1
 -16  -7  13 479.779 40.8111   1
  16   7  13 405.213 44.9282   2
 -16  -7  13 476.668 44.6844   2
  -7 -16  13 452.550 38.9676   1
   7  16  13 493.501 42.7582   1
  16  -7 -13 490.387 26.9623   3
  16  -7 -15 344.467 23.3984   3
 -16  -7  15 382.602 38.3195   1
  16   7  15 309.115 42.5981   2
 -16  -7  15 406.251 42.0554   2
  -7 -16  15 381.716 36.3979   1
 -16  -7  17 425.252 43.8400   2
 -16  -7  19 38.4962 29.3349   2
  16  -8  18 104.472 14.5221   4
  16   8 -18 85.6034 15.6350   3
  -8  16  16 85.4413 18.5544   2
  16   8 -16 66.0017 16.8289   4
  16  -8  16 112.881 14.7013   4
  -8  16  14 35.4999 14.9352   2
  16   8 -14 31.2627 12.6882   2
  16   8 -14 16.9268 13.4238   4
   8  16 -14 17.3608 13.5266   4
   8 -16  14 28.6504 14.2556   1
  16  -8  14 24.8109 10.2564   4
 -16   8  14 26.8753 19.0419   2
  16  -8  14 33.8337 13.8461   2
   8 -16  12 213.361 18.8188   1
  16   8 -12 202.856 19.1205   2
  -8  16  12 172.246 18.5675   2
   8  16 -12 163.522 18.8445   4
  16  -8  12 191.945 14.3613   4
 -16   8  12 204.568 25.4172   2
  16  -8  12 210.296 18.8424   2
   8 -16  10 29.7339 12.4386   1
  -8  16  10 45.9537 13.4047   2
   8  16 -10 47.9603 13.8911   4
 -16   8  10 82.6464 20.4589   2
  16  -8  10 37.3606 9.22423   4
  16  -8   8 144.387 16.5741   2
  16   8  -8 165.707 18.9844   2
   8 -16   8 171.032 15.9749   1
  -8  16   8 173.994 16.8537   2
 -16   8   8 172.662 23.6689   2
  16  -8   8 167.640 12.3404   4
  16   8  -6 5.48022 14.7753   1
  16  -8   6 0.97058 10.9071   2
  -8  16   6 14.4014 10.8246   2
   8 -16   6 10.7335 10.0476   1
 -16   8   6 3.83879 17.0512   2
   8  16  -6 10.5129 11.8805   2
  16  -8   6 4.27811 6.80004   4
  16   8  -6-4.12158 12.8925   2
  -8  16   4 191.946 15.8604   2
  16  -8   4 207.971 17.4853   1
  16  -8   4 186.308 16.8657   2
 -16   8   4 214.383 26.8261   2
   8  16  -4 186.897 20.5560   2
  16   8  -4 181.521 22.3090   1
  16   8  -4 179.710 21.3878   2
  16   8  -2 536.578 34.4736   1
  16  -8   2 548.973 27.2472   2
   8  16  -2 502.955 30.3792   1
   8  16  -2 601.109 35.7220   2
 -16   8   2 560.140 39.6110   2
  16  -8   2 557.610 23.3826   1
  16   8  -2 490.990 33.7638   2
  -8  16   2 566.634 26.3022   2
  16   8   0 122.624 21.4822   1
   8  16   0 112.077 23.6147   2
 -16   8   0 93.6071 23.9994   2
  16  -8   0 117.930 13.6397   2
   8  16   0 124.148 18.7709   1
  16   8   0 128.844 20.8344   2
  -8  16   0 107.930 12.1790   2
   8  16   2 587.763 44.7404   2
 -16   8  -2 536.681 43.7176   2
  16   8   2 601.502 38.2320   1
  16  -8  -2 582.443 28.4894   2
  16   8   2 571.516 39.0326   2
  -8  16  -2 557.494 25.3742   2
   8  16   2 574.841 34.6514   1
  16   8   4 190.467 26.5920   1
  -8  16  -4 152.661 13.9221   2
  16   8   4 175.138 27.5750   2
   8  16   4 189.039 24.2789   1
  16   8   6 11.0398 20.6236   1
   8  16   6 33.3129 20.1531   1
  -8 -16   6 33.8650 22.8234   1
  16  -8  -6 6.76080 10.0819   3
   8  16   8 200.919 27.3580   1
  16   8   8 195.005 30.7325   1
  -8 -16   8 160.786 28.3904   1
  16  -8  -8 168.351 16.4368   3
  16  -8 -10 30.4111 11.4667   3
   8  16  10 59.5185 23.4273   1
  -8 -16  10 53.1359 24.2090   1
 -16  -8  10 38.3013 30.3849   2
  16   8  10 23.7630 23.5961   1
 -16  -8  10 24.4955 23.5394   1
 -16  -8  12 232.937 38.6699   2
  -8 -16  12 218.550 30.3003   1
  16   8  12 174.497 34.2715   2
   8  16  12 224.858 31.8338   1
 -16  -8  12 177.512 31.9495   1
  16  -8 -14 27.3823 12.0104   3
 -16  -8  14 46.2669 26.6157   1
  16   8  14 3.30298 26.5949   2
 -16  -8  14 33.8173 29.9237   2
  -8 -16  14 28.4684 23.6947   1
   8  16  14 7.75018 24.9266   1
 -16  -8  16 113.109 32.8647   2
 -16  -8  18 77.2332 32.6563   2
  16  -9  17 112.562 14.4734   4
  -9  16  15 134.983 19.4904   2
  16   9 -15 102.182 17.4008   4
  16  -9  15 132.257 13.7447   4
   9 -16  13 31.9134 14.3764   1
  -9  16  13 22.9622 14.3372   2
  16   9 -13 35.5121 14.6087   4
   9  16 -13 46.1664 15.2541   4
  16  -9  13 39.1901 10.3355   4
 -16   9  13 60.7953 21.4027   2
  16   9 -11 30.7662 12.7400   2
  -9  16  11 20.0152 13.3685   2
   9  16 -11 38.3604 8.79309   2
   9  16 -11 31.2413 13.3466   4
   9 -16  11 40.5513 12.5083   1
 -16   9  11 17.3766 17.8765   2
  16  -9  11 23.7270 9.06884   4
   9 -16   9 296.346 19.2926   1
  16  -9   9 302.720 20.3215   2
  16   9  -9 298.504 23.2361   2
  -9  16   9 361.836 23.4047   2
   9  16  -9 317.625 23.6220   4
 -16   9   9 331.678 29.8358   2
  16  -9   9 326.267 16.7693   4
  16   9  -7 148.103 18.9537   2
  16  -9   7 217.471 17.4883   2
  -9  16   7 188.272 18.4166   2
   9 -16   7 196.173 14.9782   1
 -16   9   7 195.460 25.0889   2
  16  -9   7 227.014 13.1434   4
  16  -9   5 613.422 28.3617   2
  16   9  -5 630.354 34.9304   1
 -16   9   5 524.895 36.8391   2
   9  16  -5 556.937 31.4290   2
   9 -16   5 503.647 21.1664   1
  16  -9   5 530.096 27.4263   1
  16  -9   5 636.542 21.7422   4
  16   9  -5 559.270 33.3011   2
  -9  16   5 562.016 28.6506   2
  16  -9   3 1599.68 55.8969   2
  16  -9   3 1594.65 50.9056   1
 -16   9   3 1552.89 68.6950   2
  16   9  -3 1667.52 65.6857   1
  16   9  -3 1670.07 65.7877   2
  16  -9   3 1596.05 47.0962   4
  -9  16   3 1637.02 56.6259   2
   9  16  -3 1628.09 62.0097   1
   9  16  -1 302.241 25.1766   1
  16  -9   1 304.812 19.8410   2
 -16   9   1 311.181 29.9439   2
  16   9  -1 299.237 27.1738   1
  16   9  -1 348.138 29.0114   2
  -9  16   1 292.822 19.6040   2
  16  -9   1 289.309 10.8980   4
  16   9   1 262.800 27.6925   1
 -16   9  -1 301.062 32.5483   2
  16  -9  -1 303.609 19.6063   2
  -9  16  -1 266.380 18.9620   2
  16   9   1 322.914 30.6222   2
   9  16   1 304.971 25.9053   1
   9  16   3 1500.18 74.9852   2
  16   9   3 1558.90 68.4387   1
 -16   9  -3 1592.14 75.0085   2
  -9  16  -3 1614.59 55.5948   2
  16   9   3 1577.93 71.5099   2
   9  16   3 1618.63 65.1992   1
   9  16   5 633.026 38.6916   1
  16  -9  -5 545.737 27.6701   3
  16   9   5 544.492 40.3289   1
  16   9   7 239.382 30.8340   1
  16   9   7 207.005 31.8278   2
   9  16   7 229.527 27.5826   1
  -9 -16   7 175.228 30.2807   1
  16  -9  -7 213.439 17.8389   3
   9  16   9 348.565 32.8945   1
 -16  -9   9 357.691 37.1683   1
  16   9   9 368.388 37.5841   1
  16  -9  -9 380.733 23.0536   3
  -9 -16   9 360.458 36.9381   1
  -9 -16  11 59.1978 25.1625   1
 -16  -9  11 20.2734 30.8188   2
  16   9  11 36.0489 24.9201   1
 -16  -9  11 62.1333 28.0434   1
 -16  -9  13 23.9351 26.6785   1
  16  -9 -13 32.5161 12.5506   3
 -16  -9  13 83.5370 34.3330   2
  -9 -16  13 32.3539 24.2365   1
  16   9  13-3.25449 28.3107   2
   9  16  13 86.3307 29.2872   1
 -16  -9  15 99.4139 32.9117   2
 -16  -9  17 43.2403 32.6699   2
 -10  16  14 83.2464 18.1953   2
  16  10 -14 91.5054 14.9542   2
  16  10 -14 104.137 18.5734   4
  16 -10  14 59.9210 11.8582   4
 -10  16  12 55.4339 15.2152   2
  16  10 -12 42.7144 12.9977   2
  16  10 -12 51.0612 16.1630   4
  10  16 -12 54.3980 15.3540   4
  16 -10  12 51.4973 10.4011   4
 -16  10  12 51.7067 20.1460   2
 -10  16  10 109.923 16.6607   2
  10  16 -10 127.462 13.5263   2
  16  10 -10 110.861 16.3658   2
  16 -10  10 105.198 13.4580   2
  10  16 -10 130.397 17.7458   4
  10 -16  10 111.384 13.5133   1
  16 -10  10 124.177 11.8235   4
 -16  10  10 114.341 21.8414   2
  10  16  -8 210.278 17.4647   2
  16  10  -8 154.922 19.4560   2
 -10  16   8 187.046 18.7766   2
  16 -10   8 237.925 17.5041   2
  10 -16   8 182.531 14.6105   1
  16 -10   8 211.239 13.2275   4
 -16  10   8 216.269 26.9616   2
  16 -10   6 674.746 30.2910   2
 -16  10   6 649.716 40.9790   2
  16 -10   6 675.736 31.2870   1
  16 -10   6 725.094 24.5567   4
  10  16  -6 707.060 33.9192   2
  10 -16   6 643.191 24.5956   1
  16  10  -6 679.311 36.2505   2
 -10  16   6 669.707 33.0701   2
  16  10  -4 278.793 25.6069   1
  16 -10   4 240.730 14.4762   1
  16 -10   4 259.705 18.1523   2
 -16  10   4 254.267 28.2369   2
  16 -10   4 250.186 11.2445   4
  10  16  -4 259.001 23.5145   2
 -10  16   4 268.571 19.9307   2
  10  16  -2 794.684 38.6842   1
  16  10  -2 812.865 41.7706   1
 -16  10   2 771.121 44.1651   2
  10  16  -2 811.075 42.1910   2
  16 -10   2 828.784 32.1255   2
  16  10  -2 779.380 41.6992   2
 -10  16   2 817.886 33.9537   2
  10  16   0 1107.39 50.6442   1
 -16  10   0 1131.11 57.5461   2
  16  10   0 1167.85 55.8727   2
 -10  16   0 1106.60 44.0064   2
  16  10   0 1136.27 53.9934   1
 -16  10  -2 706.237 47.8892   2
  10  16   2 686.535 48.6231   2
  16  10   2 785.211 44.9310   1
 -10  16  -2 785.541 34.9278   2
  10  16   2 739.988 41.7205   1
 -16  10  -4 250.254 33.6381   2
  10  16   4 224.546 33.9433   2
 -10  16  -4 233.948 20.8797   2
  16  10   4 279.755 32.4635   2
  16  10   4 257.896 29.2482   1
  16 -10  -4 262.462 18.8174   3
  10  16   4 244.243 27.7350   1
  10  16   6 741.003 44.1409   1
  16  10   6 727.463 47.0988   1
  16 -10  -6 756.993 33.3540   3
  16 -10  -8 208.874 17.7934   3
  16  10   8 229.486 31.6564   1
  10  16   8 286.574 31.3319   1
  16  10   8 136.253 31.6133   2
 -10 -16   8 181.478 31.5612   1
  10  16  10 119.997 28.6829   1
 -16 -10  10 166.593 31.9494   1
  16  10  10 139.637 30.7779   1
 -10 -16  10 132.381 30.1446   1
  10  16  12 47.9103 26.1500   1
  16 -10 -12 56.1911 13.1108   3
 -10 -16  12 95.0113 28.5045   1
 -16 -10  12 57.8436 27.9993   1
 -16 -10  14 90.7117 37.1911   2
  10  16  14 84.3342 30.7538   1
 -16 -10  16 250.999 46.9989   2
  16  11 -15 25.3964 13.9605   2
 -11  16  13 56.3359 16.7884   2
  16  11 -13 65.7703 14.8500   2
 -11  16  11 111.140 18.2792   2
  11  16 -11 110.577 12.5882   2
 -16  11  11 117.259 22.6512   2
 -11  16   9 18.7865 13.2935   2
  11  16  -9 14.8387 11.0306   2
  16  11  -9 14.0904 13.0087   2
  16 -11   9 20.3644 10.0813   2
 -16  11   9 22.7913 18.4068   2
 -11  16   7 120.759 17.3566   2
  16 -11   7 140.104 10.3905   4
 -16  11   7 129.112 22.4544   2
  11  16  -7 139.532 16.5946   2
  16 -11   5 353.453 20.0881   2
  16 -11   5 321.841 13.0277   4
 -16  11   5 269.156 28.3994   2
 -11  16   5 324.091 23.7303   2
  16  11  -5 340.330 27.2118   1
  16  11  -5 309.440 26.0836   2
  16 -11   3 275.487 18.7419   2
 -16  11   3 273.620 29.4218   2
  11  16  -3 294.704 27.1327   2
  11  16  -3 320.804 26.7238   1
 -11  16   3 291.417 22.4156   2
  16  11  -3 288.598 27.2714   2
  11  16  -1 203.762 23.6583   1
 -16  11   1 179.547 25.5567   2
  11  16  -1 159.027 23.8850   2
  16  11  -1 175.667 23.7345   2
 -11  16   1 155.089 17.9841   2
  16  11  -1 188.002 23.9764   1
  16  11   1 129.277 23.2088   1
 -16  11  -1 177.378 27.9021   2
  11  16   1 180.334 27.8120   2
 -11  16  -1 153.127 18.7761   2
  16  11   1 155.717 25.6020   2
  11  16   1 157.961 21.9229   1
  16 -11  -1 153.701 14.4233   3
  11  16   3 300.278 29.2491   1
 -16  11  -3 246.918 34.0472   2
  11  16   3 308.125 35.2112   2
 -11  16  -3 269.761 23.2629   2
  16  11   3 331.228 33.7488   2
  16  11   3 342.748 31.9059   1
  16 -11  -3 321.928 20.2204   3
  11  16   5 238.312 35.6820   2
  16  11   5 306.344 35.6890   2
  16  11   5 274.105 30.9924   1
  11  16   5 291.721 29.5767   1
  16 -11  -5 313.591 20.2326   3
  16 -11  -7 128.233 14.6046   3
  11  16   7 80.4444 31.4786   2
  16  11   7 158.686 31.8540   2
  11  16   7 111.181 25.0636   1
  16 -11  -9 17.4176 11.0186   3
  11  16   9 22.7762 21.9732   1
  16  11   9 3.08974 25.9661   2
 -11 -16   9 24.4837 27.1641   1
  11  16  11 97.7320 28.4490   1
  16  11  11 44.8968 27.5280   2
 -16 -11  11 91.2703 29.9667   1
 -11 -16  11 160.416 33.0545   1
  16 -11 -13 62.0995 14.2778   3
  11  16  13 72.9041 31.0766   1
 -12  16  12 161.223 21.8751   2
  16  12 -12 122.548 17.6795   2
 -16  12  12 105.562 23.3581   2
 -12  16  10 226.765 23.8649   2
  16  12 -10 264.591 22.4457   2
  12  16 -10 225.723 23.5602   4
 -16  12  10 200.824 28.2743   2
  12  16  -8 95.0879 15.6994   2
  16  12  -8 96.3934 17.1361   2
 -16  12   8 109.785 22.3912   2
 -12  16   8 116.511 18.0078   2
 -16  12   6 24.3993 17.8677   2
  12  16  -6 20.5550 13.6156   2
 -12  16   6 14.8953 14.3503   2
  16  12  -6 26.6055 15.1317   2
  16  12  -4 108.038 20.2760   1
 -16  12   4 82.0792 21.5181   2
  12  16  -4 90.9000 19.3631   2
  16  12  -4 114.002 20.4623   2
 -12  16   4 75.3432 17.5468   2
  12  16  -4 94.9619 19.1440   1
  12  16  -2 134.956 20.7832   1
 -16  12   2 144.934 23.7359   2
  12  16  -2 130.653 22.0888   2
  16  12  -2 87.7514 20.6250   2
 -12  16   2 104.160 18.2141   2
  16  12  -2 94.2120 20.5205   1
  12  16   0 77.4342 19.6559   1
 -16  12   0 76.9596 23.7835   2
  12  16   0 92.6136 21.8272   2
 -12  16   0 81.8244 17.0142   2
  16  12   0 90.6169 21.0363   1
  16 -12   0 88.3703 12.1199   3
 -16  12  -2 78.4719 24.7640   2
 -12  16  -2 101.577 18.4439   2
  12  16   2 116.502 21.7281   1
  16  12   2 133.461 26.9202   2
  12  16   4 101.814 23.4806   1
 -16  12  -4 93.5012 28.5548   2
 -12  16  -4 77.6849 19.4140   2
  12  16   4 64.9172 27.6654   2
  16  12   4 125.803 27.6905   2
  12  16   6 12.2216 27.4261   2
  16  12   6-14.2910 24.0166   2
  12  16   6 2.07066 19.2458   1
  16 -12  -8 94.5731 13.7482   3
  12  16   8 119.614 32.8680   2
  16  12   8 137.270 31.6937   2
  16 -12 -10 217.781 19.8781   3
  16  12  10 242.070 36.8700   2
 -12 -16  10 260.269 37.3885   1
  12  16  12 144.820 31.8656   1
  16 -12 -12 126.520 16.4750   3
  16  13 -13 47.4489 13.4827   2
 -13  16  11 64.8241 19.2236   2
 -16  13  11 50.1882 22.0098   2
 -16  13   9 150.353 25.5422   2
 -13  16   9 183.537 22.9129   2
 -16  13   7 313.736 29.1840   2
 -13  16   7 309.808 25.5474   2
  16 -13   7 295.813 17.6079   3
  13  16  -7 259.275 22.4332   2
 -16  13   5 183.374 25.1061   2
  13  16  -5 225.049 23.0739   2
 -13  16   5 149.086 21.0726   2
  16 -13   5 206.939 15.2799   3
  16  13  -5 149.638 23.0114   1
  13  16  -3 127.831 21.8837   2
 -13  16   3 134.328 20.0013   2
  16  13  -3 122.757 22.2415   2
  13  16  -3 125.933 21.4999   1
 -16  13   3 102.425 21.9867   2
  16 -13   3 147.332 14.0240   3
  13  16  -1 60.0712 19.8916   1
 -16  13   1 35.9740 20.4883   2
 -13  16   1 52.2283 17.1885   2
 -16  13  -1 59.5974 22.6773   2
 -13  16  -1 63.5625 18.9265   2
  13  16   1 52.7452 22.4492   2
  16  13   1 79.7244 24.1871   2
  13  16   1 47.0612 20.3323   1
  16 -13  -3 144.193 14.5995   3
 -16  13  -3 141.371 29.3255   2
  13  16   3 127.673 24.2353   1
 -13  16  -3 124.715 24.1578   2
  13  16   3 109.764 27.5542   2
  16  13   3 128.786 27.9581   2
  16 -13  -5 219.739 17.3062   3
  16  13   5 118.700 29.1377   2
  16 -13  -7 308.784 20.9588   3
  16  13   7 311.521 38.9726   2
  13  16   7 325.968 34.9438   1
  16 -13  -9 168.847 17.7127   3
  13  16   9 169.498 38.2105   2
  16  13   9 174.362 34.7002   2
  13  16   9 138.380 30.9353   1
  16  14 -12-4.65445 12.7268   2
 -16  14  10 83.5246 22.9212   2
 -14  16  10 52.5592 20.6467   2
 -16  14   8 368.883 32.6106   2
 -14  16   8 335.325 29.6372   2
  14  16  -8 358.362 24.9574   2
 -16  14   6 130.280 23.5746   2
 -14  16   6 120.966 20.7245   2
  14  16  -6 111.182 18.7232   2
  16  14  -6 122.654 19.7233   2
  16 -14   4 53.4099 11.4050   3
  14  16  -4 79.0512 19.9087   1
 -16  14   4 36.7024 19.9709   2
 -14  16   4 51.5549 19.1995   2
  16  14  -4 57.6704 19.6078   2
  14  16  -2 509.038 35.8835   1
 -16  14   2 455.633 35.5506   2
 -14  16   2 474.756 33.5540   2
  14  16  -2 389.240 33.3369   2
  16  14  -2 418.896 34.1003   2
  16 -14   2 466.793 23.4321   3
  14 -16   0 961.727 35.5600   3
 -16  14   0 903.265 50.8197   2
 -14  16   0 985.029 48.2105   2
  14  16   0 937.931 49.3400   1
  14  16   0 915.335 51.5485   2
  16  14   0 934.255 52.1119   2
 -14  16  -2 477.267 34.5156   2
 -16  14  -2 463.897 38.7307   2
  16  14   2 515.576 41.6077   2
  14  16   2 484.505 40.5089   2
  14  16   2 415.574 34.8716   1
  16  14   4 113.446 26.3090   1
  16 -14  -4 76.2400 13.8180   3
  14  16   4 82.9781 24.0780   1
  14  16   4 87.1860 29.2433   2
  16  14   4 34.4228 27.5930   2
  16 -14  -6 112.417 15.0544   3
  14  16   6 147.723 31.4770   2
  16  14   6 108.815 30.7137   2
  16  14   6 122.934 27.5100   1
  14  16   6 106.875 25.6101   1
  16 -14  -8 309.009 22.0210   3
  14  16   8 321.073 41.7819   2
  16  14   8 344.451 40.6155   2
  16 -14 -10 84.9420 15.3779   3
 -16  15   9 622.218 41.1760   2
 -15  16   9 615.282 39.3929   2
  15  16  -9 561.079 31.9784   2
  16  15  -7 15.9699 15.9928   2
 -16  15   7 3.92031 19.3277   2
 -15  16   7 25.4664 20.9085   2
 -16  15   5 656.807 42.2499   2
 -15  16   5 650.513 39.8875   2
  15  16  -5 720.847 39.5824   2
  16  15  -5 658.565 39.2075   2
 -16  15   3 2369.46 90.6436   2
 -15  16   3 2308.82 87.7983   2
  15  16  -3 2452.89 88.3610   2
  16  15  -3 2254.92 87.2439   2
  15  16  -1 424.308 34.4953   1
 -16  15   1 412.440 35.2873   2
 -15  16   1 418.550 33.1835   2
  16  15  -1 409.291 35.0330   2
  15  16   1 499.564 37.3371   1
 -16  15  -1 453.715 38.0355   2
  15  16   1 390.865 36.5820   2
  16  15   1 445.764 39.0649   2
  16  15   1 449.516 36.6306   1
  16 -15  -3 2347.66 76.3005   3
  15  16   3 2397.80 99.0290   2
  16  15   5 670.489 50.5403   2
  15  16   5 575.494 49.6116   2
  16 -15  -9 606.650 30.7879   3
 -16  16   8 793.497 46.3887   2
 -16  16   6 713.284 44.4097   2
 -16  16   4 251.793 29.0476   2
 -16  16   2 1175.86 58.0568   2
  16  16   0 1914.93 81.1719   2
  16  16   2 1301.96 66.5439   2
   0  17  -1 90.6082 8.69753   3
   0  17   1 98.2985 9.42726   3
 -17   0   1 119.113 28.6905   2
  17   0  -1 76.6088 16.4896   1
  17   0   1 82.6732 18.0148   1
  17   0   1 74.7741 15.9561   2
  17   0  -1 82.9300 16.6059   2
   0  17   3 140.524 11.7249   3
  17   0  -3 190.795 19.5148   2
   0  17   3 163.130 15.4245   1
   0  17  -3 163.110 16.9218   2
  17   0  -3 192.738 18.5070   1
  17   0   3 191.795 23.5352   1
 -17   0   3 166.112 30.9263   2
   0  17  -3 182.858 14.2524   4
  17   0   3 186.774 21.0259   2
   0  17  -3 180.442 9.59097   3
   0  17   5 15.8307 7.32059   3
   0  17  -5 12.1341 2.40939   2
   0  17  -5 18.3190 9.30162   4
  17   0   5 23.4008 16.7604   2
   0  17   5 6.99923 9.77123   1
   0 -17   5-6.03389 17.7163   1
  17   0   5-1.69098 16.8152   1
   0  17   7 564.875 25.5587   3
   0  17   7 604.979 29.9048   1
  17   0   7 646.916 38.4048   2
  17   0   7 556.905 38.8062   1
   0  17  -7 588.201 25.6465   4
   0 -17   7 553.243 34.8402   1
  17   0  -9 666.809 30.1117   4
   0  17   9 700.100 29.5272   3
   0  17   9 634.712 33.2088   1
   0 -17   9 639.414 37.8313   1
  17   0  -9 603.445 32.4011   2
 -17   0   9 676.692 46.1598   2
  17   0   9 586.931 40.3248   2
   0  17  -9 732.219 29.0683   4
   0  17  11 119.759 14.5519   3
   0  17  11 110.959 19.2758   1
 -17   0  11 134.894 28.3121   2
  17   0 -11 134.906 16.8959   2
  17   0 -11 153.698 15.3715   4
   0  17 -11 131.387 14.2774   4
 -17   0  11 178.986 27.2751   1
   0 -17  11 113.485 21.1573   1
   0  17  13 296.357 20.6570   3
   0 -17  13 292.904 27.2482   1
 -17   0  13 251.877 33.1340   2
  17   0 -13 304.323 19.5924   4
   0  17  13 274.042 25.3850   1
 -17   0  13 326.627 32.8625   1
   0  17  15 494.288 26.8135   3
 -17   0  15 464.131 37.5337   1
  17   0  15 469.878 41.1487   2
   0 -17  15 344.190 31.8236   1
 -17   0  15 427.454 39.8127   2
   0  17 -15 481.044 25.4530   4
  17   0 -15 442.909 26.9420   3
   0  17  17 159.873 18.1147   3
 -17   0  17 145.458 27.1619   1
  17   0 -17 149.245 15.8375   4
   0  17 -17 164.623 16.2696   4
   0 -17  17 146.152 25.3272   1
   0  17  17 145.519 14.2254   4
 -17   0  19 10.7763 25.3848   1
  17   0 -19 4.57870 11.2295   4
  17   1 -20 54.1644 13.4788   4
   1 -17  18 138.919 24.5092   1
 -17   1  18 113.565 27.2941   1
  17  -1  18 149.607 29.1836   2
   1  17 -18 112.881 15.6286   4
  -1  17  16 57.6707 14.2988   3
 -17   1  16 121.566 25.4684   1
  17  -1  16 47.8866 23.3472   2
 -17   1  16 57.3653 23.6706   2
  17   1 -16 73.6210 13.0495   4
   1  17 -16 58.8130 13.7510   4
  -1  17  16 41.1490 9.77900   4
   1 -17  16 43.0684 20.4218   1
  17   1 -16 56.8834 14.0372   3
  -1  17  14 140.991 16.3263   3
 -17   1  14 95.1686 23.8898   1
  17  -1  14 146.401 26.5873   2
   1 -17  14 105.522 20.7854   1
 -17   1  14 61.0368 22.7589   2
  17   1 -14 135.208 14.6859   4
   1  17 -14 91.3593 13.7150   4
  -1  17  14 74.6130 17.3590   1
  17  -1  12 794.206 46.9046   2
 -17   1  12 756.313 49.3306   2
  17   1 -12 807.707 36.9021   2
  17   1 -12 719.000 32.3322   4
   1 -17  12 745.524 40.1067   1
 -17   1  12 811.080 47.1332   1
   1  17 -12 737.351 31.9493   4
  -1  17  12 766.935 38.1127   1
  -1  17  12 712.577 33.3340   3
  -1  17  10 398.383 22.0820   3
  -1  17  10 404.115 26.1067   1
  17   1 -10 435.336 25.8764   2
   1 -17  10 504.348 31.3678   1
  17  -1  10 402.302 33.2622   2
  17   1 -10 392.011 23.4297   4
   1  17 -10 401.493 22.1191   4
 -17   1  10 431.678 38.0963   2
  -1  17   8 26.5456 8.66159   3
  17   1  -8 40.3001 13.1169   2
   1 -17   8 49.2468 18.0296   1
  17  -1   8 65.8015 19.2750   2
  -1  17   8 53.0640 13.0538   1
  -1  17   6 425.406 21.1228   3
   1  17  -6 434.706 22.4916   4
  17  -1   6 425.619 30.8482   2
  17  -1   6 393.697 31.6960   1
   1 -17   6 490.770 31.7215   1
  -1  17   6 444.598 23.2309   1
  -1  17   4 444.600 22.0122   1
  17   1  -4 413.721 25.4209   1
   1  17  -4 443.489 21.5215   2
 -17   1   4 418.250 38.4982   2
   1  17  -4 435.811 22.3261   4
   1 -17   4 473.723 31.1081   1
  17  -1   4 399.077 29.3520   2
  17  -1   4 485.774 32.7920   1
   1  17  -4 440.089 15.8748   3
  -1  17   4 413.936 20.0694   3
  -1  17   2 46.7651 8.81895   3
   1  17  -2 52.6535 7.45822   3
 -17   1   2 2.74783 23.1245   2
  17  -1   2 48.2048 17.8567   1
  17  -1   2 41.1003 15.1726   2
  17   1  -2 70.1146 15.8844   1
  17   1  -2 45.2223 14.9899   2
  17   1   0 148.026 20.6709   1
   1  17   0 133.204 10.4191   3
  17  -1   0 148.895 19.0604   1
 -17   1   0 139.288 29.9206   2
  17   1   0 110.308 17.8528   2
  -1  17   0 131.925 10.1935   3
  17  -1   0 148.557 18.9123   2
  17  -1  -2 30.5750 12.6567   2
   1  17   2 41.3874 8.97437   3
  17  -1  -2 47.4750 14.2119   1
  17   1   2 32.6190 17.7538   1
   1  17   2 34.9541 11.8466   1
  -1  17  -2 58.6940 10.2638   4
  17   1   2 17.1780 14.5529   2
  17  -1  -4 407.950 26.3806   2
   1  17   4 422.270 19.4035   3
  17   1   4 356.529 30.2956   1
   1  17   4 421.547 23.7521   1
  -1  17  -4 352.495 13.2334   2
  -1  17  -4 414.850 19.9761   4
  -1 -17   4 389.309 31.8434   1
  17   1   4 396.320 30.0375   2
  17  -1  -4 411.644 23.2485   1
   1  17   6 364.507 20.0128   3
  17  -1  -6 442.462 26.3394   2
  17   1   6 443.232 32.9908   2
   1  17   6 437.897 25.9178   1
  -1  17  -6 421.693 20.4129   4
  -1 -17   6 418.229 31.7649   1
  17   1   6 394.121 32.5217   1
   1  17   8 46.3115 9.94119   3
  -1 -17   8 59.1853 20.0372   1
 -17  -1   8 20.6333 21.3309   2
  17  -1  -8 44.2462 11.1020   4
   1  17   8 65.9887 15.8311   1
  17   1   8 68.1113 21.7241   2
  -1  17  -8 62.3272 9.90951   4
   1  17  10 416.883 22.6678   3
  -1 -17  10 422.985 31.3790   1
 -17  -1  10 415.532 37.2192   2
  17   1  10 345.198 33.5324   2
  17  -1 -10 392.586 21.4503   4
  -1  17 -10 401.008 20.8257   4
 -17  -1  10 399.120 34.5013   1
   1  17  10 392.022 27.8148   1
   1  17  12 775.986 34.0328   3
  17   1  12 757.359 48.9017   2
 -17  -1  12 723.080 48.9876   2
  -1 -17  12 747.052 41.8531   1
  17  -1 -12 706.737 30.5833   4
 -17  -1  12 794.451 47.5292   1
   1  17  12 705.843 40.1590   1
  -1  17 -12 745.246 30.9910   4
 -17  -1  14 148.471 27.5453   1
   1  17  14 117.233 15.2336   3
  -1 -17  14 93.7415 22.1876   1
  17   1  14 113.922 28.4875   2
 -17  -1  14 144.486 28.3716   2
  17  -1 -14 107.720 12.7140   4
   1  17  14 109.397 21.6201   1
  -1  17 -14 122.899 14.2070   4
  17  -1 -14 131.973 15.8437   3
   1  17  16 61.9538 14.6512   3
 -17  -1  16 72.4199 25.4212   1
  -1 -17  16 46.7282 22.0947   1
 -17  -1  16 69.8581 25.4476   2
  -1  17 -16 59.1372 12.5836   4
 -17  -1  18 107.159 28.8654   1
  17   1  18 137.402 35.5579   2
  -1 -17  18 111.207 24.5617   1
  17  -1 -18 105.405 13.7778   4
   1  17  18 160.122 15.6581   4
 -17  -1  20 18.3591 24.2164   1
  17  -2  19 110.295 27.7754   2
  17   2 -19 169.029 17.1603   4
   2 -17  19 167.365 25.8451   1
  17   2 -17 83.9013 14.8627   3
 -17   2  17 104.434 24.5982   1
   2 -17  17 106.298 22.5374   1
  17   2 -17 110.751 14.5003   4
   2  17 -17 91.3190 15.4481   4
  -2  17  17 78.1212 15.6915   3
  -2  17  15 33.8756 11.5886   3
   2 -17  15 35.3793 17.7017   1
 -17   2  15 44.7434 21.2421   1
 -17   2  15 43.4880 22.1484   2
  17   2 -15 28.4454 11.1385   4
  -2  17  15 42.4445 16.3365   1
   2  17 -15 38.5540 12.0944   4
  -2  17  15 23.3562 8.33249   4
  17   2 -15 62.5192 14.2258   3
  -2  17  13 138.694 16.3402   3
   2 -17  13 173.685 23.5707   1
  17   2 -13 165.283 16.8440   4
 -17   2  13 166.518 28.1963   2
   2  17 -13 132.776 15.7078   4
  17  -2  13 143.175 24.5500   2
 -17   2  13 187.269 26.6869   1
  -2  17  13 107.521 18.6300   1
   2 -17  11 282.060 25.4083   1
  17   2 -11 282.608 21.9566   2
  17   2 -11 287.382 20.6518   4
   2  17 -11 324.014 19.7091   4
 -17   2  11 363.567 31.5888   1
  -2  17  11 322.128 20.4113   3
  -2  17   9 57.1620 10.6013   3
   2  17  -9 32.1640 10.9588   4
  17  -2   9 60.5128 18.9474   2
   2 -17   9 40.5302 16.3826   1
  -2  17   9 44.3707 12.9966   1
  17   2  -7 292.377 22.6935   2
 -17   2   7 308.417 32.8783   2
   2  17  -7 318.076 20.0304   4
  17  -2   7 372.969 28.5976   2
  -2  17   7 335.391 19.6053   1
  -2  17   7 278.479 17.7412   3
   2 -17   7 298.888 25.9721   1
  -2  17   5 372.037 19.1273   1
   2  17  -5 341.718 13.2541   3
 -17   2   5 358.551 35.1203   2
   2  17  -5 330.194 16.6022   2
   2  17  -5 356.928 20.5330   4
  17  -2   5 384.788 27.8419   2
  17   2  -5 370.602 24.4141   1
  17  -2   5 348.432 29.0277   1
   2 -17   5 344.463 27.8032   1
  -2  17   5 381.569 18.8061   3
   2  17  -3 840.826 27.3401   3
   2  17  -3 820.819 36.4128   2
 -17   2   3 757.593 50.1677   2
  17   2  -3 727.651 37.4569   1
  17  -2   3 853.226 40.9367   2
  17  -2   3 777.738 40.0461   1
  -2  17   3 831.192 30.6054   3
   2  17  -1 148.945 10.7874   3
 -17   2   1 194.534 32.1383   2
  17   2  -1 139.112 20.5258   1
  17  -2   1 198.995 21.3036   1
  -2  17   1 141.939 11.2152   3
  17  -2   1 176.121 19.5535   2
  17  -2  -1 141.233 17.2164   2
 -17   2  -1 138.788 30.4756   2
  -2  17  -1 161.839 11.8556   4
  17  -2  -1 160.996 18.2652   1
  17   2   1 146.697 20.7709   1
  17   2   1 152.865 20.5053   2
   2  17   1 145.844 16.2533   1
  17  -2  -3 823.125 37.8790   2
  17  -2  -3 802.698 34.3524   1
  -2  17  -3 809.521 26.2346   2
   2  17   3 778.872 35.5717   1
  -2  17  -3 870.695 30.1542   4
  17   2   3 868.991 44.4338   2
  17   2   3 838.395 43.7466   1
   2  17   5 349.839 18.8565   3
  17  -2  -5 325.100 22.9321   2
 -17  -2   5 314.644 36.8602   2
  17   2   5 377.384 30.6453   2
  -2  17  -5 341.132 17.3974   4
  -2 -17   5 366.483 31.3107   1
   2  17   5 353.504 24.1336   1
  17   2   5 386.906 31.4810   1
  -2 -17   7 315.874 30.0773   1
   2  17   7 292.674 18.2222   3
  17  -2  -7 308.166 22.5541   2
 -17  -2   7 310.160 37.0149   2
  17   2   7 300.592 30.5829   2
  -2  17  -7 337.861 17.8367   4
   2  17   7 286.936 23.4699   1
  17   2   7 270.181 31.1439   1
   2  17   9 37.6742 10.1701   3
   2  17   9 59.8671 16.1852   1
  -2 -17   9 46.2610 20.8608   1
 -17  -2   9 29.0337 23.3470   2
  17   2   9 17.6641 19.9497   2
  17  -2  -9 33.2991 10.3051   4
  -2  17  -9 47.8457 9.71026   4
   2  17  11 249.176 26.0530   1
   2  17  11 325.406 21.2024   3
 -17  -2  11 325.785 35.4277   2
  17   2  11 348.174 35.9559   2
  17  -2 -11 326.973 18.5835   4
  -2 -17  11 288.034 28.0748   1
  -2  17 -11 312.380 18.0812   4
 -17  -2  11 298.523 31.8013   1
 -17  -2  13 133.485 26.9798   1
   2  17  13 117.993 16.0639   3
  17   2  13 108.163 29.3642   2
 -17  -2  13 144.365 30.4767   2
  -2  17 -13 132.470 14.2157   4
   2  17  13 129.790 22.9586   1
  -2 -17  13 132.786 24.0397   1
  17  -2 -13 165.032 17.3433   3
  17  -2 -15 36.3230 12.2673   3
   2  17  15 46.2252 13.6194   3
 -17  -2  15 36.1398 23.4263   1
  -2 -17  15 51.1809 21.0236   1
 -17  -2  15 57.4475 25.2006   2
  17  -2 -15 27.7467 10.2796   4
  -2  17 -15 17.9710 9.57127   4
 -17  -2  17 156.624 29.7767   1
  17   2  17 125.075 33.8868   2
  -2 -17  17 46.3684 21.9052   1
 -17  -2  17 72.1043 26.7643   2
  17  -2 -17 75.4305 11.3998   4
  -2  17 -17 110.824 14.2121   4
 -17  -2  19 132.427 30.2953   1
   3 -17  18 50.5375 20.8979   1
  17  -3  18 22.5410 12.9638   4
 -17   3  16 194.389 27.8671   1
   3 -17  16 185.139 24.5754   1
  17  -3  16 188.255 24.6277   2
  17   3 -16 183.257 17.2585   4
   3  17 -16 221.478 18.7220   4
  17   3 -16 176.039 18.1703   3
  -3  17  16 136.356 17.8028   3
   3 -17  14 251.969 24.7519   1
  17   3 -14 286.435 21.0890   4
  17  -3  14 305.209 28.7112   2
  -3  17  14 304.784 23.4177   1
   3  17 -14 313.154 20.9299   4
 -17   3  14 288.589 31.9686   2
  -3  17  14 287.862 15.2088   4
  -3  17  14 264.743 20.8310   3
 -17   3  14 288.179 30.7507   1
  -3  17  12 100.237 15.6233   1
  17   3 -12 80.3357 14.2737   4
   3 -17  12 99.2419 18.3964   1
   3  17 -12 100.179 13.8369   4
 -17   3  12 85.9627 22.3131   1
  -3  17  12 113.020 9.58941   4
  -3  17  12 91.2265 13.8013   3
   3 -17  10 137.683 19.3881   1
  17   3 -10 114.653 16.1451   2
  17   3 -10 104.320 14.8266   4
   3  17 -10 123.381 14.1194   4
  -3  17  10 134.106 14.4463   1
  17  -3  10 125.512 20.8790   2
  -3  17  10 118.847 13.6329   3
  17   3  -8 902.871 40.9660   2
   3 -17   8 964.721 42.8130   1
 -17   3   8 835.716 51.5853   2
   3  17  -8 934.701 37.2631   4
  17  -3   8 867.876 44.1322   2
  -3  17   8 920.196 34.5941   1
  -3  17   8 870.868 35.5733   3
  17   3  -6 366.799 25.2663   2
  -3  17   6 374.573 17.8972   1
 -17   3   6 403.936 35.7366   2
   3  17  -6 350.452 21.1701   4
  17  -3   6 353.890 26.9867   2
  17  -3   6 324.864 29.3323   1
   3 -17   6 365.805 26.5111   1
  -3  17   6 359.624 19.4004   3
  17   3  -4 132.463 17.9868   2
  17  -3   4 119.578 19.8957   1
 -17   3   4 146.255 27.2803   2
   3  17  -4 104.094 14.1134   2
   3 -17   4 125.545 18.4069   1
  17   3  -4 72.0133 15.6377   1
  17  -3   4 109.904 16.9900   2
  -3  17   4 120.916 11.2459   3
  17   3  -2 1494.96 57.8670   1
  17  -3   2 1466.06 55.7048   1
   3  17  -2 1331.45 56.4304   2
 -17   3   2 1374.31 69.8962   2
  -3  17   2 1489.13 44.8370   4
  17  -3   2 1384.51 55.7029   2
 -17   3   0 1445.95 73.3626   2
  -3  17   0 1532.95 46.2685   2
  17   3   0 1425.35 58.9017   1
  -3  17   0 1413.65 44.8057   4
  17  -3   0 1417.85 52.7840   1
   3  17   0 1412.87 52.4378   1
  17  -3   0 1505.32 56.1627   2
  17  -3  -2 1367.62 53.7914   2
  17   3   2 1294.17 58.5165   1
  -3  17  -2 1448.80 43.0377   2
   3  17   2 1270.77 51.7889   1
  17   3   2 1333.29 59.7031   2
  -3  17  -2 1435.66 43.8224   4
  17  -3  -2 1447.40 50.0533   1
  17   3   4 136.268 23.0748   1
 -17  -3   4 168.423 30.4743   2
  17  -3  -4 129.044 16.0166   2
   3  17   4 129.636 17.4623   1
  17   3   4 146.563 22.3455   2
  -3  17  -4 109.643 6.06368   2
  -3  17  -4 122.178 9.93977   4
  17  -3  -6 348.090 23.1601   2
 -17  -3   6 421.295 39.9939   2
   3  17   6 350.679 26.0494   1
  17   3   6 381.936 33.1199   2
  -3  17  -6 390.998 17.9587   4
  -3 -17   6 306.662 31.4397   1
  17   3   6 320.111 32.1795   1
   3  17   8 898.116 43.3888   1
 -17  -3   8 1002.78 59.1482   2
  17  -3  -8 890.257 39.5107   2
  17   3   8 841.238 50.5215   2
  17  -3  -8 916.370 33.7865   4
  17   3   8 828.430 50.7331   1
  -3  17  -8 908.435 32.7857   4
  -3 -17   8 905.231 48.5665   1
   3  17  10 110.858 20.1358   1
   3  17  10 166.095 15.9245   3
 -17  -3  10 124.436 29.2679   2
  -3 -17  10 134.650 23.9321   1
  17   3  10 143.723 27.3155   2
  17  -3 -10 129.249 12.1805   4
 -17  -3  10 111.419 25.5042   1
  -3  17 -10 118.699 12.1854   4
   3  17  12 122.857 14.7632   3
  17   3  12 114.965 29.5537   2
 -17  -3  12 119.683 28.8963   2
  -3 -17  12 120.108 23.0042   1
  -3  17 -12 90.6022 11.5306   4
 -17  -3  12 64.3111 23.6647   1
   3  17  12 55.4947 20.3420   1
 -17  -3  14 282.406 33.4223   1
   3  17  14 360.843 23.2307   3
 -17  -3  14 265.161 35.4313   2
  17  -3 -14 276.926 16.7198   4
   3  17  14 327.416 34.6314   1
  -3  17 -14 284.214 18.4012   4
  17  -3 -14 289.169 22.6395   3
  -3 -17  14 236.289 28.6453   1
  17  -3 -16 208.615 19.4764   3
  -3 -17  16 180.542 27.3342   1
   3  17  16 219.545 20.1889   3
 -17  -3  16 174.165 29.8133   1
 -17  -3  16 156.334 31.7978   2
  17  -3 -16 202.640 14.8441   4
 -17  -3  18 70.7164 26.2900   1
   4 -17  19 164.666 25.0351   1
   4 -17  17 158.766 23.9483   1
  17  -4  17 136.805 22.3358   2
  17   4 -17 131.146 16.9079   4
   4  17 -17 152.201 17.8125   4
  17  -4  17 174.808 17.8570   4
  17   4 -17 139.631 17.7310   3
 -17   4  15 31.3618 22.0052   1
   4 -17  15-2.85862 16.2207   1
  17  -4  15 8.86697 15.5054   2
  17   4 -15 8.31206 11.8309   4
 -17   4  15 21.0475 21.3160   2
   4  17 -15 12.2365 12.6439   4
  17  -4  15 12.9523 11.3536   4
  17   4 -13 403.599 25.1322   2
  17   4 -13 341.019 23.4354   4
   4  17 -13 372.670 23.3227   4
  17  -4  13 333.616 29.1020   2
  -4  17  13 371.761 16.2809   4
 -17   4  13 356.628 32.4882   1
  -4  17  13 337.576 22.9432   3
   4 -17  13 327.398 27.1321   1
  17   4 -11 324.183 23.3016   2
  17   4 -11 337.469 22.8985   4
   4  17 -11 310.955 21.5901   4
 -17   4  11 314.874 33.3050   2
  17  -4  11 313.781 27.5209   2
   4 -17  11 329.011 25.8311   1
  -4  17  11 325.124 14.2862   4
  -4  17  11 345.445 22.0172   3
  17   4  -9 104.596 15.8009   2
 -17   4   9 94.6453 22.4784   2
   4  17  -9 84.5275 13.7302   4
  -4  17   9 101.339 11.2729   1
  17  -4   9 103.814 18.8021   2
  -4  17   9 109.890 7.34503   4
   4 -17   9 116.952 17.8846   1
   4 -17   7 661.548 34.1572   1
  17   4  -7 657.184 34.5687   2
 -17   4   7 654.105 44.1286   2
   4  17  -7 618.257 30.0610   4
  -4  17   7 665.453 24.0388   1
  17  -4   7 667.528 35.8222   2
 -17   4   5 611.613 43.3139   2
   4  17  -5 590.293 26.9192   2
  17   4  -5 595.704 32.1939   1
   4 -17   5 612.945 32.8273   1
  17  -4   5 572.675 35.0127   1
  17  -4   5 634.240 33.7994   2
  17   4  -5 585.801 32.9871   2
   4  17  -3 1495.16 58.2008   2
 -17   4   3 1541.99 72.8973   2
  17   4  -3 1580.58 60.9899   1
  -4  17   3 1621.82 51.8178   2
  -4  17   3 1625.99 46.1610   4
  17   4  -3 1409.42 60.4395   2
  17  -4   3 1551.05 59.3159   2
  17  -4   3 1550.02 59.0132   1
  17  -4   1 199.409 19.0704   2
   4  17  -1 154.402 23.2146   2
  -4  17   1 200.076 12.9595   2
 -17   4   1 206.350 31.6421   2
   4  17  -1 179.440 18.1010   1
  17   4  -1 233.141 23.8885   1
  -4  17   1 185.361 9.69715   4
  17  -4   1 205.876 18.7042   1
  -4  17  -1 193.933 12.1105   2
  17  -4  -1 202.102 18.4892   2
 -17   4  -1 195.621 32.2697   2
  17  -4  -1 173.323 15.5924   1
   4  17   1 191.418 18.7702   1
  -4  17  -1 206.028 10.5808   4
  17   4   1 168.531 23.0877   1
  17   4   3 1555.47 66.2803   1
  17  -4  -3 1571.63 58.2288   2
  17   4   3 1415.76 65.2806   2
  -4  17  -3 1513.28 46.9452   2
   4  17   3 1567.34 59.2531   1
 -17  -4   5 719.308 53.2064   2
  17  -4  -5 674.391 32.0774   2
  17   4   5 652.599 41.1016   2
   4  17   5 595.248 34.5030   1
  -4 -17   5 634.904 41.9422   1
  -4  17  -5 584.183 22.9323   4
  17   4   5 591.671 40.4602   1
   4  17   7 603.830 36.3344   1
 -17  -4   7 727.596 51.6753   2
  17  -4  -7 660.521 32.4486   2
  17   4   7 609.988 43.3484   2
  17  -4  -7 682.235 26.7082   4
  17   4   7 639.733 44.0648   1
  -4 -17   7 679.382 42.7904   1
  -4  17  -7 681.132 25.7977   4
  -4 -17   9 103.058 23.2349   1
   4  17   9 118.581 22.1229   1
 -17  -4   9 101.654 28.5549   2
  17  -4  -9 107.445 10.7566   4
  17   4   9 128.186 28.7847   1
  -4  17  -9 93.9079 10.1274   4
   4  17  11 308.182 30.9813   1
 -17  -4  11 359.395 39.5638   2
  17   4  11 313.072 36.9365   2
  -4 -17  11 322.823 31.7805   1
  -4  17 -11 307.102 17.5045   4
 -17  -4  11 385.468 36.4267   1
  17  -4 -11 303.068 22.2828   3
 -17  -4  13 323.851 35.5542   1
   4  17  13 385.576 24.3624   3
 -17  -4  13 379.304 39.6861   2
  -4 -17  13 337.342 32.9034   1
  17  -4 -13 353.902 18.1884   4
   4  17  13 338.537 34.0397   1
 -17  -4  15 48.5294 26.0532   1
   4  17  15 14.0533 12.3581   3
  17   4  15-12.9032 29.9834   2
 -17  -4  15-19.2871 26.3387   2
   4  17  15 35.6253 25.0583   1
  17  -4 -15 8.18873 8.22373   4
  -4 -17  15 2.01321 19.8485   1
  -4 -17  17 192.149 29.3601   1
 -17  -4  17 128.425 29.5413   1
  17   4  17 180.657 41.4744   2
 -17  -4  17 145.281 31.9782   2
   5 -17  18 312.404 29.6338   1
  17  -5  18 363.610 23.5373   4
   5 -17  16 104.975 19.3012   1
  17   5 -16 111.547 16.6141   4
   5  17 -16 114.882 16.2613   4
  17  -5  16 116.834 15.0597   4
   5 -17  14 208.970 22.2512   1
  17   5 -14 190.318 19.8603   2
   5  17 -14 227.395 19.2014   4
  17  -5  14 191.600 22.8566   2
 -17   5  14 227.446 28.0176   1
  17  -5  14 193.653 16.0549   4
   5 -17  12 730.525 36.7499   1
  17   5 -12 724.584 35.8722   2
 -17   5  12 761.145 47.1092   2
   5  17 -12 750.997 34.4701   4
  -5  17  12 736.117 24.4270   4
  17   5 -10 364.659 25.1266   2
   5  17 -10 370.402 23.1380   4
   5 -17  10 369.220 24.5477   1
 -17   5  10 316.925 32.7446   2
  17  -5  10 345.390 26.8704   2
  -5  17  10 316.704 12.4562   4
   5  17  -8 611.793 22.2921   2
  17   5  -8 603.644 32.9673   2
   5 -17   8 659.452 32.6032   1
 -17   5   8 684.762 44.0416   2
   5  17  -8 626.245 30.4139   4
  -5  17   8 597.094 18.6438   4
  17  -5   8 635.941 34.6685   2
   5 -17   6 272.879 22.3515   1
  -5  17   6 306.008 18.5782   2
 -17   5   6 290.202 31.0077   2
   5  17  -6 290.420 17.2665   2
  17  -5   6 293.759 26.2844   1
  -5  17   6 245.133 8.47580   4
  17  -5   6 303.122 23.3789   2
  17   5  -6 316.452 23.5015   2
 -17   5   4 571.544 42.1514   2
  -5  17   4 606.760 26.0671   2
   5  17  -4 545.578 29.2899   2
  17   5  -4 550.133 32.9934   2
  17  -5   4 540.744 31.7064   1
  17   5  -4 588.121 33.3845   1
  17  -5   4 594.629 31.6175   2
  17   5  -2 1055.75 47.2724   1
  -5  17   2 1039.92 36.3592   2
  17  -5   2 1006.59 40.8069   1
   5  17  -2 921.123 45.8186   2
 -17   5   2 1038.98 57.5829   2
  17   5  -2 965.947 46.6822   2
  17  -5   2 959.184 42.2795   2
   5  17   0-2.23976 12.8295   1
  17   5   0 1.57254 16.8365   1
  -5  17   0 1.12503 6.95436   2
  17  -5   0 2.24615 10.7353   2
   5  17   0-7.53593 20.0977   2
 -17   5   0 5.15258 22.8858   2
  17   5   0 3.40369 14.3001   2
  17  -5   0 1.55780 11.4687   1
  17  -5  -2 998.814 42.3279   2
   5  17   2 996.193 44.5445   1
 -17   5  -2 1011.62 61.8896   2
  17   5   2 1049.56 51.3219   1
  17  -5  -2 1026.21 36.9677   1
  -5  17  -2 1047.37 31.8266   4
  -5  17  -2 1024.78 34.3825   2
  17  -5  -4 524.091 28.4063   2
  -5  17  -4 522.083 18.6168   2
   5  17   4 593.533 33.4133   1
  17   5   4 584.822 38.4791   1
  17   5   6 343.882 33.0854   1
 -17  -5   6 283.198 39.7638   2
   5  17   6 358.734 27.7469   1
  17  -5  -6 312.237 22.2345   2
  17  -5  -6 335.088 16.3459   4
  17   5   6 340.279 33.2550   2
  -5  17  -6 322.091 15.4321   4
  -5 -17   6 385.793 34.9469   1
   5  17   8 592.222 37.9456   1
 -17  -5   8 628.863 50.3800   2
  17   5   8 562.537 44.2322   2
  17  -5  -8 627.407 23.6293   4
  17   5   8 591.249 44.3555   1
  -5 -17   8 587.921 42.1835   1
  -5  17  -8 595.208 23.7740   4
   5  17  10 368.537 32.6308   1
  -5 -17  10 369.698 34.1934   1
 -17  -5  10 339.976 39.2166   2
  17   5  10 309.643 36.4710   2
 -17  -5  10 372.677 35.6369   1
  17  -5 -10 351.315 22.7369   3
  -5 -17  12 789.591 47.8940   1
 -17  -5  12 793.336 54.8207   2
  17   5  12 742.035 53.9213   2
 -17  -5  12 723.228 49.1285   1
   5  17  12 706.402 45.4762   1
  17  -5 -12 724.664 27.2956   4
 -17  -5  14 216.308 33.0164   1
  17   5  14 244.470 38.7825   2
 -17  -5  14 249.146 35.7576   2
  -5 -17  14 209.358 30.0275   1
  17  -5 -14 239.123 14.4458   4
   5  17  14 262.709 33.8117   1
 -17  -5  16 133.659 31.0809   1
  17   5  16 114.923 36.4574   2
 -17  -5  16 112.087 32.4399   2
  -5 -17  16 108.347 27.3956   1
   6 -17  17 545.421 35.2937   1
  17  -6  17 593.701 30.2843   4
   6 -17  15 204.202 22.5237   1
  -6  17  15 171.895 19.4862   2
  17   6 -15 191.951 19.4511   4
   6  17 -15 192.652 18.7621   4
  17  -6  15 148.920 15.1519   4
   6 -17  13 782.569 38.2873   1
  17   6 -13 787.949 37.4526   2
  -6  17  13 751.224 36.6588   2
  17   6 -13 755.051 36.7373   4
 -17   6  13 754.911 47.6162   2
   6  17 -13 838.058 36.8522   4
  17  -6  13 893.108 41.4006   2
  17  -6  13 753.509 31.7323   4
  -6  17  11 424.124 25.6977   2
  17   6 -11 447.132 27.4864   4
   6  17 -11 383.177 24.9353   4
 -17   6  11 441.855 36.3878   2
  17  -6  11 437.888 29.1152   2
  17  -6  11 426.859 21.0878   4
   6 -17  11 472.387 27.6485   1
  17   6  -9 416.626 26.9085   2
   6  17  -9 363.186 16.0849   2
  -6  17   9 385.636 22.4990   2
   6 -17   9 355.321 24.1227   1
   6  17  -9 364.283 23.5299   4
 -17   6   9 383.315 34.7990   2
   6 -17   7 1982.99 67.4879   1
  -6  17   7 1895.17 65.5729   2
 -17   6   7 1993.19 83.1231   2
   6  17  -7 2046.91 62.4389   2
  17  -6   7 1996.91 70.7029   2
  17   6  -7 1979.19 71.9028   2
  -6  17   5 600.938 27.1750   2
 -17   6   5 615.927 41.4764   2
  17   6  -5 618.462 34.2055   1
   6  17  -5 616.676 29.3770   2
   6 -17   5 549.104 28.6212   1
  17  -6   5 589.680 32.8825   1
  17   6  -5 563.364 32.9173   2
  17  -6   5 564.651 30.8069   2
  17  -6   3 19.9179 11.9735   2
  -6  17   3 38.9396 9.45901   2
  17  -6   3 40.9903 14.4588   1
 -17   6   3 66.5722 21.8655   2
  17   6  -3 47.9218 16.5601   1
  17   6  -3 35.5910 14.8245   2
  -6  17   1 1087.04 39.2517   2
  17  -6   1 1149.60 45.4816   2
   6  17  -1 1117.45 52.8867   2
 -17   6   1 1228.35 61.8827   2
   6  17  -1 1134.44 46.5940   1
  17   6  -1 1104.95 51.6370   2
  17  -6   1 1155.53 41.5108   1
  17   6  -1 1127.95 51.7027   1
  17  -6  -1 1212.48 40.1924   1
   6  17   1 1108.69 58.5007   2
  17  -6  -1 1252.57 46.8918   2
 -17   6  -1 1258.69 65.0906   2
  17   6   1 1175.49 54.4557   1
   6  17   1 1070.58 47.5184   1
  17   6   1 1141.39 54.8631   2
  -6  17  -1 1150.09 39.5560   2
  17  -6  -3 30.6013 11.1300   2
  17   6   3 9.29093 18.7289   1
   6  17   3 36.9193 15.3926   1
  -6  17  -3 40.9667 7.31272   2
  17  -6  -5 564.260 29.5705   2
   6  17   5 639.995 35.9386   1
  17  -6  -5 578.851 21.8396   4
  17   6   5 556.296 39.9535   1
   6  17   7 1859.16 74.6059   1
 -17  -6   7 1810.84 91.8462   2
  17   6   7 2004.09 86.1715   2
  17  -6  -7 2002.44 57.9002   4
  -6 -17   7 2051.70 84.1220   1
  17   6   7 1861.20 82.1381   1
   6  17   9 410.547 33.8628   1
 -17  -6   9 355.035 40.6564   2
  17   6   9 410.704 39.8374   2
  -6 -17   9 449.867 37.6878   1
  17   6   9 378.852 37.5028   1
  17  -6  -9 372.453 23.9956   3
   6  17  11 411.131 36.6895   1
  -6 -17  11 394.342 36.7142   1
 -17  -6  11 448.176 44.4763   2
  17   6  11 490.197 44.6722   2
  17  -6 -11 404.229 17.6517   4
 -17  -6  11 426.130 40.5334   1
  17  -6 -11 426.396 25.8131   3
  -6 -17  13 844.134 50.8692   1
 -17  -6  13 800.493 57.3180   2
  17   6  13 815.590 58.0705   2
   6  17  13 829.242 51.5934   1
 -17  -6  13 765.183 52.2457   1
  17  -6 -13 787.373 37.2553   3
 -17  -6  15 181.485 31.1826   1
  17   6  15 114.565 32.4738   2
 -17  -6  15 134.603 32.8615   2
  -6 -17  15 191.736 30.5661   1
 -17  -6  17 530.020 50.4076   2
  17  -7  18 303.376 21.9900   4
   7 -17  16 55.4407 18.7372   1
  17  -7  16 48.3323 11.9252   4
   7 -17  14 78.5114 16.6177   1
  -7  17  14 89.6466 16.5688   2
  17   7 -14 96.8950 15.8753   2
  17   7 -14 88.5649 16.2582   4
   7  17 -14 88.8933 16.0473   4
 -17   7  14 78.3977 22.7763   2
  17  -7  14 108.852 17.4975   2
  17  -7  14 110.226 13.4995   4
   7 -17  12 831.076 38.6362   1
  17   7 -12 788.625 38.2996   2
  -7  17  12 798.504 38.4449   2
  17   7 -12 859.684 40.3418   4
   7  17 -12 801.242 37.8982   4
 -17   7  12 919.472 50.9617   2
  17  -7  12 863.129 32.7765   4
   7  17 -10 279.725 14.1639   2
  17   7 -10 254.409 22.1057   2
  -7  17  10 277.447 21.1264   2
   7  17 -10 266.362 21.3531   4
 -17   7  10 305.520 31.9488   2
   7 -17  10 288.148 21.6856   1
  17  -7  10 294.765 22.4426   2
  17  -7  10 280.469 16.3283   4
  17   7  -8 532.561 30.3661   2
   7 -17   8 469.966 25.8543   1
  -7  17   8 502.612 26.2191   2
   7  17  -8 443.904 26.9202   4
 -17   7   8 508.672 38.2668   2
   7  17  -8 463.803 21.6857   2
  -7  17   6 472.982 24.4880   2
 -17   7   6 471.003 36.9065   2
  17  -7   6 478.169 29.8099   1
   7  17  -6 438.252 24.3476   2
   7 -17   6 464.064 25.0576   1
  17   7  -6 417.806 28.6661   2
  17  -7   6 421.379 25.9311   2
  17  -7   4 867.267 37.5149   2
  -7  17   4 816.494 34.0648   2
 -17   7   4 892.204 49.8993   2
   7  17  -4 798.848 38.4749   2
  17   7  -4 809.355 41.5343   2
  17   7  -4 878.559 42.5049   1
  -7  17   2 743.048 30.3896   2
   7  17  -2 706.857 35.7794   1
  17   7  -2 698.798 39.3534   1
  17  -7   2 707.482 33.1757   2
 -17   7   2 746.719 47.2032   2
   7  17  -2 753.410 40.1093   2
  17  -7   2 735.260 30.3756   1
  17   7  -2 756.035 40.9863   2
  17   7   0 94.3568 20.4380   1
   7  17   0 143.299 25.3674   2
 -17   7   0 137.538 27.9529   2
   7  17   0 107.358 18.7092   1
  17  -7   0 124.271 14.8919   2
  17  -7   0 116.669 11.0325   1
  17   7   0 137.378 21.3460   2
  -7  17   0 115.982 12.0481   2
   7  17   2 755.209 38.1746   1
   7  17   2 710.886 48.6673   2
 -17   7  -2 760.563 51.1364   2
  17   7   2 679.106 40.9816   1
  17  -7  -2 689.161 32.0568   2
  -7  17  -2 643.347 27.2353   2
  17   7   4 880.002 48.5046   1
  -7  17  -4 831.374 30.7434   2
  17  -7  -4 882.230 37.7004   2
  17  -7  -4 889.194 27.9337   4
   7  17   4 856.414 43.8276   1
   7  17   6 413.481 32.0399   1
  17  -7  -6 448.321 16.2693   4
  -7 -17   6 427.285 37.8292   1
  17   7   6 460.586 37.9897   1
   7  17   8 430.786 34.2614   1
 -17  -7   8 470.556 48.8816   2
  -7 -17   8 529.270 41.2193   1
  17  -7  -8 481.526 26.4327   3
  17   7   8 500.978 40.6172   1
  -7 -17  10 302.752 33.9495   1
 -17  -7  10 285.341 41.7387   2
  17   7  10 330.151 38.5254   2
 -17  -7  10 231.964 32.7051   1
  17   7  10 257.763 35.0264   1
  17  -7 -10 241.521 20.1318   3
 -17  -7  12 800.469 60.1000   2
  17   7  12 748.656 55.9623   2
 -17  -7  12 915.331 56.6281   1
  17  -7 -12 826.693 37.9523   3
 -17  -7  14 101.218 29.9508   1
  17  -7 -14 119.176 15.7137   3
 -17  -7  14 53.2348 30.3268   2
  17   7  14 131.372 34.6281   2
  -7 -17  14 111.319 27.0127   1
   7  17  14 70.8198 28.6435   1
 -17  -7  16 72.0792 32.3124   2
   7  17  16 149.698 35.0214   1
  17   8 -17 320.855 23.6502   3
  -8  17  15 29.3285 16.0678   2
  17  -8  15 28.2583 11.1365   4
  -8  17  13 240.648 22.3060   2
  17   8 -13 209.645 21.1649   4
   8  17 -13 211.544 20.0402   4
 -17   8  13 197.413 27.6718   2
  17  -8  13 221.915 16.0121   4
   8 -17  13 159.243 19.3053   1
  17  -8  13 223.868 20.1877   2
  17  -8  11 109.420 15.3391   2
  17   8 -11 125.626 17.5528   2
  -8  17  11 108.016 16.5618   2
   8  17 -11 99.9317 16.0923   4
 -17   8  11 102.656 24.7540   2
   8 -17  11 117.902 16.3878   1
  17  -8  11 115.078 12.0037   4
   8 -17   9 15.4560 12.2253   1
  17  -8   9 3.29070 11.8719   2
   8  17  -9-1.87467 8.80586   2
  17   8  -9 15.6808 13.6319   2
  -8  17   9 5.60053 11.6406   2
 -17   8   9 2.10419 18.5939   2
  17  -8   9 6.09045 7.88380   4
  17  -8   7 769.345 35.0619   2
  -8  17   7 794.072 35.3223   2
 -17   8   7 811.038 47.6424   2
   8  17  -7 783.715 32.7425   2
  17  -8   7 761.136 27.9468   4
  17   8  -7 707.997 38.3008   2
   8 -17   7 756.022 32.2747   1
  -8  17   5 679.860 31.5115   2
  17  -8   5 689.377 32.6955   2
 -17   8   5 677.053 44.6289   2
  17   8  -5 710.697 38.0374   1
   8  17  -5 725.953 34.5870   2
  17   8  -5 747.899 38.7561   2
  17  -8   5 675.114 24.7185   4
  17  -8   3 617.684 29.6213   2
  17  -8   3 566.789 26.0896   1
 -17   8   3 614.095 41.9973   2
   8  17  -3 551.992 33.6083   2
  17   8  -3 558.636 35.1914   1
  17   8  -3 519.692 34.2000   2
  -8  17   3 603.023 27.6956   2
   8  17  -1 1012.22 46.0696   1
  17  -8   1 1061.14 41.7290   2
 -17   8   1 1040.75 56.9432   2
   8  17  -1 984.021 49.8403   2
  17  -8   1 1011.58 34.5025   1
  17   8  -1 1027.14 50.7051   2
  -8  17   1 1022.18 39.0641   2
  17   8  -1 1060.33 50.0952   1
   8  17   1 878.198 52.4846   2
 -17   8  -1 970.135 57.4435   2
   8  17   1 948.464 45.4144   1
  17  -8  -1 943.274 39.5217   2
  17   8   1 1000.06 49.9788   1
  17   8   1 933.314 50.3238   2
  -8  17  -1 1006.60 36.9647   2
   8  17   3 602.050 45.6864   2
 -17   8  -3 558.253 47.3900   2
  17   8   3 508.698 37.6713   1
  -8  17  -3 535.396 24.4971   2
  17   8   3 508.573 39.4172   2
  17  -8  -3 498.706 27.0316   2
   8  17   3 468.168 32.6775   1
  17   8   5 649.776 46.1426   2
   8  17   5 644.619 39.1063   1
   8  17   7 823.969 46.0051   1
  -8 -17   7 750.241 50.5177   1
  17   8   7 798.469 50.3262   1
  17  -8  -7 731.544 34.3808   3
   8  17   9 16.0741 22.3574   1
  17   8   9 18.3150 23.7306   1
  -8 -17   9 14.6241 24.5400   1
  17  -8 -11 122.692 16.1565   3
   8  17  11 109.325 26.2226   1
  -8 -17  11 157.272 29.5340   1
 -17  -8  11 123.321 36.2719   2
  17   8  11 86.3030 27.2654   2
 -17  -8  11 101.772 28.8043   1
  17  -8 -13 226.683 19.7191   3
  -8 -17  13 237.066 33.2145   1
 -17  -8  13 181.052 39.5058   2
  17   8  13 116.172 32.9339   2
 -17  -8  13 224.833 35.6800   1
 -17  -8  15 73.5372 31.9986   2
   8  17  15 58.3264 32.6606   1
 -17  -8  17 371.503 45.2695   2
  -9  17  14 177.622 21.8334   2
  17   9 -14 152.563 17.6679   2
  17  -9  12 44.9417 12.7959   2
  -9  17  12 54.7331 15.9050   2
  17   9 -12 26.7869 13.9077   2
  17   9 -12 58.7478 15.4352   4
   9  17 -12 46.9449 15.2330   4
 -17   9  12 49.6180 21.9244   2
  17  -9  12 37.9093 10.3508   4
  17  -9  10 399.502 23.8944   2
  17   9 -10 383.040 26.6521   2
   9  17 -10 412.722 20.2154   2
  -9  17  10 389.871 26.1329   2
   9  17 -10 377.202 25.8555   4
 -17   9  10 452.817 36.0465   2
  17  -9  10 390.590 19.2403   4
  17  -9   8 910.445 39.0625   2
  -9  17   8 936.484 40.9806   2
   9 -17   8 858.213 35.4298   1
 -17   9   8 924.330 50.5953   2
  17  -9   8 994.572 33.1531   4
   9  17  -8 924.313 36.7287   2
  17   9  -8 913.617 43.0331   2
  -9  17   6 466.418 26.3437   2
  17  -9   6 443.925 24.9570   2
 -17   9   6 408.040 35.1062   2
   9 -17   6 447.905 20.4981   1
  17  -9   6 451.371 26.6161   1
   9  17  -6 437.611 25.8670   2
  17  -9   6 468.408 19.2856   4
  17   9  -4 1173.36 52.4054   1
  17  -9   4 1130.47 41.4806   1
  17  -9   4 1187.15 45.1613   2
 -17   9   4 1197.17 59.6158   2
   9  17  -4 1270.19 50.5857   2
  17   9  -4 1191.69 52.8141   2
  17  -9   4 1130.65 36.2617   4
  -9  17   4 1168.07 45.5801   2
  17   9  -2 1659.06 66.5586   1
  17  -9   2 1630.93 56.8350   2
 -17   9   2 1635.45 72.9268   2
   9  17  -2 1488.93 64.3258   2
   9  17  -2 1677.64 63.0056   1
  17   9  -2 1604.29 66.4716   2
  17  -9   2 1560.56 46.0511   4
  -9  17   2 1645.52 56.5272   2
 -17   9   0 970.712 54.3536   2
   9  17   0 931.522 49.7880   2
  17  -9   0 957.552 38.2210   2
  17   9   0 965.475 49.7060   2
   9  17   0 881.140 43.6643   1
  -9  17   0 950.863 37.1437   2
  17   9   0 956.535 48.0404   1
  17  -9   0 865.665 25.9705   4
 -17   9  -2 1519.23 75.0400   2
   9  17   2 1427.22 71.0634   2
  17   9   2 1569.47 68.1773   1
  -9  17  -2 1580.08 54.7198   2
  17   9   2 1626.43 71.7598   2
   9  17   2 1592.65 64.0378   1
  17   9   4 1240.90 59.9790   1
   9  17   4 1040.51 65.0110   2
  -9  17  -4 1177.17 43.7322   2
  17   9   4 1165.11 61.1202   2
   9  17   4 1252.40 55.4703   1
  17   9   6 472.559 40.9787   2
   9  17   6 383.185 32.4700   1
  17  -9  -6 430.026 24.7441   3
  17   9   6 461.356 38.3006   1
   9  17   8 1005.21 53.3967   1
  -9 -17   8 880.314 56.9248   1
  17   9   8 1004.31 58.2741   1
   9  17  10 405.415 36.6916   1
  17   9  10 443.259 42.0098   1
  -9 -17  10 444.607 41.6452   1
  17  -9 -10 382.473 24.6194   3
  -9 -17  12 68.1932 27.7984   1
 -17  -9  12-3.62724 31.3835   2
  17   9  12 25.5925 27.2197   2
  17   9  12 70.1498 30.1612   1
 -17  -9  12 60.8255 28.8640   1
 -17  -9  14 173.123 39.6648   2
   9  17  14 227.037 37.4098   1
 -17  -9  16 376.698 49.3905   2
 -10  17  13 182.523 22.3455   2
  17  10 -13 215.053 20.1955   2
 -10  17  11 321.459 25.5644   2
  17 -10  11 292.772 20.0320   2
  17  10 -11 285.709 23.0342   2
 -17  10  11 286.792 31.4097   2
 -10  17   9 216.020 20.5036   2
  17  10  -9 208.852 21.5159   2
  10  17  -9 219.201 21.7589   4
 -17  10   9 222.776 27.2981   2
  17 -10   7 428.249 23.4940   2
 -17  10   7 428.610 34.9523   2
  17 -10   7 363.640 24.9926   1
  17 -10   7 434.929 18.2977   4
  17  10  -7 417.262 28.8353   2
 -10  17   7 381.537 25.3645   2
  17 -10   5 797.734 34.0329   2
 -17  10   5 749.193 46.3097   2
  10  17  -5 810.835 38.5822   2
  17 -10   5 837.755 26.9602   4
  17  10  -5 757.203 40.7695   1
 -10  17   5 743.605 36.0982   2
  10  17  -3 1250.68 52.8043   1
  17 -10   3 1277.98 46.4447   2
 -17  10   3 1272.18 61.8169   2
  10  17  -3 1242.08 53.9519   2
  17 -10   3 1182.51 35.5854   4
  17  10  -3 1261.24 56.4678   2
  17  10  -3 1287.83 56.4590   1
 -10  17   3 1247.24 48.2118   2
  17  10  -1 600.568 37.6181   1
 -17  10   1 554.784 41.4746   2
  10  17  -1 661.045 40.2253   2
  17 -10   1 616.551 29.3381   2
  17  10  -1 577.054 38.2303   2
 -10  17   1 577.298 30.1234   2
  10  17  -1 647.829 36.7966   1
  10  17   1 662.945 37.8135   1
 -17  10  -1 616.291 45.7911   2
  10  17   1 599.704 42.3700   2
 -10  17  -1 578.718 30.2478   2
  17  10   1 596.285 40.9099   2
  17  10   1 601.039 39.3343   1
 -17  10  -3 1242.68 67.6540   2
 -10  17  -3 1295.76 48.5974   2
  17  10   3 1357.88 61.8002   1
  17  10   3 1117.63 62.4683   2
  10  17   3 1282.27 57.9324   1
  17 -10  -3 1233.83 47.3653   3
  17  10   5 818.531 49.8609   1
  10  17   5 800.260 57.2366   2
  17  10   5 836.391 53.4748   2
  10  17   5 782.109 45.2188   1
  17 -10  -5 836.335 35.8006   3
  17  10   7 498.314 40.9553   1
  17  10   7 393.895 40.8307   2
  10  17   7 419.398 35.8925   1
  17 -10  -9 209.993 18.5976   3
  17  10   9 221.789 33.4552   1
  10  17   9 253.802 30.7552   1
  17  10   9 202.927 34.3218   2
 -10 -17   9 181.024 32.8716   1
  17 -10 -11 331.670 23.0560   3
  10  17  11 297.523 36.4660   1
 -17 -10  11 344.313 40.0457   1
  17  10  11 402.825 41.5961   1
 -10 -17  11 310.757 38.6049   1
  10  17  13 209.435 35.1132   1
 -17 -10  15 144.361 41.1847   2
  17  11 -14 191.519 19.4193   2
 -11  17  12 30.1700 17.1351   2
  17  11 -10 439.089 28.1875   2
  11  17 -10 454.478 29.8980   4
 -17  11  10 417.562 35.4371   2
 -11  17  10 435.213 29.7550   2
  17 -11   8 519.241 26.4290   2
 -17  11   8 529.892 38.7259   2
  11  17  -8 550.496 28.1152   2
 -11  17   8 538.495 31.6388   2
 -17  11   6 22.8652 19.3303   2
  11  17  -6 29.0055 13.9904   2
  17  11  -6 19.8036 14.9021   2
 -11  17   6 23.0260 14.0047   2
  17 -11   4 273.888 18.9299   2
  17  11  -4 262.682 26.0601   1
 -17  11   4 211.003 28.4077   2
  11  17  -4 296.876 25.9979   2
  17  11  -4 265.343 26.3712   2
 -11  17   4 267.178 21.5444   2
  11  17  -2 799.478 41.1328   1
 -17  11   2 813.532 47.9220   2
  17  11  -2 716.561 42.3894   1
  11  17  -2 732.205 42.3347   2
  17  11  -2 767.838 43.6899   2
 -11  17   2 726.518 36.2624   2
 -17  11   0 317.975 34.0603   2
  11  17   0 307.356 31.5706   2
 -11  17   0 333.563 23.7014   2
  17  11   0 355.303 31.1373   1
  11  17   0 326.067 28.2675   1
 -17  11  -2 725.480 49.9662   2
  11  17   2 767.242 49.4058   2
 -11  17  -2 809.568 37.4234   2
  17  11   2 693.007 47.1035   2
  17  11   2 736.418 44.8248   1
  17 -11  -2 769.419 33.1412   3
  11  17   2 731.093 42.7505   1
  11  17   4 298.346 29.0097   1
 -11  17  -4 281.683 24.0256   2
  11  17   4 298.884 37.2865   2
  17  11   4 266.851 33.2547   2
  17  11   4 249.579 30.8260   1
  17 -11  -4 283.183 20.3148   3
  11  17   6 28.3254 29.5409   2
  17  11   6 11.9116 22.4710   1
  17  11   6 44.7196 25.0987   2
  11  17   6 27.8747 20.3010   1
  17  11   8 525.781 44.3517   1
  17  11   8 487.288 45.2734   2
  17 -11  -8 560.338 28.4392   3
  17 -11 -10 438.043 26.2332   3
  17  11  10 450.284 45.1009   2
 -11 -17  10 490.154 45.2098   1
  11  17  12 75.6342 29.3730   1
  17  12 -13 236.906 21.2607   2
  17  12 -11 402.526 27.7083   2
 -12  17  11 432.725 30.9892   2
 -12  17   9 300.273 26.8141   2
  17  12  -9 339.510 25.2817   2
 -17  12   9 302.546 31.8637   2
  17 -12   7 529.027 25.2234   2
 -17  12   7 505.915 37.4420   2
 -12  17   7 464.987 30.5088   2
  17  12  -7 491.484 31.6608   2
 -17  12   5 282.943 29.9249   2
  12  17  -5 245.019 22.7266   2
 -12  17   5 247.711 22.5127   2
  17  12  -5 195.793 23.5071   1
  17  12  -5 217.770 24.2289   2
  12  17  -3 144.030 21.7111   1
 -17  12   3 177.303 27.7741   2
  12  17  -3 108.969 20.4888   2
 -12  17   3 149.116 19.4375   2
  17  12  -3 122.808 21.8269   2
  17  12  -3 147.482 23.0890   1
  17  12  -1 103.582 21.6675   1
 -17  12   1 132.410 26.2875   2
  12  17  -1 149.277 24.4199   2
 -12  17   1 113.657 18.7283   2
  17  12  -1 102.958 22.2326   2
  12  17  -1 111.259 21.2408   1
  17 -12   1 110.371 13.3782   3
  12  17   1 108.659 21.2549   1
 -17  12  -1 93.1019 25.4843   2
  12  17   1 130.048 25.4566   2
  17  12   1 147.654 23.5475   1
 -12  17  -1 130.424 19.8320   2
  17 -12  -3 150.488 14.8882   3
  17  12   3 122.227 23.7106   1
 -17  12  -3 88.9882 28.2452   2
  12  17   3 125.356 23.5860   1
  17  12   3 152.635 28.0684   2
  12  17   5 234.580 28.7490   1
  12  17   5 205.718 37.0521   2
  17  12   5 260.274 34.5320   2
  17  12   5 249.243 31.8701   1
  17 -12  -5 232.855 18.5187   3
  17 -12  -7 484.507 26.6247   3
  17  12   7 512.616 45.8945   2
  17 -12  -9 292.152 21.2921   3
  12  17   9 202.592 40.1430   2
  12  17   9 261.152 33.8567   1
  17  13 -12 355.696 25.6188   2
  17  13 -10 390.262 28.2653   2
 -13  17  10 438.936 32.3866   2
  17  13  -8 318.678 25.3831   2
 -17  13   8 323.234 32.2941   2
  13  17  -8 293.719 23.0317   2
 -13  17   8 308.768 27.4957   2
 -17  13   6 111.339 23.9309   2
 -13  17   6 83.4070 19.4614   2
  13  17  -6 130.302 18.6259   2
  17  13  -4 170.815 24.2558   1
 -17  13   4 154.360 26.7405   2
  13  17  -4 195.969 23.4734   2
 -13  17   4 135.114 20.3530   2
  17  13  -4 183.793 24.2366   2
  17 -13   4 186.181 15.9696   3
 -17  13   2 256.563 29.9205   2
  13  17  -2 233.403 25.8476   1
  13  17  -2 244.145 27.8412   2
 -13  17   2 249.372 24.3351   2
  17  13  -2 255.437 27.9377   2
  17 -13   2 293.769 19.2763   3
  17 -13   0 58.1391 12.0356   3
 -17  13   0 23.1156 23.9614   2
 -13  17   0 30.7422 16.4975   2
  13  17   0 62.3763 19.9993   1
  13  17   2 263.260 33.6768   2
  13  17   2 243.671 28.0067   1
  17 -13  -2 310.797 20.1302   3
  17 -13  -4 170.801 16.8838   3
  13  17   4 197.672 27.8605   1
  17  13   4 120.941 28.7888   2
  17  13   6 109.694 29.7889   2
  17 -13  -8 301.466 21.3226   3
  13  17   8 262.071 42.0284   2
 -14  17   9 44.3099 19.5533   2
 -17  14   7 273.588 31.7002   2
 -14  17   7 271.454 27.8703   2
  14  17  -7 299.581 23.8945   2
 -17  14   5 363.547 34.9330   2
 -14  17   5 346.904 29.6358   2
 -17  14   3 350.138 34.6291   2
 -14  17   3 359.158 29.1292   2
  14  17  -3 318.896 28.7291   2
  17  14  -3 312.325 29.3498   2
  17 -14   3 350.502 20.3449   3
  17 -14   1 158.386 15.7692   3
 -17  14   1 163.122 30.1155   2
 -14  17   1 118.907 22.5582   2
  14  17  -1 158.052 26.8097   2
  14  17  -1 140.410 24.3704   1
  14  17   1 133.026 25.2033   1
 -17  14  -1 162.251 31.1381   2
  14  17   1 128.205 26.9930   2
  17  14   1 159.720 29.5043   2
  17 -14  -3 354.195 21.9953   3
 -17  14  -3 356.844 40.2464   2
  14  17   3 362.585 37.8524   2
  17  14   3 415.590 39.0821   2
  14  17   3 370.062 33.7452   1
  14  17   5 300.176 39.1223   2
  17  14   5 337.274 39.2635   2
  14  17   7 281.172 40.6063   2
 -15  17   8 542.388 38.1474   2
 -17  15   6 338.143 34.7627   2
 -15  17   6 354.966 32.1909   2
  15  17  -6 361.777 27.1143   2
  17  15  -6 306.361 27.0256   2
 -17  15   4 126.894 28.0198   2
 -15  17   4 159.023 24.2909   2
  15  17  -4 123.282 21.7690   2
 -17  15   2 852.687 52.6476   2
  17  15  -2 1025.62 51.8320   2
  17 -15   0 1343.29 48.1222   3
 -17  15   0 1324.22 66.1915   2
  15  17   0 1278.59 62.9975   2
  17  15   0 1252.55 63.1062   2
  15  17   2 881.697 55.2807   2
  17  15   2 936.908 56.5006   2
  17 -15  -4 170.342 17.7069   3
  15  17   4 205.341 34.3494   2
  17 -15  -6 318.197 21.6042   3
  17  16  -7 92.5172 20.1982   2
 -16  17   7 69.5559 24.6919   2
 -17  16   5 322.954 34.4639   2
  17  16  -5 324.083 28.7358   2
  17  16  -3 1322.50 60.4644   2
  16  17  -1 140.990 25.9837   2
  17  16  -1 130.528 26.0677   2
  16  17   1 120.323 27.1915   2
  17 -16  -5 312.432 21.3399   3
  18   0   0 450.059 29.3544   1
  18   0   0 417.389 29.1911   2
   0  18   0 444.430 19.3620   3
   0  18   2 264.214 15.4141   3
  18   0  -2 255.616 23.1294   2
 -18   0   2 279.977 37.8551   2
  18   0  -2 286.742 22.3879   1
   0  18  -2 301.096 18.1766   4
  18   0   2 287.808 26.3935   1
  18   0   2 266.121 24.9269   2
   0  18  -2 269.288 13.3148   3
   0  18   4 68.9496 9.89213   3
  18   0  -4 40.7699 13.3528   1
  18   0  -4 53.0895 14.2894   2
  18   0   4 81.3919 20.5589   1
 -18   0   4 62.3465 27.6352   2
   0  18  -4 55.2768 11.0188   4
  18   0   4 59.5000 17.1747   2
   0  18   4 47.9875 11.8504   1
   0  18   6 23.4286 8.57977   3
   0  18  -6 16.9895 9.68516   4
  18   0   6 7.13746 16.8266   2
   0  18   6 4.66786 11.2943   1
   0 -18   6 4.88959 19.0270   1
  18   0   6 7.35021 20.1702   1
   0  18   8 247.140 16.7527   3
   0 -18   8 257.251 26.4105   1
  18   0   8 185.244 26.8758   1
   0  18  10 109.409 13.6155   3
 -18   0  10 162.882 30.0991   2
   0 -18  10 140.932 23.7315   1
   0  18  10 125.385 18.0923   1
  18   0 -10 121.066 17.3049   2
  18   0 -10 138.015 15.1245   4
  18   0  10 153.477 25.0354   2
   0  18 -10 152.846 14.8857   4
   0  18  12 227.079 19.0324   3
   0  18  12 206.069 22.8136   1
 -18   0  12 194.842 32.4444   2
  18   0  12 308.649 32.3155   2
  18   0 -12 245.994 18.3045   4
   0  18 -12 218.699 17.2585   4
 -18   0  12 266.790 31.6726   1
   0 -18  12 215.905 26.1320   1
   0  18  14 124.552 15.6066   3
   0 -18  14 139.559 23.5382   1
 -18   0  14 106.451 25.4555   2
   0  18 -14 110.343 14.3348   4
 -18   0  14 133.866 27.2376   1
  18   0 -14 127.248 16.5584   3
   0  18  14 137.369 20.5946   1
   0  18  16 33.6040 14.3798   3
 -18   0  16 39.3149 25.3564   1
   0 -18  16 27.7941 22.9293   1
  18   0 -16 28.2162 12.9467   4
   0  18 -16 54.4996 13.1661   4
 -18   0  18 58.4064 27.7080   1
  18   0  18 8.58707 27.2481   2
   0 -18  18 39.4571 22.6870   1
   0  18 -18 26.8270 12.7678   4
 -18   1  17 88.0229 27.9891   1
   1 -18  17 84.7334 23.0527   1
   1  18 -17 152.459 17.3594   4
  -1  18  15 73.4102 13.9968   3
   1 -18  15 58.6266 21.2851   1
  18  -1  15 75.9074 22.9471   2
  18   1 -15 72.5187 12.8278   4
   1  18 -15 82.5077 13.5349   4
  18   1 -15 61.3403 14.7001   3
 -18   1  15 70.9622 23.9092   1
  -1  18  13 55.6274 12.9334   3
   1 -18  13 34.0384 19.3604   1
 -18   1  13 31.9282 22.7842   2
  18  -1  13 58.1215 21.3506   2
  18   1 -13 44.0320 11.7750   4
   1  18 -13 54.5919 12.8540   4
 -18   1  13 54.8994 23.9825   1
  -1  18  11 159.923 19.6672   1
 -18   1  11 211.632 31.8491   2
  18   1 -11 190.374 19.0007   2
  18   1 -11 173.436 17.4755   4
   1  18 -11 198.422 17.2149   4
   1 -18  11 195.111 24.2453   1
  -1  18  11 243.550 18.7073   3
  -1  18   9 40.7883 10.2795   3
   1 -18   9 67.7374 19.1830   1
  18   1  -9 54.3305 13.3983   2
  18   1  -9 62.1169 13.4939   4
  18  -1   9 61.9783 20.5137   2
   1  18  -9 45.4633 11.3421   4
   1 -18   7 325.225 27.7448   1
   1  18  -7 317.585 19.3905   4
  18  -1   7 300.965 27.9757   2
  18  -1   7 334.491 31.6538   1
  -1  18   7 308.126 20.4575   1
  -1  18   7 308.718 18.4888   3
  18  -1   5 318.669 29.4603   1
 -18   1   5 355.301 37.7482   2
   1  18  -5 387.497 21.2362   4
  18  -1   5 365.204 29.2593   2
   1 -18   5 362.399 29.5552   1
  -1  18   5 393.072 21.4248   1
  -1  18   5 347.043 19.0199   3
  18  -1   3 642.069 37.0774   1
   1  18  -3 619.852 30.1818   2
 -18   1   3 603.146 49.0047   2
   1  18  -3 626.742 28.1981   4
  18   1  -3 631.205 33.0311   1
  18  -1   3 577.920 35.1230   2
  18   1  -3 583.640 33.8782   2
  -1  18   3 657.303 26.0788   3
   1  18  -3 668.275 22.5671   3
   1  18  -1 135.708 10.3681   3
 -18   1   1 159.853 33.9798   2
  18   1  -1 126.898 19.8910   1
  -1  18   1 134.347 11.4396   3
  18  -1   1 141.284 20.5899   1
  18  -1   1 122.255 18.7720   2
  18   1  -1 116.495 18.8983   2
   1  18   1 142.927 11.4300   3
  18  -1  -1 141.675 18.0616   2
  -1  18  -1 152.623 13.2248   4
  18  -1  -1 158.277 18.7360   1
  18   1   1 180.300 21.3561   2
  18   1   1 115.444 20.6580   1
  18  -1  -3 672.060 31.1840   1
  18  -1  -3 649.360 33.9084   2
  18   1   3 640.023 38.3809   1
   1  18   3 617.857 25.5080   3
   1  18   3 637.822 29.4869   1
  -1  18  -3 594.354 20.9748   2
  18   1   3 606.852 36.8245   2
   1  18   5 338.313 19.2829   3
  18   1   5 350.486 31.3604   1
  18  -1  -5 376.302 25.6401   2
   1  18   5 341.923 23.1967   1
  18   1   5 367.531 30.4089   2
  -1 -18   5 371.738 31.9328   1
  -1 -18   7 325.145 30.2311   1
   1  18   7 315.279 18.6511   3
 -18  -1   7 264.874 34.5587   2
   1  18   7 311.936 22.5238   1
  -1  18  -7 311.363 17.7169   4
  18   1   7 289.680 29.2286   2
  18   1   7 288.659 31.1513   1
   1  18   9 60.8103 10.7119   3
  -1 -18   9 51.8199 20.3895   1
 -18  -1   9 45.2878 24.1001   2
  18  -1  -9 35.6714 10.5887   4
  18   1   9 44.4596 21.1806   2
   1  18   9 70.9724 15.8235   1
  -1  18  -9 52.7407 10.3636   4
   1  18  11 159.461 16.7157   3
   1  18  11 180.551 21.8508   1
 -18  -1  11 177.811 32.5661   2
  -1 -18  11 184.006 26.1743   1
  18   1  11 163.717 28.5723   2
  -1  18 -11 194.829 15.9265   4
   1  18  13 53.9508 18.3994   1
   1  18  13 50.7068 13.3044   3
 -18  -1  13 94.2670 28.8426   2
  -1 -18  13 55.2698 21.7817   1
  -1  18 -13 39.5851 10.7669   4
 -18  -1  13 73.5976 25.3006   1
 -18  -1  15 31.1538 25.3185   1
  -1 -18  15 95.4819 23.5319   1
   1  18  15 68.9174 14.2837   3
  18   1  15 75.0301 27.8009   2
 -18  -1  15 67.3504 27.8455   2
  18  -1 -15 75.3615 11.9399   4
   1  18  15 51.2213 19.5324   1
  18  -1 -15 81.3350 15.1155   3
 -18  -1  17 110.279 31.6628   1
  -1 -18  17 101.214 25.0770   1
  18  -1 -17 116.438 14.5349   4
  -1  18 -17 87.4131 14.4852   4
 -18  -1  19 30.8165 27.0828   1
   2 -18  18 86.8716 24.8060   1
 -18   2  16 194.512 29.7676   1
  18  -2  16 158.988 26.1704   2
   2 -18  16 178.453 25.4953   1
  18   2 -16 162.908 16.8703   4
  -2  18  16 155.580 18.7246   3
  -2  18  14 122.904 16.8015   3
   2 -18  14 190.467 23.6163   1
  18  -2  14 171.552 26.3900   2
 -18   2  14 150.255 29.7771   2
  18   2 -14 134.756 16.0105   4
 -18   2  14 171.316 27.6882   1
  -2  18  12 100.161 14.3171   3
  -2  18  12 88.5645 15.8527   1
  18   2 -12 84.0309 15.5950   2
 -18   2  12 142.995 27.5753   2
  18   2 -12 125.935 15.2331   4
  18  -2  12 72.4308 20.9223   2
   2  18 -12 140.000 15.1420   4
   2 -18  12 118.579 21.0729   1
  -2  18  10 151.163 14.7551   3
  18   2 -10 121.135 16.4421   2
  18   2 -10 174.040 17.4536   4
   2 -18  10 121.707 19.8471   1
   2  18 -10 136.684 14.8374   4
  18  -2  10 135.140 23.0610   2
  18   2  -8 993.745 44.3684   2
   2  18  -8 1014.06 39.4240   4
  18  -2   8 1002.54 49.9744   2
  -2  18   8 1087.97 39.4421   1
   2 -18   8 990.565 47.1214   1
  -2  18   8 954.470 38.2238   3
  18   2  -6 892.246 41.0229   2
 -18   2   6 872.491 55.0912   2
   2  18  -6 966.200 35.8042   4
   2 -18   6 925.558 44.2984   1
  -2  18   6 1032.41 34.1712   1
  -2  18   6 953.625 34.3572   3
   2  18  -4 303.504 13.1377   3
  18  -2   4 288.526 26.8543   1
 -18   2   4 279.636 36.4761   2
   2  18  -4 320.811 20.1539   4
  18  -2   4 290.570 26.0089   2
  -2  18   4 303.438 17.5726   3
   2  18  -2 1366.56 42.7404   3
  18   2  -2 1342.68 54.3666   1
   2  18  -2 1344.28 54.8585   2
 -18   2   2 1437.52 73.7622   2
  18  -2   2 1313.04 54.5481   1
  18  -2   2 1307.70 55.1398   2
  -2  18   2 1406.67 45.3130   3
   2  18   0 2446.21 74.7255   3
 -18   2   0 2368.65 107.614   2
  -2  18   0 2679.17 75.6221   4
  18   2   0 2537.94 88.3670   1
  18  -2   0 2546.05 84.0362   1
  18   2   0 2416.43 89.2200   2
  18  -2   0 2628.68 87.7903   2
  18  -2  -2 1412.78 54.7565   2
   2  18   2 1368.75 45.4976   3
  18   2   2 1283.76 57.8634   1
  -2  18  -2 1366.97 42.0513   2
   2  18   2 1368.42 50.6491   1
  -2  18  -2 1448.03 44.9864   4
  18  -2  -2 1346.74 50.6950   1
  18   2   2 1260.32 57.9340   2
  18  -2  -4 317.606 23.5043   2
   2  18   4 329.015 17.6609   3
  18   2   4 293.370 28.1639   1
   2  18   4 330.338 22.6807   1
  -2  18  -4 312.288 16.4482   4
  18   2   4 334.456 28.5549   2
  -2  18  -4 243.627 9.94254   2
   2  18   6 977.928 37.0008   3
  18  -2  -6 889.139 41.3702   2
 -18  -2   6 918.041 61.5989   2
  18   2   6 961.878 50.8445   2
  -2 -18   6 949.950 50.9026   1
  -2  18  -6 1009.28 34.9956   4
   2  18   6 983.011 42.6526   1
  18   2   6 998.963 52.5472   1
   2  18   8 1084.60 40.3331   3
 -18  -2   8 979.516 61.9819   2
   2  18   8 1008.65 45.1474   1
  18  -2  -8 959.534 43.8112   2
  18   2   8 980.447 54.0539   2
  18  -2  -8 1067.76 39.0291   4
  18   2   8 893.474 53.9182   1
  -2  18  -8 1136.87 37.7630   4
  -2 -18   8 1005.72 52.9066   1
   2  18  10 128.196 14.4842   3
  -2 -18  10 134.804 24.7683   1
   2  18  10 145.076 20.8239   1
 -18  -2  10 161.861 29.7192   2
  18   2  10 155.221 26.2488   2
  18  -2 -10 151.469 13.9152   4
  -2  18 -10 175.816 13.8106   4
   2  18  12 130.090 15.9826   3
 -18  -2  12 119.677 30.9022   2
  18   2  12 142.824 27.7876   2
  -2 -18  12 95.3181 23.5843   1
 -18  -2  12 115.110 27.4884   1
  -2  18 -12 128.903 13.4158   4
   2  18  14 159.973 17.1740   3
  18   2  14 117.800 30.9837   2
 -18  -2  14 113.732 30.6452   2
  18  -2 -14 140.929 13.5908   4
  -2 -18  14 189.080 26.3468   1
  -2  18 -14 114.048 13.4323   4
 -18  -2  14 143.060 28.5198   1
   2  18  14 100.286 23.1666   1
  18  -2 -14 133.604 16.1729   3
  -2 -18  16 162.444 27.5319   1
 -18  -2  16 172.977 31.8379   1
  18   2  16 164.215 34.9001   2
  18  -2 -16 171.112 14.6470   4
   2  18  16 177.833 29.1972   1
  -2  18 -16 164.953 16.6303   4
 -18  -2  18 24.0647 29.7575   1
   3 -18  17 53.4786 21.9999   1
  18  -3  17 76.9027 21.0542   2
  18   3 -17 108.288 15.6438   4
  18  -3  17 69.4970 13.9124   4
  18   3 -15 345.522 23.0908   4
   3 -18  15 339.058 29.3135   1
   3  18 -15 354.110 22.8532   4
 -18   3  15 358.375 33.4562   1
  -3  18  15 335.120 23.8663   3
   3 -18  13 138.902 20.8627   1
  18   3 -13 101.393 16.3957   2
  18   3 -13 113.156 15.2678   4
  18  -3  13 93.0087 21.2094   2
   3  18 -13 93.4597 14.1368   4
  -3  18  13 89.1255 14.1998   3
  18   3 -11 401.492 26.6082   2
   3 -18  11 400.987 29.0063   1
  18   3 -11 369.926 23.8031   4
  18  -3  11 401.826 31.1031   2
   3  18 -11 405.676 23.5054   4
  -3  18  11 423.676 23.6947   3
   3 -18   9 1028.39 46.9247   1
  18   3  -9 978.428 44.4936   2
 -18   3   9 999.191 57.7244   2
   3  18  -9 1118.19 41.6976   4
  18  -3   9 976.549 49.1833   2
  -3  18   9 1086.29 38.6596   1
  -3  18   9 1012.03 39.9844   3
   3  18  -7 23.9123 3.08422   3
  -3  18   7 33.5133 9.08342   1
   3 -18   7 31.9986 17.2849   1
  18   3  -7 41.9300 14.7583   2
 -18   3   7 12.8175 20.1106   2
   3  18  -7 27.9077 11.4498   4
  18  -3   7 29.4725 18.9081   1
  18  -3   7 25.1607 15.6505   2
  -3  18   7 45.4117 10.1043   3
   3  18  -5 922.362 29.2174   3
 -18   3   5 953.323 57.3136   2
   3  18  -5 902.563 37.4852   4
   3 -18   5 949.889 43.5245   1
  18  -3   5 920.114 45.3807   1
  18  -3   5 882.956 43.3869   2
  18   3  -5 989.646 42.1953   1
  18   3  -5 854.087 42.3502   2
  18  -3   3 3747.79 120.034   1
 -18   3   3 3973.45 140.715   2
  18   3  -3 3746.30 119.648   1
  18  -3   3 3783.61 120.779   2
 -18   3   1 271.746 38.2370   2
  -3  18   1 325.342 16.6929   2
  -3  18   1 315.904 15.2732   4
  18  -3   1 336.340 24.0581   1
  18   3  -1 316.835 26.3880   1
  18  -3   1 351.877 25.5055   2
  18  -3  -1 285.795 23.0620   2
  -3  18  -1 350.597 15.9432   2
 -18   3  -1 384.645 42.5343   2
  18  -3  -1 338.043 22.3620   1
  -3  18  -1 345.093 15.7822   4
   3  18   1 314.400 22.3340   1
  18   3   1 382.477 29.1448   2
  18   3   1 318.139 28.1793   1
  18   3   3 3609.73 124.795   1
  18  -3  -3 4050.46 119.780   2
   3  18   3 3922.29 117.281   1
  18   3   3 3914.36 127.962   2
  -3  18  -3 3855.96 106.962   4
  -3  18  -3 3638.34 104.335   2
  18  -3  -3 3969.23 113.027   1
 -18  -3   5 914.407 62.2200   2
  18  -3  -5 923.498 40.9549   2
  18   3   5 986.990 50.6216   2
  -3  18  -5 940.977 32.3601   4
   3  18   5 900.511 41.1517   1
  18   3   5 789.119 47.8976   1
 -18  -3   7 86.9508 30.2304   2
  18  -3  -7 16.9317 12.2034   2
  18  -3  -7 41.0027 10.1092   4
  18   3   7 54.4316 22.1127   2
  -3  18  -7 33.0341 8.98707   4
   3  18   7 19.8641 14.2542   1
  -3 -18   7 23.4663 21.2546   1
  18   3   7 14.9046 21.6255   1
   3  18   9 1034.98 48.7336   1
   3  18   9 1061.73 41.7408   3
 -18  -3   9 1098.99 65.5787   2
  18   3   9 1009.10 57.6048   2
  18  -3  -9 1016.60 44.8343   2
  18  -3  -9 1041.14 38.4190   4
  -3  18  -9 1186.89 39.0977   4
  -3 -18   9 1095.60 55.6534   1
   3  18  11 407.726 23.9820   3
   3  18  11 393.918 30.9007   1
  -3 -18  11 350.854 33.5216   1
 -18  -3  11 338.536 39.0922   2
  18   3  11 439.814 39.4545   2
  18  -3 -11 393.666 19.9227   4
 -18  -3  11 442.761 38.7517   1
  -3  18 -11 389.187 19.8462   4
   3  18  13 72.8532 22.3862   1
   3  18  13 88.4453 14.4058   3
 -18  -3  13 105.560 29.8510   2
  18   3  13 94.3674 28.2657   2
  -3 -18  13 77.7001 23.5118   1
  18  -3 -13 100.075 11.5563   4
 -18  -3  13 90.1146 27.5574   1
  -3  18 -13 81.7725 11.7098   4
 -18  -3  15 314.260 36.0261   1
   3  18  15 295.332 23.6121   3
  18   3  15 370.154 42.5310   2
 -18  -3  15 373.391 40.1569   2
  18  -3 -15 343.510 19.0967   4
  -3 -18  15 337.328 33.5369   1
   3  18  15 381.936 35.8889   1
  -3  18 -15 382.522 21.1592   4
 -18  -3  17 69.0527 29.5416   1
   3  18  17 78.8665 30.6511   1
   4 -18  18 20.9768 20.0969   1
   4 -18  16 252.940 26.8457   1
  18  -4  16 205.719 25.3203   2
  18   4 -16 224.660 20.6065   4
  18  -4  16 224.593 18.1490   4
   4 -18  14 242.215 25.0447   1
  18   4 -14 247.895 20.6059   4
   4  18 -14 233.590 20.1059   4
   4 -18  12 39.2685 16.8986   1
   4  18 -12 29.6756 12.4573   4
 -18   4  10 94.4088 25.1232   2
   4  18 -10 110.669 15.0874   4
   4 -18  10 119.580 18.7678   1
  18  -4  10 125.936 19.7674   2
  -4  18  10 132.444 8.31628   4
 -18   4   8 861.103 51.5545   2
  18  -4   8 804.788 40.1353   2
   4 -18   8 791.920 38.2380   1
 -18   4   6 576.396 44.6435   2
   4  18  -6 490.075 26.9959   4
  18  -4   6 525.241 34.3970   1
   4 -18   6 573.560 32.5541   1
  18  -4   6 516.813 32.0556   2
  18   4  -6 585.201 32.7668   2
  18   4  -4 320.798 25.0230   1
  18  -4   4 284.390 25.1373   1
   4  18  -4 337.891 21.8065   2
 -18   4   4 271.165 34.6922   2
  -4  18   4 289.327 18.2073   2
  18   4  -2 1752.65 66.5834   1
   4  18  -2 1700.27 65.7421   2
 -18   4   2 1876.17 84.2127   2
  18  -4   2 1771.26 62.2728   1
  -4  18   2 1766.35 55.5440   2
  -4  18   2 1741.88 49.9350   4
   4  18   0 1402.29 51.4577   1
  18  -4   0 1335.87 52.9109   2
  -4  18   0 1272.05 43.3299   2
 -18   4   0 1409.84 73.3850   2
  18   4   0 1307.53 57.1880   1
  -4  18   0 1349.04 40.1409   4
  18  -4   0 1328.42 48.9819   1
  18  -4  -2 1730.68 61.9588   2
  18   4   2 1685.47 68.8176   1
  18  -4  -2 1710.74 56.1370   1
  -4  18  -2 1573.42 49.4096   4
   4  18   2 1674.17 61.4730   1
  -4  18  -2 1706.70 50.5499   2
  18  -4  -4 345.011 23.8496   2
 -18  -4   4 401.178 44.5454   2
  18   4   4 347.307 31.8565   1
  18   4   4 314.554 29.5066   2
  -4  18  -4 331.779 15.5276   4
   4  18   4 269.489 24.0416   1
 -18  -4   6 549.011 49.0492   2
  18  -4  -6 477.397 29.0028   2
  18   4   6 567.188 40.4998   2
   4  18   6 542.663 33.1113   1
  -4 -18   6 555.668 40.6554   1
  -4  18  -6 586.750 22.6279   4
  18   4   6 503.065 39.0912   1
   4  18   8 762.060 40.8729   1
 -18  -4   8 742.335 54.9088   2
  18   4   8 784.266 49.1297   2
  18  -4  -8 776.449 36.9456   2
  18  -4  -8 786.587 29.8009   4
  18   4   8 830.040 50.6337   1
  -4 -18   8 822.450 48.4592   1
  -4  18  -8 751.257 28.8225   4
  -4 -18  10 145.500 26.5809   1
   4  18  10 117.348 22.0244   1
 -18  -4  10 125.922 32.1759   2
  18   4  10 113.086 27.1777   2
  18  -4 -10 104.909 10.9843   4
  18   4  10 119.706 29.0824   1
   4  18  12 30.0934 19.6378   1
   4  18  12 14.1081 11.6494   3
 -18  -4  12 42.5028 28.2298   2
  -4 -18  12 64.9212 24.0822   1
 -18  -4  12 14.2392 23.8071   1
  -4  18 -12 36.9725 9.98999   4
  18  -4 -12 41.1408 14.1048   3
   4  18  14 250.795 20.6248   3
 -18  -4  14 239.738 37.4175   2
  18   4  14 244.649 37.2844   2
  -4 -18  14 221.376 30.8100   1
 -18  -4  14 177.881 31.9364   1
   4  18  14 263.332 32.3807   1
 -18  -4  16 258.905 35.8154   1
  -4 -18  16 220.818 31.2396   1
   4  18  18 49.9605 35.7963   1
  18  -5  17 221.823 19.0310   4
  18   5 -15 31.5014 12.9470   4
   5  18 -15 17.2632 13.0260   4
  18  -5  15 27.5863 17.1334   2
  18  -5  15 24.7172 11.5937   4
   5 -18  15 29.5369 16.6627   1
   5 -18  13 234.938 23.6946   1
  18   5 -13 216.147 20.8741   2
  18   5 -13 264.269 21.4717   4
 -18   5  13 208.691 29.6612   2
   5  18 -13 244.079 19.9065   4
  18  -5  13 242.893 23.7881   2
   5 -18  11 115.005 19.7029   1
  18   5 -11 124.527 17.3795   2
 -18   5  11 93.0239 25.0384   2
   5  18 -11 138.222 16.9727   4
  18  -5  11 102.841 19.1272   2
  18   5  -9 41.1842 14.2141   2
   5 -18   9 47.0746 16.2679   1
  -5  18   9 35.5225 10.8093   2
 -18   5   9 7.30417 20.6071   2
   5  18  -9 46.0048 13.0235   4
  18  -5   9 63.8709 16.2938   2
  18   5  -7 306.757 23.8913   2
  -5  18   7 368.615 20.1300   2
   5  18  -7 314.536 20.7301   4
 -18   5   7 286.385 32.0105   2
  18  -5   7 348.439 29.0032   1
  18  -5   7 322.214 24.5622   2
   5 -18   7 355.085 25.0801   1
   5  18  -7 323.160 14.8797   2
  18  -5   5 234.154 21.9826   2
  18   5  -5 267.547 23.8501   2
  18  -5   5 247.950 23.8831   1
  -5  18   5 243.557 17.6163   2
 -18   5   5 273.456 34.0331   2
  18   5  -5 284.959 24.4033   1
  18  -5   3 875.374 38.9023   1
  -5  18   3 860.331 33.1501   2
 -18   5   3 842.552 53.6880   2
   5  18  -3 857.352 40.0167   2
  18   5  -3 852.386 42.1678   1
  18   5  -3 843.438 42.8060   2
  18  -5   3 789.200 38.7887   2
  18  -5   1 149.450 18.1576   2
  -5  18   1 140.698 12.6220   2
   5  18  -1 188.661 24.1861   2
 -18   5   1 132.196 28.2399   2
  18  -5   1 181.428 17.2304   1
  18   5  -1 130.865 21.4421   1
  18   5  -1 159.883 21.6889   2
 -18   5  -1 103.732 30.3472   2
  18  -5  -1 155.704 14.8951   1
   5  18   1 173.111 19.8341   1
  -5  18  -1 149.980 11.5563   2
  18   5   1 161.622 23.7152   1
   5  18   3 797.610 39.4197   1
  18   5   3 812.030 46.5017   1
  18  -5  -3 869.532 38.1708   2
  -5  18  -3 791.170 27.6960   2
  -5  18  -3 842.502 26.9057   4
  18   5   5 292.918 31.1364   1
   5  18   5 234.563 24.3522   1
  18  -5  -5 263.122 15.5737   4
  18  -5  -5 231.093 20.4941   2
  18   5   5 271.221 30.2729   2
  -5  18  -5 248.649 13.3213   4
  18   5   7 336.233 34.5731   1
 -18  -5   7 419.793 45.3741   2
  18  -5  -7 326.447 23.2669   2
  18  -5  -7 348.048 17.0586   4
  18   5   7 325.677 34.1271   2
   5  18   7 334.200 28.2867   1
  -5  18  -7 322.702 16.1175   4
  -5 -18   7 369.070 35.0662   1
  -5 -18   9 52.4332 24.2509   1
 -18  -5   9 26.0230 28.1491   2
   5  18   9 47.4852 19.2157   1
  18   5   9 46.6680 23.0602   2
  18   5   9 39.6252 25.2622   1
   5  18  11 95.2861 24.0324   1
  -5 -18  11 139.081 28.5203   1
 -18  -5  11 123.038 34.2774   2
  18   5  11 101.004 30.1185   1
 -18  -5  11 97.1935 28.0019   1
  18  -5 -11 124.433 11.1796   4
  18  -5 -11 107.189 15.5353   3
  18  -5 -13 255.683 21.6757   3
   5  18  13 281.798 34.0619   1
 -18  -5  13 246.527 39.2413   2
  -5 -18  13 252.446 32.8611   1
  18   5  13 179.819 36.4962   2
 -18  -5  13 271.076 35.7270   1
 -18  -5  15 35.9253 25.9459   1
 -18  -5  15 28.3840 29.6004   2
  -5 -18  15 11.4240 24.6474   1
   5  18  17 242.919 43.2493   1
  18  -6  16 66.3721 13.1466   4
  -6  18  14 69.3663 15.4731   2
  18   6 -14 64.8295 15.1279   2
  18   6 -14 68.5502 15.7029   4
   6  18 -14 70.8370 15.7852   4
  18  -6  14 57.3947 16.5699   2
   6 -18  14 72.8839 18.0758   1
  18  -6  14 57.0826 12.1034   4
  18   6 -12 547.404 32.3249   2
  -6  18  12 575.098 31.3803   2
  18   6 -12 581.949 31.9771   4
 -18   6  12 562.486 43.6103   2
   6  18 -12 588.640 31.0089   4
   6 -18  12 630.682 33.9154   1
  18  -6  12 659.262 35.2259   2
  18  -6  12 591.159 26.1276   4
  18   6 -10 114.488 17.2074   2
  -6  18  10 154.330 16.3835   2
   6  18 -10 126.683 16.5441   4
 -18   6  10 141.404 26.9006   2
   6 -18  10 139.580 18.8009   1
  18  -6  10 141.647 19.2586   2
  18   6  -8 313.196 25.4522   2
   6 -18   8 287.127 23.2548   1
  -6  18   8 306.485 20.5823   2
   6  18  -8 326.245 22.5375   4
 -18   6   8 351.997 35.0714   2
  18  -6   8 320.310 24.3855   2
  18   6  -6 286.564 24.9623   2
  -6  18   6 348.701 20.9038   2
 -18   6   6 377.205 36.8650   2
   6 -18   6 343.443 23.5252   1
  18  -6   6 418.767 29.1274   1
  18  -6   6 328.932 24.3119   2
  18  -6   4 501.665 29.2745   1
  -6  18   4 505.193 24.4848   2
 -18   6   4 456.923 40.0000   2
   6  18  -4 512.281 28.5714   2
  18   6  -4 507.812 32.0330   2
  18   6  -4 459.320 31.0833   1
  18  -6   4 506.181 28.7424   2
  18  -6   2 656.764 33.1519   2
  -6  18   2 680.185 28.4361   2
  18   6  -2 660.554 38.1686   1
 -18   6   2 621.992 46.8535   2
   6  18  -2 697.835 38.0809   2
  18  -6   2 666.014 30.5738   1
  18   6  -2 701.079 39.2839   2
  -6  18   0 96.0749 10.8921   2
  18   6   0 109.303 22.3004   1
   6  18   0 78.2773 22.6950   2
  18  -6   0 106.880 15.7827   2
 -18   6   0 105.987 30.9238   2
   6  18   0 86.6615 16.5814   1
  18   6   0 97.7957 18.9887   2
  18  -6   0 94.2999 12.4483   1
 -18   6  -2 671.173 52.7171   2
  18  -6  -2 663.055 33.1082   2
  18   6   2 723.631 42.0137   1
   6  18   2 664.900 35.7976   1
  -6  18  -2 700.240 26.5188   2
  -6  18  -4 413.866 16.6137   2
  18  -6  -4 494.344 27.0794   2
  18  -6  -4 540.797 20.3739   4
   6  18   4 446.635 30.6409   1
  18   6   6 363.578 35.4725   1
   6  18   6 414.574 30.3307   1
  18  -6  -6 359.323 24.1411   2
  18   6   6 386.218 36.6273   2
 -18  -6   8 257.831 40.8658   2
  18   6   8 351.730 34.7228   2
   6  18   8 314.317 29.1691   1
  18  -6  -8 305.906 14.3908   4
  -6 -18   8 341.678 35.5458   1
  -6 -18  10 138.898 28.8869   1
 -18  -6  10 107.233 33.2005   2
  18  -6 -10 135.296 9.98383   4
  18   6  10 85.0122 29.4422   1
  18  -6 -10 112.062 15.5142   3
 -18  -6  12 650.540 54.3757   2
  18   6  12 606.821 50.2873   2
 -18  -6  12 600.786 47.7780   1
   6  18  12 613.135 43.8348   1
  -6 -18  12 593.881 45.1263   1
  18  -6 -12 610.599 32.0458   3
 -18  -6  14 71.4633 32.7553   2
  -6 -18  14 78.7380 27.7433   1
 -18  -6  14 73.5072 31.0706   1
   6  18  14 65.3086 27.9500   1
   6  18  16 42.3840 29.8316   1
  18  -7  15 40.2203 12.2536   4
  -7  18  13 346.062 25.0953   2
  18   7 -13 377.493 25.9534   4
   7  18 -13 393.334 25.6246   4
  18  -7  13 387.682 20.8382   4
   7 -18  11 143.274 17.9279   1
  -7  18  11 98.5705 16.0508   2
  18   7 -11 112.261 17.9356   4
   7  18 -11 133.744 17.3296   4
 -18   7  11 149.816 27.1572   2
  18  -7  11 118.837 12.5066   4
  18  -7  11 87.9518 16.1105   2
  18  -7   9 53.7688 14.2387   2
  -7  18   9 37.9158 11.5759   2
 -18   7   9 18.8761 19.9783   2
   7 -18   9 45.2716 14.6617   1
  18  -7   9 52.9841 9.62619   4
  -7  18   7 819.475 36.4539   2
 -18   7   7 874.550 52.4962   2
  18  -7   7 927.687 43.4815   1
   7 -18   7 886.720 37.4260   1
   7  18  -7 885.119 33.9707   2
  18   7  -7 832.443 41.9908   2
  18  -7   5 304.061 22.3468   2
  -7  18   5 335.327 20.3813   2
  18   7  -5 294.645 25.7701   1
 -18   7   5 319.047 34.1746   2
  18   7  -5 312.613 26.3934   2
  -7  18   3 214.750 16.4003   2
  18  -7   3 223.424 19.3054   2
 -18   7   3 245.296 32.6330   2
   7  18  -3 214.647 22.6791   2
  18  -7   3 209.679 17.3213   1
  18   7  -3 276.108 25.4117   1
  18  -7   1 605.459 30.8257   2
 -18   7   1 575.797 45.3616   2
  18  -7   1 618.919 25.8875   1
   7  18  -1 587.772 37.9109   2
  18   7  -1 578.038 37.0978   2
   7  18  -1 566.615 32.6546   1
  -7  18   1 651.244 27.6293   2
  18   7  -1 603.014 37.2781   1
   7  18   1 576.827 42.4993   2
 -18   7  -1 594.979 47.8340   2
  18  -7  -1 583.506 30.0805   2
  18   7   1 664.097 39.7200   1
  18   7   1 580.377 38.8609   2
   7  18   1 570.550 33.8782   1
  -7  18  -1 614.267 26.0541   2
  -7  18  -3 192.521 13.3004   2
  18  -7  -3 217.583 11.3870   4
  18   7   3 221.026 27.7518   2
  18   7   3 219.422 26.9364   1
   7  18   5 280.822 27.1036   1
  18   7   5 249.774 31.0811   1
  18  -7  -5 309.970 22.1558   2
   7  18   7 826.540 44.9788   1
  -7 -18   7 837.802 52.6548   1
  18  -7  -7 847.650 27.2139   4
  18   7   7 901.089 53.1639   1
 -18  -7   9 50.1879 34.1395   2
   7  18   9 45.6187 21.4037   1
  18   7   9 30.9595 23.4112   2
  -7 -18   9 46.1422 25.7549   1
  18  -7  -9 75.2701 14.2443   3
  18   7   9 26.1409 26.0273   1
  18  -7 -11 107.719 16.2064   3
  -7 -18  11 152.127 30.1753   1
 -18  -7  11 160.415 37.4754   2
  18   7  11 129.883 30.0776   2
 -18  -7  11 102.150 30.8325   1
  18   7  11 135.456 32.0797   1
   7  18  13 359.112 38.5919   1
  -7 -18  13 359.266 38.1098   1
 -18  -7  13 323.384 44.6824   2
 -18  -7  13 391.446 41.7370   1
   7  18  15 27.1868 29.4311   1
  -8  18  14 41.2907 15.4740   2
  18   8 -14 62.4220 15.9060   2
  18  -8  12 151.408 17.6634   2
  -8  18  12 133.304 19.0132   2
  18   8 -12 121.024 19.1245   4
  18  -8  12 127.381 13.0694   4
  18   8 -10 170.257 20.0470   2
  -8  18  10 164.776 18.3479   2
   8  18 -10 156.300 19.0036   4
 -18   8  10 175.453 27.7999   2
  18  -8  10 158.101 13.1303   4
  18   8  -8 637.699 35.1780   2
  -8  18   8 613.689 31.4379   2
 -18   8   8 710.205 46.5950   2
  18  -8   8 626.513 24.9924   4
   8  18  -8 635.519 27.3201   2
  18  -8   8 650.151 32.2119   2
  18  -8   6 5.76465 14.5626   1
  18  -8   6 14.4407 11.9391   2
  -8  18   6 9.41505 10.7480   2
 -18   8   6 2.34106 20.6882   2
  18  -8   6 11.4539 7.38062   4
  -8  18   4 686.933 32.1007   2
  18   8  -4 696.339 39.4801   1
  18  -8   4 698.833 31.3123   1
 -18   8   4 771.648 48.8968   2
   8  18  -4 704.755 35.9504   2
  18   8  -4 765.083 40.0789   2
  18   8  -2 1058.18 49.6172   1
 -18   8   2 929.298 57.1969   2
   8  18  -2 1003.10 45.1912   1
   8  18  -2 948.962 47.4074   2
  18   8  -2 984.909 49.6535   2
  -8  18   2 1023.14 39.7148   2
 -18   8   0 139.160 29.1806   2
   8  18   0 145.478 25.3158   2
  18   8   0 126.840 22.8409   1
  18  -8   0 145.507 16.6933   2
  18   8   0 151.346 23.4650   2
   8  18   0 151.689 20.5913   1
  -8  18   0 116.465 13.7585   2
 -18   8  -2 1015.43 61.8185   2
  18  -8  -2 988.517 41.0697   2
  18   8   2 985.384 51.3542   1
  -8  18  -2 969.846 37.0448   2
  18   8   2 1008.51 53.5205   2
  18   8   4 754.454 46.0195   1
  -8  18  -4 655.222 27.1804   2
  18   8   4 760.697 47.3579   2
   8  18   4 741.351 40.4086   1
  18   8   6 6.90834 21.7132   1
   8  18   6 20.8685 19.2858   1
   8  18   8 563.681 39.9890   1
  -8 -18   8 656.389 47.5154   1
  18   8   8 643.565 46.8654   1
  18  -8  -8 634.320 31.6496   3
  18  -8 -10 181.887 18.8592   3
   8  18  10 176.964 29.5040   1
  18   8  10 174.225 32.0455   2
  -8 -18  10 188.193 32.7331   1
  18  -8 -12 146.243 17.9292   3
  -8 -18  12 127.750 30.2429   1
   8  18  12 153.630 31.2339   1
 -18  -8  12 191.575 39.9413   2
 -18  -8  12 221.474 36.0072   1
  18   8  12 150.807 33.3712   1
   8  18  14 55.2945 31.0397   1
 -18  -8  14 43.4991 33.2282   2
  -9  18  13 73.6868 16.5653   2
  18   9 -13 82.1308 16.5351   2
  18  -9  11 113.726 14.9298   2
  -9  18  11 71.6261 17.4078   2
  18  -9   9 228.060 19.0003   2
  18   9  -9 261.652 23.4768   2
  -9  18   9 266.551 21.9289   2
   9  18  -9 256.165 22.3811   4
 -18   9   9 231.690 31.2193   2
  -9  18   7 395.377 25.2631   2
 -18   9   7 410.148 37.0139   2
  18  -9   7 408.707 26.9864   1
   9  18  -7 407.226 23.5930   2
  18   9  -7 404.984 29.3074   2
  18  -9   5 610.603 30.0033   2
 -18   9   5 518.197 41.1989   2
  18  -9   5 607.315 22.2895   4
  18   9  -5 580.402 34.9924   2
  -9  18   5 591.317 29.8501   2
  18  -9   3 1433.42 52.5892   2
 -18   9   3 1394.52 69.1090   2
  18   9  -3 1421.90 61.5211   2
  18   9  -3 1538.74 62.3517   1
  -9  18   3 1352.39 51.8760   2
  18   9  -1 630.707 39.4505   1
 -18   9   1 623.268 46.8374   2
   9  18  -1 577.993 34.5014   1
   9  18  -1 594.694 38.7438   2
  18   9  -1 624.574 39.4109   2
  -9  18   1 581.276 28.9576   2
 -18   9  -1 638.137 48.2551   2
   9  18   1 594.894 42.3340   2
  18  -9  -1 546.838 29.1739   2
   9  18   1 546.598 35.4071   1
  -9  18  -1 570.084 27.8408   2
  18   9   1 641.855 40.3905   1
 -18   9  -3 1419.10 74.5140   2
   9  18   3 1368.35 69.9832   2
  -9  18  -3 1302.45 47.9354   2
  18   9   3 1371.91 65.9653   2
   9  18   3 1378.87 59.2284   1
  18   9   5 626.339 43.3070   1
   9  18   5 576.524 50.9381   2
  18   9   5 646.291 45.5245   2
   9  18   5 632.779 39.0980   1
  18  -9  -5 571.009 29.7886   3
  18   9   7 495.956 41.3661   1
  18   9   7 438.347 40.3448   2
  18  -9  -7 381.534 24.8206   3
  18  -9  -9 235.338 19.5414   3
  18   9   9 196.043 33.1751   1
   9  18   9 217.885 31.3553   1
  -9 -18   9 236.384 35.8035   1
  18  -9 -11 96.8911 15.8080   3
   9  18  11 55.1784 26.2705   1
  -9 -18  11 90.3184 30.1232   1
   9  18  13 64.3693 28.2137   1
 -18  -9  13 70.0290 39.2035   2
 -10  18  12 54.1485 16.8632   2
  18  10 -12 40.0319 15.7060   2
 -10  18  10 152.967 19.4414   2
  18  10 -10 206.503 20.5146   2
  10  18 -10 174.800 20.0813   4
 -18  10  10 174.924 28.4476   2
  18 -10   8 533.769 28.7023   2
 -18  10   8 605.005 43.4803   2
 -10  18   8 617.776 32.6247   2
 -10  18   6 92.8552 16.3151   2
  18 -10   6 109.547 14.1496   2
 -18  10   6 78.1744 23.8301   2
  10  18  -6 74.9773 15.1816   2
  18  10  -4 101.038 20.7623   1
 -18  10   4 98.4538 25.4207   2
  18 -10   4 98.2300 13.8863   2
  10  18  -4 94.5830 17.6507   2
 -10  18   4 114.265 15.4687   2
 -18  10   2 610.151 46.2247   2
  18 -10   2 584.722 29.6983   2
  18  10  -2 634.940 39.6690   1
 -10  18   2 618.704 31.4897   2
  10  18  -2 614.432 35.7856   1
 -18  10   0 852.841 53.9464   2
  10  18   0 742.946 45.9302   2
 -10  18   0 786.152 35.6270   2
  18  10   0 850.504 47.5176   2
  10  18   0 751.849 41.8149   1
  18  10   0 786.190 45.2322   1
 -18  10  -2 650.147 49.2407   2
  10  18   2 519.109 41.8321   2
 -10  18  -2 538.639 28.8368   2
  18  10   2 601.083 43.0140   2
  18  10   2 538.087 39.2488   1
  10  18   4 146.629 31.1002   2
  10  18   4 103.570 21.5051   1
  18  10   4 135.608 26.9670   2
  18  10   4 145.232 26.0183   1
  18 -10  -4 102.181 15.5366   3
  10  18   6 77.7493 32.9825   2
  18  10   6 122.456 27.7186   1
  18  10   6 95.7952 27.3380   2
  10  18   6 97.6491 23.1019   1
  10  18   8 561.859 40.7282   1
  18  10   8 536.291 45.0135   1
  18  10   8 513.754 45.8565   2
  18 -10  -8 573.655 30.0070   3
  18 -10 -10 159.192 17.1138   3
 -10 -18  10 162.291 33.3954   1
  10  18  12 12.4899 26.5522   1
  18  11 -13 256.820 23.5468   2
 -11  18  11 111.790 20.5541   2
  18  11 -11 118.136 17.6098   2
 -11  18   9 150.428 20.4745   2
 -18  11   9 80.5459 23.5696   2
  18 -11   7 681.856 30.7746   2
 -18  11   7 631.952 45.2636   2
 -11  18   7 651.724 35.2308   2
  18  11  -7 561.919 35.2522   2
  18 -11   5 168.456 16.2284   2
 -18  11   5 225.991 30.6794   2
  18  11  -5 183.503 23.5399   1
  11  18  -5 170.693 20.4287   2
 -11  18   5 179.930 19.6479   2
  18  11  -5 189.607 23.2765   2
 -18  11   3 73.6135 24.8113   2
  18 -11   3 61.5532 12.5468   2
  11  18  -3 52.0487 18.0673   2
  18  11  -3 45.9371 18.7632   1
 -11  18   3 46.9405 14.9605   2
  18  11  -3 45.5310 19.4799   2
  18  11  -1 55.9311 21.1069   1
 -18  11   1 65.4056 27.0029   2
  11  18  -1 76.2477 22.9478   2
 -11  18   1 77.4569 16.3016   2
  18  11  -1 89.4374 22.1957   2
 -18  11  -1 83.2747 27.8044   2
  11  18   1 114.767 25.7948   2
  18  11   1 89.3395 22.8005   1
  11  18   1 84.6426 21.6801   1
  18 -11  -1 91.4685 14.0385   3
  18  11   3 23.3900 19.3147   1
 -18  11  -3 52.4593 29.5991   2
  11  18   3 56.9102 27.0073   2
  18  11   3 61.2634 24.1838   2
  11  18   3 27.0903 19.0153   1
  18 -11  -3 46.6411 12.1705   3
  18 -11  -5 184.007 17.1188   3
  11  18   5 173.703 25.4329   1
  11  18   5 138.311 33.1009   2
  18  11   5 163.671 32.0383   2
  18  11   5 205.553 29.3126   1
  18  11   7 640.866 46.6836   1
  11  18   7 632.726 54.7169   2
  11  18   7 574.602 41.5096   1
  18  11   7 611.744 49.5628   2
  18 -11  -7 549.506 30.1843   3
  18 -11  -9 123.817 15.8405   3
  11  18   9 107.114 27.6572   1
  18  12 -12 793.700 39.5008   2
  18  12 -10 501.992 32.0336   2
 -12  18  10 494.423 33.6316   2
  18  12  -8 59.2757 17.3210   2
 -18  12   8 71.4541 23.9162   2
 -12  18   8 60.5246 18.0552   2
 -18  12   6 562.747 42.8038   2
  12  18  -6 594.107 32.9088   2
 -12  18   6 575.704 34.5109   2
  18  12  -6 579.338 35.5188   2
 -18  12   4 309.836 33.4521   2
  12  18  -4 339.819 26.7124   2
 -12  18   4 314.845 24.7649   2
  18  12  -4 335.426 29.7968   1
  18  12  -2 14.9280 18.0933   1
  12  18  -2 37.4894 17.6553   1
 -18  12   2 29.1188 22.9951   2
 -12  18   2 29.3280 14.7491   2
 -18  12   0 145.864 29.2225   2
  12  18   0 172.157 25.8595   2
  12  18   0 181.973 25.0998   1
  18  12   0 149.031 26.3434   2
  18 -12   0 143.765 15.0531   3
  18  12   0 145.059 24.5024   1
  12  18   2 7.29405 18.2914   1
 -18  12  -2 41.4359 29.2587   2
  18  12   2 29.3576 20.9447   1
  18 -12  -2 24.3403 11.2611   3
  12  18   4 269.346 35.7723   2
  12  18   4 303.797 30.7381   1
  18  12   4 325.559 32.9316   1
  18 -12  -6 624.956 31.3577   3
  18 -12  -8 62.8859 13.9220   3
 -13  18   9 649.684 39.9191   2
 -18  13   7 606.015 44.0111   2
 -13  18   7 733.259 41.0139   2
 -18  13   5 71.8026 24.4844   2
 -13  18   5 63.3706 18.2683   2
  18  13  -5 45.6724 18.1099   2
 -18  13   3 267.177 32.2056   2
 -13  18   3 191.799 22.9871   2
  18  13  -3 208.595 26.1241   2
  18 -13   3 232.318 17.1076   3
  13  18  -1 112.663 22.8533   1
 -18  13   1 134.684 29.8156   2
  13  18  -1 143.878 25.2473   2
  18  13  -1 160.129 25.9586   2
  18 -13   1 174.620 16.7823   3
  18 -13  -1 148.791 15.5416   3
 -18  13  -1 192.599 33.6247   2
  13  18   1 87.1665 25.0761   2
  18  13   1 164.640 27.8348   2
  13  18   1 155.091 24.5697   1
 -18  13  -3 226.935 35.2907   2
  18  13   3 265.796 33.5085   2
  18 -13  -5 59.6198 13.5388   3
  18 -13  -7 560.415 29.6188   3
  13  18   7 553.802 51.0673   2
 -14  18   8 45.1239 20.6464   2
 -18  14   6 267.892 32.8024   2
 -14  18   6 268.851 27.5542   2
  18  14  -6 229.175 24.6805   2
 -18  14   4 166.725 29.4894   2
  18  14  -4 188.360 24.8129   2
 -18  14   2 106.639 28.5930   2
  14  18  -2 101.359 22.2004   2
  18  14  -2 108.204 23.9471   2
  18 -14   0 47.1097 12.0152   3
 -18  14   0 35.4266 23.9999   2
  14  18   0 46.6208 21.5430   2
  18  14   0 61.2371 23.6176   2
  18 -14  -2 128.811 15.3987   3
  14  18   2 101.541 28.2302   2
  18 -14  -6 218.939 18.9658   3
 -18  15   5 84.9139 26.6843   2
 -18  15   3 257.860 33.3372   2
  15  18   1 29.8148 23.1953   2
  18 -15  -3 223.835 18.1062   3
  18 -15  -5 87.8971 14.4110   3
  19   0  -1 195.953 21.7562   2
  19   0   1 196.470 22.6447   1
   0  19  -1 208.157 12.7457   3
  19   0   1 244.924 23.9150   2
  19   0  -1 238.309 21.8518   1
   0  19   1 222.127 13.9162   3
  19   0  -3 636.490 32.5336   1
  19   0   3 658.874 38.7288   1
 -19   0   3 663.328 53.5308   2
   0  19  -3 649.689 28.0461   4
  19   0   3 706.051 39.4018   2
   0  19   3 678.363 27.0611   3
  19   0  -3 641.315 35.2711   2
   0  19   5 285.538 17.1041   3
  19   0   5 268.285 28.2803   1
  19   0  -5 252.303 23.1774   2
  19   0   5 258.765 26.4677   2
   0  19   5 283.449 19.4270   1
   0  19   7 206.229 15.8576   3
   0  19  -7 230.173 16.2421   4
  19   0   7 262.808 27.3654   2
   0 -19   7 243.165 27.8561   1
  19   0   7 255.818 29.0919   1
   0  19   9 27.1253 9.58989   3
   0  19   9 18.6947 12.7286   1
   0 -19   9 3.50314 18.8963   1
 -19   0   9 12.1657 25.2594   2
  19   0  -9 22.0782 10.8805   4
  19   0   9 4.04188 18.9710   2
   0  19  -9 28.5580 9.96288   4
  19   0   9-2.16441 23.0111   1
   0  19  11 34.8632 12.1235   3
   0 -19  11 39.3530 22.9062   1
 -19   0  11 2.99337 23.6499   2
  19   0 -11 30.3059 13.3058   2
  19   0 -11 62.7402 12.5131   4
  19   0  11 41.1690 22.7988   2
   0  19  11 17.1527 14.8090   1
   0  19 -11 58.2175 12.5711   4
   0  19  13 1.09993 11.3005   3
  19   0  13-13.8785 22.2123   2
  19   0 -13 23.8793 10.9075   4
   0 -19  13 31.0106 20.4989   1
   0  19 -13 7.81345 9.94939   4
  19   0  15 126.532 28.6277   2
  19   0 -15 102.540 13.8169   4
 -19   0  15 106.090 28.3172   1
   0  19 -15 78.0331 14.6432   4
   0 -19  15 109.251 24.2151   1
   0 -19  17 140.877 30.0436   1
   0  19 -17 157.374 18.1354   4
   1 -19  16 57.1564 23.9726   1
  19   1 -16 49.3904 13.0831   4
  -1  19  14 73.1945 14.8247   3
 -19   1  14 39.6001 25.4114   1
   1  19 -14 59.6119 13.2723   4
   1 -19  14 48.1797 20.4386   1
  -1  19  12 63.8237 13.4239   3
 -19   1  12 52.4183 25.9072   2
  19   1 -12 48.8707 14.1087   2
  19   1 -12 65.8321 13.2049   4
   1 -19  12 30.7625 20.1776   1
  19  -1  12 65.4875 22.8241   2
   1  19 -12 43.3886 11.7512   4
  -1  19  10 136.139 14.5635   3
   1 -19  10 157.370 24.8273   1
  19   1 -10 119.253 17.4418   2
  19   1 -10 140.046 15.9980   4
  19  -1  10 131.961 23.4351   2
   1  19 -10 101.172 14.0119   4
  -1  19   8 781.879 32.7130   1
  19   1  -8 586.316 34.4989   2
   1  19  -8 702.919 30.3435   4
  19  -1   8 637.114 40.9649   2
  19  -1   8 691.559 44.3692   1
   1 -19   8 722.567 41.4689   1
  -1  19   8 676.991 30.1686   3
  19  -1   6 203.881 26.3741   1
 -19   1   6 179.233 33.6972   2
   1  19  -6 174.372 15.4612   4
   1 -19   6 164.020 25.0278   1
  19  -1   6 211.671 24.8311   2
  -1  19   6 191.798 14.5874   3
  -1  19   4 45.6637 9.51011   3
  19   1  -4 47.6825 15.3701   1
  19  -1   4 38.7458 19.1741   1
   1  19  -4 64.9817 12.8064   4
   1  19  -4 48.8919 5.87831   3
   1  19  -2 691.813 36.6425   2
 -19   1   2 735.212 56.3626   2
  19  -1   2 734.764 38.9782   1
  19   1  -2 774.532 37.5516   1
   1  19  -2 772.711 31.7103   4
  19  -1   2 751.174 39.6170   2
  19   1  -2 695.265 37.3982   2
  -1  19   2 739.970 28.6541   3
   1  19  -2 721.706 25.9882   3
   1  19   0 1526.17 48.6395   3
  19   1   0 1477.27 60.2830   1
  19   1   0 1479.81 61.7460   2
  19  -1   0 1554.80 59.1484   1
  -1  19   0 1580.36 48.5711   3
  19  -1   0 1492.31 60.8477   2
   1  19   2 695.640 27.6570   3
 -19  -1   2 768.040 59.9978   2
  19   1   2 644.328 38.1586   1
  -1  19  -2 725.368 25.0285   2
  -1  19  -2 711.516 28.7171   4
  19  -1  -2 710.514 34.1738   1
  19   1   2 680.580 39.7287   2
  19  -1  -2 715.878 37.1245   2
   1  19   4 81.7917 14.4273   1
   1  19   4 72.7245 10.6937   3
  -1  19  -4 45.5798 4.31490   2
  19  -1  -4 41.0967 14.8350   2
  19   1   4 47.3634 21.0725   1
  19   1   4 89.2245 20.6812   2
   1  19   6 224.312 15.8760   3
  19   1   6 155.712 25.9574   1
   1  19   6 205.750 18.9450   1
  19  -1  -6 218.058 20.5619   2
  19   1   6 234.453 26.8138   2
  -1 -19   6 244.401 29.0248   1
   1  19   8 643.818 29.6664   3
 -19  -1   8 683.618 53.1483   2
  19  -1  -8 699.737 30.5822   4
  19   1   8 681.469 43.3630   2
   1  19   8 628.834 33.1626   1
  19   1   8 694.834 45.0911   1
  -1  19  -8 712.761 28.6041   4
  -1 -19   8 677.003 42.9927   1
   1  19  10 99.4935 14.4059   3
  -1 -19  10 133.639 24.6306   1
 -19  -1  10 83.7359 30.3683   2
  19  -1 -10 151.420 14.7388   4
  19   1  10 136.454 28.8689   1
  -1  19 -10 142.088 14.2745   4
   1  19  12 47.4970 12.6260   3
 -19  -1  12 36.7571 27.6745   2
  -1 -19  12 47.6528 22.6305   1
  19   1  12 47.5021 24.8182   2
  19  -1 -12 55.4944 11.6847   4
  -1  19 -12 70.1715 12.5590   4
   1  19  14 44.8991 13.8342   3
  19   1  14 30.6870 25.3576   2
  -1 -19  14 50.7776 23.3871   1
  19  -1 -14 58.8477 11.1897   4
 -19  -1  14 63.2957 27.6474   1
  -1  19 -14 60.3457 12.5318   4
 -19  -1  16 45.9015 28.4601   1
  -1 -19  16 8.20676 22.6022   1
   2 -19  17 93.5731 25.7854   1
  19   2 -17 33.4400 13.5969   4
   2 -19  15 143.473 24.7302   1
  19   2 -15 128.976 16.0763   4
   2  19 -15 132.189 16.0477   4
  19   2 -13 54.6142 13.3816   4
   2  19 -13 36.1167 12.3110   4
   2 -19  13 36.5406 19.5418   1
  -2  19  13 54.7950 13.1879   3
  19   2 -11 128.162 18.2172   2
   2 -19  11 185.456 25.8652   1
  19   2 -11 161.387 16.8582   4
  19  -2  11 150.848 24.7145   2
   2  19 -11 172.888 16.6688   4
  -2  19  11 155.548 16.7303   3
  19  -2   9 599.939 41.5319   1
   2  19  -9 649.248 29.4319   4
  19  -2   9 578.501 38.3739   2
   2 -19   9 692.067 38.7443   1
  -2  19   9 633.279 29.4024   3
  19   2  -7 20.9005 13.5175   2
 -19   2   7 11.7391 25.2432   2
   2  19  -7 28.8295 11.4769   4
  19  -2   7 13.6562 17.0571   2
  19  -2   7 18.5317 20.3501   1
  -2  19   7 35.4197 10.9220   1
   2 -19   7 23.0979 18.6845   1
  -2  19   7 30.2759 9.81084   3
 -19   2   5 1059.12 63.0135   2
   2  19  -5 1017.33 39.3612   4
  19  -2   5 958.326 47.4062   2
  19  -2   5 1025.43 49.5087   1
  -2  19   5 1019.45 37.6505   3
   2  19  -5 974.294 30.0115   3
   2  19  -3 2970.11 83.4250   3
  19  -2   3 2878.55 98.9766   1
 -19   2   3 2901.21 120.022   2
   2  19  -3 2866.42 90.4523   4
  19   2  -3 3019.16 97.1768   1
  19  -2   3 2825.56 99.1525   2
  -2  19   3 2949.84 87.6218   3
   2  19  -1 529.021 22.0570   3
  -2  19   1 540.654 22.6997   4
  19  -2   1 593.010 32.0980   1
  19   2  -1 564.199 34.0531   2
  19  -2   1 499.124 31.7492   2
  19   2  -1 504.135 32.2629   1
   2  19   1 511.763 22.6648   3
  19  -2  -1 519.574 28.9108   1
  -2  19  -1 553.557 21.3305   2
  19   2   1 537.497 34.1359   1
  -2  19  -1 527.485 22.4241   4
  19   2   1 436.933 32.6541   2
  19  -2  -1 569.748 32.4335   2
  -2  19  -3 2676.65 77.6578   2
  19  -2  -3 2851.21 93.9104   2
   2  19   3 2631.79 83.3205   3
  19   2   3 2727.61 98.7445   1
   2  19   3 2958.47 89.4693   1
  -2  19  -3 2978.06 82.7203   4
  19  -2  -3 2829.76 88.0831   1
   2  19   5 963.875 36.9794   3
  19  -2  -5 936.595 43.3821   2
 -19  -2   5 856.524 62.6193   2
   2  19   5 1041.91 42.6808   1
  19   2   5 1013.55 51.8834   2
  19   2   5 975.515 51.1136   1
  19   2   7 12.6722 22.1210   1
   2  19   7 7.76711 8.84260   3
 -19  -2   7 29.6386 28.1600   2
   2  19   7 27.8792 14.5809   1
  19   2   7 33.5218 20.0329   2
  -2  19  -7 21.3143 9.01098   4
  -2 -19   7 31.3428 22.7993   1
   2  19   9 579.937 29.2856   3
   2  19   9 664.349 35.3269   1
 -19  -2   9 577.690 49.9592   2
  19   2   9 602.119 42.7708   2
  19  -2  -9 698.363 28.8757   4
  -2  19  -9 676.843 27.4637   4
  -2 -19   9 624.609 42.1168   1
   2  19  11 233.203 18.7857   3
  -2 -19  11 190.521 28.9508   1
 -19  -2  11 155.709 33.4248   2
   2  19  11 160.166 21.7801   1
  19   2  11 181.619 30.7007   2
  19  -2 -11 212.092 15.5819   4
  -2  19 -11 188.173 16.1008   4
   2  19  13 57.6257 13.7307   3
 -19  -2  13 62.7851 31.5022   2
  -2 -19  13 30.5119 23.1959   1
  19   2  13 65.2672 27.0594   2
  19  -2 -13 50.7201 10.9208   4
 -19  -2  13 38.0777 26.2441   1
  -2  19 -13 54.2418 11.3660   4
  19   2  15 119.260 31.3202   2
  -2 -19  15 137.867 29.4761   1
 -19  -2  15 97.9794 31.5697   1
  -2  19 -17 32.4222 14.5713   4
 -19  -2  17 20.2915 28.9764   1
   3 -19  16 246.716 28.6099   1
  19  -3  16 242.517 27.3916   2
   3 -19  14 124.531 24.1514   1
  19   3 -14 84.5370 14.5774   4
  19  -3  14 103.182 22.8305   2
   3  19 -14 69.7821 13.8770   4
  -3  19  14 103.533 15.4019   3
  19   3 -12 197.894 20.2228   2
  19   3 -12 122.621 16.0791   4
   3  19 -12 196.550 17.2047   4
  19  -3  12 211.484 26.1084   2
   3 -19  12 186.393 23.2621   1
  -3  19  12 183.594 17.5573   3
   3 -19  10 145.105 21.7430   1
  19   3 -10 180.681 19.0745   2
 -19   3  10 111.529 28.0022   2
  19   3 -10 152.210 17.6851   4
   3  19 -10 143.935 15.9379   4
  -3  19  10 150.286 14.6093   3
  19   3  -8 641.831 35.4721   2
  -3  19   8 733.325 27.6268   1
 -19   3   8 616.498 48.1322   2
   3  19  -8 659.224 30.8457   4
  19  -3   8 655.361 42.7074   1
  19  -3   8 684.506 39.3951   2
   3 -19   8 642.008 37.8206   1
  -3  19   8 676.041 30.0751   3
   3  19  -6 1218.56 36.6324   3
 -19   3   6 1206.79 68.1671   2
   3  19  -6 1345.38 47.6553   4
   3 -19   6 1439.26 55.6849   1
  19  -3   6 1291.89 57.1393   1
  19  -3   6 1289.65 55.3188   2
  19  -3   4 555.722 34.4840   1
   3  19  -4 613.667 21.5082   3
  19   3  -4 560.514 32.1522   1
 -19   3   4 567.492 47.7787   2
   3  19  -4 531.824 26.5905   2
   3  19  -4 559.982 28.4858   4
  19  -3   4 495.302 32.1549   2
   3  19  -2 1407.21 43.4617   3
 -19   3   2 1267.25 73.2835   2
   3  19  -2 1285.85 53.9271   2
  19   3  -2 1257.85 54.9106   1
  19  -3   2 1294.12 52.8607   1
  -3  19   2 1384.69 45.7516   2
  -3  19   2 1365.47 42.5012   4
  19  -3   2 1300.78 55.2103   2
   3  19   0 2433.26 72.4660   3
 -19   3   0 2329.85 107.541   2
  -3  19   0 2419.24 71.7364   2
  -3  19   0 2436.93 70.1508   4
  19   3   0 2281.47 85.2608   1
  19  -3   0 2346.40 79.1045   1
  19  -3   0 2380.76 83.2990   2
  -3  19  -2 1278.31 41.4687   2
  19  -3  -2 1320.39 54.1221   2
  19  -3  -2 1413.39 49.4335   1
   3  19   2 1357.98 45.8385   3
  19   3   2 1348.91 59.2744   1
   3  19   2 1363.13 51.6362   1
  -3  19  -2 1382.09 42.7504   4
  19   3   2 1320.70 59.7276   2
  19   3   4 513.909 38.2131   1
   3  19   4 577.210 26.1142   3
  19  -3  -4 599.158 32.7803   2
 -19  -3   4 489.387 52.2094   2
   3  19   4 573.206 31.4968   1
  19   3   4 597.549 39.2453   2
  -3  19  -4 603.753 23.3839   4
   3  19   6 1377.57 48.3730   3
 -19  -3   6 1495.39 80.8680   2
  19  -3  -6 1350.31 53.6840   2
  19   3   6 1418.12 64.4077   2
  -3 -19   6 1417.50 65.2377   1
  -3  19  -6 1277.74 43.9182   4
   3  19   6 1354.27 54.1584   1
  19   3   6 1417.22 64.7920   1
   3  19   8 766.868 32.7044   3
 -19  -3   8 791.344 58.3207   2
  19  -3  -8 697.070 35.8484   2
   3  19   8 776.286 38.8888   1
  19   3   8 717.181 46.9779   2
  19  -3  -8 737.672 29.9241   4
  -3 -19   8 714.707 46.0526   1
  19   3   8 618.452 45.8409   1
  -3  19  -8 754.779 28.8181   4
  -3 -19  10 179.749 28.7496   1
   3  19  10 171.232 16.3164   3
 -19  -3  10 140.171 33.9998   2
  19   3  10 157.355 29.2559   2
   3  19  10 136.115 21.1358   1
  19  -3 -10 165.439 13.6756   4
  19   3  10 116.406 29.2057   1
   3  19  12 216.085 19.1775   3
  -3 -19  12 211.727 28.9200   1
 -19  -3  12 171.591 35.0693   2
  19   3  12 211.773 32.4466   2
  -3  19 -12 195.776 14.8597   4
   3  19  14 56.0633 20.5529   1
   3  19  14 105.430 16.7599   3
  19   3  14 74.5163 28.3676   2
  -3 -19  14 121.523 27.2365   1
 -19  -3  14 85.0255 28.4887   1
  -3  19 -14 108.747 13.3103   4
 -19  -3  16 260.387 38.1405   1
   4 -19  15 282.293 27.2008   1
  19   4 -15 281.516 21.7708   4
  19  -4  15 302.760 27.5268   2
  19  -4  15 321.988 20.4317   4
  19   4 -13-13.1737 14.3074   2
   4  19 -13-2.04746 12.4482   4
   4 -19  13 27.0880 17.5645   1
  19   4 -11 83.9307 16.0799   2
  19   4 -11 67.0692 14.7121   4
 -19   4  11 92.9223 27.0353   2
   4 -19  11 90.3352 20.0127   1
   4  19 -11 90.6889 14.6340   4
  19  -4  11 98.7883 19.5512   2
  19   4  -9 604.648 33.4141   2
 -19   4   9 652.951 47.7532   2
   4  19  -9 621.999 30.2007   4
   4 -19   9 558.884 34.6732   1
  19   4  -7 34.4952 15.1625   2
 -19   4   7 55.4046 25.1547   2
   4  19  -7 52.0268 12.3676   4
  19  -4   7 51.5627 16.2298   2
  19  -4   7 63.2744 20.6001   1
   4 -19   7 47.6055 17.4716   1
  19   4  -5 681.535 35.9553   1
 -19   4   5 646.994 49.5577   2
  -4  19   5 718.146 29.6513   2
   4  19  -5 595.724 27.0656   2
  19  -4   5 649.767 36.6438   2
  19  -4   5 663.875 37.4113   1
  19   4  -5 670.999 36.7271   2
  19  -4   3 2321.53 79.9133   1
 -19   4   3 2331.47 101.852   2
   4  19  -3 2331.69 78.7602   2
  -4  19   3 2371.26 72.6700   2
  19   4  -3 2259.33 82.1941   1
  19   4  -3 2257.70 84.0531   2
  19  -4   3 2358.47 81.8340   2
  19  -4   1 205.541 20.9246   2
  -4  19   1 221.788 14.5478   2
 -19   4   1 256.060 38.0613   2
   4  19  -1 225.509 25.8768   2
  19  -4   1 225.081 19.7055   1
  -4  19   1 200.066 10.3250   4
  19   4  -1 238.808 25.2684   1
  -4  19  -1 240.635 13.8832   2
  19   4   1 212.108 25.4501   1
  19  -4  -1 285.165 22.6126   2
 -19   4  -1 216.251 37.8925   2
   4  19   1 217.792 20.5158   1
  19  -4  -1 223.897 18.3334   1
  19  -4  -3 2272.67 79.2035   2
  19   4   3 2455.84 88.7326   1
  19   4   3 2243.13 88.3599   2
   4  19   3 2303.95 79.1378   1
  -4  19  -3 2158.84 65.3835   2
  -4  19  -3 2456.78 67.0948   4
 -19  -4   5 665.580 56.7209   2
  19  -4  -5 622.571 32.5885   2
  19   4   5 665.992 42.3236   2
  -4  19  -5 638.122 24.2484   4
   4  19   5 599.239 34.3110   1
  19   4   5 621.137 41.8572   1
  19   4   7 53.6485 23.9664   1
   4  19   7 37.0116 17.0130   1
 -19  -4   7 49.5203 33.2150   2
  19  -4  -7 48.8993 13.8658   2
  19  -4  -7 62.5284 10.2729   4
  19   4   7 69.3871 23.0303   2
  -4 -19   7 34.8516 23.8565   1
  -4  19  -7 38.6652 8.68004   4
   4  19   9 571.814 36.3743   1
 -19  -4   9 606.144 52.4570   2
  19   4   9 549.888 43.3934   2
  19  -4  -9 637.103 25.4987   4
  -4 -19   9 594.057 43.0617   1
  -4  19  -9 623.066 25.0641   4
  19   4   9 587.790 45.9498   1
   4  19  11 83.1956 14.4264   3
  -4 -19  11 90.2363 25.7081   1
 -19  -4  11 123.242 32.4910   2
   4  19  11 83.3831 21.5355   1
  19   4  11 40.1252 24.2397   2
  19   4  11 140.037 32.5649   1
   4  19  13 17.7992 13.5124   3
  -4 -19  13 18.0550 23.4552   1
 -19  -4  13 19.8286 29.9708   2
 -19  -4  13-10.1586 25.0392   1
   4  19  15 252.101 33.0748   1
 -19  -4  15 293.285 38.2466   1
  19  -5  16 177.570 16.9813   4
  -5  19  14 91.6521 16.3397   2
  19   5 -14 81.6927 16.1141   4
   5  19 -14 88.7398 15.2880   4
  19  -5  14 82.6184 18.9851   2
  19  -5  14 84.8019 13.6680   4
  19   5 -12 96.3830 16.3927   4
  -5  19  12 97.2741 15.1598   2
   5  19 -12 89.7016 15.2106   4
  19  -5  12 88.1795 18.9267   2
   5 -19  12 89.0405 18.4674   1
  19   5 -10 76.7845 16.4957   2
   5 -19  10 101.373 19.1992   1
  -5  19  10 85.3389 14.1560   2
   5  19 -10 115.016 15.6306   4
   5 -19   8 177.288 22.3390   1
  19   5  -8 227.388 21.9502   2
  -5  19   8 218.695 17.6867   2
 -19   5   8 222.793 32.4815   2
   5  19  -8 227.360 19.2934   4
  19  -5   8 203.562 25.2007   1
  19  -5   6 16.7468 14.5063   2
  19  -5   6-6.02349 16.9243   1
  19   5  -6 14.8820 14.4860   2
 -19   5   6 19.1606 24.3180   2
  -5  19   6 17.9101 10.0684   2
   5  19  -6 13.7714 12.4816   4
   5 -19   6 11.5044 16.2472   1
  19   5  -4 167.254 20.9634   2
  19  -5   4 127.489 17.9765   2
  19   5  -4 168.052 21.2803   1
 -19   5   4 201.870 33.6185   2
  -5  19   4 147.825 13.8248   2
  19  -5   4 133.026 19.6610   1
  19  -5   2 758.180 37.3090   2
  -5  19   2 759.572 30.7969   2
 -19   5   2 774.982 55.5905   2
   5  19  -2 779.753 40.5320   2
  19   5  -2 725.144 40.7202   1
  19  -5   2 772.893 35.1259   1
  19   5  -2 758.914 40.9416   2
   5  19   0 55.5959 15.0111   1
  -5  19   0 42.0679 8.97497   2
  19  -5   0 40.0097 13.4367   2
 -19   5   0 3.14068 26.4158   2
   5  19   0 64.5253 22.5156   2
  19   5   0 34.9621 18.4960   1
  19  -5   0 52.5781 12.8484   1
  19  -5  -2 785.287 36.7395   2
  19   5   2 731.001 43.3181   1
  -5  19  -2 722.896 26.3412   2
  -5  19  -2 704.105 23.6066   4
   5  19   2 767.206 37.2952   1
   5  19   4 146.862 19.8343   1
  19  -5  -4 168.627 18.7374   2
  19   5   4 124.881 24.4105   1
  19   5   4 132.117 23.7822   2
  19   5   6 30.2821 22.6520   1
   5  19   6-7.33205 17.1189   1
  19  -5  -6 22.0545 12.8345   2
  19  -5  -6 10.3206 8.30608   4
  19   5   6 6.98377 18.8610   2
  -5  19  -6 16.6506 7.30868   4
  19   5   8 209.997 30.9880   1
 -19  -5   8 173.917 37.3386   2
  19   5   8 195.946 30.9663   2
   5  19   8 212.453 25.0230   1
  -5 -19   8 267.231 34.8210   1
  -5 -19  10 107.033 28.9845   1
 -19  -5  10 94.6978 34.5460   2
   5  19  10 101.822 22.2381   1
  19   5  10 133.960 30.9753   1
  -5 -19  12 109.644 28.3800   1
 -19  -5  12 75.6999 32.3693   2
  19   5  12 86.8058 28.6178   2
  19   5  12 72.9236 30.5479   1
   5  19  14 145.466 30.3260   1
  -5 -19  14 115.303 29.4374   1
 -19  -5  14 72.2289 30.7866   1
   5  19  16 149.986 35.3036   1
  -6  19  13 277.828 22.3475   2
  19   6 -13 256.846 22.6994   4
   6  19 -13 275.067 22.3617   4
  19  -6  13 236.498 16.8413   4
  19  -6  13 256.125 23.5749   2
  19   6 -11 137.762 18.6085   2
  -6  19  11 141.826 17.5990   2
  19   6 -11 152.050 20.2659   4
   6  19 -11 185.661 18.8894   4
  19  -6  11 144.373 19.2135   2
  -6  19   9 36.2609 11.4881   2
 -19   6   9 52.5226 23.9679   2
   6  19  -9 51.9297 13.2669   4
  19  -6   9 61.5290 15.0250   2
  19   6  -7 225.406 23.1382   2
  -6  19   7 232.546 18.0356   2
   6  19  -7 244.703 20.3828   4
  19  -6   7 245.549 25.6828   1
  19   6  -5 37.5902 15.6604   2
  19  -6   5 50.0845 14.5496   2
  19  -6   5 28.9220 15.6953   1
  -6  19   5 16.2826 9.96393   2
 -19   6   5 40.7281 25.1293   2
   6  19  -5 32.6147 12.6036   2
  19   6  -5 48.7763 17.1687   1
  19  -6   3 55.8642 14.4642   2
  -6  19   3 94.8158 12.1250   2
  19   6  -3 74.7178 19.1489   1
 -19   6   3 98.6316 28.5616   2
  19  -6   3 84.2706 14.7474   1
  19   6  -3 73.4347 17.5354   2
  19  -6   1 221.214 16.7222   1
  19  -6   1 227.994 19.8863   2
 -19   6   1 244.110 36.6465   2
   6  19  -1 212.474 25.5163   2
  19   6  -1 223.008 24.7000   1
  19   6  -1 257.235 25.3080   2
  -6  19   1 193.656 14.4878   2
  19   6   1 219.588 25.9470   1
   6  19   1 221.439 21.3179   1
 -19   6  -1 188.592 36.4843   2
  19   6   1 218.419 26.3214   2
  -6  19  -1 218.017 13.8979   2
   6  19   3 59.7026 16.5135   1
  19  -6  -3 75.7522 14.3586   2
  -6  19  -3 71.5814 8.13952   2
  19   6   3 106.080 23.9217   1
  19   6   5-4.29090 20.8868   1
   6  19   5 28.4704 16.7932   1
  19  -6  -5 32.2695 13.0406   2
   6  19   7 269.285 26.6577   1
  19   6   7 234.733 31.2499   2
  -6 -19   7 318.021 35.2500   1
  19   6   9 18.1718 25.5000   1
 -19  -6   9 96.8824 35.6314   2
  -6 -19   9 46.1238 26.0083   1
  19  -6  -9 31.4347 12.1584   3
  -6 -19  11 196.968 33.3829   1
 -19  -6  11 151.720 38.1225   2
   6  19  11 120.534 26.2584   1
  19   6  11 86.8675 29.8194   2
  19   6  11 117.773 30.9634   1
  -6 -19  13 247.221 33.3029   1
   6  19  13 257.169 33.5793   1
 -19  -6  13 296.828 39.9271   1
   6  19  15 15.3820 29.2794   1
  -7  19  12 413.558 27.2988   2
   7  19 -12 406.766 26.5503   4
  19  -7  12 389.912 27.3945   2
  19  -7  10 71.5019 16.0390   2
  19   7 -10 61.4621 16.4754   2
  -7  19  10 52.4598 13.0610   2
 -19   7  10 85.6412 25.9561   2
   7  19 -10 39.5428 14.3832   4
  19  -7  10 62.1063 10.3439   4
  19  -7   8 91.0393 15.4313   2
  19   7  -8 87.4866 16.7120   2
  -7  19   8 124.211 14.9756   2
 -19   7   8 64.6823 24.9906   2
   7  19  -8 119.757 17.3644   4
  19  -7   8 109.037 20.4072   1
  19   7  -6 179.621 22.1253   2
  19  -7   6 198.540 18.9319   2
  19  -7   6 214.349 21.7969   1
  -7  19   6 200.908 17.7673   2
 -19   7   6 164.696 29.6477   2
   7  19  -6 212.349 17.4284   2
  -7  19   4 38.1475 10.8361   2
  19  -7   4 50.6967 13.3276   2
  19   7  -4 33.8744 17.4414   1
 -19   7   4 37.9816 25.9508   2
  19  -7   4 21.5443 12.9390   1
  19   7  -4 38.0176 16.1137   2
  19  -7   2 250.255 20.7482   2
 -19   7   2 279.598 36.8849   2
  19   7  -2 255.818 26.8376   1
   7  19  -2 245.951 25.2354   2
  19   7  -2 260.920 26.4316   2
  19  -7   2 286.344 18.3689   1
  -7  19   2 268.145 17.9691   2
 -19   7   0 66.4380 28.1178   2
   7  19   0 61.6336 21.9178   2
  19  -7   0 69.3247 10.0330   1
  19  -7   0 62.0982 14.0034   2
  19   7   0 88.9358 21.8733   1
  19   7   0 30.8335 17.5544   2
  -7  19   0 62.6730 11.1589   2
  19   7   2 236.423 27.3116   1
 -19   7  -2 207.311 39.9930   2
   7  19   2 252.484 33.1181   2
  19  -7  -2 272.507 20.9540   2
  -7  19  -2 218.513 14.9653   2
  19   7   2 266.058 29.2256   2
  19  -7  -4 30.2450 12.2619   2
  19   7   4 35.4274 20.6528   1
   7  19   4 46.0964 18.1210   1
   7  19   6 170.079 23.5063   1
  19   7   6 149.413 27.8808   1
  19   7   8 91.4165 28.7494   1
  -7 -19   8 106.256 29.5570   1
   7  19   8 78.3826 21.3341   1
  19  -7  -8 114.629 16.0854   3
 -19  -7  10 57.4959 35.8259   2
  19   7  10 49.2113 25.7550   2
  -7 -19  10 59.1499 27.8690   1
  19  -7 -10 53.0405 13.5199   3
  19   7  10 60.9830 28.2820   1
  -7 -19  12 490.641 44.4400   1
 -19  -7  12 402.542 50.7487   2
   7  19  12 453.490 38.5922   1
   7  19  14 20.0359 25.6275   1
  -8  19  13 108.201 18.2690   2
  19  -8  11-9.92851 11.9179   2
  -8  19  11 30.9206 13.5424   2
  19   8 -11 5.49466 13.3093   2
   8  19 -11 1.22334 14.1039   4
  -8  19   9 15.6871 11.4869   2
 -19   8   9 2.55591 22.3459   2
  19  -8   7 440.044 26.5008   2
  -8  19   7 433.393 26.0234   2
 -19   8   7 358.359 38.8103   2
  19   8  -5 112.366 19.3424   2
  -8  19   5 132.570 15.6523   2
  19  -8   5 110.068 15.1395   2
 -19   8   5 99.2471 27.4394   2
   8  19  -5 130.509 17.2284   2
  19   8  -5 155.901 21.1363   1
  19  -8   3 434.408 25.5815   2
 -19   8   3 412.581 41.2045   2
  19   8  -3 400.273 31.3062   1
  19   8  -3 356.526 29.9417   2
  -8  19   3 463.987 24.4816   2
  19   8  -1 70.8435 20.4782   1
   8  19  -1 53.3860 18.0184   1
 -19   8   1 97.0869 29.4859   2
   8  19  -1 47.2287 20.2895   2
  19  -8   1 41.2205 13.7504   2
  19   8  -1 91.7529 21.0372   2
  -8  19   1 60.9624 12.3741   2
 -19   8  -1 70.6717 31.5920   2
  19   8   1 64.5089 21.5763   1
   8  19   1 77.8192 25.0392   2
  19  -8  -1 59.1423 14.0919   2
   8  19   1 41.2548 17.6184   1
  -8  19  -1 53.4753 11.9895   2
  19   8   1 33.3451 21.1143   2
   8  19   3 344.531 28.8669   1
   8  19   3 416.390 41.0375   2
  19  -8  -3 407.168 25.4110   2
  19   8   3 394.292 34.1712   1
  19   8   5 154.719 27.6211   1
  19   8   5 100.382 27.1719   2
  19   8   7 422.845 39.2798   1
   8  19   7 493.730 36.0450   1
  19   8   9-21.7645 28.3804   1
  19   8   9 20.2441 24.1586   2
  -8 -19   9-16.0440 26.9196   1
  19  -8  -9 21.7684 12.9033   3
   8  19  11 17.5488 24.0778   1
  -8 -19  11 13.6031 27.5030   1
   8  19  13 104.363 29.3904   1
  -9  19  12 14.1039 15.0502   2
  -9  19  10 19.9409 14.6531   2
  19   9 -10 27.0100 14.2065   2
  19   9  -8 526.142 32.9120   2
  -9  19   8 511.341 30.1401   2
 -19   9   8 556.075 43.8190   2
   9  19  -8 522.945 31.4046   4
  19   9  -6 105.614 19.9691   2
  -9  19   6 108.354 15.2200   2
  19  -9   6 119.274 15.8768   2
  -9  19   4 50.9234 12.5663   2
  19  -9   4 50.2022 12.0970   2
 -19   9   4 83.9874 25.4652   2
  19   9  -4 46.2656 18.4338   1
   9  19  -4 54.1358 15.9943   2
  19   9  -4 48.1466 17.0073   2
 -19   9   2 561.641 46.7381   2
   9  19  -2 531.054 34.2222   2
  19   9  -2 548.746 36.9553   1
  19   9  -2 499.448 37.2120   2
  -9  19   2 578.760 28.4816   2
   9  19   0 991.895 46.0593   1
 -19   9   0 988.736 61.6419   2
  19  -9   0 925.037 39.8623   2
  -9  19   0 885.508 37.5014   2
  19   9   0 940.771 50.3260   2
  19   9   0 900.105 48.8952   1
 -19   9  -2 590.585 51.7994   2
   9  19   2 532.238 42.6018   2
   9  19   2 522.385 35.0081   1
  19   9   2 533.269 39.7230   2
  19   9   2 576.792 39.5562   1
   9  19   4 43.3204 26.9860   2
  19   9   4 27.2055 21.9880   2
  19   9   6 93.6091 26.0827   1
  19   9   6 99.2500 26.8846   2
  19  -9  -6 85.4947 14.8320   3
  19  -9  -8 550.030 30.3681   3
   9  19  10 23.9838 23.5210   1
   9  19  12 2.41384 25.4667   1
 -10  19  11 26.1747 14.8925   2
 -10  19   9 6.88987 14.0988   2
  19  10  -9 8.85781 14.9843   2
  19 -10   7 411.289 24.7338   2
 -19  10   7 389.569 38.9670   2
 -10  19   7 408.458 27.1557   2
  19  10  -7 390.899 29.4214   2
  19 -10   5 324.803 22.1037   2
  19  10  -5 411.549 30.3489   1
 -19  10   5 321.019 36.3988   2
 -10  19   5 321.165 23.4532   2
 -19  10   3 428.526 40.7029   2
  10  19  -3 411.070 30.4927   2
  19  10  -3 454.081 33.9475   2
 -10  19   3 492.742 27.8336   2
  19  10  -3 481.649 34.2552   1
  19  10  -1 134.626 24.7070   1
 -19  10   1 142.151 32.8073   2
  10  19  -1 171.081 26.6199   2
  19 -10   1 165.171 17.3756   2
  19  10  -1 183.273 25.0566   2
 -19  10  -1 104.715 32.7989   2
  10  19   1 106.626 21.2801   1
  10  19   1 134.642 27.3686   2
  19  10   1 155.444 25.7373   1
  19  10   1 180.081 27.9587   2
  10  19   3 521.427 35.9736   1
  10  19   3 549.920 44.2948   2
  19  10   3 514.579 39.2982   1
  19  10   3 487.048 40.8965   2
  10  19   5 341.166 31.5086   1
  19  10   5 338.890 37.6935   2
  19  10   5 434.976 37.8376   1
  10  19   7 452.488 50.4785   2
  10  19   7 489.390 37.7956   1
  19 -10  -7 466.052 27.7301   3
 -11  19  10 445.413 32.2678   2
 -11  19   8 162.358 20.9913   2
  19 -11   6 156.494 15.7602   2
 -19  11   6 120.934 28.9118   2
 -11  19   6 122.067 18.3521   2
 -19  11   4 335.277 36.8104   2
  11  19  -4 320.761 25.9086   2
 -11  19   4 360.262 25.9973   2
  19  11  -4 331.055 29.4642   2
  19  11  -2 217.294 26.7908   1
 -19  11   2 176.231 33.3739   2
  11  19  -2 178.277 24.2560   2
  19  11  -2 217.791 27.3799   2
  11  19  -2 195.796 24.6534   1
  11  19   0 23.1285 19.3873   1
 -19  11   0 71.4773 30.0814   2
  19  11   0 49.1485 22.6686   2
  19  11   0 78.8473 22.2625   1
 -19  11  -2 247.505 39.8170   2
  11  19   2 215.700 31.0165   2
  11  19   2 219.657 26.8779   1
  19 -11  -2 226.271 19.6583   3
  11  19   4 335.558 31.3370   1
  19 -11  -4 323.790 22.6600   3
  11  19   6 116.153 25.7082   1
  11  19   6 94.2299 31.3279   2
  11  19   8 136.702 38.2641   2
 -12  19   9 826.261 43.1819   2
 -12  19   7 622.066 36.5140   2
 -19  12   5 129.395 29.4283   2
  19  12  -5 67.5485 19.5300   2
 -19  12   3 280.961 35.8913   2
  12  19  -3 312.947 27.6986   2
  19  12  -3 300.197 29.8357   2
 -19  12   1 224.872 37.0192   2
  12  19  -1 221.014 26.8534   2
  19 -12   1 219.270 18.4788   3
 -19  12  -1 205.296 35.5601   2
  12  19   1 206.435 29.8326   2
  19 -12  -1 283.200 21.0804   3
  12  19   3 307.738 37.3458   2
  19 -12  -3 330.531 22.2640   3
  19 -12  -5 82.3621 15.6322   3
  12  19   5 51.0476 29.6692   2
  12  19   7 542.275 51.1586   2
 -19  13   4 381.279 38.0935   2
 -19  13   2-13.4839 26.0138   2
 -19  13   0 225.317 34.3205   2
  13  19   0 271.570 30.1705   2
  19 -13   0 289.481 21.5409   3
  19 -13  -2 2.09929 11.4804   3
 -19  13  -2 18.1281 27.3989   2
 -19  14   3 123.633 30.3099   2
 -19  14   1 125.287 32.7540   2
  14  19  -1 143.446 24.4245   2
  14  19   1 140.858 26.5328   2
  19 -14  -3 110.560 14.9785   3
  20   0   0 574.225 34.4528   2
  20   0   0 534.617 32.4812   1
   0  20   0 564.073 23.1021   3
  20   0  -2 181.251 20.3089   2
 -20   0   2 154.280 36.7321   2
   0  20  -2 134.422 18.9545   2
  20   0  -2 168.067 19.4920   1
   0  20  -2 182.498 14.9843   4
  20   0   2 183.987 21.9358   2
   0  20   2 178.402 12.9958   3
  20   0   2 155.267 21.8829   1
   0  20   4 112.277 11.5933   3
  20   0  -4 96.7867 17.4292   2
 -20   0   4 86.1670 31.5010   2
  20   0   4 82.0806 20.9086   1
  20   0   4 104.289 19.9785   2
   0  20   6 43.4161 10.4289   3
   0  20  -6 32.7015 10.4765   4
  20   0   6 63.4593 19.0498   2
   0  20   8 72.7890 11.3624   3
   0  20  -8 68.9226 11.5097   4
   0 -20   8 84.0848 22.9344   1
  20   0   8 112.507 25.2296   1
   0 -20  10 229.377 29.2128   1
  20   0 -10 292.649 24.1224   2
 -20   0  10 276.609 38.5533   2
  20   0 -10 300.713 20.3699   4
   0  20 -10 310.104 19.7399   4
  20   0  10 284.710 31.7155   2
  20   0  10 251.114 34.1668   1
   0  20  10 278.607 20.3970   3
   0  20  12 203.487 18.4647   3
   0 -20  12 196.628 27.8240   1
   0 -20  14 202.406 29.0695   1
   0 -20  16 46.4322 26.6816   1
  20   1 -15 225.771 18.6433   4
   1 -20  15 181.091 29.2925   1
   1  20 -15 208.913 19.0783   4
  -1  20  13 54.1813 13.8173   3
   1 -20  13 77.1809 25.1411   1
  20   1 -13 46.6836 12.6213   4
  20  -1  13 71.7418 22.0235   2
  -1  20  11 74.2259 14.1914   3
   1 -20  11 65.0070 21.9132   1
  20   1 -11 63.3744 13.3642   4
  20  -1  11 69.7824 22.2902   2
   1  20 -11 78.4682 13.3606   4
  -1  20   9 46.5709 10.4167   3
   1 -20   9 74.7218 21.3114   1
  20   1  -9 50.2236 15.7385   2
  20   1  -9 58.6342 13.6259   4
   1  20  -9 55.9573 12.4905   4
  20  -1   9 56.3333 20.0789   2
  20  -1   9 38.7789 23.3574   1
   1  20  -7 378.966 21.6617   4
  20  -1   7 417.018 32.3589   2
   1 -20   7 326.430 31.2277   1
  -1  20   7 344.333 20.6508   3
 -20   1   5 519.228 48.1453   2
   1  20  -5 559.935 26.3035   4
  -1  20   5 533.951 25.2528   3
  20  -1   5 550.474 36.4578   1
  20   1  -3 221.138 23.0154   2
  20   1  -3 236.586 21.3197   1
 -20   1   3 234.721 40.5891   2
   1  20  -3 261.271 18.2808   4
  20  -1   3 252.244 25.2482   1
   1  20  -3 287.410 12.9235   3
  -1  20   3 294.888 16.7789   3
  20  -1   3 284.770 26.0382   2
  20  -1   1 104.662 19.0217   2
   1  20  -1 135.139 10.6397   3
  20   1  -1 132.511 19.4279   2
  20   1  -1 130.235 18.7635   1
  20  -1   1 115.773 18.5024   1
  -1  20   1 126.401 12.9432   4
   1  20   1 134.844 11.6976   3
  20  -1  -1 108.790 17.9790   2
  20   1   1 93.4446 19.1375   1
  20  -1  -1 115.360 17.2472   1
  20   1   1 108.996 19.3991   2
   1  20   3 271.555 16.2391   3
  -1  20  -3 252.419 11.5791   2
  20  -1  -3 283.847 24.0396   2
 -20  -1   3 288.746 43.9601   2
  -1  20  -3 281.930 17.1479   4
  20   1   3 291.998 27.2308   1
  20   1   3 315.473 27.9517   2
  20   1   5 474.022 35.9913   1
   1  20   5 507.316 24.1071   3
   1  20   5 501.657 27.3051   1
  20  -1  -5 522.952 31.4957   2
   1  20   7 411.791 21.9890   3
  20   1   7 348.689 33.6477   1
   1  20   7 402.008 25.0922   1
  20  -1  -7 350.190 25.7024   2
  -1  20  -7 373.087 20.2022   4
  20   1   7 356.081 32.6975   2
  -1 -20   7 395.119 34.5453   1
  -1 -20   9 57.8016 24.0562   1
   1  20   9 44.4213 10.7637   3
   1  20   9 47.7826 15.1652   1
 -20  -1   9 20.5016 27.8760   2
  20  -1  -9 33.1782 11.1949   4
  20   1   9 58.1620 23.0061   2
  -1  20  -9 37.3660 10.6309   4
  20   1   9 61.6044 24.4533   1
   1  20  11 57.2593 13.3989   3
  -1 -20  11 52.0469 24.4030   1
  20   1  11 62.5737 24.2376   2
  20   1  11 75.9583 29.4241   1
  -1  20 -11 75.5710 11.9951   4
   1  20  13 55.6737 14.1013   3
  -1 -20  13 72.9638 25.2491   1
  -1  20 -13 52.1492 12.7013   4
  -1 -20  15 201.020 30.3866   1
 -20  -1  15 208.639 34.7735   1
  -1  20 -15 171.141 16.8676   4
  20  -2  14 37.2729 20.7803   2
   2 -20  14 31.0272 21.4516   1
   2  20 -14 35.8387 13.6410   4
   2 -20  12-1.74652 19.5661   1
  20   2 -12 30.2425 12.3288   4
  20  -2  12 25.8008 21.1001   2
   2  20 -12 11.4980 12.1101   4
  -2  20  12 20.9677 12.2868   3
   2 -20  10 45.2070 20.8332   1
  20   2 -10 42.7113 12.6118   4
   2  20 -10 35.6468 11.5517   4
  20  -2  10 43.3426 23.0532   1
  20  -2  10 3.77394 17.9800   2
  -2  20  10 39.3204 11.4792   3
  20   2  -8 426.990 29.1858   2
 -20   2   8 493.976 46.7837   2
   2  20  -8 468.341 24.6934   4
  20  -2   8 455.473 36.3189   1
  20  -2   8 433.685 33.4110   2
  -2  20   8 412.685 23.1189   3
   2 -20   8 368.854 31.7567   1
  20  -2   6 313.629 29.3370   1
 -20   2   6 348.463 41.5100   2
   2  20  -6 335.078 21.1749   4
  -2  20   6 330.917 19.4788   3
 -20   2   4 33.8009 31.1211   2
  20   2  -4 24.9578 14.9334   1
  20  -2   4 17.1119 17.7230   1
   2  20  -4 36.3112 11.7193   4
  20  -2   4 20.8916 15.7915   2
   2  20  -2 562.628 21.6598   3
   2  20  -2 584.611 32.1911   2
 -20   2   2 537.699 51.9844   2
  20   2  -2 518.835 31.8703   1
  20  -2   2 468.305 30.7665   1
  20  -2   2 555.679 34.0622   2
  20   2  -2 465.124 32.4671   2
   2  20   0 1197.54 40.0790   3
  20  -2   0 1159.50 47.8571   1
  -2  20   0 1243.52 39.9033   2
  20   2   0 1127.05 53.0344   2
  20   2   0 1091.13 51.0652   1
  20  -2   0 1147.98 50.7211   2
  20  -2  -2 461.783 30.5384   2
   2  20   2 551.792 23.6577   3
  20  -2  -2 533.568 28.5030   1
  -2  20  -2 498.358 19.5647   2
  20   2   2 508.437 34.4079   1
  -2  20  -2 529.219 22.5070   4
  20   2   2 507.709 34.9180   2
   2  20   4 21.4548 8.51115   3
   2  20   4 17.7215 12.8626   1
  20  -2  -4 13.9110 12.2373   2
  20   2   4 29.4819 20.1588   1
  20   2   4 17.2062 18.6923   2
   2  20   6 360.943 20.6404   3
  20   2   6 368.016 34.4858   1
  20  -2  -6 298.446 23.8328   2
 -20  -2   6 275.815 43.0933   2
   2  20   6 399.545 25.1779   1
  -2  20  -6 334.980 18.2481   4
  20   2   6 348.550 31.4078   2
   2  20   8 423.507 23.6846   3
 -20  -2   8 435.298 48.4237   2
  20  -2  -8 405.231 26.7606   2
  20  -2  -8 436.072 22.7869   4
  20   2   8 374.757 35.2875   2
   2  20   8 443.076 27.9282   1
  -2 -20   8 437.792 37.7329   1
  -2 -20  10 88.8417 24.6413   1
   2  20  10 39.6930 12.2108   3
 -20  -2  10 31.3215 30.7744   2
  20  -2 -10 53.6400 10.9895   4
  20   2  10 87.2394 24.2455   2
  -2  20 -10 27.7647 10.1012   4
  20   2  10 39.1508 26.7872   1
   2  20  12 22.7568 12.5803   3
  -2 -20  12-10.6476 24.8586   1
  20   2  12 25.2221 23.3335   2
  -2 -20  14 11.0936 24.9431   1
  -2  20 -14 34.6271 12.1720   4
  20   3 -15 94.2627 15.4027   4
   3  20 -13 16.2331 12.7802   4
  20  -3  13-1.89200 17.2443   2
  -3  20  13 1.15765 12.7057   3
   3 -20  11 66.5473 22.3382   1
  20   3 -11 94.0893 14.7757   4
   3  20 -11 112.281 14.4135   4
  -3  20  11 99.8668 14.3640   3
   3 -20   9 280.719 28.5866   1
 -20   3   9 290.319 37.2059   2
   3  20  -9 270.347 20.4089   4
  20  -3   9 281.639 30.7114   1
  20   3  -7 59.1784 15.3826   2
 -20   3   7 63.1159 30.0630   2
   3 -20   7 60.2554 20.3223   1
  20  -3   7 42.9162 17.3442   2
  20  -3   5 501.449 34.2181   1
  20   3  -5 581.626 33.5700   2
 -20   3   5 520.787 48.7073   2
   3  20  -5 507.146 26.7990   4
  20  -3   5 535.400 33.9991   2
   3  20  -3 1656.99 49.5170   3
 -20   3   3 1533.83 83.7294   2
   3  20  -3 1535.31 57.2470   2
  -3  20   3 1626.01 53.5955   2
  -3  20   3 1630.41 49.1299   4
  20   3  -3 1546.75 61.8436   1
  20  -3   3 1500.94 62.8447   2
  20   3  -1 231.925 24.2006   1
   3  20  -1 253.029 14.6584   3
  20  -3   1 250.321 23.2326   2
 -20   3   1 254.727 42.0367   2
   3  20  -1 197.404 23.9872   2
  -3  20   1 256.074 15.2893   2
  20  -3   1 235.592 21.2131   1
   3  20   1 264.182 16.1563   3
  -3  20  -1 240.210 13.6940   2
  20   3   1 268.602 26.4783   1
  -3  20  -1 257.796 13.6744   4
  20   3   1 259.991 26.2520   2
   3  20   3 1643.46 53.6670   3
  20  -3  -3 1533.64 60.9426   2
  20   3   3 1471.92 66.4102   1
   3  20   3 1674.56 59.4525   1
  -3  20  -3 1605.43 49.6325   4
  20   3   3 1458.53 66.4431   2
  20   3   5 467.774 37.5304   1
   3  20   5 497.763 24.8431   3
  20  -3  -5 512.345 30.6289   2
 -20  -3   5 559.930 54.9992   2
   3  20   5 560.080 30.7722   1
  20   3   5 557.714 38.6440   2
  -3  20  -5 521.311 21.9043   4
  20   3   7 37.5705 23.9497   1
   3  20   7 44.2392 10.7177   3
 -20  -3   7 18.6780 31.9623   2
  20  -3  -7 44.0539 13.2746   2
   3  20   7 44.4256 15.3932   1
  20   3   7 84.3512 23.7983   2
  -3 -20   7 69.5325 23.5483   1
   3  20   9 293.623 20.5019   3
 -20  -3   9 279.677 41.7398   2
  20  -3  -9 283.439 23.1475   2
  20  -3  -9 283.254 17.4260   4
  20   3   9 265.537 32.4478   2
  -3  20  -9 281.332 17.0377   4
  -3 -20   9 272.071 33.7600   1
  20   3   9 254.573 34.2455   1
  -3 -20  11 69.5332 25.4917   1
   3  20  11 88.2593 14.4334   3
  20   3  11 87.0348 27.9137   2
  20   3  11 75.8793 28.7255   1
  -3  20 -11 109.983 12.0183   4
   3  20  13 9.77578 12.2027   3
  -3 -20  13 9.08205 23.4134   1
 -20  -3  15 88.2817 31.7812   1
  20   4 -14 216.750 20.6073   4
  20   4 -12 71.5744 15.0049   4
   4  20 -12 40.4004 12.7621   4
  20  -4  12 26.1919 17.5493   2
  20   4 -10 224.113 21.7267   2
  20   4 -10 229.401 20.8532   4
   4  20 -10 229.324 19.5415   4
  20   4  -8 625.740 35.1178   2
 -20   4   8 600.409 49.4371   2
   4  20  -8 602.747 30.0749   4
  20  -4   8 571.058 38.2070   1
  20  -4   8 612.133 36.1920   2
  20   4  -6 349.814 27.1183   2
  20  -4   6 295.370 27.2323   1
 -20   4   6 352.606 40.8145   2
  -4  20   6 327.636 20.2232   2
   4  20  -6 342.269 22.1727   4
  20  -4   6 283.391 25.5985   2
  20  -4   4 447.555 29.9039   1
 -20   4   4 478.542 47.6362   2
  -4  20   4 460.922 23.4148   2
  20   4  -4 488.775 30.8931   1
  20  -4   4 441.269 29.7021   2
  20   4  -4 466.682 31.7771   2
   4  20  -2 1125.33 38.0932   3
 -20   4   2 1159.53 70.6592   2
  -4  20   2 1117.34 40.2744   2
   4  20  -2 1190.23 50.1342   2
  20   4  -2 1092.87 50.7748   1
  20  -4   2 1062.20 45.7129   1
  20  -4   0 539.138 31.5346   2
  -4  20   0 573.136 23.4834   2
 -20   4   0 537.086 52.7498   2
  -4  20   0 548.054 19.6596   4
  20   4   0 533.493 35.6891   1
  20  -4  -2 1191.42 49.7056   2
  20   4   2 1177.68 55.6900   1
   4  20   2 1146.18 47.8405   1
  20   4   4 424.240 35.3709   1
  20  -4  -4 438.189 27.9305   2
   4  20   6 331.794 20.9149   3
 -20  -4   6 279.444 45.0754   2
  20   4   6 303.628 33.7497   1
  20  -4  -6 315.555 24.4660   2
  20  -4  -6 333.167 18.4076   4
  -4  20  -6 335.916 16.5790   4
   4  20   6 367.111 27.0208   1
  20   4   8 519.535 43.6316   1
   4  20   8 636.415 30.0899   3
 -20  -4   8 601.202 56.2821   2
  20  -4  -8 591.851 32.9415   2
  20   4   8 617.692 44.0864   2
   4  20   8 629.525 35.8817   1
  -4 -20   8 639.371 45.3209   1
   4  20  10 234.288 19.2952   3
   4  20  10 220.677 24.5291   1
  20   4  10 231.342 35.0974   1
  -4 -20  10 229.209 32.8860   1
  -4 -20  12 40.4212 25.8558   1
   4  20  12 50.3406 15.0339   3
   4  20  12 33.5667 18.5443   1
  20   4  12 99.9355 30.7024   1
  -5  20  13 261.786 22.0509   2
  -5  20  11 493.996 27.7297   2
  20   5 -11 430.454 27.9036   4
   5  20 -11 464.980 26.9346   4
  20  -5  11 430.827 31.9024   2
  20   5  -9 5.85663 13.8046   2
  -5  20   9-1.06511 10.3206   2
   5  20  -9 18.2801 12.7792   4
  20  -5   9 11.2636 19.9536   1
  20   5  -7 532.836 32.6356   2
  -5  20   7 481.177 26.5946   2
 -20   5   7 588.395 48.3137   2
  20  -5   7 539.241 35.2204   1
  20  -5   5 644.683 35.8147   1
 -20   5   5 636.644 51.8125   2
  -5  20   5 682.425 29.8871   2
  20   5  -5 624.254 35.7738   1
   5  20  -5 634.843 31.8415   4
  20  -5   5 599.925 34.9969   2
  20   5  -5 607.475 36.4763   2
  20  -5   3 175.658 19.0463   1
  20  -5   3 162.170 20.0499   2
 -20   5   3 142.571 33.7149   2
  -5  20   3 158.982 14.1195   2
   5  20  -3 183.556 19.8114   2
  20   5  -3 177.016 22.5995   1
  -5  20   1 689.895 28.0238   2
  20  -5   1 629.816 34.7519   2
  20   5  -1 644.480 39.0638   1
 -20   5   1 585.081 52.5365   2
  20   5  -1 668.821 39.7201   2
   5  20   1 657.178 34.7904   1
  20  -5  -1 746.538 36.2965   2
 -20   5  -1 744.566 59.3184   2
   5  20   1 690.330 45.7827   2
  20  -5  -1 657.233 29.3492   1
  20   5   1 677.503 41.1086   1
  20  -5  -3 168.798 19.0169   2
   5  20   3 163.656 20.8917   1
  20   5   3 198.687 27.2999   1
   5  20   5 635.081 35.9963   1
  20  -5  -5 637.070 33.5240   2
  20   5   5 584.022 41.9493   2
  20   5   7 463.418 40.3064   1
 -20  -5   7 423.291 52.1497   2
  20   5   7 530.745 41.3336   2
   5  20   7 495.774 32.9443   1
 -20  -5   9 46.6350 34.3475   2
  20   5   9 41.8577 25.4673   2
  -5 -20   9 2.43959 25.1653   1
   5  20   9 26.0981 18.2208   1
  -5 -20  11 470.407 45.0385   1
   5  20  11 507.134 29.1456   3
   5  20  11 445.016 35.9819   1
  20   5  11 531.439 46.8509   1
   5  20  13 276.774 31.5502   1
  -6  20  12 331.608 24.5789   2
  20   6 -12 327.480 25.4268   4
  -6  20  10 195.933 18.8101   2
   6  20 -10 168.076 18.3489   4
  20   6  -8 309.016 26.1617   2
  -6  20   8 319.457 22.0886   2
 -20   6   8 300.075 38.1940   2
   6  20  -8 319.321 23.2670   4
  20  -6   8 318.911 28.7814   1
  20   6  -6 120.037 19.4248   2
  -6  20   6 131.508 14.5866   2
 -20   6   6 153.713 33.1556   2
   6  20  -6 107.119 17.2678   4
  20   6  -4 285.240 26.1102   2
  -6  20   4 272.923 18.6489   2
 -20   6   4 280.124 37.6264   2
  20   6  -4 272.124 25.5649   1
  -6  20   2 478.950 23.5304   2
  20  -6   2 426.381 28.2787   2
 -20   6   2 481.022 47.8434   2
   6  20  -2 419.720 30.7566   2
  20   6  -2 432.374 32.4451   1
  20   6  -2 503.756 33.9101   2
  20  -6   2 489.508 25.4851   1
 -20   6   0 67.6707 31.8248   2
   6  20   0 43.5573 21.7376   2
  20  -6   0 74.7892 15.5258   2
  20  -6   0 95.0879 12.6142   1
  20   6   0 84.6885 22.2151   1
  20   6   0 112.516 22.4018   2
   6  20   2 453.490 29.3785   1
   6  20   2 479.150 40.6281   2
  20  -6  -2 450.947 28.1430   2
  20   6   2 516.231 37.7980   1
   6  20   4 255.834 24.0969   1
  20  -6  -4 247.956 21.3000   2
  20   6   4 286.056 30.6551   1
  20   6   6 91.5950 26.0075   1
   6  20   6 133.595 21.3304   1
  20  -6  -6 121.721 17.4291   2
  20   6   6 125.537 26.1611   2
   6  20   8 318.061 29.2199   1
  20   6   8 383.872 38.7106   1
  20   6   8 295.116 35.0352   2
  20   6  10 175.557 33.7370   1
  -6 -20  10 107.995 30.1385   1
   6  20  12 374.963 35.1206   1
   6  20  14 208.350 32.7878   1
  20  -7  11 159.181 19.7085   2
  -7  20  11 160.033 18.9840   2
  20  -7   9 45.9427 14.6534   2
  -7  20   9 57.5208 14.3973   2
   7  20  -9 74.7102 15.5518   4
  20  -7   7 472.142 29.4215   2
  -7  20   7 497.886 27.7888   2
 -20   7   7 505.633 44.1652   2
   7  20  -7 540.691 30.5202   4
  20   7  -5 229.440 23.8806   2
  20   7  -5 264.735 25.3705   1
  20  -7   5 205.768 20.5152   2
  -7  20   5 244.315 18.3845   2
 -20   7   5 220.921 34.7153   2
  -7  20   3 80.1564 12.8257   2
  20  -7   3 42.5265 13.4861   2
 -20   7   3 27.3368 28.6800   2
   7  20  -3 57.0904 16.2925   2
  20   7  -3 38.0431 18.9561   1
  20   7  -3 99.0958 19.8823   2
  20   7  -1 346.532 30.0908   1
 -20   7   1 372.961 43.4700   2
   7  20  -1 333.395 29.9566   2
  20   7  -1 311.008 29.5087   2
 -20   7  -1 339.859 43.0327   2
   7  20   1 326.801 33.9957   2
  20   7   1 307.451 30.4502   1
   7  20   1 303.370 25.7697   1
  20   7   1 335.127 30.0976   2
  20  -7  -3 77.7838 14.8856   2
   7  20   3 75.9719 18.9291   1
  20   7   3 90.9909 23.4774   1
  20  -7  -5 215.135 20.0282   2
  20   7   5 171.482 28.7088   1
   7  20   5 213.599 24.0820   1
  20   7   7 533.053 43.3586   1
  -7 -20   9 69.3233 28.1889   1
   7  20  11 146.918 28.1621   1
   7  20  13 206.451 31.1318   1
  -8  20  12 86.6787 17.1155   2
  20  -8  10 177.403 18.8859   2
  -8  20  10 137.219 18.7388   2
  20  -8   8 487.478 28.5106   2
  -8  20   8 446.354 27.4947   2
   8  20  -8 430.809 28.5721   4
  20   8  -6 29.4428 16.8129   2
  -8  20   6 27.0331 11.9895   2
 -20   8   6 2.84461 25.8040   2
  -8  20   4 177.612 16.9114   2
 -20   8   4 188.961 36.1071   2
  20   8  -4 164.335 23.6259   1
  20   8  -4 190.566 23.6171   2
  20  -8   2 507.909 28.8797   2
 -20   8   2 473.786 47.6499   2
   8  20  -2 485.182 32.5855   2
  20   8  -2 483.491 35.5150   1
  20   8  -2 557.825 36.9815   2
 -20   8   0 312.757 45.3237   2
  20  -8   0 362.849 24.9688   2
   8  20   0 393.274 33.2312   2
  20   8   0 449.182 35.7242   2
   8  20   0 424.724 29.4129   1
  20  -8  -2 480.469 28.5910   2
  20   8   2 513.150 39.7325   2
  20   8   2 489.045 38.1858   1
   8  20   2 555.065 34.8398   1
   8  20   4 182.000 23.9617   1
   8  20   4 189.729 35.5615   2
  20   8   4 179.059 28.7417   2
  20   8   4 191.954 29.4927   1
   8  20   6 26.1154 19.3724   1
  20   8   6-4.76962 24.4003   1
   8  20   8 462.223 36.2905   1
   8  20  10 164.269 28.0592   1
   8  20  12 118.003 28.8256   1
  -9  20  11 98.0293 18.4922   2
  -9  20   9 61.5508 15.0233   2
  20  -9   7 335.480 23.3152   2
  -9  20   7 345.429 24.4201   2
  20  -9   5 727.623 34.7399   2
 -20   9   5 649.015 51.4857   2
  -9  20   5 684.621 33.9432   2
 -20   9   3 905.906 60.2454   2
  20  -9   3 982.443 41.8632   2
  20   9  -3 992.529 50.0823   2
  20   9  -3 942.679 49.1033   1
 -20   9   1 570.229 49.9927   2
  20   9  -1 544.727 37.6219   1
   9  20  -1 480.742 35.9197   2
  20  -9   1 526.830 29.2415   2
  20   9  -1 544.371 38.4069   2
   9  20   1 542.241 34.5536   1
 -20   9  -1 588.277 52.5776   2
  20  -9  -1 541.855 30.0206   2
  20   9   1 518.862 38.8537   1
   9  20   3 882.524 56.9243   2
   9  20   3 990.294 48.4895   1
  20   9   3 925.501 52.7172   1
   9  20   5 660.452 55.1074   2
  20  -9  -5 667.796 33.6509   3
   9  20   5 695.815 41.7053   1
   9  20   7 320.474 31.4319   1
 -10  20  10 258.053 24.8842   2
 -10  20   8 652.088 35.8187   2
  20 -10   4 524.339 27.9756   2
 -20  10   4 399.768 43.5714   2
 -20  10   2 892.147 59.6570   2
  10  20  -2 827.420 44.3188   2
 -20  10   0 947.065 63.7190   2
  10  20   0 963.449 51.9380   2
  10  20   0 963.986 47.6885   1
 -20  10  -2 973.632 66.8370   2
  10  20   4 453.967 35.3702   1
  10  20   4 495.250 45.9096   2
  10  20   6 117.006 24.5430   1
  10  20   8 566.153 55.0527   2
 -20  11   3 101.968 30.7158   2
  20 -11   3 88.8288 14.9512   2
 -20  11   1 637.128 53.8270   2
 -20  11  -1 785.973 61.0276   2
  20 -11  -1 671.582 33.3149   3
  11  20   3 131.296 31.1582   2
  20 -11  -3 106.252 15.9959   3
  20 -11  -5 805.555 38.2433   3
 -20  12   2 465.451 45.0683   2
 -20  12   0 56.2471 31.8757   2
 -20  12  -2 385.893 48.7976   2
  12  20   2 428.336 40.3332   2
  20 -12  -2 471.319 27.1831   3
  12  20   4 567.436 48.9007   2
  20 -12  -4 560.184 30.1608   3
 -20  13   1 84.3412 35.3338   2
  13  20   1 67.4873 25.0895   2
  20 -13  -3 46.9283 13.0200   3
  21   0   1 23.4678 14.4292   2
  21   0  -1 31.9651 16.4300   2
  21   0   1 16.0426 14.6374   1
   0  21  -1 22.8760 9.80326   4
  21   0  -1 32.6720 14.7970   1
   0  21   1 28.9524 8.18412   3
  21   0  -3 257.236 23.7451   2
 -21   0   3 264.696 43.9692   2
   0  21  -3 282.188 18.2787   4
  21   0  -3 293.738 22.5723   1
  21   0   3 217.864 24.4051   2
   0  21   3 268.305 16.6173   3
   0  21   5 87.7934 11.2159   3
 -21   0   5 54.0085 32.0934   2
   0  21  -5 73.0791 12.2043   4
  21   0   5 50.4407 20.0277   2
  21   0   7 707.720 43.7306   2
  21   0   7 739.803 45.7931   1
   0  21   7 730.023 31.9760   3
  21   0  -9 1095.30 43.6121   4
  21   0   9 1200.85 58.4248   2
   0 -21   9 1091.06 56.5147   1
   0  21  -9 1127.17 42.0770   4
  21   0   9 1054.04 59.2882   1
   0  21   9 1104.18 44.0220   3
   0  21  11 22.1199 11.4263   3
   0 -21  11 8.16287 22.8660   1
   0  21 -11 32.8263 12.8603   4
  21   0  11 55.8931 26.4022   1
   0  21 -13 202.705 17.7992   4
  21  -1  12 483.624 43.9135   1
  -1  21  12 596.676 30.9292   3
  21   1 -10 765.464 35.2087   4
  21  -1  10 735.807 46.2256   2
  21  -1  10 804.189 50.4447   1
   1  21 -10 787.478 33.9459   4
   1 -21  10 757.954 46.5792   1
  -1  21  10 805.454 35.9752   3
  21  -1   8 48.1964 23.5722   1
   1  21  -8 49.8371 11.9027   4
   1 -21   8 35.0339 22.8845   1
  21  -1   8 58.0142 21.0316   2
  -1  21   8 31.0125 11.3657   3
  21  -1   6 267.975 28.7742   1
 -21   1   6 229.017 39.4525   2
   1  21  -6 266.604 18.9144   4
  21  -1   6 269.632 27.6505   2
  -1  21   6 271.749 17.8380   3
  21   1  -4 513.695 32.2918   2
  21  -1   4 508.930 34.3555   1
 -21   1   4 446.426 49.5461   2
   1  21  -4 557.188 26.3414   4
  21  -1   4 521.017 34.8748   2
  -1  21   4 540.099 24.8155   3
  21  -1   2 33.1050 15.6108   2
  21   1  -2 61.3243 16.2547   2
  21  -1   2 82.9921 17.9707   1
 -21   1   2 23.8296 32.0069   2
  -1  21   2 59.0138 11.2329   4
   1  21  -2 69.8867 12.1863   4
  21   1   0 1.69482 14.1580   2
  21  -1   0 1.57694 14.2288   2
  21  -1   0 16.7673 14.0581   1
  -1  21   0 13.3638 9.41617   4
  21   1   0-8.77289 14.0408   1
   1  21   2 55.0269 9.63616   3
  21   1   2 48.5440 17.6815   1
  21  -1  -2 31.9416 14.8558   2
  -1  21  -2 48.0567 10.5429   4
  21   1   2 49.7286 17.1775   2
  21  -1  -4 595.448 33.7266   2
  21   1   4 536.313 36.7118   1
  -1  21  -4 600.356 25.6073   4
  21   1   4 512.066 36.6476   2
   1  21   4 555.365 25.5639   3
   1  21   6 277.000 18.0950   3
   1  21   6 295.454 21.9334   1
  21   1   6 265.322 30.5039   1
  21  -1  -6 231.692 23.2714   2
  21   1   6 289.280 30.3437   2
   1  21   8 35.7847 11.2079   3
  21   1   8 60.0377 25.4189   1
  21   1   8 50.7768 22.0993   2
  -1 -21   8 45.5339 23.8133   1
  -1  21  -8 45.4980 11.4118   4
   1  21  10 750.260 35.1349   3
  21   1  10 751.192 50.9711   1
  -1 -21  10 708.410 46.8719   1
  -1  21 -10 810.160 32.8925   4
  -1 -21  12 533.672 42.6386   1
  21   1  12 534.659 45.4526   1
   1  21  12 594.988 31.1370   3
  -1 -21  14 191.614 32.4209   1
  21   2 -13 73.5544 16.0522   4
   2  21 -13 91.0138 15.7001   4
   2  21 -11 47.7641 13.4374   4
  21  -2  11 39.0220 19.7638   2
  21  -2  11 57.3010 24.6625   1
  -2  21  11 52.6508 13.1746   3
   2  21  -9 263.544 19.5786   4
  21  -2   9 247.874 28.0839   2
  -2  21   9 214.571 18.2998   3
  21  -2   9 233.753 29.9081   1
  21   2  -7 263.257 24.3536   2
  21  -2   7 254.955 27.0049   2
  -2  21   7 281.887 18.6343   3
 -21   2   5 207.881 39.9889   2
  21  -2   5 188.648 25.0763   1
   2  21  -5 219.284 17.8136   4
  21  -2   3 13.0209 15.6465   2
 -21   2   3 26.4933 31.2449   2
  21   2  -3 30.5634 14.4006   1
   2  21  -3 33.7768 11.4020   4
  21  -2   3 32.0108 16.2046   1
  21   2  -1 15.3449 15.4693   2
  21  -2   1 13.9857 13.8855   2
  21   2  -1 29.3430 16.3296   1
   2  21   1 26.8384 8.71521   3
  21   2   1 17.7524 16.4544   1
  21  -2  -1 13.5734 12.0795   1
  -2  21  -1 21.0875 8.70508   4
   2  21   3 16.3760 8.64062   3
  21  -2  -3 2.94069 13.0653   2
  21   2   3 10.6010 18.2212   1
   2  21   5 227.444 16.3319   3
  21  -2  -5 214.554 21.8024   2
   2  21   5 217.477 19.9151   1
  21   2   5 190.980 27.4858   1
  -2  21  -5 198.738 14.5365   4
  21   2   5 220.118 26.8074   2
   2  21   7 278.113 18.8539   3
   2  21   7 299.025 22.9104   1
  -2  21  -7 264.622 16.4292   4
  21   2   7 245.118 29.2902   2
   2  21   9 293.208 20.8790   3
  21   2   9 291.152 36.0725   1
  -2 -21   9 267.745 33.0163   1
  -2 -21  11 33.9401 26.7714   1
   2  21  11 67.3799 13.8900   3
  21   2  11 41.0722 27.7230   1
  -2 -21  13 60.0461 28.9799   1
  21   3 -12 176.627 18.6225   4
   3  21 -12 138.261 16.8686   4
  21   3 -10 245.001 20.8457   4
   3  21 -10 201.039 18.9915   4
  21  -3  10 210.323 26.2466   2
  21  -3  10 223.195 32.1797   1
  21  -3   8 127.024 24.6140   1
   3  21  -8 144.720 16.5274   4
  21  -3   8 125.006 21.6992   2
  21   3  -6 45.6360 16.0100   2
  21  -3   6 32.6166 19.0666   1
 -21   3   6 80.1279 34.6550   2
   3  21  -6 46.9596 13.4805   4
  21  -3   6 29.9793 17.6071   2
  21  -3   4 59.0195 17.2692   2
 -21   3   4 36.0936 29.8276   2
  -3  21   4 58.9609 10.7170   2
  21   3  -4 62.2987 17.1714   1
  21  -3   2 213.597 22.9219   2
  21   3  -2 181.403 22.8141   1
 -21   3   2 131.849 36.6725   2
  -3  21   2 203.921 14.4309   2
  21  -3   2 163.304 19.2198   1
   3  21   0 125.071 11.8391   3
   3  21   0 108.067 23.5091   2
  21  -3   0 101.899 15.7982   1
  21   3   0 116.263 21.3407   1
  21   3   0 115.349 20.0126   2
  21  -3  -2 177.337 17.2069   1
  21   3   2 177.310 24.7659   1
   3  21   2 182.420 14.2514   3
  21  -3  -2 174.317 20.2027   2
  21   3   2 174.857 23.9590   2
   3  21   4 85.5802 11.7673   3
  21  -3  -4 75.0230 16.1671   2
   3  21   4 56.1887 14.7100   1
  21   3   4 34.5025 20.3815   1
  21   3   4 77.5302 20.5373   2
   3  21   6 40.4841 11.7540   3
  21   3   6 47.1335 23.6190   1
  21  -3  -6 39.2483 15.2631   2
  21   3   6 47.8958 21.7635   2
   3  21   6 41.1443 16.1876   1
   3  21   8 117.882 15.1163   3
  21   3   8 99.8373 24.7657   2
   3  21  10 235.612 20.2197   3
  -3 -21  10 201.638 32.1782   1
  -3 -21  12 156.141 33.0231   1
  21   4 -11 417.201 27.1787   4
  -4  21   9 70.9495 12.8584   2
   4  21  -9 46.6963 13.4220   4
  21  -4   9 46.9518 17.7519   2
  21  -4   9 49.5476 22.0236   1
  -4  21   7 357.201 22.1229   2
   4  21  -7 364.211 23.9108   4
  21  -4   7 428.944 31.0550   2
  21  -4   7 421.969 32.5855   1
  21   4  -5 491.684 32.7136   2
  21  -4   5 465.399 32.6691   1
 -21   4   5 526.492 51.4558   2
  -4  21   5 499.249 25.2740   2
   4  21  -5 509.374 27.1981   4
  21  -4   5 482.973 32.5296   2
  21   4  -3 53.0884 17.0129   2
  21  -4   3 46.2018 16.0188   2
  21   4  -3 38.5027 16.0314   1
 -21   4   3 46.6165 31.3789   2
  -4  21   3 65.6332 11.2994   2
  21  -4   1 382.706 25.2323   1
 -21   4   1 470.605 51.4856   2
  21   4  -1 456.122 32.8250   1
   4  21   1 425.000 21.2449   3
  21  -4  -1 376.925 27.7200   2
  21   4   1 385.544 32.1841   2
   4  21   3 61.8443 10.7716   3
  21  -4  -3 44.2993 15.7191   2
  21   4   3 37.0478 19.3632   2
   4  21   5 491.716 24.6616   3
  21   4   5 462.168 38.0610   1
   4  21   5 493.739 30.3265   1
   4  21   7 343.247 21.8931   3
  21   4   7 338.719 36.0541   1
   4  21   7 347.158 26.6411   1
  21   4   9 58.0248 29.9108   1
   4  21   9 40.3731 12.8128   3
   4  21   9 46.5606 17.5642   1
  -4 -21   9 24.3576 25.5287   1
   4  21  11 458.522 28.1065   3
  -4 -21  11 470.663 43.5160   1
  -5  21  12 451.999 28.2473   2
  21  -5  12 423.212 31.2407   2
  -5  21  10 425.636 26.1005   2
  21   5 -10 380.250 27.4861   4
   5  21 -10 388.869 25.3000   4
  -5  21   8 457.122 26.5799   2
   5  21  -8 488.959 27.9915   4
  21  -5   8 502.282 33.5954   2
  21  -5   6 273.012 25.6302   2
  -5  21   6 278.249 19.8973   2
   5  21  -6 316.958 22.8083   4
  -5  21   4 663.518 29.9842   2
 -21   5   4 719.548 57.1014   2
  21   5  -4 629.832 36.9978   1
  21   5  -4 681.276 39.1464   2
  21  -5   2 656.608 36.7362   2
 -21   5   2 757.162 61.7541   2
  21   5  -2 773.058 41.4548   1
  21   5  -2 664.206 40.4739   2
 -21   5   0 165.706 39.9707   2
  21  -5  -2 660.044 35.6824   2
  21   5   2 698.005 43.4718   1
   5  21   2 705.776 36.3971   1
  21   5   4 714.600 45.4481   1
  21  -5  -4 686.096 35.4406   2
   5  21   4 616.698 35.8160   1
  21   5   6 289.592 33.9158   1
  21  -5  -6 272.997 23.8292   2
   5  21   8 533.851 28.0474   3
  21   5   8 425.572 41.6278   1
   5  21   8 446.717 33.5551   1
   5  21  10 404.372 25.4538   3
  -5 -21  10 317.488 39.3707   1
  -6  21  11 298.605 23.6210   2
  -6  21   9 393.335 24.9776   2
   6  21  -9 454.644 27.0133   4
  -6  21   7 578.081 29.8085   2
   6  21  -7 594.100 31.5464   4
  21  -6   5 435.337 29.6712   2
   6  21  -5 467.950 28.4777   4
  21   6  -3 146.654 22.2347   2
  21  -6   3 151.080 19.5652   2
 -21   6   3 177.642 37.7063   2
  21  -6   1 477.606 30.2807   2
 -21   6   1 502.593 52.2771   2
  21   6  -1 483.273 34.8176   1
  21   6  -1 436.515 33.9850   2
  21  -6  -1 456.715 28.6201   2
  21   6   1 455.367 35.7478   1
  21   6   3 152.668 26.0286   1
   6  21   3 126.156 19.1017   1
  21  -6  -3 108.460 16.9008   2
   6  21   5 419.496 30.4753   1
  21   6   5 387.249 36.4266   1
  21   6   7 599.973 45.2052   1
   6  21   7 592.248 37.2260   1
   6  21   9 438.233 33.9143   1
  21  -7  10 185.828 20.0854   2
  -7  21  10 154.691 19.1589   2
  21  -7   8 116.428 19.4316   2
  -7  21   8 88.1509 15.1315   2
   7  21  -8 112.303 16.9460   4
  21  -7   6 254.656 23.7856   2
   7  21  -6 239.693 22.0586   4
  21  -7   4 404.799 27.4894   2
 -21   7   4 411.746 44.9320   2
  21   7  -4 440.460 32.7291   1
  21   7  -2 255.488 27.9837   1
 -21   7   2 168.280 38.1551   2
  21  -7   2 226.321 22.0217   2
 -21   7   0 94.8213 36.6071   2
  21   7   0 59.4549 21.9575   1
   7  21   2 227.492 32.4699   2
  21  -7  -2 166.619 19.2593   2
   7  21   4 487.057 45.3013   2
  21  -7  -4 394.959 27.0616   2
  21   7   4 385.622 35.4251   1
  -8  21  11 18.0050 15.9739   2
  21  -8   7 395.623 26.9627   2
  21  -8   5 238.721 21.8141   2
  21   8  -3 152.135 24.0160   1
 -21   8   3 137.668 37.5224   2
  21  -8   3 152.979 18.5694   2
 -21   8   1 228.567 40.0245   2
  21   8  -1 135.056 25.1411   1
 -21   8  -1 143.639 38.6963   2
   8  21   1 178.162 27.7068   2
   8  21   1 150.907 23.8075   1
  21   8   1 227.300 28.7422   1
   8  21   3 128.717 30.0176   2
   8  21   3 125.289 21.6953   1
   8  21   5 227.765 27.1498   1
   8  21   7 337.970 31.7999   1
   8  21   9 36.5178 22.9266   1
 -21   9   2 412.448 46.3921   2
  21  -9   2 538.057 29.5829   2
 -21   9   0 787.491 61.8199   2
   9  21   0 899.748 44.5978   1
  21  -9   0 847.736 39.5754   2
   9  21   2 448.194 32.6285   1
   9  21   4 184.154 33.9400   2
   9  21   6 147.841 25.2532   1
  21 -10   5 690.976 34.2324   2
 -21  10   1 514.342 50.0354   2
 -21  10  -1 486.006 52.8205   2
  10  21   5 753.758 57.7407   2
 -21  11   0 544.968 52.6740   2
  22   0   0 356.589 27.1425   1
  22   0   0 380.833 29.6816   2
  22   0   2 189.657 23.1234   1
  22   0  -2 214.159 20.6073   1
  22   0   4 738.574 43.3883   2
  22   0   6 643.941 42.2778   1
   0  22   6 657.972 30.0063   3
   0  22   8 218.926 18.2395   3
  22   0   8 269.626 31.9127   1
  22   0  10 624.844 48.6271   1
   0  22  10 789.603 35.7365   3
  -1  22  11 47.5518 13.7171   3
  22  -1   9 1255.06 63.4013   1
  -1  22   9 1259.05 48.7489   3
  -1  22   7 441.381 24.6107   3
  22  -1   7 554.285 39.1890   1
   1  22  -5 188.961 17.0215   4
  22  -1   5 189.573 26.0075   1
  22  -1   5 145.859 24.1345   2
  22  -1   3 465.897 33.2987   1
  22  -1   3 499.452 34.9592   2
  22   1  -1 131.096 18.9053   1
  22  -1   1 162.204 21.5246   2
   1  22  -1 158.709 15.7482   4
  22  -1   1 133.737 20.6030   1
  22   1   1 145.749 21.3214   1
  22  -1  -1 191.706 19.9621   1
  22   1   3 536.393 36.0626   1
  22   1   5 189.780 26.2159   1
  22   1   7 513.208 40.3322   1
   1  22   7 515.801 26.4989   3
  22   1   9 1341.57 68.6748   1
   1  22   9 1414.06 52.7853   3
   1  22  11 74.8470 14.7395   3
  22   2 -10 498.738 28.2470   4
  -2  22  10 440.632 26.5780   3
  22  -2   8 54.6236 23.2491   1
   2  22  -8 75.5215 14.5385   4
  22  -2   6 98.4458 20.6683   2
  22  -2   4 496.197 33.4721   1
  22  -2   4 514.604 34.7860   2
  22  -2   2 161.029 21.5413   2
  22  -2   2 109.174 18.7634   1
  22   2  -2 116.035 19.5603   1
  22  -2   0 15.8032 14.8994   2
  22  -2   0-2.44024 13.5291   1
  22  -2  -2 103.839 18.6983   2
  22   2   2 137.834 23.3662   1
  22  -2  -2 103.024 15.7962   1
  22   2   4 550.895 38.1797   1
   2  22   6 121.621 13.7767   3
   2  22   8 71.9441 13.8025   3
   2  22  10 453.028 26.8636   3
  22   3 -11 19.9010 13.8463   4
   3  22 -11 32.6849 13.8562   4
   3  22  -7 153.072 16.5760   4
  22  -3   5 129.487 21.7740   2
   3  22  -5 129.212 16.7739   4
  22  -3   5 124.978 21.9359   1
  22  -3   3 43.4952 17.3848   2
  22   3  -3 80.5846 18.0547   1
  22   3  -1 48.8325 18.7079   1
  22  -3  -1 59.3000 16.4422   2
  22   3   1 27.4246 19.8592   1
  22   3   3 42.9426 19.6568   1
   3  22   5 129.131 14.8083   3
   3  22   7 157.716 15.6778   3
   3  22   9 278.328 21.1920   3
  -3 -22  11 42.2855 28.8757   1
  22   4 -10 280.444 23.3720   4
   4  22 -10 274.750 21.3753   4
   4  22  -8 46.6778 14.9977   4
  22  -4   6 91.8954 20.3984   2
   4  22  -6 130.697 17.7144   4
  22  -4   4 173.315 21.4441   2
   4  22  -4 158.117 17.5423   4
  22   4  -4 163.333 21.4524   1
  22  -4   2 74.6101 18.5705   2
  22   4  -2 77.6759 20.5804   1
  22   4   0 66.6384 21.7054   1
  22   4   4 146.225 27.2276   1
   4  22   6 108.577 14.9762   3
   4  22   8 72.1679 13.4158   3
   4  22  10 309.234 23.7842   3
  -4 -22  10 241.068 35.9518   1
  22  -5   9 374.277 29.6625   2
   5  22  -7 410.936 26.2975   4
  22  -5   5 122.569 20.5607   2
   5  22  -5 112.275 17.1518   4
  22  -5   3 121.023 19.1692   2
  22   5  -3 138.698 22.0459   1
  22  -5   1 135.224 19.6063   2
  22   5  -1 150.514 22.9477   1
  22   5   1 141.883 24.4482   1
   5  22   3 121.970 18.5950   1
  22   5   3 95.3292 24.6637   1
   5  22   5 152.623 15.7120   3
  22   5   5 90.3371 26.0965   1
   5  22   5 127.484 20.6655   1
   5  22   7 409.061 25.4519   3
   5  22   9 421.562 26.6666   3
  22  -6   8 21.2546 14.8488   2
  22  -6   6 222.730 22.4537   2
  22  -6   2 9.91051 13.7796   2
  22   6   0 60.5031 20.9755   1
  22  -6   0 41.4305 15.3126   2
  22   6   2 7.88391 20.2449   1
   6  22   4 163.734 22.0979   1
   6  22   6 215.288 24.9144   1
   6  22   8 20.9721 12.2587   3
  22  -7   5 68.6546 16.6496   2
  22  -7   1 20.1438 14.9995   2
   7  22   3 51.4996 18.2412   1
   7  22   5 63.2829 20.0424   1
   7  22   5 52.4397 32.4869   2
   7  22   7 280.898 28.4471   1
  22  -8   6 60.7051 15.9683   2
  22  -8   2 214.036 20.5807   2
   8  22   4 40.6777 18.8468   1
   8  22   6 61.8173 20.6485   1
  22  -9   5 442.788 27.8011   2
  23   0   1 19.5166 16.5368   1
  23   0  -1 9.45002 14.5107   1
  23   0   3 430.778 33.0819   1
  23   0   7 81.2285 25.0587   1
  23   1  -2 288.014 24.1883   1
  23   1   0 22.6869 16.7236   1
  23   1   2 310.540 28.3362   1
  23   1   4 655.415 41.7273   1
  23   1   6 30.5906 22.7784   1
  23   1   8 119.810 28.4988   1
  23   2  -3 47.2023 16.7843   1
  23   2  -1 344.971 28.6413   1
  23   2   1 354.676 29.8064   1
  23   2   3 49.3946 19.7005   1
  23   2   5 325.268 33.5896   1
  23   2   7 360.293 36.0993   1
  23   3  -2 332.955 27.8475   1
  23   3   4 578.720 40.4300   1
  23   4  -3 6.17739 16.7142   1
  23   4  -1 146.325 22.7517   1
  23   4   1 99.3758 22.2474   1
   5  23  -6 61.8750 15.5398   4
  24   2   0 1069.99 51.3621   1
  24   2   2 307.685 30.1589   1
   0   0   0    0.00    0.00   0

TITL 20160809e4-1 in I-42m
REM I-42m (#121 in standard setting)
CELL 0.71073  17.252874  17.252874  20.679515  90.0000  90.0000  90.0000
ZERR    4.00   0.000349   0.000349   0.000682   0.0000   0.0000   0.0000
LATT -2
SYMM -x,-y, z
SYMM  y,-x,-z
SYMM -y, x,-z
SYMM -x, y,-z
SYMM  x,-y,-z
SYMM -y,-x, z
SYMM  y, x, z
SFAC C H N O S Ag
UNIT 320.00 416.00 32.00 32.00 32.00 48.00
TREF
HKLF 4
END
;
_shelx_hkl_checksum              53474
loop_
_space_group_symop_operation_xyz
'x, y, z'
'y, -x, -z'
'-x, -y, z'
'-y, x, -z'
'x, -y, -z'
'-x, y, -z'
'-y, -x, z'
'y, x, z'
'x+1/2, y+1/2, z+1/2'
'y+1/2, -x+1/2, -z+1/2'
'-x+1/2, -y+1/2, z+1/2'
'-y+1/2, x+1/2, -z+1/2'
'x+1/2, -y+1/2, -z+1/2'
'-x+1/2, y+1/2, -z+1/2'
'-y+1/2, -x+1/2, z+1/2'
'y+1/2, x+1/2, z+1/2'
loop_
_atom_site_label
_atom_site_type_symbol
_atom_site_fract_x
_atom_site_fract_y
_atom_site_fract_z
_atom_site_U_iso_or_equiv
_atom_site_adp_type
_atom_site_occupancy
_atom_site_site_symmetry_order
_atom_site_calc_flag
_atom_site_refinement_flags_posn
_atom_site_refinement_flags_adp
_atom_site_refinement_flags_occupancy
_atom_site_disorder_assembly
_atom_site_disorder_group
Ag1 Ag 0.5000 0.5000 0.79631(8) 0.0221(3) Uani 1 4 d S T P . .
Ag2 Ag 0.34015(4) 0.47093(5) 0.83461(5) 0.0313(3) Uani 1 1 d . . . . .
Ag3 Ag 0.41618(14) 0.5000 1.0000 0.0364(6) Uani 0.5 2 d S T P . .
S1 S 0.40025(14) 0.59975(14) 0.8006(2) 0.0268(8) Uani 1 2 d S T P . .
C1 C 0.3761(7) 0.6239(7) 0.7157(8) 0.037(4) Uani 1 2 d S T P . .
C2 C 0.4246(9) 0.5754(9) 0.6709(13) 0.056(5) Uani 1 2 d S T P . .
H2A H 0.4703 0.6050 0.6574 0.084 Uiso 0.5 1 calc GR . . A -1
H2B H 0.3939 0.5613 0.6328 0.084 Uiso 0.5 1 calc GR . . A -1
H2C H 0.4412 0.5282 0.6934 0.084 Uiso 0.5 1 calc GR . . A -1
C3 C 0.2883(10) 0.6067(12) 0.7070(8) 0.063(5) Uani 1 1 d . . . . .
H3A H 0.2581 0.6408 0.7353 0.095 Uiso 1 1 calc GR . . . .
H3B H 0.2779 0.5525 0.7183 0.095 Uiso 1 1 calc GR . . . .
H3C H 0.2735 0.6159 0.6619 0.095 Uiso 1 1 calc GR . . . .
S2 S 0.39825(19) 0.39825(19) 0.9282(2) 0.0379(10) Uani 1 2 d S T P B .
C4 C 0.3297(8) 0.3297(8) 0.9690(8) 0.044(4) Uani 1 2 d DS TU P . .
C5 C 0.2964(19) 0.3692(19) 1.0255(13) 0.056(8) Uani 0.5 1 d D U . B -1
H5A H 0.2825 0.4224 1.0137 0.085 Uiso 0.5 1 calc GR . . B -1
H5B H 0.3345 0.3701 1.0606 0.085 Uiso 0.5 1 calc GR . . B -1
H5C H 0.2499 0.3414 1.0398 0.085 Uiso 0.5 1 calc GR . . B -1
C6 C 0.3786(19) 0.2631(16) 0.9897(17) 0.059(8) Uani 0.5 1 d D U . B -1
H6A H 0.4224 0.2822 1.0153 0.089 Uiso 0.5 1 calc GR . . B -1
H6B H 0.3982 0.2359 0.9514 0.089 Uiso 0.5 1 calc GR . . B -1
H6C H 0.3476 0.2274 1.0158 0.089 Uiso 0.5 1 calc GR . . B -1
C7 C 0.2872(9) 0.2872(9) 0.9181(11) 0.068(6) Uani 1 2 d DS TU P B .
H7A H 0.2513 0.2503 0.9382 0.102 Uiso 0.5 1 calc GRS T P C -1
H7B H 0.3241 0.2591 0.8908 0.102 Uiso 0.5 1 calc GR . . C -1
H7C H 0.2579 0.3240 0.8915 0.102 Uiso 0.5 1 calc GR . . C -1
O1 O 0.3069(7) 0.3978(8) 0.7365(6) 0.071(4) Uani 1 1 d . U . . .
C8 C 0.3423(7) 0.3423(7) 0.7158(8) 0.028(3) Uani 1 2 d S T P . .
C9 C 0.3056(8) 0.3056(8) 0.6572(9) 0.056(6) Uani 1 2 d DS T P . .
F1 F 0.2522(7) 0.2522(7) 0.6717(11) 0.130(8) Uani 1 2 d DS TU P . .
F2 F 0.2616(10) 0.3506(8) 0.6210(7) 0.124(6) Uani 1 1 d D U . . .
N1 N 0.2054(5) 0.4850(5) 0.8321(6) 0.035(2) Uani 1 1 d . . . . .
C10 C 0.1597(7) 0.4239(7) 0.8163(6) 0.033(3) Uani 1 1 d . . . . .
H10 H 0.1838 0.3760 0.8059 0.040 Uiso 1 1 calc R . . . .
C11 C 0.0812(7) 0.4280(7) 0.8147(6) 0.033(3) Uani 1 1 d . . . . .
H11 H 0.0517 0.3842 0.8016 0.040 Uiso 1 1 calc R . . . .
C12 C 0.0434(5) 0.4974(7) 0.8324(6) 0.028(2) Uani 1 1 d . . . . .
C13 C 0.0907(7) 0.5610(7) 0.8481(6) 0.034(3) Uani 1 1 d . . . . .
H13 H 0.0686 0.6100 0.8578 0.040 Uiso 1 1 calc R . . . .
C14 C 0.1693(7) 0.5507(7) 0.8490(6) 0.033(3) Uani 1 1 d . . . . .
H14 H 0.2004 0.5932 0.8625 0.039 Uiso 1 1 calc R . . . .
C15 C 0.0477(15) 0.428(2) 0.995(3) 0.10(3) Uiso 0.25 1 d D . . D -1
C16 C -0.0220(18) 0.4672(18) 1.002(3) 0.044(12) Uiso 0.25 1 d DG . . D -1
H16 H -0.0226 0.5222 1.0013 0.053 Uiso 0.25 1 calc R . . D -1
C17 C -0.0908(15) 0.426(2) 1.009(2) 0.050(14) Uiso 0.25 1 d G . . D -1
H17 H -0.1384 0.4533 1.0140 0.060 Uiso 0.25 1 calc R . . D -1
C18 C -0.0899(19) 0.346(2) 1.010(3) 0.09(3) Uiso 0.25 1 d DG . . D -1
H18 H -0.1369 0.3177 1.0151 0.112 Uiso 0.25 1 calc R . . D -1
C19 C -0.020(2) 0.3061(18) 1.003(4) 0.09(2) Uiso 0.25 1 d DG . . D -1
C20 C 0.0485(19) 0.347(2) 0.995(4) 0.10(3) Uiso 0.25 1 d DG . . D -1
H20 H 0.0961 0.3199 0.9907 0.124 Uiso 0.25 1 calc R . . D -1
C21 C 0.122(2) 0.471(3) 0.989(5) 0.150 Uiso 0.25 1 d D . . D -1
H21A H 0.1245 0.5051 1.0263 0.225 Uiso 0.25 1 d R . . D -1
H21B H 0.1695 0.4433 0.9853 0.225 Uiso 0.25 1 d R . . D -1
H21C H 0.1134 0.5020 0.9512 0.225 Uiso 0.25 1 d R . . D -1
C22 C -0.019(4) 0.220(2) 1.003(6) 0.12(4) Uiso 0.25 1 d D . . D -1
H22A H -0.0665 0.1926 1.0133 0.177 Uiso 0.25 1 d R . . D -1
H22B H -0.0023 0.2056 0.9608 0.177 Uiso 0.25 1 d R . . D -1
H22C H 0.0200 0.2059 1.0341 0.177 Uiso 0.25 1 d R . . D -1
loop_
_atom_site_aniso_label
_atom_site_aniso_U_11
_atom_site_aniso_U_22
_atom_site_aniso_U_33
_atom_site_aniso_U_23
_atom_site_aniso_U_13
_atom_site_aniso_U_12
Ag1 0.0128(4) 0.0128(4) 0.0407(8) 0.000 0.000 0.0018(6)
Ag2 0.0138(4) 0.0284(4) 0.0516(5) -0.0065(4) -0.0003(4) -0.0025(3)
Ag3 0.0211(10) 0.0418(14) 0.0464(14) -0.0213(13) 0.000 0.000
S1 0.0199(11) 0.0199(11) 0.041(2) 0.0033(11) -0.0033(11) 0.0103(14)
C1 0.039(6) 0.039(6) 0.032(8) 0.007(5) -0.007(5) 0.016(8)
C2 0.050(7) 0.050(7) 0.069(14) -0.002(9) 0.002(9) 0.005(9)
C3 0.051(10) 0.091(13) 0.047(8) 0.013(9) -0.018(7) 0.018(9)
S2 0.0439(16) 0.0439(16) 0.0260(19) -0.0080(12) -0.0080(12) -0.011(2)
C4 0.048(5) 0.048(5) 0.036(6) 0.003(4) 0.003(4) -0.014(6)
C5 0.060(13) 0.071(13) 0.037(11) -0.008(10) 0.011(10) -0.018(11)
C6 0.069(13) 0.061(13) 0.048(12) -0.012(11) 0.007(11) 0.002(11)
C7 0.070(8) 0.070(8) 0.063(11) -0.002(6) -0.002(6) -0.036(9)
O1 0.059(7) 0.086(8) 0.067(7) -0.036(6) -0.017(6) 0.009(6)
C8 0.022(5) 0.022(5) 0.039(8) -0.006(5) -0.006(5) -0.001(7)
C9 0.047(7) 0.047(7) 0.073(15) -0.018(9) -0.018(9) 0.009(10)
F1 0.127(9) 0.127(9) 0.135(15) -0.042(9) -0.042(9) -0.043(12)
F2 0.169(13) 0.108(10) 0.095(9) -0.013(8) -0.087(9) 0.033(9)
N1 0.023(4) 0.028(5) 0.055(6) 0.006(5) -0.009(5) -0.003(4)
C10 0.025(6) 0.023(6) 0.053(8) -0.002(5) 0.002(5) -0.003(5)
C11 0.022(5) 0.022(6) 0.055(8) -0.002(5) -0.005(5) -0.005(4)
C12 0.018(5) 0.028(5) 0.039(5) 0.005(6) -0.004(5) 0.000(4)
C13 0.026(6) 0.025(6) 0.050(8) -0.006(5) -0.006(5) -0.004(4)
C14 0.024(6) 0.029(6) 0.045(7) -0.010(5) -0.003(5) -0.002(4)
loop_
_atom_type_symbol
_atom_type_description
_atom_type_scat_dispersion_real
_atom_type_scat_dispersion_imag
_atom_type_scat_source
C C 0.0033 0.0016 'International Tables Vol C Tables 4.2.6.8 and 6.1.1.4'
H H 0.0000 0.0000 'International Tables Vol C Tables 4.2.6.8 and 6.1.1.4'
Ag Ag -0.8971 1.1015 'International Tables Vol C Tables 4.2.6.8 and 6.1.1.4'
F F 0.0171 0.0103 'International Tables Vol C Tables 4.2.6.8 and 6.1.1.4'
N N 0.0061 0.0033 'International Tables Vol C Tables 4.2.6.8 and 6.1.1.4'
O O 0.0106 0.0060 'International Tables Vol C Tables 4.2.6.8 and 6.1.1.4'
S S 0.1246 0.1234 'International Tables Vol C Tables 4.2.6.8 and 6.1.1.4'
loop_
_geom_angle_atom_site_label_1
_geom_angle_atom_site_label_2
_geom_angle_atom_site_label_3
_geom_angle
_geom_angle_site_symmetry_1
_geom_angle_site_symmetry_3
Ag2 Ag1 Ag2 148.45(7) . 3_665
Ag2 Ag1 Ag2 66.43(4) . 8
Ag2 Ag1 Ag2 104.60(4) 3_665 8
Ag2 Ag1 Ag2 66.43(4) 3_665 7_665
Ag2 Ag1 Ag2 104.60(4) . 7_665
Ag2 Ag1 Ag2 148.45(7) 7_665 8
S1 Ag1 Ag2 56.12(4) 3_665 3_665
S1 Ag1 Ag2 56.12(4) . 7_665
S1 Ag1 Ag2 122.51(4) . 3_665
S1 Ag1 Ag2 122.51(4) 3_665 .
S1 Ag1 Ag2 122.51(4) 3_665 7_665
S1 Ag1 Ag2 56.12(4) 3_665 8
S1 Ag1 Ag2 56.12(4) . .
S1 Ag1 Ag2 122.51(4) . 8
S1 Ag1 S1 175.8(2) 3_665 .
Ag1 Ag2 Ag2 56.786(17) . 8
S1 Ag2 Ag1 52.43(8) . .
S1 Ag2 Ag2 109.18(8) . 8
S2 Ag2 Ag1 85.28(10) . .
S2 Ag2 Ag2 50.62(6) . 8
S2 Ag2 S1 118.97(13) . .
O1 Ag2 Ag1 94.8(3) . .
O1 Ag2 Ag2 78.6(3) . 8
O1 Ag2 S1 108.3(4) . .
O1 Ag2 S2 118.2(3) . .
N1 Ag2 Ag1 156.6(3) . .
N1 Ag2 Ag2 141.0(2) . 8
N1 Ag2 S1 107.9(2) . .
N1 Ag2 S2 117.7(3) . .
N1 Ag2 O1 78.7(4) . .
Ag3 Ag3 Ag3 90.001(1) 2_567 4_657
Ag3 Ag3 Ag3 45.0 4_657 3_665
Ag3 Ag3 Ag3 45.0 2_567 3_665
Ag3 Ag3 S2 129.00(12) 2_567 .
Ag3 Ag3 S2 63.85(7) 2_567 2_567
Ag3 Ag3 S2 129.01(12) 4_657 2_567
Ag3 Ag3 S2 63.84(7) 4_657 .
S2 Ag3 Ag3 97.66(9) . 3_665
S2 Ag3 Ag3 97.66(9) 2_567 3_665
S2 Ag3 S2 164.67(19) . 2_567
Ag1 S1 Ag2 71.44(8) . .
Ag1 S1 Ag2 71.44(8) . 7_665
Ag2 S1 Ag2 129.23(15) 7_665 .
C1 S1 Ag1 106.4(6) . .
C1 S1 Ag2 111.44(17) . 7_665
C1 S1 Ag2 111.45(17) . .
C2 C1 S1 109.5(14) . .
C2 C1 C3 111.4(12) . 7_665
C2 C1 C3 111.4(12) . .
C3 C1 S1 106.6(10) 7_665 .
C3 C1 S1 106.6(10) . .
C3 C1 C3 111.0(18) . 7_665
C1 C2 H2A 109.5 . .
C1 C2 H2B 109.5 . .
C1 C2 H2C 109.5 . .
H2A C2 H2B 109.5 . .
H2A C2 H2C 109.5 . .
H2B C2 H2C 109.5 . .
C1 C3 H3A 109.5 . .
C1 C3 H3B 109.5 . .
C1 C3 H3C 109.5 . .
H3A C3 H3B 109.5 . .
H3A C3 H3C 109.5 . .
H3B C3 H3C 109.5 . .
Ag2 S2 Ag2 78.77(13) . 8
Ag3 S2 Ag2 99.69(10) . .
Ag3 S2 Ag2 136.7(2) . 8
Ag3 S2 Ag2 136.7(2) 4_657 .
Ag3 S2 Ag2 99.69(10) 4_657 8
Ag3 S2 Ag3 52.31(13) 4_657 .
C4 S2 Ag2 114.2(4) . 8
C4 S2 Ag2 114.2(4) . .
C4 S2 Ag3 105.9(5) . .
C4 S2 Ag3 105.9(5) . 4_657
C5 C4 S2 108.2(16) . .
C5 C4 C6 111(2) . .
C5 C4 C7 127.1(18) . .
C6 C4 S2 104.9(16) . .
C7 C4 S2 107.8(13) . .
C7 C4 C6 95.9(16) . .
C4 C5 H5A 109.5 . .
C4 C5 H5B 109.5 . .
C4 C5 H5C 109.5 . .
H5A C5 H5B 109.5 . .
H5A C5 H5C 109.5 . .
H5B C5 H5C 109.5 . .
C4 C6 H6A 109.5 . .
C4 C6 H6B 109.5 . .
C4 C6 H6C 109.5 . .
H6A C6 H6B 109.5 . .
H6A C6 H6C 109.5 . .
H6B C6 H6C 109.5 . .
C4 C7 H7A 109.5 . .
C4 C7 H7B 109.5 . .
C4 C7 H7C 109.5 . .
H7A C7 H7B 109.5 . .
H7A C7 H7C 109.5 . .
H7B C7 H7C 109.5 . .
C8 O1 Ag2 125.4(10) . .
O1 C8 O1 132.1(17) 8 .
O1 C8 C9 113.8(9) . .
O1 C8 C9 113.8(9) 8 .
F1 C9 C8 113.6(16) . .
F2 C9 C8 116.8(11) . .
F2 C9 C8 116.8(11) 8 .
F2 C9 F1 97.9(14) 8 .
F2 C9 F1 97.9(14) . .
F2 C9 F2 111(2) 8 .
C10 N1 Ag2 120.2(8) . .
C14 N1 Ag2 123.0(7) . .
C14 N1 C10 116.7(10) . .
N1 C10 H10 118.4 . .
N1 C10 C11 123.1(11) . .
C11 C10 H10 118.4 . .
C10 C11 H11 120.1 . .
C10 C11 C12 119.9(11) . .
C12 C11 H11 120.1 . .
C11 C12 C12 120.7(12) . 3_565
C13 C12 C11 117.0(9) . .
C13 C12 C12 122.3(12) . 3_565
C12 C13 H13 120.7 . .
C14 C13 C12 118.6(11) . .
C14 C13 H13 120.7 . .
N1 C14 C13 124.5(11) . .
N1 C14 H14 117.7 . .
C13 C14 H14 117.7 . .
C16 C15 C20 120.0 . .
C16 C15 C21 119.9(6) . .
C20 C15 C21 120.0(6) . .
C15 C16 H16 120.0 . .
C15 C16 C17 120.0 . .
C17 C16 H16 120.0 . .
C16 C17 H17 120.0 . .
C16 C17 C18 120.0 . .
C18 C17 H17 120.0 . .
C17 C18 H18 120.0 . .
C17 C18 C19 120.0 . .
C19 C18 H18 120.0 . .
C18 C19 C22 120.1(6) . .
C20 C19 C18 120.0 . .
C20 C19 C22 119.9(6) . .
C15 C20 H20 120.0 . .
C19 C20 C15 120.0 . .
C19 C20 H20 120.0 . .
C15 C21 H21A 106.8 . .
C15 C21 H21B 119.0 . .
C15 C21 H21C 102.2 . .
H21A C21 H21B 109.5 . .
H21A C21 H21C 109.3 . .
H21B C21 H21C 109.5 . .
C19 C22 H22A 118.5 . .
C19 C22 H22B 104.7 . .
C19 C22 H22C 104.9 . .
H22A C22 H22B 109.4 . .
H22A C22 H22C 109.6 . .
H22B C22 H22C 109.3 . .
loop_
_geom_bond_atom_site_label_1
_geom_bond_atom_site_label_2
_geom_bond_distance
_geom_bond_site_symmetry_2
Ag1 Ag2 2.9129(9) .
Ag1 Ag2 2.9129(9) 8
Ag1 Ag2 2.9129(9) 7_665
Ag1 Ag2 2.9129(9) 3_665
Ag1 S1 2.436(3) .
Ag1 S1 2.435(3) 3_665
Ag2 Ag2 3.1912(16) 8
Ag2 S1 2.5511(18) .
Ag2 S2 2.515(3) .
Ag2 O1 2.458(11) .
Ag2 N1 2.337(9) .
Ag3 Ag3 2.045(3) 4_657
Ag3 Ag3 2.892(5) 3_665
Ag3 Ag3 2.045(3) 2_567
Ag3 S2 2.320(4) 2_567
Ag3 S2 2.320(4) .
S1 Ag2 2.5511(18) 7_665
S1 C1 1.852(17) .
C1 C2 1.50(3) .
C1 C3 1.554(19) .
C1 C3 1.554(19) 7_665
C2 H2A 0.9800 .
C2 H2B 0.9800 .
C2 H2C 0.9800 .
C3 H3A 0.9800 .
C3 H3B 0.9800 .
C3 H3C 0.9800 .
S2 Ag2 2.515(3) 8
S2 Ag3 2.320(4) 4_657
S2 C4 1.87(2) .
C4 C5 1.469(18) .
C4 C6 1.488(19) .
C4 C7 1.478(18) .
C5 H5A 0.9800 .
C5 H5B 0.9800 .
C5 H5C 0.9800 .
C6 H6A 0.9800 .
C6 H6B 0.9800 .
C6 H6C 0.9800 .
C7 H7A 0.9800 .
C7 H7B 0.9800 .
C7 H7C 0.9800 .
O1 C8 1.213(13) .
C8 O1 1.213(13) 8
C8 C9 1.51(2) .
C9 F1 1.336(10) .
C9 F2 1.319(9) .
C9 F2 1.319(9) 8
N1 C10 1.356(15) .
N1 C14 1.341(15) .
C10 H10 0.9500 .
C10 C11 1.358(17) .
C11 H11 0.9500 .
C11 C12 1.413(17) .
C12 C12 1.499(18) 3_565
C12 C13 1.405(16) .
C13 H13 0.9500 .
C13 C14 1.367(17) .
C14 H14 0.9500 .
C15 C16 1.3900 .
C15 C20 1.3900 .
C15 C21 1.49(2) .
C16 H16 0.9500 .
C16 C17 1.3900 .
C17 H17 0.9500 .
C17 C18 1.3900 .
C18 H18 0.9500 .
C18 C19 1.3900 .
C19 C20 1.3900 .
C19 C22 1.49(2) .
C20 H20 0.9500 .
C21 H21A 0.9591 .
C21 H21B 0.9607 .
C21 H21C 0.9591 .
C22 H22A 0.9613 .
C22 H22B 0.9586 .
C22 H22C 0.9596 .
loop_
_geom_torsion_atom_site_label_1
_geom_torsion_atom_site_label_2
_geom_torsion_atom_site_label_3
_geom_torsion_atom_site_label_4
_geom_torsion
_geom_torsion_site_symmetry_1
_geom_torsion_site_symmetry_2
_geom_torsion_site_symmetry_3
_geom_torsion_site_symmetry_4
Ag1 S1 C1 C2 0.000(6) . . . .
Ag1 S1 C1 C3 -120.6(11) . . . 7_665
Ag1 S1 C1 C3 120.6(11) . . . .
Ag2 S1 C1 C2 -76.1(3) . . . .
Ag2 S1 C1 C2 76.1(2) 7_665 . . .
Ag2 S1 C1 C3 -163.3(9) 7_665 . . .
Ag2 S1 C1 C3 163.3(9) . . . 7_665
Ag2 S1 C1 C3 -44.6(12) 7_665 . . 7_665
Ag2 S1 C1 C3 44.6(12) . . . .
Ag2 S2 C4 C5 175.5(16) 8 . . .
Ag2 S2 C4 C5 -96.4(17) . . . .
Ag2 S2 C4 C6 57.3(16) 8 . . .
Ag2 S2 C4 C6 145.5(15) . . . .
Ag2 S2 C4 C7 44.08(19) . . . .
Ag2 S2 C4 C7 -44.08(19) 8 . . .
Ag2 O1 C8 O1 3(3) . . . 8
Ag2 O1 C8 C9 176.0(11) . . . .
Ag2 N1 C10 C11 179.2(10) . . . .
Ag2 N1 C14 C13 180.0(10) . . . .
Ag3 S2 C4 C5 66.8(16) 4_657 . . .
Ag3 S2 C4 C5 12.3(16) . . . .
Ag3 S2 C4 C6 -105.9(16) . . . .
Ag3 S2 C4 C6 -51.3(16) 4_657 . . .
Ag3 S2 C4 C7 -152.72(10) 4_657 . . .
Ag3 S2 C4 C7 152.72(10) . . . .
O1 C8 C9 F1 87.1(14) 8 . . .
O1 C8 C9 F1 -87.1(14) . . . .
O1 C8 C9 F2 -160.2(17) 8 . . .
O1 C8 C9 F2 26(2) . . . .
O1 C8 C9 F2 -26(2) 8 . . 8
O1 C8 C9 F2 160.2(17) . . . 8
N1 C10 C11 C12 -3(2) . . . .
C10 N1 C14 C13 -3(2) . . . .
C10 C11 C12 C12 -178.6(9) . . . 3_565
C10 C11 C12 C13 3.2(19) . . . .
C11 C12 C13 C14 -3.9(19) . . . .
C12 C12 C13 C14 177.9(9) 3_565 . . .
C12 C13 C14 N1 4(2) . . . .
C14 N1 C10 C11 2.6(19) . . . .
C15 C16 C17 C18 0.0 . . . .
C16 C15 C20 C19 0.0 . . . .
C16 C17 C18 C19 0.0 . . . .
C17 C18 C19 C20 0.0 . . . .
C17 C18 C19 C22 -180(4) . . . .
C18 C19 C20 C15 0.0 . . . .
C20 C15 C16 C17 0.0 . . . .
C21 C15 C16 C17 -177(4) . . . .
C21 C15 C20 C19 177(4) . . . .
C22 C19 C20 C15 180(4) . . . .
