#------------------------------------------------------------------------------
#$Date: 2019-06-14 11:52:00 +0300 (Fri, 14 Jun 2019) $
#$Revision: 215962 $
#$URL: file:///home/coder/svn-repositories/cod/cif/1/55/14/1551424.cif $
#------------------------------------------------------------------------------
#
# This file is available in the Crystallography Open Database (COD),
# http://www.crystallography.net/
#
# All data on this site have been placed in the public domain by the
# contributors.
#
data_1551424
loop_
_publ_author_name
'Ren-Wu Huang'
'Yong-Sheng Wei'
'Xi-Yan Dong'
'Xiao-Hui Wu'
'Chen-Xia Du'
'Shuang-Quan Zang'
'Thomas C. W. Mak'
_publ_section_title
;
 Hypersensitive dual-function luminescence switching of a
 silver-chalcogenolate cluster-based metal-organic framework
;
_journal_name_full               'Nature Chemistry'
_journal_page_first              689
_journal_page_last               697
_journal_paper_doi               10.1038/nchem.2718
_journal_volume                  9
_journal_year                    2017
_chemical_absolute_configuration ad
_chemical_formula_moiety         'C80 H104 Ag12 F12 N8 O8 S8, 4(C2 H6 O)'
_chemical_formula_sum            'C88 H128 Ag12 F12 N8 O12 S8'
_chemical_formula_weight         3268.90
_space_group_crystal_system      tetragonal
_space_group_IT_number           121
_space_group_name_Hall           'I -4 2'
_space_group_name_H-M_alt        'I -4 2 m'
_atom_sites_solution_hydrogens   mixed
_atom_sites_solution_primary     direct
_cell_angle_alpha                90
_cell_angle_beta                 90
_cell_angle_gamma                90
_cell_formula_units_Z            2
_cell_length_a                   17.2793(3)
_cell_length_b                   17.2793(3)
_cell_length_c                   19.8246(6)
_cell_measurement_reflns_used    5327
_cell_measurement_temperature    100.01(10)
_cell_measurement_theta_max      72.2850
_cell_measurement_theta_min      3.6260
_cell_volume                     5919.1(2)
_computing_cell_refinement       'CrysAlisPro 1.171.39.7b (Rigaku OD, 2015)'
_computing_data_collection       'CrysAlisPro 1.171.39.7b (Rigaku OD, 2015)'
_computing_data_reduction        'CrysAlisPro 1.171.39.7b (Rigaku OD, 2015)'
_computing_molecular_graphics    'Olex2 (Dolomanov et al., 2009)'
_computing_publication_material  'Olex2 (Dolomanov et al., 2009)'
_computing_structure_refinement  'ShelXL (Sheldrick, 2015)'
_computing_structure_solution    'ShelXS (Sheldrick, 2008)'
_diffrn_ambient_environment      N~2~
_diffrn_ambient_temperature      100.01(10)
_diffrn_detector                 'CCD plate'
_diffrn_measured_fraction_theta_full 0.998
_diffrn_measured_fraction_theta_max 0.988
_diffrn_measurement_details
;
List of Runs (angles in degrees, time in seconds):

  # Type    Start    End  Width  t~exp~   \w     \q     \k     \f   Frames
--------------------------------------------------------------------------
  1  \w    -43.00  26.00   0.50    0.80    --   45.50 -77.00  30.00  138
  2  \w     51.00  78.00   0.50    3.00    --  100.10 -82.00   0.00   54
  3  \w    105.00 144.00   0.50    3.00    --  100.10 -82.00   0.00   78
  4  \w     80.00 114.00   0.50    0.80    --   45.50  77.00 120.00   68
  5  \w     89.00 117.00   0.50    0.80    --   45.50  82.00   0.00   56
  6  \w     89.00 189.00   0.50    3.00    --  100.10  82.00-150.00  200
  7  \w    150.00 183.00   0.50    3.00    --  100.10  82.00 -60.00   66
  8  \w     94.00 188.00   0.50    3.00    --  100.10  82.00  30.00  188
  9  \w     88.00 151.00   0.50    3.00    --  100.10  82.00 -90.00  126
;
_diffrn_measurement_device       'four-circle diffractometer'
_diffrn_measurement_device_type  'XtaLAB Pro: Kappa single'
_diffrn_measurement_method       '\w scans'
_diffrn_orient_matrix_type
'CrysAlisPro convention (1999,Acta A55,543-557)'
_diffrn_orient_matrix_UB_11      -0.0056406000
_diffrn_orient_matrix_UB_12      0.0793478000
_diffrn_orient_matrix_UB_13      0.0350015000
_diffrn_orient_matrix_UB_21      -0.0496351000
_diffrn_orient_matrix_UB_22      0.0305954000
_diffrn_orient_matrix_UB_23      -0.0587430000
_diffrn_orient_matrix_UB_31      -0.0739885000
_diffrn_orient_matrix_UB_32      -0.0265347000
_diffrn_orient_matrix_UB_33      0.0368270000
_diffrn_radiation_monochromator  graphite
_diffrn_radiation_probe          x-ray
_diffrn_radiation_type           CuK\a
_diffrn_radiation_wavelength     1.54184
_diffrn_reflns_av_R_equivalents  0.0441
_diffrn_reflns_av_unetI/netI     0.0497
_diffrn_reflns_Laue_measured_fraction_full 0.998
_diffrn_reflns_Laue_measured_fraction_max 0.988
_diffrn_reflns_limit_h_max       18
_diffrn_reflns_limit_h_min       -21
_diffrn_reflns_limit_k_max       20
_diffrn_reflns_limit_k_min       -20
_diffrn_reflns_limit_l_max       23
_diffrn_reflns_limit_l_min       -24
_diffrn_reflns_number            9046
_diffrn_reflns_point_group_measured_fraction_full 0.979
_diffrn_reflns_point_group_measured_fraction_max 0.955
_diffrn_reflns_theta_full        66.750
_diffrn_reflns_theta_max         72.648
_diffrn_reflns_theta_min         3.393
_diffrn_source                   MM007HF-DW
_diffrn_source_type              'Microfocus Rotating Anode X-ray Source'
_exptl_absorpt_coefficient_mu    17.474
_exptl_absorpt_correction_T_max  0.441
_exptl_absorpt_correction_T_min  0.164
_exptl_absorpt_correction_type   analytical
_exptl_absorpt_process_details
;
CrysAlisPro 1.171.39.7b (Rigaku Oxford Diffraction, 2015)
Analytical numeric absorption correction using a multifaceted crystal
			model based on expressions derived by R.C. Clark & J.S. Reid.
(Clark, R. C. & Reid, J. S. (1995). Acta Cryst. A51, 887-897)
Empirical absorption correction using spherical harmonics,
 implemented in SCALE3 ABSPACK scaling algorithm.
;
_exptl_crystal_colour            colourless
_exptl_crystal_colour_primary    colourless
_exptl_crystal_density_diffrn    1.834
_exptl_crystal_description       block
_exptl_crystal_F_000             3216
_exptl_crystal_size_max          0.139
_exptl_crystal_size_mid          0.114
_exptl_crystal_size_min          0.075
_refine_diff_density_max         1.015
_refine_diff_density_min         -1.099
_refine_diff_density_rms         0.117
_refine_ls_abs_structure_details
;
 Flack x determined using 1163 quotients [(I+)-(I-)]/[(I+)+(I-)]
 (Parsons, Flack and Wagner, Acta Cryst. B69 (2013) 249-259).
;
_refine_ls_abs_structure_Flack   -0.003(13)
_refine_ls_extinction_coef       .
_refine_ls_extinction_method     none
_refine_ls_goodness_of_fit_ref   1.036
_refine_ls_hydrogen_treatment    constr
_refine_ls_matrix_type           full
_refine_ls_number_parameters     221
_refine_ls_number_reflns         2959
_refine_ls_number_restraints     48
_refine_ls_restrained_S_all      1.058
_refine_ls_R_factor_all          0.0419
_refine_ls_R_factor_gt           0.0403
_refine_ls_shift/su_max          0.001
_refine_ls_shift/su_mean         0.000
_refine_ls_structure_factor_coef Fsqd
_refine_ls_weighting_details
'w=1/[\s^2^(Fo^2^)+(0.0476P)^2^+34.4922P] where P=(Fo^2^+2Fc^2^)/3'
_refine_ls_weighting_scheme      calc
_refine_ls_wR_factor_gt          0.1038
_refine_ls_wR_factor_ref         0.1052
_reflns_Friedel_coverage         0.757
_reflns_Friedel_fraction_full    0.956
_reflns_Friedel_fraction_max     0.915
_reflns_number_gt                2832
_reflns_number_total             2959
_reflns_threshold_expression     'I > 2\s(I)'
_cod_data_source_file            nchem.2718-s11.cif
_cod_data_source_block           ag12bpy_etoh
_cod_original_cell_volume        5919.2(3)
_cod_database_code               1551424
_chemical_oxdiff_formula         'C80 H104 O8 N8 S8 F12 Ag12'
_chemical_oxdiff_usercomment     st
_shelx_space_group_comment
;
The symmetry employed for this shelxl refinement is uniquely defined
by the following loop, which should always be used as a source of
symmetry information in preference to the above space-group names.
They are only intended as comments.
;
_reflns_odcompleteness_completeness 100.00
_reflns_odcompleteness_iscentric 1
_reflns_odcompleteness_theta     66.97
_olex2_refinement_description
;
1. Fixed Uiso
 At 1.2 times of:
  All C(H) groups, All C(H,H) groups
 At 1.5 times of:
  All C(H,H,H) groups, All O(H) groups
2. Restrained distances
 C15-C14
 1.53 with sigma of 0.01
 C5-C4 \\sim C6-C4
 with sigma of 0.01
 F3-C8 \\sim F2-C8 \\sim F1-C8
 with sigma of 0.01
 O2-C7 \\sim O1-C7
 with sigma of 0.01
3. Uiso/Uaniso restraints and constraints
Uanis(C3) \\sim Ueq, Uanis(C4) \\sim Ueq, Uanis(C6) \\sim Ueq, Uanis(C15) \\sim
Ueq: with sigma of 0.005 and sigma for terminal atoms of 0.01
Uanis(F1) \\sim Ueq, Uanis(F2) \\sim Ueq, Uanis(F3) \\sim Ueq: with sigma of
0.01 and sigma for terminal atoms of 0.02
4. Others
 Fixed Sof: Ag3(0.25) H2A(0.5) H2B(0.5) H2C(0.5) H6A(0.5) H6B(0.5) H6C(0.5)
 O1(0.5) O2(0.5) C7(0.5) C8(0.5) F1(0.5) F2(0.5) F3(0.5) O3(0.5) H3(0.5)
 C14(0.5) H14A(0.5) H14B(0.5) C15(0.5) H15A(0.5) H15B(0.5) H15C(0.5)
5.a Riding coordinates:
 C6(H6A,H6B,H6C), C15(H15A,H15B,H15C)
5.b Secondary CH2 refined with riding coordinates:
 C14(H14A,H14B)
5.c Aromatic/amide H refined with riding coordinates:
 C9(H9), C10(H10), C12(H12), C13(H13)
5.d Idealised Me refined as rotating group:
 C2(H2A,H2B,H2C), C3(H3A,H3B,H3C), C5(H5A,H5B,H5C)
5.e Idealised tetrahedral OH refined as rotating group:
Comments:The trifluoroacetate was disordered due to the symmetry. 
"PART -1" was used to suppress the symmetry according to 
the chemistry with 0.5 occupancy. The C-F and C-O distances 
were restrained to be similar with "SADI". The ADPs of fluorine 
atoms were restrained using "ISOR 0.01 0.02". The t-butyl mercaptan 
anions were also disordered, however, the related atoms were not 
split but restrained using "ISOR" and "SADI". The ethanol was 
assigned from a difference Fourier map; however, the ethanol
locates around special position, and the space group symmetry 
has a large influence on its geometry. Therefore, geometry restraint 
with "DFIX" command and the ADP restraints with "ISOR" commands
were applied to this molecule.
 O3(H3)
;
_shelx_res_file
;
TITL 20161003B1-1 in I-42m #121
    ag12bpy_etoh.res
    created by SHELXL-2016/6 at 19:06:48 on 22-Nov-2016
REM reset to I-42m #121
CELL 1.54184 17.279345 17.279345 19.824632 90 90 90
ZERR 2 0.00028 0.00028 0.000627 0 0 0
LATT -2
SYMM +Y,-X,-Z
SYMM -X,-Y,+Z
SYMM -Y,+X,-Z
SYMM +X,-Y,-Z
SYMM -X,+Y,-Z
SYMM -Y,-X,+Z
SYMM +Y,+X,+Z
SFAC C H Ag F N O S
UNIT 176 256 24 24 16 24 16
DFIX 1.53 0.01 C15 C14
SADI 0.01 C5 C4 C6 C4
SADI 0.01 F3 C8 F2 C8 F1 C8
SADI 0.01 O2 C7 O1 C7
ISOR 0.005 0.01 C3 C4 C6 C15
ISOR 0.01 0.02 F1 F2 F3

L.S. 20
PLAN  10
TEMP -173.14(10)
BOND
MORE -1
BOND $H
CONF
fmap 2
acta 133.5
OMIT 2 2 0
OMIT 0 4 0
OMIT 0 3 1
REM <olex2.extras>
REM <HklSrc "%.\\Ag12bpy_EtOH.hkl">
REM </olex2.extras>

WGHT    0.047600   34.492199
FVAR       0.82536
AG1   3    0.500000    0.500000    0.204466    10.25000    0.02083    0.02083 =
         0.04082    0.00000    0.00000   -0.00186
AG2   3    0.661018    0.471491    0.165887    11.00000    0.02035    0.02817 =
         0.10844    0.01000    0.00360    0.00174
AG3   3    0.584926    0.500000    0.000000    10.25000    0.02357    0.02752 =
         0.04425    0.00552    0.00000    0.00000
S1    7    0.598764    0.598764    0.199267    10.50000    0.02860    0.02860 =
         0.04077   -0.00190   -0.00190   -0.01049
C1    1    0.625162    0.625162    0.287713    10.50000    0.08666    0.08666 =
         0.04677   -0.00876   -0.00876   -0.06065
C2    1    0.579053    0.579053    0.339696    10.50000    0.06229    0.06229 =
         0.05154   -0.00300   -0.00300   -0.02727
PART -1
AFIX 137
H2A   2    0.604588    0.582626    0.383726    10.50000   -1.50000
H2B   2    0.576404    0.524719    0.325712    10.50000   -1.50000
H2C   2    0.526574    0.600221    0.343012    10.50000   -1.50000
AFIX   0
PART 0
C3    1    0.710975    0.609048    0.295435    11.00000    0.07527    0.15365 =
         0.06756    0.00625   -0.01065   -0.05541
AFIX 137
H3A   2    0.728635    0.627894    0.339445    11.00000   -1.50000
H3B   2    0.739549    0.635631    0.259567    11.00000   -1.50000
H3C   2    0.720196    0.553204    0.292283    11.00000   -1.50000
AFIX   0
S2    7    0.601765    0.398235    0.070339    10.50000    0.06394    0.06394 =
         0.03575    0.00193   -0.00193    0.04242
C4    1    0.671351    0.328649    0.030334    10.50000    0.05332    0.05332 =
         0.04443    0.00162   -0.00162    0.01894
C5    1    0.625228    0.273358   -0.010987    11.00000    0.08270    0.06306 =
         0.10408   -0.04291    0.00405    0.03272
AFIX 137
H5A   2    0.591928    0.242508    0.018648    11.00000   -1.50000
H5B   2    0.660284    0.238982   -0.035733    11.00000   -1.50000
H5C   2    0.593130    0.302207   -0.043059    11.00000   -1.50000
AFIX   0
C6    1    0.713670    0.286330    0.084886    10.50000    0.10109    0.10109 =
         0.07567   -0.00372    0.00372    0.05904
PART -1
AFIX   3
H6A   2    0.687751    0.295170    0.125776    10.50000   -1.50000
H6B   2    0.716280    0.231830    0.075616    10.50000   -1.50000
H6C   2    0.766841    0.305990    0.088466    10.50000   -1.50000
AFIX   0
O1    6    0.693624    0.371141    0.246087    10.50000    0.06025    0.11991 =
         0.08039    0.05185    0.02253    0.04768
O2    6    0.586714    0.325649    0.292433    10.50000    0.03380    0.04848 =
         0.08423    0.01074   -0.02336   -0.00368
C7    1    0.654771    0.343046    0.291025    10.50000    0.01865    0.06459 =
         0.04050   -0.01510   -0.00834    0.01033
C8    1    0.703314    0.323631    0.352624    10.50000    0.03374    0.04990 =
         0.05450    0.00245   -0.00363   -0.00320
F1    4    0.719286    0.248531    0.352857    10.50000    0.13986    0.06352 =
         0.11961    0.03415   -0.04986    0.01795
F2    4    0.670037    0.342199    0.410092    10.50000    0.12844    0.11992 =
         0.05701   -0.00517   -0.02183   -0.01815
F3    4    0.768121    0.362402    0.359613    10.50000    0.05752    0.12443 =
         0.12092    0.00090   -0.03626   -0.02956
PART 0
N1    5    0.795611    0.482765    0.166545    11.00000    0.01639    0.03216 =
         0.14609    0.01531   -0.00471    0.00699
C9    1    0.842930    0.423636    0.182966    11.00000    0.01979    0.02981 =
         0.15984    0.01347   -0.00460   -0.00410
AFIX  43
H9    2    0.819773    0.376776    0.197824    11.00000   -1.20000
AFIX   0
C10   1    0.922188    0.426445    0.179709    11.00000    0.02327    0.03657 =
         0.13600    0.01423   -0.00361    0.00462
AFIX  43
H10   2    0.952633    0.382345    0.190418    11.00000   -1.20000
AFIX   0
C11   1    0.957312    0.496818    0.159966    11.00000    0.01902    0.02992 =
         0.11352   -0.00212    0.00153    0.00252
C12   1    0.909673    0.558260    0.144996    11.00000    0.02397    0.03105 =
         0.10488    0.00512   -0.00068   -0.00328
AFIX  43
H12   2    0.930916    0.606672    0.131843    11.00000   -1.20000
AFIX   0
C13   1    0.829859    0.548418    0.149412    11.00000    0.01959    0.02636 =
         0.12339    0.00748   -0.00737    0.00200
AFIX  43
H13   2    0.797876    0.591660    0.139478    11.00000   -1.20000
AFIX   0

PART -1
O3    6    0.521061    0.229428    0.391370    10.50000    0.06077    0.04753 =
         0.09422    0.00768    0.01726   -0.00459
AFIX 147
H3    2    0.553761    0.257386    0.371641    10.50000   -1.50000
AFIX   0
C14   1    0.503445    0.261517    0.454152    10.50000    0.09247    0.07004 =
         0.08259   -0.00089    0.03699    0.00245
AFIX  23
H14A  2    0.461099    0.299719    0.449374    10.50000   -1.20000
H14B  2    0.549383    0.288463    0.472565    10.50000   -1.20000
AFIX   0
C15   1    0.478771    0.197027    0.501730    10.50000    0.12851    0.13067 =
         0.12314   -0.00216    0.00823    0.00793
AFIX   3
H15A  2    0.433251    0.212307    0.525770    10.50000   -1.50000
H15B  2    0.466671    0.153567    0.473860    10.50000   -1.50000
H15C  2    0.518951    0.182587    0.532350    10.50000   -1.50000
AFIX   0
HKLF 4




REM  20161003B1-1 in I-42m #121
REM R1 =  0.0403 for    2832 Fo > 4sig(Fo)  and  0.0419 for all    2959 data
REM    221 parameters refined using     48 restraints

END

WGHT      0.0476     34.4874

REM Highest difference peak  1.015,  deepest hole -1.099,  1-sigma level  0.117
Q1    1   0.5000  0.5000 -0.0750  10.25000  0.05    1.02
Q2    1   0.6357  0.4780  0.1421  11.00000  0.05    0.76
Q3    1   0.6575  0.4587  0.1505  11.00000  0.05    0.66
Q4    1   0.6438  0.4701  0.1902  11.00000  0.05    0.62
Q5    1   0.6610  0.4802  0.1817  11.00000  0.05    0.59
Q6    1   0.6562  0.5264 -0.0352  11.00000  0.05    0.57
Q7    1   0.5413  0.5003  0.2520  11.00000  0.05    0.57
Q8    1   0.6221  0.3985  0.0697  11.00000  0.05    0.57
Q9    1   0.6048  0.3952 -0.0661  10.50000  0.05    0.56
Q10   1   0.7171  0.5752  0.2927  11.00000  0.05    0.52
;
_shelx_res_checksum              7553
_shelx_hkl_file
;
   0   0   2 227300. 13644.8   4
   0   0   4 48923.2 3041.19   4
   0   0   6 700815. 42468.0   1
   0   0   6 733787. 42562.4   4
   0   0   8 49234.3 3145.63   1
   0   0   8 61224.5 3305.92   4
   0   0  10 2122.79 291.180   4
   0   0  12 41648.6 2711.13   4
   0   0  14 15730.8 1034.06   8
   0   0  16 385.757 108.502   8
   0   0  18 1100.19 158.168   8
   0   0 -20 7869.17 537.931   9
   0   0 -22 2862.93 223.618   9
  -1   0   1 213099. 12758.0   1
  -1   0   3 93776.2 5819.19   1
   0   1   3 104748. 5908.85   4
  -1   0   3 98918.0 5846.10   4
   0  -1   3 94832.6 5837.06   4
  -1   0   5 162841. 10054.8   1
   0  -1   5 173698. 10104.3   4
   0   1   5 180290. 10163.9   4
  -1   0   5 159210. 10121.8   4
   0   1   7 17927.7 1133.32   1
   0  -1   7 17847.0 1180.17   4
   0   1   7 19677.0 1236.94   4
  -1   0   7 16499.7 1099.30   1
   1   0   7 15458.4 1179.80   4
  -1   0   7 16968.4 1200.50   4
   0   1   9 21298.5 1434.19   1
   0   1   9 23994.4 1560.45   4
   0  -1   9 23590.2 1521.58   4
   1   0   9 22918.8 1525.21   4
  -1   0   9 21772.7 1533.97   4
   1   0  11 29788.4 1999.03   4
   0  -1  11 28195.5 1970.98   4
   0   1  11 32483.2 2039.53   4
   0  -1  13 9221.14 632.226   8
   0   1  13 9192.55 627.811   8
   1   0  13 9228.97 622.819   8
  -1   0  13 9595.25 638.711   8
   1   0  13 7986.67 741.673   4
   0   1  13 7538.07 743.900   4
   1   0  15 4514.95 354.590   8
   0   1  15 4120.14 351.254   8
   0  -1  15 4554.38 364.905   8
  -1   0  15 4384.04 363.867   8
   0  -1  17 498.393 126.932   8
  -1   0  17 739.467 135.052   8
   0  -1 -19 3426.37 268.069   9
  -1   0  19 2690.73 283.375   8
   0  -1  19 3469.78 298.982   8
  -1   0 -21 79.9203 68.5492   9
   0  -1 -21 33.0237 65.2596   9
   0   1 -21 39.3098 68.2788   9
   1   0 -21 48.6403 64.3578   9
  -1   0 -23 104.667 50.7077   9
   0   1 -23 84.7632 47.3013   9
   1   0 -23 113.281 48.0128   9
   0  -1 -23 101.111 47.8476   9
   1   1 -22 1323.41 135.542   9
  -1  -1 -22 1527.70 140.620   9
  -1  -1 -20 3828.48 297.786   9
   1  -1  18 781.531 145.559   8
  -1   1  18 1002.31 146.115   8
   1  -1  16 1560.44 181.670   8
  -1   1  16 1150.07 170.455   8
   1  -1  14 9150.16 656.932   8
  -1   1  14 9954.84 666.972   8
   1  -1  12 2599.34 319.654   4
   1  -1  10 28273.5 1936.57   4
  -1   1  10 31231.5 2005.00   4
  -1   1   8 16621.1 1056.51   1
  -1   1   8 15634.4 1150.28   4
   1  -1   8 14898.4 1092.92   4
  -1   1   6 37906.6 2318.74   1
  -1   1   6 35494.1 2390.19   4
  -1   1   4 29702.8 1923.55   4
  -1   1   4 29926.2 1877.10   1
   1  -1   2 8144.19 529.461   5
  -1   1   2 8059.36 553.470   1
  -1  -1   0 325185. 19445.9   5
  -1   1  -2 11059.1 686.676   1
  -1  -1   6 47191.9 2946.87   4
   1   1   8 19750.2 1357.02   4
  -1  -1   8 19181.6 1325.06   4
   1   1  10 29120.8 1954.96   4
   1   1  12 3614.89 419.427   4
  -1  -1  12 3321.79 287.753   8
  -1  -1  14 9332.97 634.518   8
   1   1  14 7830.95 760.699   4
  -1  -1  16 1154.06 168.463   8
  -1  -1  18 1626.97 200.217   8
  -1  -1  20 3609.40 327.394   8
   1  -1 -20 3812.09 297.421   9
  -1   1 -20 4133.04 304.769   9
  -1   1 -22 1442.98 144.139   9
   1  -1 -22 1515.96 137.254   9
  -1   1 -24 1436.06 115.220   9
   0   2   0 123081. 7397.39   4
  -2   0   2 31566.1 1856.84   1
   0   2   2 27085.6 1905.22   4
  -2   0   4 1406.99 171.137   1
   0  -2   4 1410.95 149.605   4
   0   2   4 1320.52 262.535   4
  -2   0   6 89005.6 5459.30   1
   0  -2   6 88407.4 5466.93   4
   0   2   6 94581.0 5575.71   4
   0   2   8 13611.0 971.734   4
   0  -2   8 12676.6 875.559   4
  -2   0   8 11689.1 829.552   1
   0   2   8 12227.5 865.061   1
   2   0  10 9899.84 789.785   4
   0  -2  10 9591.88 744.538   4
   0   2  10 10467.6 832.314   4
   2   0  12 1430.22 256.068   4
  -2   0  12 1924.94 196.475   8
   0  -2  12 1444.69 176.023   8
   0   2  12 1476.31 280.756   4
   2   0  14 3416.04 444.028   4
  -2   0  14 4515.11 361.802   8
   0  -2  14 4385.01 355.431   8
  -2   0  16 1458.94 190.327   8
   0  -2  16 1392.34 187.495   8
   0  -2  18 1421.90 190.862   8
   0  -2 -18 1254.25 150.523   9
  -2   0  18 1423.93 187.059   8
   0  -2 -20 2960.77 242.238   9
   0  -2  20 2958.65 276.771   8
  -2   0 -20 3007.27 247.443   9
  -2   0  20 2650.39 268.781   8
  -2   0 -22 518.884 86.8871   9
   2   0 -22 551.621 80.4518   9
   0  -2 -22 588.667 82.6306   9
   0   2 -22 616.894 90.4261   9
  -2   0 -24 868.760 81.6191   9
   0   2 -24 829.196 79.2751   9
  -1  -2 -23 58.8773 42.9964   9
   2   1 -23 21.9711 39.3475   9
   1   2 -23 80.3101 44.7425   9
  -2  -1 -23 76.5481 49.0473   9
  -2  -1 -21 394.624 87.2352   9
   2   1 -21 334.112 84.6976   9
  -1  -2 -21 521.419 87.2208   9
  -2   1  19 3968.75 349.346   8
   1  -2  19 4064.16 351.849   8
  -2  -1 -19 4279.91 324.715   9
  -1  -2 -19 4229.39 322.962   9
  -2   1  17 719.645 139.446   8
   2  -1  17 487.777 121.882   8
  -1  -2 -17 737.396 116.661   9
   1  -2  17 720.392 140.407   8
  -2   1  15 13691.2 923.407   8
   1  -2  15 13792.2 923.430   8
  -1   2  15 14178.1 918.929   8
   2  -1  15 13207.7 910.349   8
   1  -2  13 1550.04 184.409   8
   2  -1  13 1767.20 182.995   8
  -2   1  13 1542.82 189.434   8
  -1   2  13 1481.82 177.976   8
   1  -2  11 14066.5 1020.93   4
   2  -1  11 13542.2 1038.31   4
  -1   2  11 16041.6 1131.41   4
   2  -1   9 23088.8 1600.60   4
  -1   2   9 25396.9 1571.87   1
  -2   1   9 23124.1 1541.52   1
   1  -2   9 22739.1 1570.10   4
  -1   2   9 26473.0 1691.87   4
  -1   2   7 9353.98 687.470   1
  -1   2   7 9316.36 773.379   4
   1  -2   7 8851.93 667.051   4
  -2   1   7 9293.57 670.021   1
  -1   2   5 36478.3 2442.19   4
  -1   2   5 39217.8 2396.91   1
  -2   1   5 37248.1 2370.18   1
  -2   1   3 18953.9 1240.98   1
  -1   2   3 18621.1 1266.08   1
   1  -2   3 19817.0 1226.73   5
  -1   2  -1 52228.1 3332.90   1
  -2   1  -1 57171.4 3340.47   1
  -1  -2   1 56163.2 3345.76   5
  -1   2  -3 16012.8 984.151   1
   1   2   7 11346.2 877.613   4
   2   1   9 24475.9 1682.49   4
   1   2   9 24467.5 1684.27   4
   2   1  11 12723.7 991.590   4
   1   2  11 12842.8 1012.96   4
  -2  -1  13 2174.04 218.503   8
   2   1  13 2040.13 317.559   4
   1   2  13 1588.71 300.069   4
  -1  -2  13 1788.27 205.775   8
  -1  -2  15 14424.0 907.251   8
   2   1  15 10273.6 1019.81   4
   1   2  15 11095.5 1052.66   4
  -2  -1  15 14589.6 911.215   8
  -2  -1  17 595.562 135.642   8
  -1  -2  17 547.030 133.767   8
  -2  -1  19 4051.49 358.300   8
  -1  -2  19 4029.84 356.006   8
   1  -2 -19 4302.93 321.220   9
  -1   2 -21 276.452 82.5685   9
  -2   1 -21 280.203 82.2072   9
   2  -1 -21 292.640 71.8429   9
   1  -2 -21 365.647 75.7822   9
  -2  -1  21 239.663 93.8197   8
  -1  -2  21 289.145 100.708   8
  -2   1 -23 26.7603 43.6092   9
  -1   2 -23 90.4437 50.1815   9
  -2  -2 -22 494.088 79.1221   9
   2   2 -22 505.880 76.6275   9
  -2  -2 -20 3013.74 248.497   9
  -2   2  18 2038.70 218.657   8
  -2  -2 -18 2132.19 200.684   9
   2  -2  18 1931.41 219.166   8
   2  -2  16 1523.11 188.608   8
  -2   2  16 1432.37 190.652   8
  -2  -2 -16 1726.36 174.630   9
   2  -2  14 15954.1 1132.58   8
  -2   2  14 19302.3 1153.82   8
   2  -2  12 15621.9 1024.62   8
   2  -2  10 21464.3 1403.34   4
  -2   2  10 20082.2 1376.61   1
   2  -2   8 22333.0 1622.86   4
  -2   2   8 28368.7 1662.12   1
  -2   2   6 19221.3 1298.31   1
  -2   2   4 17913.1 1212.15   1
   2  -2   2 27351.9 1709.79   5
  -2   2   2 27875.7 1756.76   1
  -2   2   0 397.703 105.791   1
  -2   2  -2 28022.9 1728.30   1
   2   2   8 26010.4 1783.60   4
   2   2  10 23744.7 1667.88   4
   2   2  12 20498.3 1569.45   4
  -2  -2  12 22537.4 1412.83   8
   2   2  14 15756.8 1290.50   4
  -2  -2  14 17481.2 1125.96   8
  -2  -2  16 1361.91 183.718   8
   2   2  16 898.276 262.216   4
  -2  -2  18 1736.96 217.232   8
   2  -2 -20 3210.34 263.164   9
  -2  -2  20 3329.67 304.932   8
  -2   2 -20 3735.84 278.656   9
  -2   2 -22 761.549 100.521   9
  -2   2 -24 1078.64 94.5899   9
   0   3   1 6762.69 534.553   4
   0   3  -1 6953.24 451.856   4
  -3   0   3 138486. 8225.05   1
   0   3   3 131721. 8293.63   4
  -3   0   5 44584.2 2782.49   1
   0   3   7 2677.33 367.425   4
  -3   0   7 2619.14 273.396   1
   0   3   9 7907.82 611.990   1
   0   3   9 7218.72 680.558   4
   0   3  11 413.351 194.995   4
   3   0  11 809.967 206.922   4
   0   3  13 29.9333 139.676   4
   3   0  13-52.5641 144.530   4
  -3   0  13 9.94660 102.045   8
   0  -3  13 94.7777 93.8251   8
  -3   0  15 8016.56 579.930   8
   0  -3  15 7518.15 570.063   8
  -3   0  17 3180.64 316.982   8
   0  -3  17 3202.89 315.399   8
   0  -3 -17 3508.08 278.914   9
   0  -3  19 4250.13 374.121   8
  -3   0 -19 4378.65 343.188   9
   0  -3 -19 4793.75 344.771   9
  -3   0  19 4238.50 373.566   8
   0  -3 -21 167.844 67.3666   9
   3   0 -21 241.605 68.1913   9
   0  -3  21 157.226 89.6663   8
  -3   0 -21 141.275 73.8041   9
  -3   0 -23 402.060 68.8425   9
   0   3 -23 372.372 64.8595   9
  -3  -1 -22 14.0449 55.6238   9
  -1  -3 -22 82.1026 52.0522   9
   1   3 -22 133.111 57.2812   9
   3   1 -22 66.2568 50.5405   9
   1  -3  20 1924.12 223.945   8
  -1  -3 -20 2232.22 199.329   9
  -3  -1 -20 2288.10 206.236   9
   1  -3  18 194.067 111.033   8
  -1  -3 -18 357.521 92.7516   9
  -3   1  18 369.367 115.997   8
  -3  -1 -18 302.531 92.1043   9
   1  -3  16 1781.26 213.679   8
  -1  -3 -16 1919.73 187.404   9
  -3   1  16 1608.00 213.461   8
   1  -3  14 5049.79 401.201   8
  -3   1  14 4577.92 392.455   8
   1  -3  12 7119.61 520.299   8
  -3   1  12 7704.37 535.397   8
   3  -1  12 5990.22 605.980   4
   3  -1  10 26293.8 1837.06   4
  -1   3  10 27131.9 1796.57   1
  -1   3  10 29132.6 1917.11   4
  -3   1   8 16996.4 1111.60   1
  -1   3   8 15935.0 1129.12   1
  -1   3   8 16902.5 1222.82   4
   1  -3   8 15186.2 1065.57   4
   1  -3   6 297.725 98.0114   4
  -1   3   6 94.1873 199.559   4
  -3   1   6 395.234 151.364   1
  -1   3   6 168.033 154.342   1
  -1   3   4 34054.1 2159.12   1
  -3   1   4 32514.9 2107.51   1
   1  -3   2 31391.0 1939.20   5
  -3   1   2 30464.0 1953.73   1
  -1   3   2 30936.0 1959.88   4
  -1  -3   0 19649.4 1225.53   5
  -1   3   0 18771.6 1258.80   1
  -1   3  -2 26475.4 1721.97   1
  -1  -3   2 30253.4 1763.02   5
  -1   3  -4 24130.2 1472.99   1
   1   3   6-21.6193 177.928   4
   1   3   8 15050.2 1134.43   4
   1   3  10 22345.2 1541.46   1
   1   3  10 23421.7 1640.69   4
   3   1  10 24045.4 1642.97   4
   3   1  12 7703.24 723.913   4
  -1  -3  12 7456.16 572.260   8
   1   3  12 8592.63 761.135   4
  -3  -1  12 8859.56 594.655   8
  -3  -1  14 5672.39 432.783   8
  -1  -3  14 5199.41 415.906   8
   3   1  14 4727.34 550.130   4
   1   3  14 4414.70 549.162   4
  -3  -1  16 1693.85 214.046   8
  -1  -3  16 1542.08 202.105   8
   1  -3 -18 241.976 81.8265   9
  -1  -3  18 106.453 99.7118   8
  -3  -1  18 43.0048 95.7144   8
   3  -1 -20 2503.77 210.717   9
  -3   1 -20 2705.78 228.671   9
  -3  -1  20 2188.20 245.146   8
  -1  -3  20 2553.28 255.746   8
   1  -3 -20 2535.38 212.415   9
  -1   3 -22 125.858 67.1048   9
  -1  -3  22 96.9268 76.6115   8
  -3   1 -22 162.745 65.5856   9
  -1   3 -24 654.797 68.0562   9
  -3   1 -24 621.435 68.3735   9
  -2  -3 -23-39.1540 38.0563   9
   3   2 -23 22.4625 33.5443   9
   2   3 -23 31.6024 39.0132   9
  -3  -2 -23 13.5652 40.3427   9
  -3  -2 -21 239.948 76.0385   9
  -2  -3 -21 162.306 64.3932   9
   2  -3  19 2010.06 229.093   8
  -2  -3 -19 2587.43 214.607   9
  -3  -2 -19 2154.45 206.539   9
  -2  -3 -17 3153.96 256.347   9
   2  -3  17 2444.52 267.150   8
   3  -2  17 2841.34 269.638   8
  -3   2  17 2571.52 271.616   8
  -3  -2 -17 3018.31 251.005   9
  -2  -3 -15 14912.2 949.419   9
  -3   2  15 14468.9 980.638   8
   3  -2  15 14260.7 968.447   8
  -3  -2 -15 14195.0 945.833   9
  -2   3  15 15704.8 979.028   8
   2  -3  15 13653.6 972.007   8
   3  -2  13 8189.87 599.228   8
  -3   2  13 9049.42 619.534   8
   2  -3  13 7498.55 597.893   8
  -2   3  13 9213.54 610.515   8
   3  -2  11 12919.3 955.015   4
  -3   2   9 74165.9 4188.52   1
  -2   3   9 75407.3 4203.35   1
  -2   3   7 41940.0 2817.66   4
  -2   3   7 43215.5 2748.00   1
  -3   2   7 43025.0 2731.33   1
  -2   3   5 1067.17 235.232   1
  -3   2   5 1160.31 222.865   1
  -3   2   3 114629. 4388.47   1
   2  -3   3 112416. 4310.68   5
  -2   3   3 112501. 4418.59   1
   3  -2   3 109497. 4273.47   5
  -2  -3  -1 3549.59 274.647   5
  -2   3  -1 6723.89 456.143   1
  -3   2  -1 5505.85 442.249   1
  -2   3  -3 110655. 6891.78   1
  -3   2  -3 119633. 6912.13   1
   2   3   9 74483.7 4717.78   4
  -3  -2  11 15276.7 992.855   8
   2   3  11 15706.6 1177.65   4
   3   2  11 14554.4 1161.74   4
  -2  -3  11 14624.1 987.685   8
  -2  -3  13 8110.70 595.771   8
   2   3  13 8201.81 780.420   4
   3   2  13 7491.53 754.616   4
  -3  -2  13 8912.05 611.221   8
   2   3  15 12508.2 1118.20   4
  -2  -3  15 14541.0 950.825   8
  -3  -2  15 14668.8 950.661   8
   3   2  15 11836.7 1111.99   4
  -3  -2  17 2219.19 247.802   8
  -2  -3  17 2022.01 240.929   8
  -2  -3  19 2515.28 261.611   8
  -3  -2  19 2308.10 250.218   8
  -2  -3  21 32.5291 82.3255   8
  -3   2 -21 212.072 75.5584   9
  -3  -2  21 146.810 94.8115   8
  -2   3 -21 115.693 70.0295   9
  -2   3 -23 18.2121 42.8354   9
  -3   2 -23 66.4192 47.9022   9
  -3  -3 -22 1270.36 124.909   9
  -3  -3 -20 2285.32 204.163   9
   3  -3  18 8315.06 614.612   8
  -3  -3 -18 8902.87 596.788   9
   3  -3  16 879.815 152.970   8
  -3  -3 -16 853.371 134.261   9
  -3  -3 -14 12491.9 773.481   9
  -3   3  14 11104.7 796.598   8
   3  -3  14 10684.5 789.056   8
   3  -3  12 47683.5 3010.87   8
  -3   3  12 49103.6 3013.19   8
  -3  -3 -12 49190.2 2987.15   9
  -3   3  10 63160.6 3968.70   1
  -3   3   8 6946.14 604.772   1
  -3   3   6 132670. 8129.13   1
  -3   3   4 90504.7 5626.41   1
   3  -3   4 91216.2 5542.63   5
  -3  -3  -2 11680.0 751.473   5
  -3   3   0 2119.51 239.328   1
  -3   3  -2 12552.8 837.971   1
  -3   3  -4 96657.1 5850.82   1
   3   3  10 61961.3 4004.32   4
  -3  -3  12 47347.7 2933.16   8
   3   3  12 47538.7 3152.24   4
   3   3  14 9725.40 963.355   4
  -3  -3  14 11806.1 787.459   8
  -3  -3  16 771.027 150.741   8
   3   3  16 463.832 207.728   4
  -3  -3  18 6357.69 499.892   8
  -3  -3  20 2434.04 252.081   8
  -3   3 -22 1993.03 171.689   9
  -3   3 -24 848.102 79.1551   9
   0   4   0 7227.98 513.475   4
   0   4   2 752.090 228.480   4
  -4   0   2 678.003 172.574   1
   0   4  -4 1127.73 122.914   1
  -4   0   4 1197.46 212.193   1
  -4   0   6 22288.4 1484.99   1
   0   4   8 3067.28 347.781   1
  -4   0   8 2928.36 308.945   1
   0   4   8 2800.20 408.473   4
   0   4  10 524.033 161.684   1
   0   4  10 603.036 218.994   4
   0  -4  12 116.334 90.4379   8
  -4   0  12 250.336 108.112   8
   4   0  12 313.026 188.062   4
   0   4  12 92.9525 156.498   4
   0  -4  14 20.9272 98.9949   8
   0  -4 -14-27.5076 80.4001   9
   4   0  14 58.4476 147.283   4
  -4   0  14 77.5775 110.371   8
  -4   0  16 350.822 128.719   8
   0  -4  16 368.519 120.470   8
   0  -4 -16 223.584 89.6817   9
   0  -4 -18 675.748 109.444   9
   0  -4  18 516.508 134.894   8
  -4   0  18 626.716 141.581   8
  -4   0 -18 542.760 111.539   9
  -4   0 -20 1132.43 142.760   9
   0  -4  20 1033.67 162.860   8
   0  -4 -20 1212.33 133.289   9
  -4   0 -22 226.534 67.4549   9
   0   4 -22 123.202 58.7365   9
   0  -4  22 104.390 66.4120   8
   1   4 -23 370.215 59.5811   9
  -4  -1 -23 359.385 64.2459   9
   1  -4  21 7.48470 76.3506   8
  -1  -4 -21-14.2584 56.8007   9
   4   1 -21 119.561 55.9732   9
  -4  -1 -21-21.8264 71.0212   9
  -1  -4 -19 2816.06 244.310   9
   1  -4  19 2636.07 269.453   8
  -4  -1 -19 3159.86 254.381   9
  -4  -1 -17 1590.66 179.590   9
  -4   1  17 1707.02 218.478   8
  -1  -4 -17 1782.91 181.281   9
   1  -4  17 1562.62 209.686   8
  -4   1  15 1643.84 218.125   8
  -4  -1 -15 2019.98 196.847   9
   1  -4  15 1835.57 218.770   8
  -1  -4 -15 1912.88 194.761   9
  -4   1  13 1666.14 212.032   8
  -1  -4 -13 1633.16 179.639   9
   1  -4  13 1789.52 213.465   8
  -4   1  11 3021.99 281.250   8
   4  -1  11 2914.78 376.698   4
   1  -4  11 2671.73 262.574   8
  -1   4  11 3125.75 422.487   4
  -1   4  11 2820.79 333.423   1
  -4   1   9 18599.5 1333.23   1
  -1   4   9 21544.7 1390.90   1
  -1   4   9 19541.2 1462.14   4
  -1   4   7 15007.3 1075.69   1
  -4   1   7 14232.0 1042.39   1
  -4   1   5 19199.1 811.597   1
  -1   4   5 18239.1 919.702   4
  -1   4   3 3242.62 362.821   4
  -4   1   3 3089.86 337.190   1
   4  -1   3 3254.63 253.124   5
   1  -4   3 3596.89 323.670   5
  -1   4   1 3363.85 289.750   4
  -1  -4   1 6358.03 459.997   5
  -1   4  -1 5415.81 474.967   1
  -1   4  -3 2581.85 225.306   1
   1   4   5 19733.2 1264.34   4
  -1   4  -5 16159.3 1018.19   1
   1   4   9 19626.1 1436.57   4
  -4  -1  11 3677.31 312.813   8
   1   4  11 3482.16 375.709   1
  -1  -4  11 3004.24 290.577   8
   1   4  11 3079.16 436.797   4
   4   1  11 3696.44 462.027   4
   4   1  13 1682.20 321.961   4
  -1  -4  13 1604.30 203.713   8
   1   4  13 1493.09 335.093   4
  -4  -1  13 1760.33 217.041   8
  -4  -1  15 1276.16 176.301   8
   1  -4 -15 1146.03 142.247   9
   1   4  15 1274.27 299.013   4
  -1  -4  15 1048.50 177.224   8
   4   1  15 848.174 242.092   4
   1  -4 -17 1728.99 171.245   9
  -1  -4  17 1496.66 205.202   8
  -4  -1  17 1596.83 212.153   8
  -1  -4  19 3270.10 303.869   8
  -4  -1  19 2618.55 290.614   8
  -4   1 -19 3384.75 268.013   9
  -4   1 -21 21.9970 64.3198   9
  -1  -4  21 47.4968 74.4089   8
  -4   1 -23 362.249 61.7529   9
  -1   4 -23 350.157 62.6670   9
  -4  -2 -22 562.401 83.3214   9
  -2  -4 -22 587.807 79.2318   9
   4   2 -22 586.069 76.8678   9
   2  -4  20 1223.27 170.304   8
  -2  -4 -20 1363.91 147.531   9
  -4  -2 -20 1629.28 159.604   9
  -4  -2 -18 1274.23 159.044   9
   2  -4  18 985.847 168.672   8
  -2  -4 -16 108.485 84.8756   9
  -4  -2 -16 46.3996 87.2287   9
   2  -4  16 65.2899 105.079   8
  -4   2  16 22.2318 97.1045   8
  -4  -2 -14 4091.16 341.474   9
  -4   2  14 4750.70 386.545   8
   4  -2  14 4116.12 354.362   8
  -2  -4 -14 4758.58 349.741   9
   2  -4  14 4355.19 374.426   8
  -4  -2 -12 24854.2 1639.99   9
   2  -4  12 26618.8 1677.44   8
  -4   2  12 26529.9 1681.67   8
  -2  -4 -12 27902.0 1646.89   9
   4  -2  12 25401.5 1660.25   8
  -2   4  10 27461.6 1731.85   1
  -4   2  10 23680.0 1679.53   1
  -4   2   8 5286.15 489.708   1
  -2   4   8 4999.83 501.608   1
  -2   4   6 41838.2 2640.16   1
  -4   2   6 39078.7 2603.75   1
   2  -4   4 58189.4 3519.59   5
  -4   2   4 57217.9 3570.96   1
   4  -2   4 55343.8 3472.63   5
  -2   4   4 56956.6 3609.43   1
   2  -4   2 16765.9 1093.76   5
  -4   2   2 15843.5 1121.65   1
  -2   4   0 13016.2 970.595   1
  -2  -4   0 14444.9 930.746   5
  -4   2   0 14194.4 953.575   1
  -2   4  -2 13836.9 968.510   1
  -4   2  -2 15806.9 989.895   1
  -2   4  -4 56244.8 3423.77   1
   2   4   8 4431.10 507.781   4
   2   4  10 25243.5 1800.34   4
  -2  -4  12 28504.1 1842.07   8
   4   2  12 30285.2 2081.16   4
  -4  -2  12 29474.5 1853.90   8
   2   4  12 29452.9 2073.34   4
  -2  -4  14 4593.58 392.310   8
   2   4  14 4689.69 578.092   4
  -4  -2  14 5375.63 411.380   8
   4   2  14 4000.11 535.910   4
  -2  -4  16 143.378 109.906   8
   4   2  16 105.103 154.166   4
   2   4  16-110.557 157.015   4
  -4  -2  16 160.945 112.441   8
  -2  -4  18 1044.33 175.509   8
  -4  -2  18 1374.50 195.396   8
  -2  -4  20 1264.76 177.525   8
  -4  -2  20 1306.31 182.303   8
  -2   4 -22 697.885 95.0715   9
  -4   2 -22 736.618 95.1569   9
  -2  -4  22 602.077 107.941   8
  -4  -3 -23 572.757 70.7229   9
   3   4 -23 616.207 68.3332   9
  -3  -4 -21 265.990 67.9582   9
  -4  -3 -21 154.402 67.9045   9
  -3  -4 -19 199.101 78.7512   9
  -4  -3 -19 147.885 82.7695   9
   3  -4  19 237.953 101.787   8
   4  -3  17 4984.25 424.476   8
   3  -4  17 5182.61 436.467   8
  -3  -4 -17 5684.13 414.095   9
  -4  -3 -17 5858.88 414.140   9
  -3  -4 -15 12828.4 798.938   9
  -4  -3 -15 11431.0 791.776   9
   4  -3  15 11910.0 816.891   8
   3  -4  15 11000.0 815.259   8
  -4   3  13 10800.5 729.015   8
  -3  -4 -13 9876.54 690.142   9
   4  -3  13 10064.1 714.026   8
  -4  -3 -13 9847.60 686.213   9
   3  -4  13 10111.8 719.140   8
  -3   4  11 10481.3 824.857   1
   3  -4  11 9649.46 717.863   8
  -4   3  11 9867.54 723.402   8
  -4  -3 -11 10311.5 694.675   9
  -3  -4 -11 10390.9 693.473   9
  -4  -3 -11 11383.4 719.822   3
  -3   4   9 23578.9 1593.88   1
  -4   3   9 22023.0 1567.69   1
  -3   4   7 50711.8 3215.64   1
  -4   3   7 48982.4 3203.03   1
  -3   4   5 14237.2 1038.06   1
   3  -4   5 13002.3 931.841   5
   4  -3   5 13201.0 913.947   5
  -4   3   5 13046.0 1009.47   1
  -3   4   3 33105.7 2223.30   1
  -4   3   3 35041.1 2212.11   1
   4  -3   3 31942.7 2110.19   5
   3  -4   3 34031.0 2137.09   5
  -3  -4  -3 34451.1 2088.34   5
  -3  -4  -1 47236.2 2931.42   5
  -3   4   1 48378.4 3016.35   1
  -4   3  -1 47471.5 2931.24   1
  -3   4  -1 46655.5 2933.60   1
  -4   3  -3 34945.8 2215.29   1
  -3   4  -3 35854.0 2208.69   1
  -3   4  -5 11178.9 745.982   1
   3   4   9 19621.6 1479.37   4
   3   4  11 10189.2 911.042   4
   4   3  11 10386.3 924.558   4
  -4  -3  13 9700.44 680.490   8
   3   4  13 9928.49 904.810   4
   4   3  13 9634.57 889.631   4
  -3  -4  13 9185.29 673.963   8
  -4  -3  15 12133.5 779.070   8
   4   3  15 8934.97 948.249   4
  -3  -4  15 10539.8 758.649   8
   3   4  15 9902.46 972.012   4
  -4  -3  17 4690.21 388.647   8
  -3  -4  17 4830.25 391.619   8
  -3  -4  19 268.568 110.812   8
  -4  -3  19 218.646 110.502   8
  -4   3 -19 156.467 86.3039   9
  -4  -3  21 240.042 93.5268   8
  -3  -4  21 366.123 108.627   8
  -4  -4 -22 3655.46 260.974   9
  -4  -4 -20 610.202 98.2898   9
  -4  -4 -18 6382.25 446.317   9
   4  -4  18 5750.59 464.367   8
  -4  -4 -16 652.447 122.673   9
   4  -4  16 449.181 130.672   8
   4  -4  14 4414.27 386.171   8
  -4  -4 -14 4594.32 361.947   9
  -4  -4 -12 35349.4 2191.97   9
   4  -4  12 35143.9 2222.51   8
  -4  -4 -10 22906.4 1456.58   9
  -4  -4 -10 23787.5 1482.01   3
  -4   4  10 22521.4 1615.93   1
  -4   4   8 48076.4 3127.78   1
  -4   4   6 78014.4 4926.14   1
  -4   4   4 49417.1 3077.13   1
  -4  -4  -4 45582.0 2874.49   5
   4  -4   4 49585.0 2957.50   5
  -4   4   0 198.192 145.683   1
  -4   4  -2 55282.3 3424.38   1
  -4   4  -4 53182.8 3282.87   1
   4   4  10 26686.0 1850.83   4
  -4  -4  10 24565.9 1592.62   8
   4   4  12 38044.5 2585.49   4
  -4  -4  12 36788.6 2319.99   8
   4   4  14 3926.18 548.705   4
  -4  -4  16 668.960 146.627   8
   4   4  16 631.396 240.941   4
  -4  -4  18 4795.94 409.512   8
  -4   4 -20 515.762 96.6421   9
  -4  -4  20 534.016 128.275   8
  -4   4 -22 4688.99 328.192   9
   0   5   1 5862.88 485.736   4
   0  -5   1 6158.05 488.503   5
   0   5   3 71404.4 4478.43   4
   0   5  -5 33352.6 2127.56   1
  -5   0   5 37209.9 2275.11   1
   0   5   5 40630.7 2384.10   4
  -5   0   7 10582.2 807.953   1
   0   5   9 3630.19 423.956   1
   0   5   9 4566.14 533.364   4
  -5   0  11 970.773 172.452   8
   0  -5  11 1099.14 163.193   8
   0   5  11 1040.45 279.011   4
   0   5  11 935.735 203.684   1
  -5   0  13 188.024 115.487   8
   5   0  13 288.223 196.456   4
   0  -5 -13 197.994 87.0677   9
   0   5  13 313.593 210.223   4
   0  -5  13 160.704 102.733   8
   0  -5 -15 4778.87 357.147   9
   0  -5  15 4227.65 386.876   8
  -5   0  15 4497.25 402.295   8
   0  -5  17 264.349 113.855   8
   0  -5 -17 297.739 86.3443   9
  -5   0  17 405.071 132.349   8
   0  -5  19 1529.84 203.494   8
  -5   0 -19 1808.80 182.215   9
  -5   0 -21 185.521 71.9351   9
   0  -5  21 165.270 82.4649   8
  -5   0 -23 505.869 68.6600   9
   0  -5  23 366.579 72.0453   8
   0   5 -23 605.162 69.8124   9
   1  -5  22-33.7996 64.6801   8
  -5  -1 -22 30.3161 53.2508   9
   1  -5  20 448.670 117.418   8
  -5  -1 -20 514.271 101.459   9
  -1  -5 -20 415.446 83.5803   9
  -1  -5 -18 282.398 87.6320   9
  -5  -1 -18 209.754 95.6428   9
   1  -5  18 125.107 100.765   8
  -5   1  16 1913.33 240.352   8
   1  -5  16 1802.34 231.068   8
  -5  -1 -16 2090.50 208.506   9
  -1  -5 -16 2143.99 206.625   9
   1  -5  14 1133.42 189.051   8
  -1  -5 -14 1511.99 167.555   9
  -5   1  14 1281.96 200.495   8
   1  -5  12 729.326 141.817   8
  -5   1  12 574.987 144.032   8
   5  -1  12 439.077 205.827   4
  -1  -5 -12 389.965 98.6333   9
  -5  -1 -12 504.089 118.819   3
  -1   5  10 8926.39 839.163   4
  -1   5  10 9761.96 781.256   1
  -1   5   8 3691.32 407.339   1
  -5   1   8 3110.03 362.952   1
  -1   5   6 18315.3 1324.52   1
  -1   5   6 18752.7 1380.63   4
  -5   1   6 17600.4 1280.72   1
   1  -5   4 7419.14 616.919   5
  -5   1   4 8208.22 656.681   1
  -1   5   4 8199.70 718.193   1
  -1   5   4 7577.30 685.102   4
  -1   5   2 46856.5 2542.72   4
  -5   1   2 45725.2 2562.75   1
  -1  -5   0 31431.8 1880.95   5
   1   5   0 28020.2 1882.11   4
  -1   5   0 28261.0 1933.76   1
   1   5   2 42185.2 2772.87   4
  -1  -5   2 44534.4 2701.24   5
  -1   5  -2 41883.9 2683.82   1
  -1   5  -4 7724.79 550.471   1
   1   5   4 9402.39 765.335   4
   1   5   6 18685.0 1388.34   4
   1   5  10 9760.64 825.417   4
   1   5  10 7690.91 711.773   1
   5   1  12 515.077 251.959   4
  -5  -1  12 330.825 122.066   8
   1   5  12 583.158 240.131   4
  -1  -5  12 547.008 133.180   8
   5   1  14 1492.85 314.138   4
  -1  -5  14 1479.18 201.295   8
   1   5  14 1313.88 303.246   4
  -5  -1  14 1646.10 207.671   8
  -5   1 -16 1733.89 182.256   9
  -5  -1  16 1643.82 225.005   8
  -1  -5  16 1465.87 205.677   8
  -1  -5  18 10.7229 101.449   8
  -5  -1  18-44.5950 114.367   8
  -1  -5  20 460.808 120.752   8
  -5   1 -22 52.4633 54.9127   9
  -1   5 -22 12.5697 53.6331   9
  -1  -5  22 127.526 71.0640   8
   2   5 -23 107.376 39.7278   9
  -5  -2 -23 112.282 43.6094   9
  -5  -2 -21 92.5093 67.7653   9
   2  -5  21 55.4689 67.9506   8
  -2  -5 -21 92.7091 57.2432   9
  -5  -2 -19 1031.99 134.999   9
  -2  -5 -19 1094.48 132.062   9
   2  -5  19 930.007 153.371   8
  -2  -5 -17 1968.17 198.934   9
  -5  -2 -17 1767.46 197.296   9
   2  -5  17 1983.59 227.207   8
  -5   2  15 238.543 128.848   8
   2  -5  15 332.962 126.071   8
  -2  -5 -15 347.830 105.039   9
  -5  -2 -15 446.587 117.246   9
  -5   2  13 1254.93 191.533   8
  -5  -2 -13 1057.20 151.998   9
  -2  -5 -13 935.540 148.149   9
   2  -5  13 1305.50 187.115   8
  -5  -2 -11 2643.43 259.403   3
   2  -5  11 3091.49 281.011   8
  -2   5  11 2618.69 349.771   1
  -2  -5 -11 2618.42 238.059   9
  -5   2  11 2990.16 284.211   8
  -2   5   9 4065.48 442.568   1
  -5   2   9 3538.86 405.499   1
  -2   5   7 1983.15 316.129   1
  -5   2   7 2058.26 311.142   1
   2  -5   5 22844.4 1584.48   5
  -5   2   5 24249.6 1648.97   1
  -2   5   5 24949.4 1695.10   1
   5  -2   3 6384.23 471.066   5
  -5   2   3 6322.86 564.933   1
   2  -5   3 6641.94 528.625   5
  -2  -5  -1 2405.08 248.528   5
  -2   5   1 2377.23 336.542   1
  -2  -5   1 1898.70 226.840   5
  -2   5  -1 1643.50 245.188   1
  -5   2  -1 1833.76 233.922   1
  -2   5  -3 3716.37 317.519   1
  -2   5  -5 16554.3 1057.47   1
   2   5   9 3856.18 498.711   4
   2   5  11 2809.57 420.702   4
  -5  -2  13 2037.94 227.535   8
   5   2  13 1440.83 338.641   4
   2   5  13 1806.45 361.503   4
  -2  -5  15 254.970 121.701   8
   5   2  15 332.547 208.150   4
  -5  -2  15 393.073 131.840   8
   2   5  15 422.546 228.361   4
  -2  -5  17 1830.04 231.953   8
  -5  -2  17 1917.09 239.619   8
  -5   2 -17 2003.37 198.859   9
  -5   2 -19 1024.73 137.224   9
  -5  -2  19 851.361 157.863   8
  -2  -5  19 975.634 162.060   8
  -2  -5  21 69.5772 79.4102   8
  -5  -3 -22 3118.06 222.715   9
  -3  -5 -22 2817.24 212.224   9
  -3  -5 -20 315.009 79.1228   9
  -5  -3 -20 269.137 83.5936   9
   3  -5  20 166.219 94.2201   8
  -5  -3 -18 1767.77 190.351   9
  -3  -5 -18 1983.19 193.043   9
   3  -5  18 1980.82 224.252   8
   3  -5  16 124.834 112.387   8
  -5  -3 -16 66.6833 90.3595   9
  -3  -5 -16 24.6251 82.8184   9
   5  -3  14 2066.44 245.234   8
  -5  -3 -14 2755.90 246.458   9
  -3  -5 -14 2645.59 239.893   9
   3  -5  14 2172.86 261.016   8
  -5  -3 -12 22109.2 1460.32   9
  -3  -5 -12 22364.5 1456.10   9
   5  -3  12 22853.3 1483.59   8
  -5   3  12 26030.4 1515.00   8
  -5  -3 -12 23574.6 1476.07   3
   3  -5  12 21999.6 1490.62   8
   3  -5  10 7112.09 539.140   8
  -5  -3 -10 7049.71 509.845   9
  -3   5  10 8007.58 680.570   1
  -5   3  10 7208.62 544.009   8
  -5   3  10 7542.15 656.348   1
  -5   3   8 19144.9 1422.20   1
  -3   5   8 20539.6 1447.54   1
  -5   3   6 19256.9 1445.28   1
  -3   5   6 21066.1 1480.20   1
  -5   3   4 7508.22 649.110   1
   5  -3   4 6516.18 522.110   5
   3  -5   4 7428.80 572.820   5
  -3   5   4 6709.87 661.866   1
  -3  -5  -2 28038.7 1782.04   5
  -5   3   0 2922.01 306.638   1
  -3  -5   0 2577.21 267.940   5
  -3   5   0 2457.69 314.552   1
  -3   5  -2 23825.3 1540.14   1
  -5   3  -2 23481.3 1548.52   1
  -3   5  -4 4965.73 390.595   1
   3   5  10 6395.63 683.336   4
  -5  -3  10 6322.16 495.800   8
  -3  -5  10 6590.14 485.284   8
  -3  -5  12 21987.2 1441.04   8
   3   5  12 23101.7 1699.88   4
  -5  -3  12 22249.0 1451.30   8
   5   3  12 23497.0 1728.93   4
   3   5  14 2577.56 428.677   4
   5   3  14 1622.59 365.562   4
  -3  -5  16-56.6112 116.142   8
  -5  -3  16 59.4120 114.670   8
   3   5  16-79.1724 194.696   4
   5   3  16 193.763 170.474   4
  -3  -5  18 2213.65 246.652   8
  -5  -3  18 2062.65 244.384   8
  -5   3 -18 2070.65 203.064   9
  -5  -3  20 367.227 116.846   8
  -3  -5  20 289.866 112.270   8
  -5   3 -20 251.219 82.5922   9
  -3  -5  22 2314.70 232.583   8
  -3   5 -22 2870.55 214.389   9
  -5   3 -22 3043.68 217.233   9
  -5  -4 -21 1518.76 141.800   9
  -4  -5 -21 1429.73 137.574   9
  -4  -5 -19 591.868 102.490   9
   4  -5  19 477.023 112.381   8
  -5  -4 -19 437.999 95.7244   9
   4  -5  17 8149.12 646.064   8
   5  -4  17 9282.31 649.806   8
  -5  -4 -17 9235.15 628.010   9
  -4  -5 -17 9444.91 629.565   9
  -4  -5 -15 4820.39 387.504   9
  -5  -4 -15 4906.64 392.777   9
   5  -4  15 5281.89 423.011   8
   4  -5  15 4878.54 419.123   8
  -5  -4 -13 11172.1 741.010   9
   5  -4  13 10785.1 764.906   8
  -4  -5 -13 10472.5 733.053   9
   4  -5  13 10526.4 767.233   8
   5  -4  11 14656.0 993.492   8
  -4   5  11 16061.8 1151.46   1
   4  -5  11 14239.0 992.572   8
  -5   4  11 14097.2 1114.02   1
  -4  -5 -11 14432.7 962.348   9
  -5  -4 -11 14232.3 963.684   9
  -5  -4 -11 15934.0 992.906   3
  -4   5   9 142.230 153.693   1
  -5   4   9 250.388 162.311   1
  -4   5   7 146323. 9106.99   1
  -5   4   7 148584. 9103.69   1
   4  -5   5 62896.2 4073.40   5
  -5   4   5 67962.0 4207.33   1
  -4   5   5 72915.1 4239.86   1
   5  -4   5 63180.9 4052.57   5
  -4  -5  -3 49376.6 3007.05   5
   4  -5   3 50360.8 3066.19   5
  -5   4   3 48161.6 3154.51   1
   5  -4   3 46354.5 3033.49   5
  -4   5   1 71595.4 4456.61   1
  -5   4   1 70178.8 4436.70   1
  -4   5  -1 70116.8 4315.57   1
  -5   4  -1 69006.4 4313.21   1
  -5   4  -3 44515.0 2770.40   1
  -4   5  -3 43748.0 2762.61   1
  -4   5  -5 60745.4 3738.54   1
   5   4  11 12564.7 1154.40   4
  -4  -5  11 13384.0 907.164   8
   4   5  11 13407.6 1153.59   4
  -5  -4  11 13525.3 914.646   8
   4   5  13 9221.67 926.693   4
  -5  -4  13 9736.42 702.400   8
   5   4  13 10070.2 951.454   4
  -4  -5  13 9805.52 700.704   8
   4   5  15 4004.87 575.068   4
   5   4  15 4595.02 599.836   4
  -4  -5  17 9176.43 684.323   8
  -5  -4  17 9563.97 691.380   8
  -5   4 -19 657.213 106.485   9
  -5  -4  19 436.226 132.240   8
  -4  -5  19 472.272 131.988   8
  -4  -5  21 1366.75 181.829   8
  -5  -4  21 1414.63 183.577   8
  -5   4 -21 1936.44 162.917   9
  -4   5 -21 1901.59 160.587   9
  -4   5 -23 1400.07 118.180   9
  -5   4 -23 1454.02 119.028   9
  -5  -5 -22 4560.95 308.518   9
  -5  -5 -20 418.915 83.0991   9
   5  -5  18 4153.11 343.223   8
  -5  -5 -18 4053.85 322.967   9
  -5  -5 -16 3278.62 280.899   9
   5  -5  16 2747.52 294.827   8
  -5  -5 -14 6772.59 508.022   9
   5  -5  14 6898.12 538.353   8
   5  -5  12 8861.04 636.050   8
  -5  -5 -12 8292.34 602.977   9
   5  -5  10 24645.1 1653.21   8
  -5  -5 -10 25829.2 1621.40   9
  -5  -5 -10 26769.5 1653.70   3
  -5   5  10 26015.8 1834.97   1
  -5   5   8 103084. 6478.20   1
  -5   5   6 6665.91 688.172   1
  -5   5   4 65520.1 4017.36   1
   5  -5   4 59790.8 3846.22   5
  -5   5   0 15516.2 1123.28   1
  -5   5  -2 114308. 6991.62   1
  -5   5  -4 58662.1 3643.92   1
  -5   5 -10 22239.3 1443.52   6
  -5  -5  10 23836.4 1490.75   8
   5   5  10 25264.4 1790.82   4
  -5  -5  12 9842.45 695.858   8
   5   5  12 9058.31 924.691   4
   5   5  14 7017.36 801.122   4
  -5  -5  14 7487.85 564.837   8
   5   5  16 1518.11 361.682   4
  -5  -5  20 172.645 100.086   8
  -5   5 -20 352.630 81.0402   9
  -5   5 -22 5322.27 357.251   9
   0   6   0 116322. 7044.71   4
   0   6   2 56781.0 3563.37   4
   0  -6   2 56224.1 3538.37   5
   0   6   4 6528.55 615.567   4
   0   6  -4 5700.30 453.298   1
   0   6   6 72534.7 4655.11   4
   0   6   8 9670.33 928.675   4
   0   6   8 11477.4 899.711   1
   0   6  10 578.773 190.296   1
  -6   0 -10 533.039 111.087   9
   0   6  12 5287.82 605.980   4
  -6   0  12 5269.80 424.008   8
   0  -6  12 4683.96 393.560   8
  -6   0 -12 4543.71 365.133   9
   0   6  12 3623.65 471.613   1
  -6   0  14 2062.31 250.257   8
   0  -6  14 1661.16 229.587   8
  -6   0 -14 2270.02 216.641   9
  -6   0  16 6812.04 499.806   8
   0  -6  16 5601.11 468.315   8
  -6   0 -16 5348.06 428.860   9
   0  -6  18 651.521 144.498   8
   0  -6  20 282.865 104.638   8
  -6   0 -22 57.1334 57.8386   9
   0  -6  22-16.7127 61.8892   8
   1   6 -23-8.24189 36.6377   9
  -6  -1 -23 32.8584 37.4617   9
  -6  -1 -21 348.501 77.1693   9
   1  -6  21 152.894 79.7677   8
   1  -6  19 1560.45 202.575   8
  -6  -1 -19 1864.04 180.919   9
  -1  -6 -17 799.575 127.868   9
   1  -6  17 744.445 158.614   8
   1  -6  15 4073.17 379.237   8
  -6   1  15 4612.27 406.314   8
  -1  -6 -15 4431.51 346.985   9
  -6  -1 -13 2113.22 224.106   3
  -1  -6 -13 2326.83 218.969   9
  -6   1  13 2449.69 269.264   8
   1  -6  13 2313.24 251.114   8
  -6  -1 -13 2128.73 221.235   9
  -6  -1 -11 1763.13 191.904   3
   1  -6  11 1263.57 192.221   8
  -1   6  11 1370.60 338.190   4
  -1   6  11 1566.54 284.091   1
  -1  -6 -11 1308.96 156.426   9
  -6  -1 -11 1450.65 175.544   9
  -6   1  11 1471.66 222.315   8
  -1   6   9 20009.5 1328.13   1
  -6   1   9 15660.2 1225.35   1
  -6   1   7 23392.6 1635.63   1
  -1   6   7 22582.5 1656.71   1
  -1   6   7 24861.6 1755.51   4
  -6   1   5 62015.2 4067.34   1
  -1   6   5 61267.0 4116.26   4
  -1   6   5 71062.8 4162.09   1
   1  -6   3 154757. 9703.35   5
  -1   6   3 167313. 9746.05   4
   6  -1   3 157211. 9597.52   5
  -6   1   3 166610. 9755.99   1
   1   6  -1 48849.8 2973.94   4
  -1   6   1 46849.0 3149.17   1
   1   6   1 50506.8 3258.90   4
  -1  -6   1 50908.3 3230.55   5
  -1   6  -1 53568.2 3278.37   1
  -1  -6   3 162997. 9476.13   5
   1   6   3 154817. 9548.94   4
  -1   6  -3 151081. 9415.88   1
  -1   6  -5 55207.9 3509.00   1
   1   6   5 69267.8 3791.79   4
   1   6   7 19698.7 1482.97   4
   1   6  11 1606.93 353.026   4
  -1  -6  11 1287.23 180.781   8
   1   6  11 1847.28 303.923   1
  -6  -1  13 2500.83 279.087   8
   1   6  13 2380.34 408.160   4
   6   1  13 2425.66 423.866   4
  -6   1 -15 4700.73 343.542   9
  -1  -6  15 3813.88 361.823   8
  -6  -1  15 3663.93 372.118   8
  -6  -1  17 1097.81 194.365   8
  -1  -6  17 1260.00 189.372   8
  -6   1 -17 1156.76 155.477   9
  -1  -6  19 1414.04 197.291   8
  -6   1 -19 1645.27 169.447   9
  -1  -6  21 182.739 91.2470   8
  -1  -6  23 35.3034 47.3035   8
   2  -6  22 940.056 114.830   8
  -6  -2 -22 1054.06 107.935   9
  -6  -2 -20 351.456 85.3960   9
   2  -6  20 417.397 106.118   8
  -2  -6 -18 812.246 122.333   9
  -6  -2 -18 766.646 130.169   9
   2  -6  18 798.098 147.885   8
  -6  -2 -16 2188.39 214.913   9
  -2  -6 -16 2075.81 206.698   9
   2  -6  16 1491.32 217.794   8
   2  -6  14 786.676 172.374   8
  -2  -6 -14 995.532 146.049   9
  -6   2  12 517.326 151.808   8
  -2   6  12 348.999 148.373   1
  -6  -2 -12 829.416 153.641   3
   2  -6  12 546.324 146.273   8
  -2  -6 -12 547.838 114.435   9
  -2   6  10 2550.89 366.638   1
  -6  -2 -10 2426.60 234.760   9
  -6  -2 -10 2803.36 253.513   3
   2  -6  10 2493.73 260.395   8
  -6   2  10 2679.46 344.243   1
  -6   2  10 2405.04 262.554   8
  -6   2   8 24916.3 1727.11   1
  -2   6   8 24449.9 1746.69   1
  -6   2   6 22509.4 1642.10   1
  -2   6   6 24369.8 1699.10   1
  -6   2   4 41090.3 2701.90   1
  -2   6   4 41446.7 2785.37   1
   2  -6   4 41572.6 2642.20   5
   6  -2   4 40884.8 2552.12   5
  -6   2   2 93351.0 5647.40   1
  -2   6   2 85368.9 5705.82   1
  -2  -6  -2 90564.3 5570.10   5
   2  -6   2 93043.6 5609.95   5
  -2   6   0 32675.4 2149.23   1
  -2  -6   0 32044.7 2080.03   5
  -6   2   0 32710.4 2111.28   1
  -2  -6   2 91095.5 5470.06   5
  -2   6  -2 86691.1 5450.94   1
  -2   6  -4 39009.9 2503.35   1
   2   6   4 44444.0 2729.54   4
   2   6   6 22493.0 1660.28   4
   2   6   8 24692.6 1791.38   4
  -2  -6  10 2155.24 228.073   8
  -6  -2  10 2373.64 263.284   8
  -6  -2  12 470.979 147.750   8
   2   6  12 151.554 200.990   4
   2   6  12 303.964 173.254   1
  -2  -6  12 387.727 120.038   8
   2   6  14 439.749 229.208   4
   6   2  14 197.501 218.000   4
  -6  -2  16 1403.55 219.618   8
  -6   2 -16 1660.62 183.081   9
  -2  -6  16 1655.25 216.634   8
  -2  -6  18 887.628 165.067   8
  -6  -2  18 963.250 177.203   8
  -6   2 -18 971.384 139.995   9
  -6   2 -20 373.747 86.0372   9
  -2  -6  20 359.882 110.571   8
  -2  -6  22 909.457 128.674   8
  -6   2 -22 1090.48 110.248   9
  -2   6 -22 1030.48 107.663   9
   3   6 -23 353.920 52.4028   9
  -6  -3 -23 444.846 56.8412   9
   3  -6  21 555.427 99.6215   8
  -6  -3 -21 741.896 96.1002   9
  -3  -6 -21 618.113 83.4280   9
   3  -6  19 666.217 132.014   8
  -6  -3 -19 1001.46 130.859   9
  -3  -6 -19 818.168 114.786   9
   3  -6  17 5637.37 463.939   8
  -3  -6 -17 5935.19 429.375   9
  -6  -3 -17 5610.46 429.111   9
  -3  -6 -15 1157.85 156.621   9
  -6  -3 -15 1003.86 156.033   9
   3  -6  15 969.617 178.923   8
  -3  -6 -13 1216.15 165.933   9
   3  -6  13 1094.63 189.424   8
  -6  -3 -13 1347.46 177.332   9
  -6  -3 -13 1559.27 201.957   3
   3  -6  11 1821.73 231.795   8
  -3   6  11 1883.64 314.148   1
  -3  -6 -11 1535.22 181.156   9
   6  -3  11 1863.68 216.050   8
  -6  -3 -11 1925.14 225.306   3
   3  -6   9 2321.91 249.779   8
  -6   3   9 2640.31 360.131   1
  -3   6   9 2445.70 361.288   1
  -3   6   7 28378.6 1961.35   1
  -6   3   7 26992.7 1931.49   1
  -6   3   5 1887.67 342.788   1
   6  -3   5 1898.58 220.129   5
   3  -6   5 1816.69 266.420   5
  -3   6   5 1450.65 336.821   1
  -6   3   3 61236.5 3885.02   1
   3  -6   3 58479.8 3806.32   5
  -3  -6  -3 62310.7 3770.13   5
  -3   6   1 3840.23 449.143   1
  -3  -6  -1 3841.81 357.558   5
  -3   6  -1 3019.65 349.285   1
  -6   3  -1 3176.12 338.606   1
  -3   6  -3 64395.7 3980.36   1
  -3   6  -5 2288.77 230.082   1
   3   6   7 26846.7 1932.83   4
  -3  -6  11 1214.16 174.739   8
  -6  -3  11 1509.25 208.092   8
  -3   6 -11 1129.41 140.662   6
   3   6  13 1175.38 332.562   4
  -6  -3  13 1658.07 219.017   8
  -3  -6  13 1379.92 189.999   8
   6   3  13 1267.42 342.604   4
   3   6  15 584.740 271.178   4
   6   3  15 852.729 289.075   4
  -6  -3  17 5109.46 455.620   8
  -3  -6  17 5753.79 457.695   8
  -6   3 -17 5431.59 406.382   9
  -6  -3  19 929.627 161.499   8
  -3  -6  19 839.184 155.647   8
  -6   3 -19 1090.55 134.868   9
  -3  -6  21 495.257 114.407   8
  -3   6 -21 619.644 92.4510   9
  -6   3 -21 728.964 95.7243   9
  -3   6 -23 514.163 62.9155   9
  -6   3 -23 446.408 61.1550   9
  -6  -4 -22 4224.86 290.994   9
  -4  -6 -20 193.424 65.6266   9
   4  -6  20 164.330 80.8010   8
  -6  -4 -20 157.173 72.7644   9
   4  -6  18 2139.32 220.957   8
  -6  -4 -18 1728.67 192.093   9
  -4  -6 -18 2029.23 192.632   9
   6  -4  16 1605.98 195.572   8
  -4  -6 -16 1465.15 181.170   9
  -6  -4 -16 1478.52 182.067   9
   4  -6  16 1406.18 196.902   8
  -4  -6 -14 4638.60 358.455   9
  -6  -4 -14 4231.85 355.420   9
   4  -6  14 3828.53 375.253   8
   6  -4  14 4051.95 375.809   8
   4  -6  12 5268.29 437.256   8
   6  -4  12 5196.14 426.661   8
  -4   6  12 4155.53 516.796   1
  -6  -4 -12 5215.97 405.222   9
  -6  -4 -12 5522.32 429.903   3
  -4  -6 -12 4947.39 399.054   9
  -6  -4 -10 8179.99 596.389   3
   6  -4  10 8553.11 608.011   8
  -4  -6 -10 8587.87 575.684   9
  -6  -4 -10 7925.19 578.390   9
  -4   6  10 9606.05 799.098   1
  -4  -6 -10 8545.20 609.468   3
  -6   4  10 7804.19 745.454   1
   4  -6  10 7644.63 605.142   8
  -6   4   8 64661.0 4059.01   1
  -4   6   8 60286.5 4052.36   1
  -6   4   6 5185.40 566.049   1
   4  -6   6 4082.60 438.197   5
  -4   6   6 4767.63 562.380   1
  -4   6   4 16492.3 1375.40   1
  -6   4   4 20162.9 1396.43   1
   4  -6   4 17710.3 1258.61   5
   6  -4   4 16624.4 1210.02   5
  -4  -6  -4 19179.4 1211.55   5
  -4  -6  -2 89072.9 5474.59   5
  -4   6   2 89815.5 5635.22   1
  -4   6   0 66252.5 4131.68   1
  -6   4   0 64547.2 4105.78   1
  -4   6  -2 87985.1 5345.93   1
  -6   4  -2 85349.8 5343.04   1
  -4   6  -4 21640.6 1426.38   1
   4   6   8 50771.4 3403.03   4
  -4   6 -10 7101.34 524.264   6
  -6   4 -10 7815.11 527.754   6
  -6  -4  10 8142.78 591.752   8
  -4  -6  10 7806.21 561.253   8
   6   4  12 4351.60 612.431   4
   4   6  12 4248.20 585.864   4
  -6  -4  12 5128.74 409.895   8
  -4  -6  12 4388.82 378.906   8
   6   4  14 4362.31 609.425   4
  -6  -4  14 4746.46 401.465   8
   4   6  14 3745.11 575.589   4
  -4  -6  14 4482.74 387.580   8
   6   4  16 788.423 277.027   4
   4   6  16 630.040 260.609   4
  -6  -4  18 2006.37 246.625   8
  -6   4 -18 2310.70 211.704   9
  -6   4 -20 209.374 77.4236   9
  -6  -4  20 180.347 97.9469   8
  -4   6 -20 224.047 74.0962   9
  -4  -6  20 144.507 98.3054   8
  -6   4 -22 4145.45 283.192   9
  -4   6 -22 4302.73 283.309   9
  -4  -6  22 3547.49 300.674   8
  -5  -6 -21 2454.57 189.350   9
  -6  -5 -21 2417.04 192.297   9
   5  -6  19 215.529 88.5481   8
  -5  -6 -19 169.259 75.5154   9
  -6  -5 -19 202.912 77.3765   9
   6  -5  17 7361.43 536.638   8
   5  -6  17 6865.42 531.800   8
  -5  -6 -17 6876.84 509.467   9
  -6  -5 -17 7335.17 513.123   9
   6  -5  15 203.375 115.994   8
  -6  -5 -15 271.061 111.281   9
   5  -6  15 282.671 128.004   8
  -5  -6 -15 64.3951 95.5685   9
  -6  -5 -13 8736.50 651.809   9
   5  -6  13 9477.83 689.483   8
  -5  -6 -13 9150.11 653.192   9
   6  -5  13 9801.34 692.049   8
  -6  -5 -11 8844.93 647.521   9
  -6  -5 -11 10077.4 682.150   3
  -5   6  11 8473.28 823.315   1
  -6   5  11 8123.53 808.550   1
   5  -6  11 10219.5 693.600   8
   6  -5  11 9161.49 677.003   8
  -5  -6 -11 8841.37 643.862   9
  -5  -6 -11 9984.08 685.499   3
   5  -6   9 10123.4 756.889   8
  -5  -6  -9 11334.4 722.960   9
   6  -5   9 10357.6 754.414   8
  -6   5   9 11779.2 973.920   1
  -6  -5  -9 10520.6 719.670   9
  -5   6   9 10775.4 957.781   1
  -6  -5  -9 11220.6 752.097   3
  -6   5   7 63910.9 4065.41   1
  -5   6   7 59756.1 4043.46   1
   5  -6   5 39123.9 2638.82   5
  -5   6   5 46083.5 2850.33   1
  -6   5   5 39021.3 2791.70   1
   6  -5   5 41137.7 2621.41   5
   5  -6   3 113782. 6841.82   5
   6  -5   3 108829. 6810.35   5
  -5   6   1 36709.7 2465.37   1
  -6   5   1 36775.9 2452.05   1
  -5   6  -1 37660.7 2460.41   1
  -6   5  -1 37883.1 2458.78   1
  -6   5  -3 103078. 6436.29   1
  -5   6  -3 106833. 6439.25   1
  -5   6  -5 34612.8 2210.88   1
  -6   5  -9 9776.06 660.084   6
  -5   6  -9 9477.50 660.227   6
  -5  -6   9 9913.79 693.734   8
  -6  -5   9 9811.99 700.332   8
  -6  -5  11 9016.27 666.077   8
   6   5  11 9629.61 946.833   4
   5   6  11 10509.7 957.139   4
  -6   5 -11 8878.64 620.915   6
  -5  -6  11 10219.1 670.296   8
  -5   6 -11 8696.70 621.365   6
  -6  -5  13 8487.61 621.259   8
   5   6  13 8016.32 859.685   4
   6   5  13 8131.51 878.823   4
  -5  -6  13 8144.70 608.760   8
   6   5  15 177.396 196.216   4
   5   6  15 355.906 214.293   4
  -6  -5  15 551.724 141.775   8
  -5  -6  15 265.714 124.953   8
  -5  -6  17 7023.42 526.901   8
  -6  -5  17 6533.76 519.707   8
  -5   6 -19 205.654 73.3987   9
  -6   5 -19 58.5146 70.0295   9
  -5  -6  21 2294.00 225.880   8
  -6   5 -21 2659.37 201.557   9
  -5   6 -21 2643.98 202.674   9
  -6  -6 -20 152.900 64.3620   9
  -6  -6 -18 2882.57 251.092   9
   6  -6  18 2964.85 268.075   8
  -6  -6 -16 4296.95 344.654   9
   6  -6  16 4085.98 365.506   8
   6  -6  14 945.919 176.056   8
  -6  -6 -14 833.989 151.748   9
  -6  -6 -12 1446.64 223.244   3
   6  -6  12 1307.66 208.751   8
  -6  -6 -12 1270.46 175.624   9
  -6  -6 -10 2272.72 265.602   3
  -6   6  10 1880.44 364.715   1
  -6  -6 -10 2489.27 231.406   9
   6  -6  10 2298.91 261.124   8
  -6  -6  -8 63998.4 3902.75   9
   6  -6   8 61684.7 3946.03   8
   6  -6   6 9436.36 803.683   5
  -6   6   6 12013.2 1011.71   1
   6  -6   4 41305.4 2742.78   5
  -6   6   4 44814.4 2942.05   1
  -6   6   2 103667. 6530.20   1
  -6   6   0 106195. 6606.29   1
  -6   6  -2 92054.5 5706.58   1
  -6   6  -4 33288.9 2166.66   1
  -6  -6   8 63733.8 3932.11   8
  -6   6  -8 63934.0 3905.21   6
  -6  -6  10 1961.97 241.305   8
  -6   6 -10 2112.12 208.099   6
  -6  -6  12 979.116 172.808   8
  -6   6 -12 1047.74 134.777   6
   6   6  12 794.654 334.601   4
   6   6  14 828.374 286.615   4
  -6  -6  14 892.062 166.499   8
  -6  -6  16 3763.65 346.649   8
  -6  -6  18 3250.35 298.993   8
  -6   6 -18 2979.25 250.186   9
  -6   6 -20 275.457 70.2631   9
  -6   6 -22 4044.01 272.414   9
   0  -7   1 13568.9 971.102   5
   0   7   1 12827.9 929.117   4
   0   7   3 100887. 6103.36   4
   0   7  -3 97688.9 6017.30   1
   0  -7   3 95794.6 6045.66   5
   0   7   5 61409.4 3653.44   4
   0   7  -5 53623.6 3400.84   1
   0   7   7 4425.31 528.446   1
   0   7   7 5173.34 605.694   4
   0  -7   9 13821.1 974.714   8
   0   7   9 16555.8 1190.00   1
   0   7   9 16447.2 1263.80   4
  -7   0  -9 14052.1 947.197   9
  -7   0   9 15472.3 1009.62   8
   0   7  11 967.339 256.633   1
  -7   0 -11 1106.15 163.350   9
   0  -7  11 1437.63 191.950   8
  -7   0 -13 236.037 104.636   9
   7   0  13 346.339 232.411   4
  -7   0  13 344.791 144.871   8
  -7   0  15 656.762 179.013   8
   0  -7  15 824.793 163.492   8
  -7   0 -15 678.229 143.239   9
   0  -7  17 345.368 120.335   8
  -7   0 -17 180.397 100.574   9
   0  -7  19 1262.97 177.357   8
  -7   0 -19 1485.43 158.434   9
   0  -7  21 134.821 81.9450   8
   0   7 -23 30.0179 33.9643   9
   1  -7  22 405.768 82.9312   8
  -7  -1 -22 596.412 76.9827   9
   1  -7  20 365.149 103.382   8
   1  -7  18 122.854 112.267   8
  -7  -1 -16 2127.53 214.874   9
   1  -7  16 1606.86 227.764   8
  -7   1  14 1732.62 246.637   8
  -7  -1 -14 2007.99 208.288   9
   1  -7  14 1281.50 204.859   8
  -1   7  12 208.717 174.226   1
  -7  -1 -12 713.396 134.601   9
  -7   1  12 493.683 173.151   8
  -7  -1 -12 635.311 144.689   3
   1  -7  12 885.857 167.447   8
  -1   7  10 3962.94 475.516   1
  -7  -1 -10 3557.24 309.738   9
  -7  -1 -10 3884.22 310.225   3
  -1   7   8 38952.1 2846.49   4
  -1   7   8 43887.7 2807.00   1
  -7   1   6 35370.5 2375.16   1
  -1   7   6 35567.8 2424.69   1
  -1   7   6 34726.8 2426.59   4
   1  -7   4 63700.9 4011.52   5
  -1   7   4 63586.6 4068.20   4
  -1   7   2 64434.7 4179.81   1
  -1  -7   0 125000. 7686.74   5
  -1   7   0 126477. 7773.51   1
   1   7   0 125880. 7643.58   4
  -1   7  -2 69324.5 4300.31   1
   1   7   2 65377.7 4320.26   4
  -1  -7   2 71232.7 4303.04   5
  -1   7  -4 53388.3 3391.43   1
   1   7   4 58186.7 3579.06   4
   1   7   6 44151.7 2984.30   4
   1   7   8 35857.7 2498.36   4
   1   7  10 3850.11 477.425   1
   1   7  10 4525.03 558.659   4
  -1  -7  10 3836.89 330.731   8
  -7  -1  10 3666.99 350.143   8
  -7   1 -10 3466.25 304.725   9
  -1  -7  12 839.762 150.447   8
   1   7  12 523.484 208.812   1
  -7   1 -12 899.302 142.137   9
   7   1  14 1437.56 350.251   4
  -7   1 -14 1597.22 185.127   9
   1   7  14 821.043 287.012   4
  -7  -1  16 1813.09 248.683   8
  -1  -7  16 1865.99 232.427   8
  -7   1 -16 1986.98 204.853   9
  -7   1 -18 241.848 95.3647   9
  -1  -7  18 259.933 118.108   8
  -7   1 -20 354.851 85.0815   9
  -1  -7  20 339.859 106.792   8
  -1  -7  22 289.662 75.7943   8
  -7   1 -22 339.784 65.9558   9
  -1   7 -22 376.183 66.1269   9
  -7  -2 -23 116.923 37.5638   9
  -7  -2 -21 424.841 77.5221   9
   2  -7  21 408.547 92.9589   8
   2  -7  19 2012.43 221.430   8
  -7  -2 -19 2086.61 195.648   9
   2  -7  17 4726.61 417.644   8
  -2  -7 -17 5325.99 385.562   9
   2  -7  15 333.685 134.793   8
  -2  -7 -15 58.5615 85.2100   9
  -7  -2 -13 3974.49 341.897   3
  -2  -7 -13 3721.49 323.862   9
   2  -7  13 4051.32 373.226   8
  -7  -2 -13 4146.91 342.703   9
  -2   7  11 518.500 197.022   1
   2  -7  11 315.745 122.523   8
  -7  -2 -11 455.544 117.816   9
  -7  -2 -11 417.775 141.053   3
  -2  -7 -11 372.207 98.0412   9
  -7   2   9 4514.06 491.811   1
  -7  -2  -9 4432.29 342.820   3
  -7  -2  -9 4252.44 341.473   9
  -2   7   9 4652.33 532.726   1
  -2   7   7 44524.8 2951.01   1
  -7   2   7 43356.2 2915.55   1
  -7   2   5 59024.4 3940.23   1
  -2   7   5 65905.8 4040.80   1
   2  -7   5 60292.0 3881.30   5
  -7   2   3 79640.4 5121.23   1
   2  -7   3 82979.8 5079.81   5
  -2  -7  -1 112097. 6727.33   5
  -2   7   1 115223. 6862.59   1
   2   7  -1 105829. 6677.18   4
  -2  -7   1 113029. 6767.98   5
  -2   7  -1 117290. 6811.52   1
   2   7   1 100385. 6795.99   4
   2   7   3 79180.5 5050.09   4
  -2   7  -3 79823.3 4907.79   1
   2   7   5 57161.1 3374.75   4
  -2   7  -5 48341.8 3097.45   1
   2   7   7 40333.1 2755.54   4
  -7  -2   9 3161.49 328.244   8
  -2  -7   9 4096.04 332.324   8
   2   7  11 817.891 240.077   1
  -7  -2  11 731.498 162.344   8
  -2  -7  11 507.391 127.479   8
  -7   2 -13 3868.39 310.177   9
  -2  -7  13 3419.02 323.314   8
   2   7  13 2523.05 475.108   4
   7   2  13 3812.61 547.706   4
  -7  -2  13 3736.59 354.214   8
  -7   2 -15 285.190 103.734   9
   7   2  15 79.6313 201.180   4
   2   7  15 293.265 221.437   4
  -7   2 -17 4648.76 362.537   9
  -2  -7  17 4420.54 396.625   8
  -7  -2  17 4937.98 418.364   8
  -2  -7  19 1608.02 201.301   8
  -7   2 -19 1682.47 170.885   9
  -7   2 -21 433.349 77.4588   9
  -2  -7  21 219.702 85.1286   8
  -2   7 -23 89.3548 35.4908   9
  -7   2 -23 79.0904 34.1022   9
   3  -7  22 1875.85 170.750   8
  -7  -3 -22 2398.24 169.617   9
   3  -7  20 731.421 121.909   8
  -7  -3 -20 569.440 96.5809   9
   3  -7  18 1554.45 195.643   8
  -7  -3 -18 1700.91 179.724   9
  -3  -7 -18 1572.48 167.604   9
  -3  -7 -16 805.901 136.572   9
   3  -7  16 674.944 153.288   8
  -7  -3 -16 819.390 142.633   9
  -3  -7 -14 303.190 110.034   9
   3  -7  14 116.343 129.439   8
  -3   7  12 5786.54 633.976   1
  -7  -3 -12 6862.56 503.474   3
  -3  -7 -12 6442.88 481.558   9
   3  -7  12 6537.58 522.122   8
  -3  -7 -10 834.576 125.510   9
   3  -7  10 733.432 164.087   8
  -7  -3 -10 789.603 136.692   9
  -7   3  10 770.646 229.053   1
  -3   7  10 1025.65 251.188   1
  -7  -3 -10 679.202 156.228   3
  -3   7   8 15704.3 1143.26   1
  -3  -7  -8 11924.7 882.411   3
  -7  -3  -8 13530.5 856.644   9
  -7   3   8 13370.4 1086.74   1
  -7   3   6 1315.74 319.343   1
  -3   7   6 1379.50 345.862   1
  -7   3   4 30020.6 1972.22   1
   7  -3   4 26646.3 1771.87   5
  -3  -7  -4 27668.5 1825.59   5
   3  -7   4 27473.1 1859.69   5
   3  -7   2 29226.6 1946.34   5
  -3  -7  -2 29273.8 1902.80   5
  -3   7   2 28346.0 2045.22   1
  -7   3   0 21970.1 1483.59   1
  -3  -7   0 20820.3 1440.55   5
  -3   7   0 21239.3 1516.56   1
  -3   7  -2 30693.0 2013.99   1
  -3   7  -4 23391.9 1537.10   1
   3   7   6 850.554 293.476   4
   3   7   8 15045.2 1251.21   4
  -7   3 -10 1007.97 134.868   6
  -7  -3  10 1151.22 182.722   8
   3   7  10 1263.50 332.475   4
  -3  -7  10 1103.94 162.090   8
  -3   7 -12 4709.44 361.281   6
  -3  -7  12 4594.34 391.644   8
  -7  -3  12 5407.00 435.184   8
   3   7  12 4178.40 544.031   1
  -7   3 -14 160.479 103.963   9
  -3  -7  14-22.4968 105.802   8
   7   3  14 44.3371 218.114   4
   3   7  14 86.2376 177.495   4
  -7  -3  14 169.459 129.904   8
  -7   3 -16 624.839 121.406   9
   7   3  16 564.682 233.071   4
   3   7  16 419.702 233.362   4
  -7   3 -18 1978.73 194.481   9
  -7  -3  18 1877.93 234.341   8
  -7   3 -20 390.037 83.8243   9
  -3  -7  20 499.779 120.858   8
  -3  -7  22 1853.13 181.523   8
  -3   7 -22 2174.71 162.683   9
  -7   3 -22 2063.77 162.277   9
   4  -7  21 1070.54 126.596   8
  -7  -4 -21 1269.36 121.674   9
  -7  -4 -19 555.844 103.071   9
   4  -7  19 393.294 112.834   8
  -4  -7 -19 516.410 95.1630   9
  -4  -7 -17 6639.02 461.245   9
   4  -7  17 5949.99 485.506   8
  -7  -4 -17 6075.48 459.641   9
  -7  -4 -15 426.442 132.100   9
  -4  -7 -15 583.528 127.115   9
   4  -7  15 640.166 154.035   8
   4  -7  13 2367.53 271.506   8
  -4  -7 -13 1972.78 228.703   9
  -7  -4 -13 2159.71 242.054   9
   7  -4  13 2418.98 263.698   8
  -7  -4 -13 2203.30 251.784   3
   4  -7  11 3102.41 314.459   8
  -7   4  11 2244.64 386.140   1
  -4   7  11 2756.45 417.833   1
   7  -4  11 3436.69 311.148   8
  -4  -7 -11 2848.54 268.188   9
  -7  -4 -11 3520.46 311.709   3
   4  -7   9 5342.97 453.661   8
  -4  -7  -9 5301.35 404.116   9
   7  -4   9 5653.39 447.169   8
  -4   7   9 7157.73 680.519   1
  -7  -4  -9 5684.88 435.419   3
  -4  -7  -9 5644.56 456.476   3
  -7   4   9 6486.67 639.622   1
  -7   4   7 15228.4 1271.90   1
  -4   7   7 16060.8 1293.08   1
   7  -4   5 19293.1 1288.01   5
   4  -7   5 17587.6 1333.93   5
  -7   4   5 19385.7 1477.15   1
  -4   7   5 19481.3 1511.87   1
   4  -7   3 91684.2 5555.07   5
  -4  -7  -3 86576.7 5490.46   5
  -7   4   3 90790.5 5652.37   1
  -7   4   1 2147.68 330.689   1
  -4   7   1 2412.25 372.735   1
  -4   7  -1 3546.61 399.763   1
  -7   4  -1 3301.63 374.571   1
  -4   7  -3 87424.8 5395.56   1
  -4   7  -5 13622.6 949.399   1
   4   7   7 13078.8 1133.93   4
  -7  -4   9 5867.76 469.279   8
   4   7   9 5492.21 678.236   4
  -7   4  -9 5188.78 407.710   6
  -4  -7   9 5828.84 442.475   8
  -4  -7  11 2775.65 265.524   8
  -7  -4  11 2539.41 285.809   8
  -4   7 -11 2625.40 235.970   6
  -7   4 -11 2491.02 229.325   6
  -4  -7  13 2338.46 252.405   8
  -7  -4  13 2726.86 286.284   8
   4   7  13 2109.50 436.068   4
   7   4  13 2838.04 501.970   4
  -4  -7  15 473.648 139.671   8
   4   7  15 352.898 195.562   4
  -7  -4  15 550.701 161.758   8
  -7   4 -15 396.086 113.304   9
   7   4  15 174.688 199.507   4
  -4  -7  17 6406.75 509.115   8
  -7   4 -17 6737.90 476.589   9
  -7   4 -19 552.897 101.468   9
  -7   4 -21 1077.99 113.304   9
  -4  -7  21 944.617 135.231   8
  -4   7 -21 1173.54 115.396   9
  -7  -5 -22 2750.87 196.927   9
  -5  -7 -20 80.2508 53.3230   9
  -7  -5 -20 63.0616 61.3455   9
   5  -7  20-18.4041 69.1803   8
   5  -7  18 1542.82 196.626   8
  -5  -7 -18 1643.76 171.550   9
  -7  -5 -18 1776.23 181.840   9
  -5  -7 -16 2811.51 259.528   9
  -7  -5 -16 2907.73 266.142   9
   5  -7  16 2551.67 282.924   8
   7  -5  16 2726.68 273.135   8
  -7  -5 -14 731.612 157.210   9
   7  -5  14 1012.56 190.006   8
   5  -7  14 767.860 172.892   8
  -5  -7 -14 1171.56 165.852   9
  -5  -7 -12 3473.99 312.390   9
  -7  -5 -12 3326.90 312.107   9
   7  -5  12 3948.18 352.888   8
   5  -7  12 3236.24 337.256   8
  -7  -5 -12 3734.44 347.906   3
  -5   7  12 3526.97 474.264   1
  -7  -5 -10 209.461 101.901   9
  -5   7  10 36.3697 174.535   1
  -7  -5 -10 83.0680 141.021   3
   7  -5  10 59.1916 120.306   8
  -7   5  10 212.618 165.541   1
   5  -7  10 163.477 127.010   8
  -5  -7 -10 146.054 83.6280   9
  -5   7   8 37074.4 2326.35   1
   5  -7   8 29765.5 1996.19   8
  -5  -7  -8 32561.7 1952.80   9
  -5  -7  -8 31466.4 1993.41   3
  -7  -5  -8 32046.7 1977.08   3
   7  -5   8 29122.7 1985.61   8
  -7   5   8 34895.7 2297.50   1
   5  -7   6 1334.48 237.183   5
  -7   5   6 365.855 259.472   1
  -5   7   6 1303.21 362.792   1
  -7   5   4 4566.08 575.516   1
   7  -5   4 3985.97 414.062   5
   5  -7   4 4800.70 474.896   5
  -5   7   2 55583.5 3680.69   1
  -5   7   0 29522.4 2017.16   1
  -7   5   0 29056.0 1998.18   1
  -5   7  -2 50209.3 3205.24   1
  -7   5  -2 50033.2 3201.07   1
  -5   7  -4 3117.96 333.383   1
  -5  -7   8 29597.8 1920.40   8
  -5   7  -8 31095.4 1906.74   6
   5   7   8 32937.0 2250.08   4
  -7  -5   8 27746.1 1925.16   8
  -7   5  -8 31856.0 1906.96   6
  -7   5 -10 166.380 88.8302   6
  -5  -7  10 153.170 99.9575   8
  -5   7 -10 296.063 97.7447   6
   5   7  10 130.093 252.644   4
  -7  -5  10 218.432 124.588   8
  -5   7 -12 3497.36 303.731   6
  -7   5 -12 3751.64 302.458   6
   7   5  12 4518.03 618.723   4
  -7  -5  12 3803.88 360.351   8
  -5  -7  12 3990.00 344.696   8
  -7  -5  14 990.479 181.669   8
  -5  -7  14 763.597 157.878   8
   5   7  14 733.059 302.709   4
   7   5  14 1317.90 362.475   4
  -7   5 -16 2365.93 222.991   9
  -7  -5  16 2203.77 263.227   8
  -5  -7  16 2406.56 257.143   8
  -5  -7  18 1696.95 213.153   8
  -7   5 -18 1741.46 176.875   9
  -7  -5  18 1870.67 223.635   8
  -7   5 -20 65.3548 60.1629   9
  -5   7 -20 36.2483 54.6661   9
  -5   7 -22 3210.00 221.136   9
  -7   5 -22 3169.86 220.933   9
  -6  -7 -21 924.935 92.2820   9
  -7  -6 -21 881.563 94.5060   9
  -6  -7 -19 759.904 105.277   9
  -7  -6 -19 739.755 106.599   9
   6  -7  19 594.497 108.923   8
  -7  -6 -17 4040.06 324.783   9
   7  -6  17 3625.06 335.935   8
  -6  -7 -17 4235.32 324.088   9
   6  -7  17 4010.96 346.976   8
   6  -7  15 622.805 161.725   8
  -7  -6 -15 734.072 143.105   9
   7  -6  15 596.130 154.174   8
  -6  -7 -15 683.090 139.534   9
  -7  -6 -13 6570.19 499.779   9
   6  -7  13 6847.83 536.837   8
  -6  -7 -13 6200.23 493.183   9
   7  -6  13 6521.20 527.371   8
  -7   6  11 4297.85 558.505   1
   7  -6  11 4453.79 396.040   8
  -6   7  11 3807.76 524.754   1
  -7  -6 -11 4437.36 365.216   9
  -6  -7 -11 4348.97 362.454   9
   6  -7  11 4248.33 395.888   8
  -7  -6 -11 4611.16 400.154   3
  -6   7   9 13416.9 1141.90   1
  -7   6   9 14153.3 1162.82   1
   6  -7   9 12317.4 887.845   8
  -6  -7  -9 12629.5 837.659   9
  -7  -6  -9 12893.6 845.288   9
   7  -6   9 12010.8 879.243   8
  -6  -7  -9 12679.9 879.123   3
  -7   6   7 21387.6 1566.54   1
  -7  -6  -7 18567.0 1169.20   9
  -6  -7  -7 18497.4 1164.05   9
  -6   7   7 18270.0 1510.65   1
  -7  -6  -7 18805.9 1195.12   3
  -6  -7  -7 18020.3 1203.35   3
   6  -7   7 17243.5 1218.01   8
   7  -6   5 8876.34 712.255   5
  -7   6   5 9366.91 916.352   1
   6  -7   5 8070.00 715.399   5
  -6   7   5 7156.97 859.676   1
   7  -6   3 87243.6 5426.21   5
   6  -7   3 86866.6 5449.69   5
  -6   7   1 587.198 258.488   1
  -7   6   1 1079.76 261.399   1
  -7   6  -1 271.960 183.410   1
  -6   7  -1 379.985 195.964   1
  -7   6  -3 79267.1 4985.78   1
  -6   7  -3 80620.2 4985.62   1
  -6   7  -5 7972.81 639.771   1
  -7  -6   7 16942.4 1079.50   7
  -6  -7   7 16048.0 1074.10   7
  -6   7  -7 17469.5 1122.29   6
  -7   6  -7 18042.0 1122.68   6
  -7  -6   9 12195.9 861.628   8
  -6  -7   9 11439.9 837.257   8
   6   7   9 13700.9 1165.84   4
  -7   6  -9 11989.8 814.495   6
  -6   7  -9 12345.7 820.953   6
  -6  -7  11 4347.49 389.593   8
   7   6  11 4590.68 663.908   4
  -7  -6  11 4332.73 393.920   8
  -6   7 -11 4310.98 355.573   6
  -7   6 -11 5059.64 363.270   6
  -7  -6  13 6397.63 515.866   8
  -6  -7  13 7003.29 519.979   8
  -7   6 -13 6449.96 465.460   6
   7   6  13 7347.36 825.570   4
   6   7  13 6231.44 762.907   4
  -6   7 -13 6167.53 464.318   6
   7   6  15 279.566 218.949   4
  -6  -7  15 436.102 136.656   8
  -7  -6  15 451.580 140.120   8
   6   7  15 600.083 265.058   4
  -7   6 -17 3972.77 310.753   9
  -7  -6  17 3902.60 351.338   8
  -6  -7  17 3990.12 349.374   8
  -7   6 -19 924.324 108.960   9
  -6   7 -19 844.180 107.018   9
  -7  -6  19 890.297 147.752   8
  -6  -7  19 816.988 142.136   8
  -7   6 -21 1148.28 107.785   9
  -6   7 -21 1146.59 106.691   9
  -7  -7 -20 613.912 83.7302   9
   7  -7  18 1561.51 184.606   8
  -7  -7 -18 1874.18 176.634   9
  -7  -7 -16 5852.93 447.494   9
   7  -7  16 6110.31 474.465   8
   7  -7  14 7460.76 576.937   8
  -7  -7 -14 7136.29 540.552   9
  -7  -7 -12 6136.18 482.537   9
   7  -7  12 6410.17 515.112   8
  -7  -7 -10 12635.7 860.690   9
   7  -7  10 13088.6 907.829   8
  -7   7  10 12570.4 1137.76   1
   7  -7   8 47063.0 3015.50   8
  -7  -7  -8 46384.9 2999.87   3
  -7  -7  -8 49624.2 2970.88   9
  -7   7   8 55680.9 3413.55   1
  -7   7   6 745.066 305.192   1
  -7  -7  -6 405.957 85.8143   9
  -7  -7  -6 541.950 149.487   3
   7  -7   6 280.878 150.724   5
  -7  -7  -4 24909.9 1550.41   9
   7  -7   4 27336.9 1765.85   5
  -7  -7  -4 24454.3 1574.01   3
  -7   7   2 100805. 6435.96   1
  -7   7   0 21733.0 1603.01   1
  -7   7  -2 95086.9 5935.96   1
  -7   7  -4 18226.2 1268.07   6
  -7   7  -4 19143.2 1365.43   1
  -7  -7   4 20027.7 1214.57   7
  -7   7  -6 601.932 143.683   6
  -7  -7   6 430.885 88.9481   7
  -7  -7   8 42079.6 2866.19   8
  -7   7  -8 49250.8 2852.09   6
  -7   7 -10 13340.4 870.697   6
  -7  -7  10 11830.6 905.756   8
  -7  -7  12 7395.69 572.327   8
   7   7  14 5543.33 773.443   4
  -7   7 -14 7102.33 496.121   6
  -7  -7  14 7212.56 550.480   8
  -7   7 -16 6254.60 441.776   9
  -7  -7  16 5888.76 475.275   8
  -7  -7  18 1540.29 185.031   8
  -7   7 -18 1413.71 148.935   9
  -7   7 -20 689.469 83.2675   9
   0  -8   0 11032.0 859.807   5
   0   8  -2 205.829 172.525   1
   0  -8   2 43.5973 141.944   5
   0   8   2 78.3845 127.627   4
   0   8  -4 14940.3 1086.23   1
   0   8   4 16972.1 1233.28   4
   0   8   6 901.959 298.279   1
   0   8   6 751.388 265.544   4
  -8   0  -8 866.010 122.439   9
   0   8   8 879.382 317.407   4
   0  -8   8 674.861 135.979   8
  -8   0   8 791.123 158.294   8
   0   8   8 720.858 254.753   1
   0   8  10 15086.7 1169.88   1
   0   8  10 15491.8 1231.77   4
   0  -8  10 13453.9 940.770   8
  -8   0  10 13696.9 967.630   8
  -8   0 -10 13771.5 896.180   3
  -8   0 -10 13424.8 911.733   9
   0  -8  12 3275.75 332.407   8
   0   8  12 3294.07 467.231   1
  -8   0 -12 3780.13 316.999   9
  -8   0 -14 4063.92 351.097   9
  -8   0 -16 1176.59 160.661   9
   0  -8  16 1063.56 181.079   8
   0  -8  18 40.1491 96.2436   8
  -8   0 -18 14.1037 82.4540   9
  -8   0 -20 968.516 118.305   9
   0  -8  20 1018.41 150.152   8
   0  -8  22 359.059 75.5607   8
  -8   0 -22 372.366 60.9476   9
   1  -8  21 144.013 69.1174   8
   1  -8  19 995.791 156.405   8
  -8  -1 -19 1249.56 141.651   9
  -8  -1 -17 3023.82 264.284   9
   1  -8  17 2705.77 287.294   8
  -8  -1 -15 8107.14 593.347   9
   1  -8  15 8372.29 626.084   8
  -8  -1 -13 3265.58 307.426   3
  -8  -1 -13 3869.87 326.216   9
   1  -8  11 822.920 172.703   8
  -8  -1 -11 1133.41 161.381   3
  -8  -1 -11 679.931 146.048   9
  -1   8  11 715.285 233.410   1
  -1   8   9 8881.77 810.379   1
   1  -8   9 7477.08 600.986   8
  -8  -1  -9 8793.86 572.433   3
  -8  -1  -9 8304.83 580.952   9
  -1   8   7 35598.6 2415.48   1
  -1   8   7 33104.0 2419.85   4
  -1   8   5 39725.3 2882.74   4
  -1   8   5 48745.6 3013.48   1
  -1   8   3 860.313 322.756   1
   1  -8   1 60893.2 3798.53   5
  -1  -8  -1 58007.2 3772.04   5
  -1   8   1 61166.4 3917.61   1
  -1   8  -1 60848.9 3881.96   1
  -1  -8   1 59893.0 3824.71   5
   1   8   1 60802.9 3803.78   4
   1   8   3 1325.47 276.535   4
  -1   8  -3 1005.30 208.771   1
   1   8   5 39345.0 2691.65   4
   1   8   7 37713.4 2630.97   4
   1   8   9 8196.76 778.821   1
  -1  -8   9 7420.75 574.768   8
   1   8   9 8810.26 850.587   4
  -8   1  -9 8108.03 554.016   6
  -8  -1   9 7161.69 585.232   8
  -8   1  -9 8025.12 550.833   9
  -1  -8  11 2225.28 230.600   8
  -8  -1  11 1522.23 229.411   8
   1   8  11 1792.56 344.643   1
  -8   1 -11 1355.24 184.707   9
   1   8  11 1536.03 366.897   4
  -1  -8  13 3794.47 351.609   8
  -8  -1  13 4067.98 392.519   8
  -8   1 -13 3699.22 331.708   9
  -8   1 -15 9007.98 636.793   9
  -8   1 -17 3026.48 258.601   9
  -1  -8  17 2574.38 281.548   8
  -1  -8  19 594.513 136.949   8
  -8   1 -19 1132.48 130.276   9
  -1  -8  21 100.670 70.6421   8
  -8   1 -21 146.270 57.1792   9
  -8  -2 -22 1078.32 100.094   9
   2  -8  22 951.743 105.754   8
   2  -8  20 1021.66 140.840   8
   2  -8  18 1420.39 192.111   8
  -8  -2 -16 2154.71 218.093   9
   2  -8  16 1748.45 230.935   8
   2  -8  14 4452.19 407.052   8
  -8  -2 -14 4600.37 384.658   9
  -8  -2 -12 10673.0 735.459   3
  -8  -2 -12 10355.1 739.337   9
   2  -8  12 10856.6 771.849   8
  -2   8  12 10398.2 934.146   1
  -8  -2 -10 12817.5 854.726   3
  -2   8  10 13025.9 1090.32   1
  -8  -2 -10 12850.3 862.267   9
  -8  -2  -8 30062.0 1978.81   3
   2  -8   8 31290.6 2030.28   8
  -8  -2  -8 33955.1 1989.98   9
  -2   8   8 37130.9 2317.68   1
  -2   8   6 9061.70 861.953   1
  -8   2   6 7863.37 787.339   1
   2  -8   4 89257.4 5473.60   5
  -8   2   4 85063.5 5534.78   1
  -2  -8  -2 34312.7 2304.23   5
  -2   8   2 37170.7 2489.97   1
  -2   8   0 541.649 258.353   1
  -2  -8   0 340.920 147.666   5
   2   8   0 675.665 163.824   4
  -2  -8   2 31451.5 2026.87   5
  -2   8  -2 31886.2 2023.73   1
   2   8   2 26945.5 2037.29   4
  -2   8  -4 75491.9 4714.16   1
   2   8   4 78442.6 4904.06   4
   2   8   6 8733.68 845.706   4
  -8  -2   8 31134.1 1969.77   8
  -2  -8   8 30213.8 1951.26   8
   2   8   8 33402.1 2255.19   4
  -8   2  -8 30855.8 1933.78   6
  -2  -8  10 14814.2 962.361   8
  -8   2 -10 15268.5 933.844   6
  -8  -2  10 13552.7 983.084   8
  -8   2 -10 12828.7 929.123   9
   2   8  10 15357.2 1245.03   4
  -2  -8  12 8939.56 666.937   8
  -8  -2  12 9726.16 709.958   8
   2   8  12 10280.3 897.741   1
  -8   2 -12 8994.67 654.537   9
  -8  -2  14 4191.84 395.027   8
  -2  -8  14 4249.61 365.616   8
  -8   2 -14 4262.42 350.136   9
   2   8  14 3410.74 545.264   4
   8   2  14 2991.57 527.036   4
  -8   2 -16 1972.46 205.583   9
  -8   2 -18 1565.67 170.431   9
  -8   2 -20 881.873 109.713   9
  -2  -8  20 696.525 130.802   8
  -2  -8  22 647.105 100.061   8
  -2   8 -22 807.193 83.3868   9
  -8   2 -22 833.679 84.0764   9
  -8  -3 -21 647.025 81.5414   9
   3  -8  21 353.541 82.1789   8
   3  -8  19 1285.25 166.637   8
  -8  -3 -19 1239.02 142.692   9
   3  -8  17 3929.69 362.908   8
  -3  -8 -17 4284.93 329.460   9
  -3  -8 -15 2530.01 246.703   9
   3  -8  15 2772.27 291.739   8
   3  -8  13 3978.54 381.061   8
  -8  -3 -13 4141.00 355.799   9
  -3  -8 -13 3971.22 336.200   9
  -8  -3 -13 4273.48 364.798   3
  -8  -3 -11 3751.55 314.645   3
   3  -8  11 3423.63 332.410   8
  -8  -3 -11 3027.85 289.034   9
  -3   8  11 3503.30 469.266   1
  -3  -8 -11 2879.53 275.435   9
  -3  -8  -9 7923.05 559.143   9
  -8  -3  -9 8516.82 582.125   3
  -3   8   9 8250.36 806.440   1
  -8   3   9 8155.29 774.398   1
  -8  -3  -9 8310.19 577.252   9
  -8   3   7 32215.9 2300.94   1
  -8  -3  -7 33881.2 2015.41   9
  -3   8   7 36104.2 2372.07   1
  -3  -8  -7 32988.4 2059.09   3
   3  -8   7 32145.7 2060.04   8
  -8  -3  -7 31004.3 2015.32   3
  -8   3   5 16964.2 1322.65   1
   3  -8   5 16627.0 1223.62   5
  -3   8   5 16341.3 1376.72   1
  -3  -8  -5 15465.1 1177.17   5
  -3   8   3 4766.77 630.358   1
  -3  -8  -3 4681.10 449.482   5
   3  -8   3 4571.97 485.220   5
  -8   3   3 4142.95 530.340   1
  -3  -8  -1 26046.7 1770.85   5
  -3   8   1 26875.6 1902.24   1
   3   8   1 25786.2 1937.58   4
  -3   8  -1 30938.3 1954.13   1
   3   8   3 5414.75 615.320   4
  -3   8  -3 5586.81 499.298   1
   3   8   5 14826.7 1229.59   4
  -3  -8   7 29029.1 1849.77   7
   3   8   7 30124.3 2171.82   4
  -8   3  -7 31502.6 1888.48   6
  -3  -8   9 7171.51 535.366   8
  -8  -3   9 6663.81 557.661   8
  -8   3  -9 7035.95 504.128   9
   3   8   9 7991.49 788.579   4
  -8   3  -9 7368.15 515.343   6
  -3  -8  11 2073.67 230.553   8
  -8   3 -11 2408.86 208.897   6
  -8  -3  11 1862.46 258.624   8
   3   8  11 1958.21 416.713   4
  -8   3 -11 1967.35 218.982   9
  -3   8 -13 3789.66 326.358   6
  -3  -8  13 4581.14 377.749   8
  -8  -3  13 4695.12 410.424   8
  -8   3 -13 4392.85 357.939   9
   8   3  13 4081.12 633.155   4
  -8   3 -15 2685.09 245.414   9
   3   8  15 2039.55 425.822   4
   8   3  15 1830.91 393.962   4
  -8  -3  15 2693.15 292.155   8
  -3  -8  15 2432.30 265.255   8
  -8   3 -17 4958.44 373.334   9
  -3  -8  17 4739.48 405.806   8
  -8   3 -19 1065.58 128.621   9
  -3   8 -21 634.468 81.1805   9
  -8   3 -21 573.414 80.7560   9
  -3  -8  21 594.364 102.071   8
  -8  -4 -22 1435.92 116.776   9
   4  -8  20 654.363 106.433   8
  -8  -4 -20 536.285 92.1872   9
  -4  -8 -18 1980.67 179.171   9
   4  -8  18 1722.40 204.927   8
  -8  -4 -18 1589.08 181.197   9
  -4  -8 -16 1626.58 180.249   9
   4  -8  16 1621.38 211.625   8
  -8  -4 -16 1534.25 188.921   9
   4  -8  14 270.278 152.457   8
  -4  -8 -14 279.069 114.192   9
  -8  -4 -12 12860.1 879.857   3
  -4  -8 -12 13103.9 863.074   9
   4  -8  12 13387.9 910.092   8
  -4  -8 -10 638.507 119.743   9
   4  -8  10 901.785 167.460   8
   8  -4  10 766.192 163.452   8
  -8  -4 -10 968.639 181.952   3
  -4   8  10 569.650 233.115   1
  -8  -4 -10 737.127 139.433   9
  -8   4  10 758.218 225.516   1
  -4   8   8 4080.39 538.114   1
   8  -4   8 3587.23 333.345   8
  -4  -8  -8 3859.34 349.275   3
  -8  -4  -8 3882.26 319.723   3
  -8   4   8 3452.07 516.951   1
  -4  -8  -8 3755.28 292.005   9
  -8  -4  -8 3783.95 305.358   9
   4  -8   6 2608.51 272.280   8
  -8  -4  -6 2853.94 226.810   9
  -8   4   6 2796.67 465.317   1
  -4   8   6 2533.00 473.117   1
   4  -8   6 3121.34 399.333   5
  -4  -8  -4 621.964 179.270   5
  -8   4   4 530.916 259.927   1
   8  -4   4 651.849 159.548   5
   4  -8   4 719.656 209.312   5
   4  -8   2 15518.7 1166.64   5
  -4  -8  -2 15490.0 1115.58   5
  -4   8   2 14863.5 1264.07   1
  -8   4   0 3176.79 420.420   1
  -4   8   0 3706.65 454.894   1
  -4   8  -2 15616.6 1145.63   1
  -4   8  -4 327.219 132.668   1
  -4  -8   6 2246.78 190.199   7
  -8   4  -6 2237.25 226.984   6
   4   8   6 2229.14 420.713   4
  -4  -8   8 3975.36 311.629   7
  -4  -8   8 4246.89 352.070   8
  -8  -4   8 4065.55 365.955   8
   4   8   8 4348.80 576.170   4
  -8   4  -8 3748.62 327.767   6
  -8   4 -10 520.883 117.086   6
  -4   8 -10 531.023 115.465   6
  -8  -4  10 634.439 172.918   8
  -8   4 -10 535.470 116.929   9
  -4  -8  10 673.744 141.906   8
   4   8  10 628.753 270.913   4
  -4   8 -12 10854.6 753.919   6
  -8  -4  12 12033.8 827.979   8
  -8   4 -12 11371.4 747.240   6
  -4  -8  12 10541.4 776.651   8
   4   8  12 9862.13 1023.68   4
  -8   4 -12 11376.0 764.504   9
  -8  -4  14-93.2187 139.105   8
   8   4  14 436.665 266.878   4
   4   8  14 408.050 249.402   4
  -4  -8  14 281.060 114.193   8
  -8   4 -14 70.7021 92.9669   9
  -4  -8  16 1073.84 175.914   8
  -8   4 -16 1611.14 170.919   9
  -8  -4  16 1108.48 194.568   8
  -8  -4  18 1806.13 234.406   8
  -4  -8  18 1859.97 221.223   8
  -8   4 -18 2172.34 195.494   9
  -8   4 -20 567.167 87.3299   9
  -4   8 -20 619.010 88.9509   9
  -8   4 -22 1206.71 104.921   9
  -4  -8  22 1221.56 126.857   8
  -4   8 -22 1406.70 107.986   9
  -8  -5 -21 415.769 69.4746   9
   5  -8  21 466.628 77.5532   8
  -8  -5 -19 71.9165 64.1199   9
  -5  -8 -19 35.0591 54.5531   9
   5  -8  19-36.2655 74.4204   8
   5  -8  17 3973.38 356.267   8
  -5  -8 -17 4259.82 333.276   9
  -8  -5 -17 4377.98 342.207   9
  -8  -5 -15 173.597 124.832   9
  -5  -8 -15 235.879 116.662   9
   5  -8  15 253.267 143.304   8
   5  -8  13 4841.95 436.603   8
  -8  -5 -13 4531.42 397.292   9
  -8  -5 -13 4768.85 415.295   3
  -5  -8 -13 4622.91 386.955   9
   8  -5  13 5309.82 431.733   8
  -8  -5 -11 2264.81 273.840   3
   8  -5  11 2214.02 266.804   8
  -8   5  11 1654.19 341.275   1
  -5  -8 -11 2623.44 244.604   9
   5  -8  11 2355.41 282.660   8
  -5   8  11 2515.70 414.685   1
   8  -5   9 1487.01 213.673   8
   5  -8   9 1390.64 216.996   8
  -8  -5  -9 1582.23 218.915   3
  -5  -8  -9 1488.16 223.159   3
  -8   5   9 1167.94 316.006   1
  -5   8   9 1244.63 327.999   1
  -5  -8  -9 1534.95 170.572   9
  -8  -5  -7 15599.5 995.483   9
  -5  -8  -7 15309.2 985.700   9
  -5  -8  -7 15599.1 1040.89   3
  -5   8   7 18064.9 1390.06   1
  -8   5   7 16984.6 1366.66   1
  -8  -5  -7 16695.0 1056.56   6
   5  -8   7 13309.1 1033.38   8
  -8  -5  -5 103.655 56.8801   9
  -8  -5  -5 61.7218 100.499   3
   5  -8   5 213.569 152.659   5
  -5   8   5-96.9330 301.571   1
  -8   5   5 44.1433 270.356   1
   8  -5   3 4761.01 460.501   5
  -5   8   3 4350.51 625.117   1
   5  -8   3 4880.37 515.322   5
  -5   8   1 9380.84 859.573   1
  -8   5   1 8944.04 832.424   1
  -8   5  -1 7786.06 681.248   1
  -5   8  -1 7203.30 680.621   1
  -5   8  -3 5266.95 503.902   1
  -5  -8   7 13213.2 891.248   7
   5   8   7 15425.2 1241.75   4
  -8  -5   7 13502.4 939.553   8
  -8   5  -7 14972.9 940.498   6
  -5  -8   7 13892.7 939.998   8
  -8   5  -9 1439.76 178.015   6
  -5   8  -9 1664.80 189.332   6
  -8  -5   9 1234.10 220.761   8
   5   8   9 1756.65 392.861   4
  -5  -8   9 1293.18 190.501   8
  -5   8 -11 2502.36 237.794   6
  -8   5 -11 2212.58 232.659   9
  -5  -8  11 2520.59 259.962   8
  -8  -5  11 2365.24 295.935   8
  -8   5 -11 2469.17 231.267   6
   5   8  11 1911.46 413.355   4
  -8   5 -13 4665.38 358.193   6
  -8  -5  13 4774.81 416.074   8
  -5  -8  13 4982.65 400.659   8
   8   5  13 3726.70 632.538   4
  -8   5 -13 4638.04 371.676   9
  -5   8 -13 4399.52 356.503   6
  -5  -8  15 177.481 112.595   8
  -8   5 -15 48.9921 95.6044   9
  -8  -5  15 49.4527 122.483   8
  -5  -8  17 4048.20 378.381   8
  -8  -5  17 4850.85 397.900   8
  -8   5 -17 4907.70 356.454   9
  -8   5 -19 81.9810 64.0101   9
  -5  -8  19 16.2210 87.5819   8
  -5   8 -19 153.648 64.7115   9
  -5   8 -21 500.919 70.7113   9
  -8   5 -21 478.244 69.1163   9
   6  -8  20 151.955 61.0262   8
  -6  -8 -20 212.014 54.3035   9
  -8  -6 -20 180.522 59.5061   9
  -6  -8 -18 1422.45 153.558   9
   6  -8  18 1535.40 179.177   8
  -8  -6 -18 1263.08 154.328   9
   8  -6  16 1757.25 213.476   8
   6  -8  16 1710.49 216.994   8
  -6  -8 -16 1741.91 194.535   9
  -8  -6 -16 2038.75 207.026   9
  -8  -6 -14 1245.37 190.701   9
  -6  -8 -14 1541.23 188.727   9
   8  -6  14 1731.61 229.462   8
   6  -8  14 1310.53 217.142   8
  -8  -6 -12 10035.3 741.690   9
  -6  -8 -12 9817.14 734.317   9
   8  -6  12 12134.1 788.240   8
  -8  -6 -12 11676.7 777.941   3
   6  -8  12 11303.4 786.379   8
  -8  -6 -10 4514.24 375.411   3
  -6   8  10 3677.16 538.166   1
   6  -8  10 3646.06 367.971   8
  -6  -8 -10 3517.97 315.805   9
  -8  -6 -10 4184.59 334.843   9
  -8   6  10 2915.10 507.815   1
  -6  -8 -10 3859.40 368.141   3
   8  -6  10 3726.60 364.996   8
  -8   6   8 13843.8 1202.36   1
  -6   8   8 12419.0 1169.82   1
   6  -8   8 12947.1 902.113   8
   8  -6   8 12708.3 894.105   8
  -6  -8  -8 12612.6 844.113   9
  -6  -8  -8 12941.2 891.372   3
  -8  -6  -6 3274.81 277.691   3
  -6  -8  -6 2590.83 226.961   9
  -8  -6  -6 2946.66 315.939   6
   6  -8   6 3022.20 396.274   5
  -6   8   6 2333.81 511.585   1
  -6  -8  -6 2583.21 286.336   3
  -8   6   6 3643.62 551.233   1
  -8  -6  -4 3390.99 254.802   9
   8  -6   4 4033.53 411.741   5
   6  -8   4 3827.94 442.311   5
  -8  -6  -4 3039.96 276.077   3
  -8   6   4 3257.33 555.367   1
  -6  -8  -4 3177.98 252.673   9
  -8   6   2 42225.9 2890.77   1
   6  -8   2 41855.3 2774.60   5
  -6   8   2 41009.3 2900.22   1
  -6   8   0 129.605 202.170   1
  -8   6   0 399.080 208.694   1
  -8   6  -2 37513.8 2582.89   1
  -6   8  -2 41005.9 2607.95   1
  -6   8  -4 2694.04 276.812   6
  -8   6  -4 2697.72 266.593   6
  -6  -8   4 2446.53 206.575   7
  -6   8  -4 2227.41 304.137   1
  -8  -6   4 2656.68 209.838   7
  -6   8  -6 2741.77 275.912   6
  -8  -6   6 2561.89 220.364   7
  -8   6  -6 2655.82 270.147   6
  -6  -8   6 2500.13 216.753   7
  -6  -8   8 11139.9 815.913   8
  -8   6  -8 13070.5 819.585   6
   6   8   8 11554.8 1104.23   4
  -6   8  -8 12414.7 815.179   6
  -8  -6   8 10339.8 820.202   8
  -6   8 -10 3788.11 322.887   6
  -6  -8  10 3445.00 339.004   8
  -8  -6  10 3555.75 365.956   8
  -8   6 -10 4067.27 323.052   6
   6   8  10 3262.05 540.786   4
  -8  -6  12 12468.0 810.967   8
  -6  -8  12 10590.3 770.311   8
  -6   8 -12 10704.4 742.124   6
  -8   6 -12 10376.4 738.679   9
   6   8  12 10796.6 1064.33   4
   8   6  12 9709.38 1089.05   4
  -8   6 -12 11030.6 738.369   6
  -8  -6  14 1709.55 226.558   8
  -6  -8  14 1573.69 210.014   8
  -8   6 -14 1900.13 192.069   9
   6   8  14 1186.15 336.061   4
   8   6  14 1441.38 383.297   4
  -8   6 -14 1497.13 168.160   6
  -6   8 -14 1687.84 175.151   6
  -6  -8  16 1903.78 219.741   8
  -8   6 -16 1914.11 185.581   9
  -8  -6  16 1384.53 210.573   8
  -6   8 -18 1241.30 132.872   9
  -8  -6  18 902.970 158.612   8
  -6  -8  18 1020.23 160.458   8
  -8   6 -20 265.294 57.8075   9
  -6   8 -20 181.513 52.1551   9
  -6  -8  20 87.7345 74.1507   8
   7  -8  19 1834.28 178.797   8
  -8  -7 -19 2027.70 169.997   9
  -7  -8 -19 1984.67 168.571   9
   7  -8  17 5321.33 395.540   8
  -8  -7 -17 4878.13 368.925   9
  -7  -8 -17 4721.03 364.696   9
   8  -7  17 4628.81 379.962   8
  -7  -8 -15 576.181 125.316   9
   8  -7  15 731.166 152.442   8
   7  -8  15 559.592 150.641   8
  -8  -7 -15 374.324 119.920   9
   7  -8  13 13631.7 974.302   8
   8  -7  13 14340.0 978.241   8
  -7  -8 -13 14142.7 942.142   9
  -8  -7 -13 13568.8 940.973   9
  -8   7  11 29579.0 2340.38   1
  -8  -7 -11 34009.8 2097.92   9
   7  -8  11 32278.7 2130.72   8
  -7   8  11 30901.8 2375.86   1
  -8  -7 -11 33962.1 2122.04   3
  -7  -8 -11 33204.3 2091.95   9
   8  -7  11 34858.1 2139.62   8
  -7   8   9 764.932 301.544   1
  -8  -7  -9 716.048 136.918   9
   7  -8   9 851.115 185.081   8
   8  -7   9 948.382 200.523   8
  -7  -8  -9 930.838 143.179   9
  -7  -8  -9 681.326 202.067   3
  -8   7   9 1142.91 350.929   1
   7  -8   7 35897.6 2391.50   8
  -7  -8  -7 37278.7 2334.74   9
  -7   8   7 43342.7 2832.76   1
  -8  -7  -7 38241.7 2366.98   3
  -8  -7  -7 37584.5 2335.24   9
  -8   7   7 41345.6 2808.20   1
  -7  -8  -7 38530.7 2378.47   3
  -7  -8  -5 37536.8 2327.65   3
  -8  -7  -5 36441.4 2311.91   3
  -8   7   5 34416.7 2705.21   1
  -7   8   5 40899.2 2797.14   1
   7  -8   5 38824.3 2523.52   5
  -8  -7  -5 36437.5 2381.54   6
   8  -7   5 40675.6 2505.83   5
  -7  -8  -5 36761.9 2288.59   9
  -7  -8  -3 23708.0 1435.58   3
   7  -8   3 25737.6 1665.82   5
   8  -7   3 23467.2 1612.43   5
  -8   7   3 19970.2 1751.59   1
  -7   8   3 22823.6 1818.11   1
  -8  -7  -3 21992.8 1420.58   3
  -7  -8  -3 22218.6 1401.00   9
  -8  -7  -3 20419.5 1491.43   6
  -8  -7  -1 58244.7 3574.25   9
  -8   7   1 61398.9 3922.72   1
  -7   8   1 61636.7 3936.37   1
  -8  -7  -1 58526.2 3663.35   6
  -8   7  -1 57887.3 3677.25   6
  -8   7  -1 61634.6 3893.45   1
  -7   8  -1 66830.3 3928.31   1
  -7   8  -1 59505.2 3684.55   6
  -7   8  -3 17538.6 1246.18   6
  -7   8  -3 19187.0 1374.17   1
  -8  -7   3 19189.5 1188.77   7
  -8   7  -3 19743.9 1252.69   6
  -7  -8   3 19112.1 1189.05   7
  -8   7  -3 17937.9 1365.88   1
  -7   8  -5 34264.7 2168.46   6
  -7  -8   5 34456.2 2102.13   7
  -8  -7   5 33705.6 2099.99   7
  -7   8  -7 38049.1 2306.73   6
  -8  -7   7 35948.7 2252.31   7
  -7  -8   7 35184.4 2250.00   7
  -8   7  -7 38125.6 2303.79   6
  -8   7  -9 744.430 145.757   6
  -8  -7   9 696.561 171.036   8
  -7   8  -9 846.555 153.316   6
   7   8   9 645.902 312.905   4
  -7  -8   9 1060.56 178.625   8
  -7  -8  11 34605.3 2169.85   8
  -7   8 -11 34748.2 2133.93   6
   7   8  11 35370.7 2538.48   4
  -8   7 -11 33835.7 2131.79   6
  -8  -7  11 32462.4 2172.82   8
  -8  -7  13 13433.0 923.397   8
   8   7  13 12335.2 1247.55   4
  -7   8 -13 13178.6 878.121   6
  -8   7 -13 13123.3 876.542   6
  -7  -8  13 13469.8 917.302   8
  -8  -7  15 569.160 140.256   8
  -8   7 -15 299.627 97.6244   9
  -7  -8  15 416.931 129.842   8
  -7  -8  17 4510.57 383.461   8
  -8   7 -17 4951.80 350.572   9
  -8  -7  17 4188.35 381.149   8
  -7   8 -17 5070.22 349.231   9
  -7  -8  19 2026.06 204.257   8
  -8   7 -19 2043.51 172.896   9
  -7   8 -19 2392.07 177.005   9
  -8  -8 -20 688.337 76.8169   9
  -8  -8 -18 944.290 117.909   9
   8  -8  18 876.296 123.845   8
  -8  -8 -16 4201.31 327.026   9
   8  -8  16 3716.38 341.116   8
  -8  -8 -14 14156.0 960.774   9
   8  -8  14 14580.3 998.140   8
   8  -8  12 9944.02 696.227   8
  -8  -8 -12 8342.77 644.987   9
  -8  -8 -10 32000.0 1980.20   9
   8  -8  10 30812.0 2029.50   8
  -8   8  10 28691.4 2287.46   1
  -8  -8 -10 31791.3 2010.46   3
   8  -8   8 58578.2 3658.93   8
  -8  -8  -8 59201.5 3595.77   9
  -8   8   8 59201.4 4050.05   1
  -8  -8  -8 57879.6 3626.86   3
  -8  -8  -6 615.145 176.473   3
   8  -8   6 266.320 163.871   5
  -8  -8  -6 255.054 88.8370   9
  -8   8   6 589.654 349.755   1
  -8  -8  -4 44739.1 2840.99   3
   8  -8   4 47988.0 3057.94   5
  -8  -8  -4 46454.8 2815.39   9
  -8  -8  -4 45817.6 2922.96   6
  -8   8   2 92749.2 5937.61   1
   8  -8   2 96618.1 5773.97   5
  -8  -8  -2 89422.7 5526.70   3
  -8   8   0 3048.54 272.852   6
  -8   8   0 2832.33 440.849   1
  -8   8  -2 84790.8 5501.89   1
  -8  -8   2 88670.7 5261.91   7
  -8   8  -2 84842.3 5317.73   6
  -8   8  -4 40720.4 2663.88   6
  -8   8  -4 38791.2 2767.01   1
  -8  -8   4 44325.4 2601.86   7
  -8  -8   6 376.888 92.8870   7
  -8   8  -8 53726.4 3333.87   6
   8   8  10 30565.9 2286.53   4
  -8  -8  10 26774.4 1887.17   8
  -8   8 -10 31535.5 1873.06   6
  -8  -8  12 10606.0 783.684   8
   8   8  12 10046.2 1101.47   4
  -8   8 -12 11306.5 751.555   6
  -8  -8  14 13624.8 961.620   8
  -8   8 -14 14299.0 920.670   6
  -8  -8  16 3276.80 302.672   8
  -8  -8  18 795.199 131.168   8
   0  -9   1 4690.69 488.492   5
   0  -9  -1 4690.92 485.326   5
   0   9  -1 4436.61 543.233   1
   0   9  -3 14298.8 1078.70   1
   0  -9   3 14485.3 1114.62   5
   0   9   3 14624.0 1108.41   4
   0   9   5 4903.25 579.100   4
  -9   0  -7 29608.9 1809.98   9
   0   9   7 35040.7 2205.86   1
   0  -9   7 27596.5 1847.72   8
   0   9   7 29658.7 2150.21   4
  -9   0  -7 28826.4 1843.68   6
   0  -9   9 30567.0 2051.58   8
  -9   0  -9 31919.9 2006.17   3
   0   9   9 36061.4 2350.77   1
  -9   0  -9 32978.6 2027.81   9
   0   9   9 35005.5 2397.10   4
  -9   0  -9 33052.1 2035.98   6
   0  -9  11 2908.71 295.005   8
  -9   0 -11 3178.01 270.983   3
  -9   0 -11 2577.00 270.011   9
  -9   0 -13 616.683 155.495   9
   0  -9  13 857.117 177.314   8
  -9   0 -15 24575.7 1570.97   9
   0  -9  17 837.326 172.743   8
  -9   0 -17 1279.19 158.992   9
  -9   0 -19 747.666 110.468   9
   0  -9  19 575.696 131.536   8
   0  -9  21 77.8669 57.7724   8
  -9   0 -21 26.0046 46.8437   9
   1  -9  22 611.898 79.3242   8
  -9  -1 -22 610.750 68.2602   9
  -9  -1 -20 2210.20 178.952   9
   1  -9  20 1785.51 198.020   8
  -9  -1 -18 1333.50 156.545   9
   1  -9  18 1282.62 179.241   8
   1  -9  16 4274.96 389.502   8
  -9  -1 -16 4406.65 356.282   9
  -9  -1 -14 13599.4 869.780   9
  -9  -1 -14 11838.8 838.034   3
  -9  -1 -12 11645.4 823.209   9
  -1   9  12 9763.14 1006.01   1
  -9  -1 -12 12324.9 813.006   3
   1  -9  12 12802.4 859.844   8
  -9  -1 -10 31662.2 1930.64   3
   1  -9  10 29515.8 1973.53   8
  -1   9  10 33105.0 2245.83   1
  -9  -1 -10 30687.4 1945.86   9
  -9  -1  -8 8722.12 564.969   9
  -1   9   8 8655.90 846.608   1
  -9  -1  -8 7942.42 552.309   3
   1  -9   8 7547.93 591.740   8
  -9  -1  -8 7616.59 579.384   6
  -1   9   6 10636.3 1021.86   1
   1   9  -4 60096.3 3791.07   1
   1  -9   2 16175.9 1187.01   5
  -1  -9  -2 15215.9 1152.86   5
  -1   9   2 15065.3 1309.55   1
   1  -9   0 2990.86 368.628   5
  -1  -9   0 2197.50 321.127   5
  -1   9   0 2367.99 414.032   1
  -1   9  -2 16306.8 1224.93   1
  -1  -9   2 16944.2 1224.02   5
   1   9   2 15887.4 1198.06   4
   1   9   4 58278.0 3960.95   4
  -1   9  -4 62546.8 3827.26   1
   1   9   6 7465.39 781.910   4
  -9   1  -6 7703.99 557.835   6
  -9   1  -8 9759.64 653.578   6
  -9   1  -8 8713.22 609.418   3
   1   9   8 9836.65 922.960   1
   1   9   8 9537.70 938.263   4
  -1  -9   8 8829.79 659.826   8
  -9   1  -8 9778.73 631.753   9
  -9   1 -10 32411.9 1984.85   6
   1   9  10 31664.2 2328.48   4
  -1  -9  10 31091.9 2011.46   8
  -9   1 -10 30852.5 1985.94   9
  -9  -1  10 32193.9 2050.28   8
   1   9  10 32669.6 2275.43   1
  -9  -1  12 12897.6 892.307   8
   1   9  12 11175.4 1052.62   1
  -1  -9  12 12960.5 849.968   8
  -9   1 -12 11027.5 819.037   9
   1   9  12 11757.8 1110.12   4
  -1  -9  14 12187.8 837.369   8
  -9   1 -14 12360.1 817.302   9
  -9   1 -16 4255.65 348.514   9
  -9   1 -18 1511.87 166.604   9
  -9   1 -20 2134.35 177.359   9
  -1  -9  20 1874.40 199.069   8
  -1   9 -22 608.331 65.0776   9
  -1  -9  22 535.156 80.5127   8
  -9   1 -22 525.850 64.5438   9
   2  -9  21 56.0616 57.5309   8
  -9  -2 -19 1364.15 143.049   9
   2  -9  19 1051.82 161.721   8
   2  -9  17 2502.36 279.773   8
  -9  -2 -17 3074.03 261.476   9
   2  -9  15 12399.6 863.742   8
  -9  -2 -15 11901.5 829.318   9
  -9  -2 -13 3729.08 341.329   3
  -9  -2 -13 4173.18 355.898   9
  -9  -2 -11 3162.43 307.018   9
   2  -9  11 3290.55 341.706   8
  -2   9  11 3562.85 502.431   1
  -9  -2 -11 3836.30 319.020   3
  -9  -2  -9 24444.2 1544.04   9
   2  -9   9 23158.9 1574.23   8
  -9  -2  -9 23552.4 1530.91   3
  -2   9   9 25834.4 1852.93   1
  -9  -2  -9 25911.2 1564.31   6
  -2   9   7 40847.4 2670.72   1
  -9  -2  -7 39433.0 2298.42   9
  -9  -2  -7 35053.3 2288.12   3
  -9  -2  -7 37252.9 2336.21   6
   2  -9   7 36826.4 2338.77   8
   2  -9   5 42528.0 2830.00   5
  -2   9   3 7140.12 818.852   1
   2  -9   3 6938.79 678.261   5
  -2  -9  -3 7781.49 666.749   5
  -2   9   1 46236.5 3026.78   1
  -2  -9  -1 42904.1 2866.35   5
   2   9   1 39428.1 2601.91   4
  -2  -9   1 38058.0 2624.50   5
  -2   9  -1 43602.2 2706.38   1
   2   9   3 5891.99 636.055   4
  -2   9  -3 6937.32 584.182   1
   2   9   5 40256.7 2770.79   4
  -2  -9   7 32486.9 2166.92   8
   2   9   7 36922.6 2493.09   4
  -2  -9   7 32523.1 2123.66   7
  -9  -2   7 34465.3 2159.87   2
  -9   2  -7 35374.2 2167.56   6
  -9  -2   7 39935.3 2193.89   8
  -2  -9   9 20873.4 1439.93   8
  -9  -2   9 23900.4 1487.93   8
   2   9   9 22271.2 1749.49   4
  -9   2  -9 23446.0 1431.89   6
  -9   2  -9 22923.2 1419.33   9
  -9  -2   9 20643.8 1440.07   2
  -2  -9  11 2922.00 281.382   8
   2   9  11 2831.97 454.592   1
  -9  -2  11 2529.31 316.184   8
  -9   2 -11 3062.18 254.487   6
  -9   2 -11 2456.29 260.043   9
   2   9  11 2046.75 432.297   4
  -2   9 -13 4024.10 343.252   6
  -9  -2  13 5144.50 436.149   8
  -9   2 -13 4268.97 368.843   9
   2   9  13 4005.34 598.728   4
  -2  -9  13 4759.22 391.956   8
  -2  -9  15 11480.4 776.141   8
  -9   2 -15 11242.4 750.216   9
  -2  -9  17 2504.41 278.916   8
  -9   2 -17 3431.33 267.426   9
  -9   2 -19 1149.76 132.761   9
  -9   2 -21 115.046 49.0100   9
  -2  -9  21 27.7270 64.8145   8
  -2   9 -21 123.035 47.4904   9
   3  -9  20 1160.81 140.924   8
   3  -9  18 1373.20 182.571   8
  -9  -3 -16 408.525 118.570   9
   3  -9  16 339.540 137.538   8
  -9  -3 -14 3516.43 318.726   9
   3  -9  14 3160.95 341.903   8
  -9  -3 -14 3411.90 312.997   3
  -3  -9 -14 3595.56 301.075   9
  -9  -3 -12 11749.9 874.119   9
  -3  -9 -12 13437.4 864.921   9
  -3   9  12 11224.2 1083.75   1
  -9  -3 -12 13901.0 886.190   3
  -9  -3 -10 8054.26 547.252   3
  -3  -9 -10 7036.29 518.785   9
  -3   9  10 6657.88 751.534   1
  -9  -3 -10 7282.68 539.268   9
   3  -9   8 331.760 141.190   8
  -9  -3  -8 442.566 131.714   6
  -3  -9  -8 468.973 85.9552   9
  -9  -3  -8 386.864 130.162   3
  -3   9   8 295.051 203.483   1
  -9  -3  -8 357.257 96.8689   9
  -9   3   6 9884.72 989.490   1
  -9  -3  -6 11559.6 721.791   9
   3  -9   6 10045.3 763.626   8
  -3   9   6 11134.3 1071.60   1
  -9  -3  -6 11352.8 779.693   6
  -9   3   4 14776.1 1231.82   1
   3  -9   4 13902.6 1135.67   5
  -3  -9  -4 15225.7 1125.23   5
   3  -9   2 3204.76 404.093   5
  -3  -9  -2 2313.13 326.102   5
  -3   9   2 3009.28 496.059   1
  -3  -9   0 4984.04 514.186   5
  -3   9   0 6012.53 619.479   1
   3   9   2 2126.77 352.444   4
  -3   9  -2 2056.05 309.011   1
   3   9   4 13088.1 1119.42   4
  -3   9  -4 13079.8 959.023   1
  -9   3  -6 10422.9 735.795   6
  -3  -9   6 10592.4 688.216   7
   3   9   6 10362.8 973.719   4
  -3  -9   8 187.613 87.0031   7
  -9   3  -8 348.461 107.167   6
  -3  -9   8 162.639 98.3852   8
  -9  -3   8 150.697 117.028   8
   3   9   8 170.339 209.808   4
  -3  -9  10 8764.03 620.704   8
  -9  -3  10 7704.72 652.405   8
   3   9  10 9196.53 905.146   4
  -9   3 -10 7871.83 588.704   9
  -9   3 -10 8847.44 598.559   6
  -3   9 -12 13609.6 871.602   6
   3   9  12 11581.5 1117.32   1
  -3  -9  12 12619.2 890.917   8
  -9   3 -12 13111.4 860.108   6
   3   9  12 12452.8 1166.94   4
  -9  -3  12 13614.4 938.801   8
  -9   3 -12 12521.6 880.948   9
  -3   9 -14 2592.40 240.250   6
  -9  -3  14 2821.84 314.073   8
  -9   3 -14 3260.39 277.718   9
   9   3  14 2690.69 485.084   4
  -3  -9  14 2460.85 272.693   8
  -3  -9  16 254.456 115.872   8
  -9   3 -16 261.835 100.988   9
  -3  -9  18 1595.57 205.618   8
  -9   3 -18 1884.39 179.161   9
  -9   3 -20 1116.18 115.959   9
  -3  -9  22 354.146 65.1253   8
   4  -9  21 62.4157 50.4775   8
  -9  -4 -21 179.866 46.6619   9
  -9  -4 -19 873.190 109.658   9
   4  -9  19 578.766 120.125   8
  -4  -9 -17 4031.07 300.865   9
   4  -9  17 3413.58 331.501   8
  -4  -9 -15 905.111 141.201   9
   4  -9  15 687.953 168.229   8
  -9  -4 -13 3978.83 351.516   9
  -4  -9 -13 3548.90 327.064   9
   4  -9  13 4418.51 395.231   8
  -9  -4 -13 4040.68 356.863   3
  -4  -9 -11 6580.74 485.362   9
  -4   9  11 5597.81 696.614   1
   4  -9  11 6672.11 543.950   8
  -9  -4 -11 6352.99 498.685   9
  -9  -4 -11 6940.98 516.879   3
  -9   4   9 11183.9 1031.45   1
  -9  -4  -9 12129.5 790.349   3
  -4  -9  -9 11187.9 764.300   9
   9  -4   9 11761.1 817.367   8
  -4   9   9 11901.2 1079.88   1
  -9  -4  -9 10983.1 775.192   9
  -9  -4  -7 8255.71 553.580   9
  -9  -4  -7 8083.16 568.605   3
   4  -9   7 8174.27 610.547   8
  -4   9   7 9966.76 925.845   1
  -9  -4  -7 7968.18 606.354   6
  -4  -9  -7 8090.09 604.332   3
  -9   4   7 7105.67 818.331   1
  -4  -9  -7 7524.14 539.585   9
  -9  -4  -5 1785.82 234.054   6
  -9  -4  -5 1788.62 164.394   9
   4  -9   5 1960.03 326.098   5
  -4  -9  -5 1640.73 236.591   3
  -9   4   5 2074.16 425.442   1
  -9   4   3 783.564 282.317   1
  -4  -9  -3 586.425 186.946   5
   4  -9   3 795.210 230.521   5
  -4   9   3 737.788 331.274   1
   4  -9   1 13021.5 1026.05   5
  -4   9   1 12925.1 1109.37   1
  -9   4   1 12145.7 1047.75   1
   4   9   1 8680.07 834.165   4
  -4   9  -1 10689.4 868.414   1
  -4   9  -3 1145.74 217.310   1
   4   9   3 799.744 297.459   4
  -9  -4   5 1703.17 212.345   6
  -9   4  -5 1665.42 212.322   6
  -4  -9   5 1961.58 168.065   7
   4   9   5 1484.60 369.059   4
  -9  -4   7 8566.52 600.660   8
  -4  -9   7 8073.12 590.625   8
  -4  -9   7 7960.38 546.406   7
   4   9   7 8614.76 859.089   4
  -9   4  -7 7384.04 582.382   6
  -9   4  -9 11363.1 762.882   6
  -9  -4   9 10372.5 797.946   8
   4   9   9 10371.3 1015.73   4
  -4  -9   9 11143.4 771.709   8
  -9  -4  11 6634.53 540.411   8
  -9   4 -11 6824.45 469.220   6
   4   9  11 5762.06 741.780   4
  -4   9 -11 6833.30 477.005   6
  -4  -9  11 6276.60 489.213   8
  -9   4 -11 5010.38 455.032   9
  -4   9 -13 3958.17 326.799   6
   4   9  13 3503.24 562.336   4
  -9   4 -13 4013.47 320.254   6
  -9   4 -13 4102.43 343.287   9
  -4  -9  13 3958.83 350.048   8
  -9  -4  13 3921.75 389.819   8
   9   4  13 4334.52 642.961   4
  -9  -4  15 857.863 176.921   8
  -4  -9  15 852.123 160.007   8
  -9   4 -15 989.596 147.798   9
  -4  -9  17 3346.91 330.621   8
  -9   4 -17 4251.89 311.110   9
  -9   4 -19 829.541 106.433   9
  -4  -9  19 834.415 135.187   8
  -4   9 -21 81.5960 39.8107   9
  -9   4 -21 83.0763 40.1529   9
  -9  -5 -20 252.372 62.9843   9
   5  -9  20 293.170 72.2440   8
  -5  -9 -18 803.285 105.671   9
  -9  -5 -18 636.115 109.907   9
   5  -9  18 571.393 129.853   8
  -9  -5 -16 1799.39 201.201   9
  -5  -9 -16 1753.65 190.037   9
   5  -9  16 1702.18 218.799   8
  -5  -9 -14 1657.08 197.553   9
   5  -9  14 1893.29 244.953   8
  -5  -9 -12 12232.7 876.233   9
   5  -9  12 13804.6 941.701   8
   9  -5  12 14150.6 927.445   8
  -9  -5 -12 13533.0 911.069   3
   5  -9  10 4312.62 405.491   8
   9  -5  10 4625.53 397.200   8
  -5   9  10 3502.16 550.160   1
  -9   5  10 3400.25 521.886   1
  -9  -5 -10 3954.93 379.565   3
  -9  -5 -10 4705.49 369.188   9
  -5  -9 -10 4363.76 351.027   9
  -9  -5  -8 4945.66 394.493   3
  -5  -9  -8 4509.00 355.290   9
   9  -5   8 4480.38 403.258   8
  -5  -9  -8 4838.31 413.558   3
  -5   9   8 4971.34 647.129   1
  -9   5   8 4448.75 621.840   1
  -9  -5  -8 4675.85 414.111   6
  -9  -5  -8 4840.77 367.191   9
  -9  -5  -6 14341.5 990.939   6
   5  -9   6 13677.0 1131.36   5
  -5  -9  -6 14291.1 975.448   3
  -5  -9  -6 14141.4 909.475   9
  -9  -5  -6 14764.7 916.089   9
  -5   9   6 16709.3 1374.11   1
  -9   5   6 12135.3 1235.80   1
   5  -9   6 12937.2 971.885   8
  -9   5   4 14006.9 1252.60   1
  -5  -9  -4 13971.0 896.992   9
   5  -9   4 14006.3 1126.91   5
  -5  -9  -4 13162.8 948.672   3
  -5   9   4 13973.2 1305.45   1
  -9  -5  -4 14892.0 900.539   9
  -9  -5  -4 13356.3 973.810   6
   5  -9   2 12337.4 1050.85   5
  -9  -5  -2 13020.4 834.729   9
  -5   9   2 13572.8 1197.85   1
  -9  -5  -2 13174.2 906.117   6
  -9   5   0 30392.2 2168.02   1
  -5   9   0 32170.0 2211.61   1
  -5   9  -2 12708.0 1041.41   1
  -9  -5   2 13578.4 916.785   6
  -9   5  -2 13543.7 904.104   6
  -5   9  -4 12964.4 985.164   1
  -5  -9   4 13053.7 838.936   7
  -9  -5   4 13666.4 905.942   6
   5   9   4 15266.8 1202.00   4
  -9  -5   4 13117.9 837.592   7
  -9   5  -4 12092.8 887.617   6
   5   9   6 13042.2 1173.26   4
  -9  -5   6 13655.3 845.776   7
  -5  -9   6 11983.3 835.452   7
  -9   5  -6 13757.0 899.804   6
  -5  -9   8 5438.43 450.034   8
  -9  -5   8 5451.51 470.788   8
  -5  -9   8 5463.76 415.943   7
  -5   9  -8 5814.83 456.789   6
   5   9   8 6136.35 713.845   4
  -9   5  -8 6115.74 458.894   6
  -5   9 -10 5190.23 409.416   6
  -9   5 -10 5331.36 403.303   6
  -9  -5  10 4029.30 439.833   8
   5   9  10 4922.87 649.998   4
  -5  -9  10 5263.23 420.040   8
  -5   9 -12 13935.0 864.203   6
  -9   5 -12 13606.4 859.913   6
   5   9  12 12185.7 1181.77   4
  -9  -5  12 12215.8 910.746   8
  -9   5 -12 11505.4 855.361   9
  -5  -9  12 12720.3 882.507   8
  -9   5 -14 1530.32 176.612   9
  -5   9 -14 1249.77 155.499   6
  -5  -9  14 1334.17 186.493   8
  -9  -5  14 1308.76 207.285   8
   9   5  14 1136.01 367.962   4
  -9  -5  16 1620.88 218.722   8
  -5  -9  16 1660.10 206.743   8
  -9   5 -16 1625.06 181.212   9
  -5  -9  18 470.284 123.267   8
  -9   5 -18 682.099 99.6009   9
  -9   5 -20 270.275 57.9433   9
  -5   9 -20 277.617 56.5908   9
  -5  -9  20 345.492 83.8515   8
  -9  -6 -21 46.6399 34.3082   9
  -6  -9 -19 377.850 66.0860   9
   6  -9  19 295.412 80.4539   8
  -9  -6 -19 378.802 77.8684   9
  -6  -9 -17 2810.11 244.556   9
   6  -9  17 2884.51 278.039   8
  -9  -6 -17 2849.54 251.950   9
  -9  -6 -15 434.448 126.072   9
   9  -6  15 308.797 115.174   8
   6  -9  15 369.476 140.461   8
  -6  -9 -15 352.180 109.540   9
  -6  -9 -13 3658.57 335.464   9
   6  -9  13 3791.98 381.405   8
   9  -6  13 4195.82 377.075   8
  -9  -6 -13 3666.15 345.254   9
  -9  -6 -13 4235.46 370.705   3
  -6   9  11 2665.50 497.993   1
   6  -9  11 4313.66 383.516   8
   9  -6  11 4410.21 381.589   8
  -9  -6 -11 3787.70 372.304   3
  -9   6  11 2718.81 470.955   1
  -6  -9 -11 3530.95 324.166   9
  -6  -9  -9 5763.38 440.752   9
  -6   9   9 6176.77 734.594   1
   6  -9   9 5772.88 498.396   8
   9  -6   9 5929.46 492.381   8
  -6  -9  -9 6244.22 493.085   3
  -9   6   9 5413.92 701.800   1
  -9  -6  -7 8095.85 605.376   3
  -6   9   7 10015.6 993.725   1
  -9  -6  -7 8348.99 580.779   9
  -6  -9  -7 8168.59 576.823   9
  -9  -6  -7 8924.62 661.718   6
  -9   6   7 8574.00 933.035   1
  -6  -9  -7 8437.91 633.348   3
  -9  -6  -5 1868.06 273.974   6
  -9  -6  -5 2237.70 199.745   9
  -6  -9  -5 2131.70 193.774   9
  -9  -6  -5 2066.74 227.382   3
   6  -9   5 2328.17 359.345   5
  -9   6   5 1954.19 468.001   1
  -6  -9  -5 2419.85 268.270   3
  -6  -9  -3 719.328 103.113   9
  -9  -6  -3 685.192 190.967   6
  -6   9   3 658.664 317.994   1
  -6  -9  -3 698.065 165.123   3
   6  -9   3 482.749 207.620   5
   9  -6   3 766.371 191.070   5
  -9  -6  -3 726.781 98.7503   9
  -6   9   1 7015.56 757.651   1
  -9  -6  -1 7212.60 561.369   6
  -9  -6  -1 7096.14 483.348   9
  -9   6   1 6090.05 708.597   1
  -9   6  -1 7904.69 566.873   6
  -9   6  -1 7991.39 741.601   1
  -6   9  -1 7728.77 582.211   6
  -6   9  -1 8107.49 760.809   1
  -9  -6   1 7555.55 517.808   7
  -9  -6   1 8063.65 597.879   6
  -9  -6   3 551.237 155.575   6
  -6   9  -3 673.334 162.488   6
  -9  -6   3 545.200 86.5229   7
  -6   9  -3 716.349 195.731   1
  -9   6  -3 439.604 134.192   6
  -6   9  -5 2189.85 264.582   6
  -9  -6   5 2202.28 196.788   7
  -6   9  -7 9171.20 674.817   6
   6   9   7 8709.76 937.723   4
  -9   6  -7 9367.45 676.124   6
  -6   9  -9 5842.64 452.271   6
  -9  -6   9 4852.44 470.438   8
  -6  -9   9 5401.65 454.458   8
   6   9   9 6108.66 732.756   4
  -9   6  -9 6016.68 452.620   6
  -6   9 -11 4132.74 342.234   6
  -9   6 -11 4310.85 343.931   6
   6   9  11 3732.38 580.214   4
  -9  -6  11 4025.34 398.978   8
  -6  -9  11 3766.89 355.023   8
  -6  -9  13 4172.38 369.624   8
   9   6  13 4008.42 657.925   4
  -9  -6  13 4390.80 398.025   8
  -9   6 -13 4145.75 339.260   6
  -6   9 -13 4550.36 347.748   6
   6   9  13 3489.24 590.898   4
  -9   6 -15 589.318 110.035   9
  -9  -6  15 446.187 134.759   8
  -6  -9  15 505.408 131.696   8
  -9  -6  17 2929.94 282.715   8
  -6  -9  17 2991.96 276.503   8
  -6   9 -17 3105.80 241.589   9
  -9   6 -17 2924.30 245.755   9
  -9   6 -19 275.664 62.2217   9
  -6   9 -19 372.188 64.8990   9
  -6  -9  19 352.744 89.0890   8
  -9  -7 -20 256.023 53.2455   9
  -9  -7 -18 618.778 99.0401   9
   7  -9  18 516.670 105.363   8
  -7  -9 -18 654.192 98.1338   9
   9  -7  16 1239.60 166.134   8
   7  -9  16 1112.47 175.658   8
  -7  -9 -16 1398.83 160.513   9
  -9  -7 -16 972.460 152.138   9
   7  -9  14 4368.07 404.326   8
   9  -7  14 4611.64 402.754   8
  -9  -7 -14 4717.15 383.085   9
  -7  -9 -14 4453.66 372.652   9
  -9  -7 -12 8532.73 630.059   3
   7  -9  12 9342.49 653.456   8
   9  -7  12 9129.14 644.061   8
  -7  -9 -12 7622.02 590.253   9
  -9  -7 -12 7815.35 599.616   9
  -9   7  10 7710.19 939.768   1
   7  -9  10 11201.4 780.963   8
   9  -7  10 10636.9 766.392   8
  -7   9  10 9338.29 995.367   1
  -7  -9 -10 9752.83 711.499   9
  -9  -7 -10 10481.0 723.046   9
  -7  -9 -10 10526.9 754.962   3
  -9   7   8 15250.1 1356.56   1
   7  -9   8 14935.6 1021.67   8
  -7   9   8 14134.6 1321.56   1
  -9  -7  -8 14803.8 988.030   3
  -7  -9  -8 13850.7 993.647   3
  -7  -9  -8 14216.4 950.927   9
   9  -7   8 14347.6 1007.17   8
  -7  -9  -6 2219.33 272.512   3
  -9  -7  -6 2639.19 314.040   6
   7  -9   6 2276.25 361.263   5
  -7   9   6 1758.95 484.470   1
  -9  -7  -6 2183.31 251.907   3
  -9   7   6 1783.70 465.724   1
  -7  -9  -6 2051.10 202.539   9
  -7  -9  -4 9539.12 635.452   9
  -9  -7  -4 9698.13 663.939   3
  -7   9   4 8512.16 1022.26   1
   7  -9   4 9890.81 871.881   5
   9  -7   4 9518.54 815.942   5
  -7  -9  -4 9273.58 681.726   3
  -9  -7  -4 9578.24 636.309   9
  -9  -7  -4 8934.48 733.120   6
  -7  -9  -2 29135.7 1941.50   3
  -9  -7  -2 32044.1 1916.44   9
  -9   7   2 33561.8 2330.31   1
  -9  -7  -2 30007.0 1928.81   3
   7  -9   2 32044.0 2187.08   5
  -7   9   2 33969.9 2361.22   1
  -9  -7  -2 31028.8 2017.84   6
  -7   9   0 3114.14 272.337   6
  -7   9   0 2832.62 443.405   1
  -9  -7   0 2480.20 311.473   6
  -9   7   0 2611.53 426.758   1
  -9   7   0 2659.80 234.739   2
  -9   7   0 2799.52 258.656   6
  -9   7  -2 28927.4 2069.33   1
  -7   9  -2 27856.4 1904.60   6
  -7   9  -2 30123.7 2085.01   1
  -9  -7   2 30458.9 1843.29   7
  -7  -9   2 29902.9 1845.22   7
  -9   7  -2 30584.3 1902.11   6
  -7   9  -4 8989.31 687.529   6
  -7   9  -4 9398.86 783.474   1
  -9  -7   4 9190.49 614.966   7
  -7  -9   4 9504.87 616.680   7
  -9   7  -4 8608.69 672.867   6
  -9  -7   6 2774.97 238.880   7
  -7  -9   6 2717.60 236.884   7
  -7   9  -8 13018.0 887.178   6
  -7  -9   8 12520.8 847.291   7
   7   9   8 12756.8 1195.73   4
  -9   7  -8 12854.1 889.826   6
  -9  -7  10 7679.41 655.570   8
  -7  -9  10 8094.87 636.900   8
   7   9  10 7594.89 905.500   4
  -9   7 -10 9392.09 630.155   6
  -7   9 -10 9347.88 634.434   6
  -9   7 -12 9409.41 645.779   6
   7   9  12 7198.48 920.834   4
  -9  -7  12 9112.45 692.952   8
  -7  -9  12 9170.58 673.003   8
  -7   9 -12 9398.22 649.278   6
  -7  -9  14 4267.34 378.131   8
  -9  -7  14 4344.40 390.416   8
  -9   7 -14 4386.30 342.663   6
  -7   9 -14 4639.88 348.404   6
  -7  -9  16 888.563 150.959   8
  -9  -7  16 981.612 155.417   8
  -7  -9  18 280.018 89.5044   8
  -8  -9 -19 870.686 92.2984   9
  -9  -8 -19 875.345 94.1445   9
   9  -8  17 2567.63 235.258   8
   8  -9  17 2836.43 249.479   8
  -8  -9 -17 2602.87 227.974   9
  -9  -8 -17 2848.63 234.508   9
   9  -8  15 2601.67 250.401   8
   8  -9  15 1751.67 235.087   8
  -8  -9 -15 1933.40 212.882   9
  -9  -8 -15 2118.02 221.229   9
   8  -9  13 4747.46 435.025   8
   9  -8  13 5661.96 448.631   8
  -9  -8 -13 5062.75 412.463   9
  -8  -9 -13 4567.08 398.639   9
  -9  -8 -11 10175.0 709.108   9
  -9   8  11 7212.54 900.840   1
  -8   9  11 7803.12 924.877   1
   9  -8  11 10706.0 757.544   8
  -8  -9 -11 10159.4 705.962   9
   8  -9  11 10471.0 751.033   8
  -9  -8  -9 2647.83 262.926   9
  -8  -9  -9 2495.47 256.188   9
  -8  -9  -9 2473.99 305.750   3
   8  -9   9 3013.81 321.697   8
  -9  -8  -9 2575.26 306.465   3
   9  -8   9 2451.96 308.679   8
  -9   8   9 2201.12 464.505   1
  -8   9   9 1913.83 470.481   1
   8  -9   7 16664.1 1163.54   8
  -8  -9  -7 17167.6 1097.27   9
  -8   9   7 16505.7 1547.94   1
  -9  -8  -7 17094.9 1134.20   3
  -9  -8  -7 17351.9 1099.86   9
  -9   8   7 17746.8 1561.06   1
   9  -8   7 16337.9 1152.61   8
  -8  -9  -7 16083.6 1134.84   3
  -9  -8  -5 22402.8 1504.07   3
   8  -9   5 24724.1 1736.91   5
  -8  -9  -5 24684.0 1481.89   9
  -9  -8  -5 22235.5 1585.48   6
  -8  -9  -5 23337.4 1519.96   3
  -9   8   5 21969.6 1953.76   1
  -8  -9  -3 2438.24 222.987   9
  -8   9   3 3285.36 573.187   1
  -9  -8  -3 2070.04 343.731   6
  -9  -8  -3 2818.64 270.340   3
  -8  -9  -3 3014.07 284.964   3
  -9   8   3 2608.39 532.664   1
   9  -8   3 2460.78 374.868   5
   8  -9   3 1877.50 362.448   5
  -9  -8  -1 29503.2 1849.82   3
  -8   9   1 30855.6 2223.71   1
  -8   9   1 29392.1 1848.00   6
  -9   8   1 28959.8 1845.70   6
  -9   8   1 29864.9 2196.95   1
  -9   8  -1 28715.0 2053.14   1
  -8   9  -1 27750.2 2046.82   1
  -8   9  -1 27985.8 1815.98   6
  -9  -8   1 29131.7 1765.30   7
  -8  -9   1 28377.7 1765.04   7
  -9   8  -1 27860.8 1811.73   6
  -9   8  -3 1518.55 220.681   6
  -8   9  -3 1702.43 228.335   6
  -9  -8   3 1523.13 162.477   7
  -8  -9   3 1895.44 174.733   7
  -8   9  -3 1521.96 293.612   1
  -8   9  -5 22370.6 1534.16   6
  -9   8  -5 21366.6 1524.08   6
  -9  -8   5 23568.5 1464.15   7
  -8  -9   5 24463.1 1465.69   7
  -9  -8   7 15788.5 1050.81   7
  -8  -9   7 16120.5 1051.96   7
  -9   8  -7 17088.2 1115.59   6
  -8   9  -7 16353.4 1108.08   6
  -8   9  -9 2670.52 267.857   6
  -9   8  -9 2127.89 260.088   6
   8   9   9 2321.87 489.018   4
  -9  -8  11 8564.58 715.469   8
  -8  -9  11 9287.49 716.595   8
   8   9  11 9032.75 1011.40   4
   9   8  11 10001.5 1077.39   4
  -9   8 -11 10871.8 699.507   6
  -8   9 -11 10222.2 696.084   6
  -9  -8  13 5034.53 445.060   8
  -9   8 -13 5806.18 415.312   6
  -8  -9  13 4844.44 432.518   8
  -8   9 -13 5471.53 410.793   6
  -9  -8  15 2180.02 238.446   8
  -8  -9  15 2141.75 232.996   8
  -8   9 -15 2271.92 203.098   6
  -9   8 -15 2094.06 197.186   6
  -8  -9  17 2427.55 232.696   8
  -9  -9 -18 608.330 87.0603   9
   9  -9  16 478.395 113.353   8
  -9  -9 -16 397.734 97.9557   9
  -9  -9 -14 4729.91 394.391   9
   9  -9  14 5327.98 427.589   8
   9  -9  12 2900.13 308.003   8
  -9  -9 -12 2334.72 260.842   9
   9  -9  10 6450.90 516.451   8
  -9  -9 -10 6231.62 501.592   3
  -9  -9 -10 5611.24 460.481   9
  -9   9   8 8405.62 995.098   1
  -9  -9  -8 9131.93 619.683   9
   9  -9   8 7924.45 666.098   8
  -9  -9  -8 8534.90 657.998   3
  -9  -9  -6 645.605 124.112   9
  -9  -9  -6 518.860 184.320   3
  -9   9   6 269.547 307.481   1
  -9  -9  -4 4376.94 373.981   3
  -9  -9  -4 4231.02 323.638   9
   9  -9   4 3573.82 489.566   5
  -9  -9  -2 4387.32 374.691   3
  -9   9   2 3635.45 604.848   1
   9  -9   2 4371.34 542.051   5
  -9   9   0 23791.5 1869.66   1
  -9   9   0 24775.0 1577.21   6
  -9   9  -2 3703.56 517.772   1
  -9  -9   2 4695.84 345.287   7
  -9   9  -2 4668.57 405.649   6
  -9  -9   4 5341.90 383.574   7
  -9   9  -4 4652.88 438.919   6
  -9  -9   6 311.317 103.323   7
  -9   9  -8 8881.56 667.396   6
   9   9  10 6369.74 811.060   4
  -9   9 -10 6629.67 512.567   6
  -9  -9  12 2284.12 264.120   8
  -9   9 -12 2720.28 250.877   6
  -9  -9  14 4306.40 395.569   8
  -9   9 -14 5189.49 370.901   6
  -9  -9  16 423.378 106.978   8
   0  10   0 5621.87 663.667   1
   0 -10   0 5714.32 575.419   5
   0  10   2 2012.22 447.089   1
   0 -10   2 2176.93 337.961   5
   0  10  -2 2497.00 380.533   1
   0 -10  -2 2358.16 349.872   5
   0  10   4 52205.4 3465.45   1
 -10   0   4 50680.9 3050.26   2
 -10   0  -4 47822.3 3071.26   6
   0  10   6 8206.11 863.977   1
   0 -10   6 7662.20 552.091   8
   0 -10   6 6905.09 494.341   7
   0  10   6 7487.90 785.693   4
 -10   0  -6 7212.78 553.324   6
 -10   0  -6 7700.00 501.103   9
 -10   0  -8 537.403 105.048   9
 -10   0  -8 534.943 133.497   6
 -10   0  -8 536.073 118.838   3
   0  10   8 532.202 277.815   1
   0 -10   8 577.979 136.220   8
   0  10  10 43683.6 2794.17   1
 -10   0 -10 38599.4 2408.23   3
   0 -10  10 36472.3 2456.21   8
 -10   0 -10 41658.5 2438.60   6
 -10   0 -10 38265.4 2430.85   9
 -10   0 -12 5789.92 494.135   9
 -10   0 -12 6730.79 485.040   3
   0 -10  14 10097.0 757.083   8
 -10   0 -14 10992.3 748.682   9
 -10   0 -16 6566.31 487.090   9
   0 -10  16 6492.22 508.864   8
 -10   0 -18 683.875 111.508   9
   0 -10  20 2057.56 200.804   8
 -10   0 -20 2279.09 181.586   9
   1 -10  21 65.0792 53.4611   8
 -10  -1 -21 43.6606 39.8199   9
 -10  -1 -19 899.981 110.833   9
   1 -10  19 621.560 126.575   8
 -10  -1 -17 1428.55 167.319   9
 -10  -1 -15 25643.6 1637.04   9
  -1  10  13 2126.85 415.484   1
 -10  -1 -13 3174.72 284.314   3
 -10  -1 -13 2949.64 296.397   9
   1 -10  13 3157.41 320.786   8
  -1  10  11 5083.85 666.471   1
   1 -10  11 7037.40 523.964   8
 -10  -1 -11 6167.70 464.540   3
 -10  -1 -11 5966.58 476.831   9
 -10  -1  -9 31549.9 1983.52   3
 -10  -1  -9 32441.7 1997.52   9
   1 -10   9 29839.0 2026.60   8
  -1  10   9 32597.5 2341.96   1
 -10  -1  -9 33465.9 2019.15   6
  -1  10   7 26774.7 1861.26   1
   1 -10   7 19927.8 1465.80   8
 -10  -1  -7 22344.9 1474.12   6
 -10  -1  -7 24444.0 1434.80   9
   1 -10   5 19367.0 1270.69   8
 -10  -1  -5 19444.1 1276.08   6
  -1  10   3 15599.1 1354.68   1
   1  10  -3 14216.5 1146.25   1
   1 -10   3 12833.0 1149.96   5
  -1 -10  -3 15661.8 1180.83   5
 -10   1   3 15128.9 982.565   2
 -10  -1  -3 16187.4 1017.53   6
   1 -10   1 14564.6 1106.58   5
  -1  10   1 14035.8 1206.26   1
  -1 -10  -1 12858.2 1062.21   5
  -1  10  -1 12048.0 989.235   1
  -1 -10   1 9811.58 892.660   5
   1 -10  -1 12073.5 945.331   5
  -1 -10   3 17358.7 1240.34   5
   1  10   3 14929.2 1191.61   4
 -10  -1   3 15272.2 1008.15   2
  -1  10  -3 16276.0 1174.04   1
 -10   1  -5 18130.0 1200.12   6
  -1 -10   5 17776.4 1140.18   7
   1  10   5 16375.8 1408.62   4
 -10  -1   5 19443.3 1182.81   2
 -10   1  -7 22980.4 1495.30   6
  -1 -10   7 22595.0 1493.81   8
   1  10   7 27537.9 1874.96   1
   1  10   7 22778.9 1789.41   4
  -1 -10   7 23104.9 1446.72   7
 -10  -1   7 22914.2 1492.64   2
  -1 -10   9 30657.4 1977.47   8
 -10   1  -9 32224.1 1947.04   9
 -10   1  -9 29999.5 1920.51   3
   1  10   9 29743.8 2281.85   4
   1  10   9 32711.5 2298.28   1
 -10  -1   9 30057.8 1985.05   2
 -10   1  -9 32574.3 1963.86   6
   1  10  11 6182.77 700.053   1
  -1 -10  11 5610.92 461.064   8
   1  10  11 6025.87 728.783   4
 -10   1 -11 6059.99 438.158   6
 -10   1 -11 5212.75 441.322   9
  -1 -10  13 2935.34 297.647   8
   1  10  13 2764.97 457.266   1
 -10   1 -13 2891.49 287.135   9
  -1 -10  15 24493.3 1566.92   8
 -10   1 -15 23913.9 1544.67   9
  -1 -10  17 1389.99 182.198   8
 -10   1 -17 1210.45 152.881   9
 -10   1 -19 1009.31 119.053   9
  -1 -10  21 47.8961 55.5313   8
 -10   1 -21 26.9590 37.0316   9
 -10  -2 -20 1670.70 150.304   9
   2 -10  20 1762.82 172.993   8
   2 -10  18 374.649 110.085   8
 -10  -2 -18 347.164 93.0073   9
   2 -10  16 633.630 156.766   8
 -10  -2 -16 600.511 139.927   9
 -10  -2 -14 7800.85 565.925   3
 -10  -2 -14 7912.57 583.342   9
 -10  -2 -12 4271.03 383.187   9
   2 -10  12 4467.45 413.256   8
  -2  10  12 3632.64 553.836   1
 -10  -2 -12 4842.28 381.409   3
 -10  -2 -10 22415.5 1355.93   3
   2 -10  10 19022.8 1385.78   8
 -10  -2 -10 21131.5 1367.34   6
  -2  10  10 20799.7 1658.07   1
 -10  -2 -10 21199.5 1363.05   9
   2 -10   8 613.742 156.936   8
 -10  -2  -8 644.231 140.410   3
  -2  10   8 869.279 313.149   1
 -10  -2  -8 734.421 154.223   6
 -10  -2  -8 813.731 122.252   9
   2 -10   6 3065.98 282.671   8
  -2  10   6 2472.15 484.274   1
  -2 -10  -6 2441.64 391.965   5
 -10  -2  -6 2484.93 218.018   9
 -10  -2  -6 2646.28 279.422   6
   2 -10   4 39910.6 2558.39   5
   2 -10   4 34377.6 2321.89   8
  -2  10   4 40080.0 2749.76   1
 -10  -2  -4 38679.6 2346.92   6
  -2 -10  -4 38741.5 2528.95   5
  -2  10   2 20233.7 1607.67   1
  -2 -10  -2 19305.3 1430.05   5
 -10   2   2 19506.2 1243.25   2
  -2 -10   0 3575.49 440.320   5
   2 -10   0 4434.97 495.839   5
  -2  10   0 4675.64 563.489   1
 -10  -2   2 19802.4 1263.71   2
 -10   2  -2 19938.1 1287.63   6
   2  10   2 19498.3 1434.63   4
  -2  10  -2 20675.8 1470.95   1
  -2 -10   4 29885.8 1891.52   7
 -10  -2   4 32719.3 1927.58   2
   2  10   4 29040.8 2168.33   4
 -10   2  -6 1791.05 216.173   6
  -2 -10   6 1523.10 197.637   8
 -10  -2   6 1710.42 194.075   2
  -2 -10   6 1639.66 160.659   7
   2  10   6 1625.48 359.885   4
 -10   2  -8 209.649 111.578   6
  -2 -10   8 275.081 113.027   8
 -10  -2   8 262.508 116.960   2
   2  10   8 271.321 249.103   4
  -2 -10  10 19011.5 1261.30   8
   2  10  10 21824.8 1584.34   1
   2  10  10 20079.4 1589.69   4
 -10  -2  10 17664.2 1255.18   2
 -10   2 -10 20508.5 1246.89   6
 -10   2 -10 18360.4 1234.93   9
   2  10  12 3421.17 553.864   1
  -2 -10  12 4195.24 367.675   8
   2  10  12 4192.15 609.115   4
 -10   2 -12 4468.53 339.450   6
 -10   2 -12 3804.11 352.366   9
  -2  10 -14 6712.85 491.262   6
  -2 -10  14 6855.75 530.029   8
  10   2  14 6770.65 791.761   4
 -10   2 -14 6939.91 517.746   9
 -10   2 -16 1250.66 159.600   9
  -2 -10  16 743.050 157.833   8
 -10   2 -18 417.572 91.1787   9
  -2 -10  18 257.409 101.552   8
 -10   2 -20 2044.40 166.043   9
   3 -10  21 52.0291 45.8470   8
   3 -10  19 1062.26 148.942   8
 -10  -3 -19 1308.38 132.805   9
   3 -10  17 1175.47 182.415   8
 -10  -3 -17 1371.32 162.620   9
   3 -10  15 3507.39 340.907   8
 -10  -3 -15 3452.51 315.804   9
 -10  -3 -13 926.097 169.778   9
 -10  -3 -13 1031.03 180.648   3
 -10  -3 -11 128.318 116.486   9
 -10  -3 -11 217.348 142.135   3
   3 -10  11 71.9066 139.740   8
  -3  10  11-170.485 204.355   1
   3 -10   9 11000.6 856.199   8
 -10  -3  -9 12278.3 819.705   3
 -10  -3  -9 11995.3 818.163   9
 -10  -3  -9 12722.0 850.003   6
  -3  10   9 13485.6 1156.09   1
 -10  -3  -7 4947.74 394.872   3
   3 -10   7 4824.56 429.379   8
  -3  10   7 4939.78 674.419   1
 -10  -3  -7 5746.98 445.032   6
 -10  -3  -7 5117.36 380.503   9
  -3 -10  -5 7066.45 505.083   9
   3 -10   5 7646.14 568.693   8
   3 -10   5 7247.93 726.258   5
 -10  -3  -5 8142.31 514.849   9
 -10  -3  -5 7363.76 578.222   6
 -10  -3  -3 3337.84 251.850   9
   3 -10   3 3476.92 454.157   5
  -3  10   3 3569.76 584.933   1
  -3 -10  -3 3335.25 415.400   5
 -10  -3  -3 3085.13 315.248   6
  -3 -10  -1 7199.78 656.951   5
 -10   3   1 6767.03 486.063   2
  -3  10   1 7719.58 796.567   1
 -10  -3   1 6592.43 491.366   2
 -10   3  -1 7067.14 507.108   6
 -10  -3   1 7117.21 514.705   6
  -3  10  -1 7531.27 708.074   1
  -3 -10   3 2986.72 235.376   7
 -10   3  -3 2999.20 247.604   2
  -3  10  -3 2983.37 368.701   1
 -10  -3   3 3131.02 264.169   2
 -10   3  -3 2844.09 281.593   6
 -10  -3   3 3242.02 281.537   6
   3  10   3 2353.64 401.222   4
  -3 -10   5 7497.80 499.869   7
 -10  -3   5 7229.45 526.585   2
   3  10   5 7091.12 767.635   4
 -10   3  -5 7314.06 556.902   6
 -10  -3   5 7253.88 549.410   6
  -3 -10   7 4419.59 327.010   7
 -10  -3   7 3947.48 352.010   2
   3  10   7 4601.60 609.479   4
 -10   3  -7 4072.08 368.961   6
  -3 -10   7 4500.38 370.213   8
  -3 -10   9 11126.8 809.691   8
   3  10   9 12103.8 1118.13   4
 -10   3  -9 12026.7 805.546   6
 -10   3 -11 254.588 117.657   9
 -10  -3  11 189.681 155.398   8
  -3 -10  11 331.760 118.518   8
   3  10  11 300.024 221.711   1
   3  10  11 232.881 240.828   4
 -10   3 -11 297.556 104.382   6
 -10   3 -13 919.496 132.187   6
  -3  10 -13 815.173 138.176   6
  -3 -10  13 923.692 161.673   8
 -10   3 -13 599.140 146.826   9
   3  10  13 725.955 303.290   4
  -3 -10  15 3439.45 309.725   8
 -10   3 -15 3175.59 289.270   9
 -10   3 -17 1309.65 151.076   9
  -3 -10  17 1025.91 167.833   8
  -3 -10  19 1305.70 158.980   8
 -10   3 -19 1267.56 128.722   9
   4 -10  20 547.982 91.2467   8
   4 -10  18 243.404 98.0109   8
   4 -10  16 1134.63 190.088   8
 -10  -4 -16 1158.68 165.924   9
   4 -10  14 5616.89 454.695   8
 -10  -4 -14 4952.60 418.939   9
 -10  -4 -14 4940.38 414.691   3
  -4 -10 -14 5073.89 398.446   9
 -10  -4 -12 5679.62 469.521   9
  -4  10  12 5607.90 687.944   1
 -10  -4 -12 6415.70 486.351   3
  -4 -10 -12 5887.50 453.087   9
 -10  -4 -10 13544.8 885.740   3
 -10  -4 -10 12796.3 877.466   9
  -4  10  10 11666.6 1135.98   1
  -4 -10 -10 12673.0 857.996   9
 -10  -4  -8 16480.7 1095.89   3
   4 -10   8 15830.8 1137.35   8
 -10  -4  -8 17718.8 1092.63   9
  -4  10   8 18254.3 1476.59   1
  -4 -10  -8 16418.7 1077.41   9
 -10  -4  -8 16784.8 1137.28   6
  -4 -10  -6 2855.54 248.281   9
   4 -10   6 3057.42 310.832   8
 -10  -4  -6 2919.16 318.018   6
 -10  -4  -6 3340.79 257.874   9
   4 -10   4 28699.1 2038.23   5
  -4 -10  -4 28618.3 1766.87   9
  -4  10   4 28506.2 2230.46   1
 -10  -4  -4 28955.0 1847.60   6
  -4 -10  -4 26800.7 1821.80   3
 -10  -4  -4 29240.5 1768.29   9
 -10  -4  -2 38708.7 2351.04   9
  -4 -10  -2 36985.3 2562.86   5
   4 -10   2 42418.8 2650.46   5
  -4  10   2 37044.1 2731.81   1
 -10  -4  -2 37302.1 2415.63   6
 -10  -4   0 531.822 131.367   6
 -10   4   0 637.520 118.365   6
  -4  10   0 373.450 235.414   1
 -10   4   0 757.246 111.169   2
 -10   4  -2 37830.3 2335.71   6
 -10   4  -2 37840.3 2295.62   2
  -4  10  -2 37442.9 2514.17   1
   4  10   2 29988.2 2489.49   4
 -10  -4   2 38697.8 2340.81   6
 -10  -4   4 31372.5 1858.79   2
  -4 -10   4 28721.3 1821.28   7
   4  10   4 25982.9 2102.61   4
 -10  -4   4 31897.0 1883.88   6
 -10   4  -4 27546.5 1879.01   6
 -10   4  -6 2217.46 248.084   6
  -4 -10   6 1826.19 183.478   7
 -10  -4   6 2115.93 240.248   6
   4  10   6 1899.52 400.162   4
 -10  -4   6 1869.95 211.062   2
 -10  -4   8 15681.0 1165.97   8
  -4 -10   8 17367.1 1155.60   8
   4  10   8 16541.5 1442.44   4
  -4 -10   8 17506.5 1116.98   7
 -10   4  -8 18919.2 1162.78   6
 -10  -4  10 10279.6 865.872   8
  -4  10 -10 12546.2 842.457   6
  -4 -10  10 12710.0 850.691   8
   4  10  10 11759.7 1129.22   4
 -10   4 -10 12982.7 838.787   6
  -4  10 -12 4603.38 387.180   6
 -10  -4  12 5019.43 455.654   8
  -4 -10  12 5349.09 413.180   8
 -10   4 -12 4219.57 385.060   9
   4  10  12 4635.63 629.471   1
   4  10  12 4807.89 654.704   4
 -10   4 -12 5250.27 383.482   6
  -4  10 -14 4597.63 351.580   6
  -4 -10  14 4096.23 371.810   8
 -10   4 -14 4657.99 366.763   9
 -10   4 -16 1624.32 177.262   9
  -4 -10  16 1513.09 194.907   8
 -10   4 -18 69.5154 63.1616   9
  -4 -10  18 39.6564 83.2809   8
  -4  10 -20 571.565 71.8483   9
  -4 -10  20 558.269 97.5151   8
 -10   4 -20 651.854 73.9634   9
 -10   5  19 439.800 82.1871   2
   5 -10  19 405.490 92.9734   8
 -10  -5 -19 531.792 85.4699   9
   5 -10  17 2541.97 254.754   8
   5 -10  15 331.306 135.579   8
  -5 -10 -15 172.007 89.2233   9
  -5 -10 -13 7873.30 580.719   9
   5 -10  13 8764.34 639.453   8
 -10  -5 -13 7960.29 602.658   3
 -10  -5 -13 7773.61 595.358   9
   5 -10  11 11952.9 841.795   8
  -5 -10 -11 10891.1 775.950   9
  -5  10  11 10346.0 1039.09   1
 -10  -5 -11 10745.4 790.263   9
  10  -5  11 12461.5 828.769   8
 -10  -5 -11 11179.9 801.592   3
 -10   5   9 8283.93 916.087   1
 -10  -5  -9 9816.28 687.628   3
  -5 -10  -9 9279.91 655.209   9
  -5  10   9 8376.10 939.954   1
  10  -5   9 9533.73 709.730   8
 -10  -5  -9 9955.88 671.007   9
 -10   5   7 21368.7 1776.57   1
 -10  -5  -7 22859.5 1392.04   9
   5 -10   7 20982.6 1443.78   8
  -5  10   7 22660.2 1831.44   1
 -10  -5  -7 21867.0 1459.76   6
  -5 -10  -7 21434.4 1381.85   9
 -10  -5  -5 33860.7 2047.11   9
 -10   5   5 30654.2 2451.50   1
 -10  -5  -5 32540.5 2058.94   3
  -5 -10  -5 33015.2 2108.36   3
   5 -10   5 32275.3 2314.66   5
 -10  -5  -5 33554.5 2133.30   6
  -5 -10  -5 32983.9 2043.04   9
 -10  -5  -3 2028.08 279.740   6
   5 -10   3 2423.85 404.570   5
 -10  -5  -3 2490.61 205.904   9
  -5  10   3 2473.86 507.919   1
 -10  -5  -1 37629.7 2281.02   9
   5 -10   1 40152.1 2579.39   5
  -5  10   1 39739.4 2668.92   1
 -10   5   1 37260.8 2301.04   6
 -10  -5  -1 35149.1 2344.46   6
 -10   5   1 36444.6 2295.19   2
  -5  10  -1 33667.6 2242.83   1
 -10   5  -1 30769.2 1963.14   2
 -10  -5   1 31954.4 2019.28   6
 -10   5  -1 32431.5 2000.53   6
  -5  10  -3 2370.58 335.527   1
 -10  -5   3 2096.22 184.767   7
  -5 -10   3 2046.39 189.292   7
 -10  -5   3 2330.88 250.708   6
 -10   5  -3 2267.19 247.862   6
   5  10   3 2080.47 406.899   4
 -10  -5   5 33183.3 2055.39   7
  -5 -10   5 32796.4 2054.56   7
 -10  -5   5 35725.8 2132.55   6
   5  10   5 30019.5 2380.57   4
  -5 -10   7 20356.2 1331.61   7
   5  10   7 22181.4 1701.32   4
 -10   5  -7 21994.8 1391.36   6
  -5  10  -9 9034.58 618.773   6
 -10  -5   9 7155.25 633.391   8
  -5 -10   9 8298.82 611.051   8
   5  10   9 7003.50 846.041   4
 -10   5  -9 8523.91 610.255   6
 -10   5 -11 10571.7 713.999   6
  -5  10 -11 10452.8 718.696   6
 -10  -5  11 9089.79 757.900   8
  -5 -10  11 10275.5 728.716   8
   5  10  11 10362.7 1039.04   4
  -5  10 -13 7468.10 540.475   6
  -5 -10  13 7593.85 568.626   8
 -10   5 -13 7998.66 541.579   6
  10   5  13 8004.15 935.607   4
   5  10  13 5994.18 812.578   4
 -10  -5  13 7289.68 597.801   8
 -10   5 -15 304.949 94.2653   9
  -5  10 -15 349.644 87.5124   6
  -5 -10  15 321.510 113.293   8
  -5 -10  17 2098.06 222.469   8
 -10   5 -17 2185.52 195.272   9
 -10   5 -19 641.499 80.7223   9
  -5  10 -19 677.722 80.5818   9
  -5 -10  19 575.498 102.972   8
 -10  -6 -20 208.384 47.9157   9
 -10  -6 -18 358.883 83.3015   9
  -6 -10 -18 314.097 70.8355   9
   6 -10  18 371.880 97.9041   8
   6 -10  16 361.505 129.956   8
 -10  -6 -16 332.882 108.625   9
  -6 -10 -16 530.557 101.860   9
  -6 -10 -14 1478.80 180.578   9
   6 -10  14 1429.62 222.960   8
 -10  -6 -12 8421.43 598.789   3
  -6 -10 -12 6482.42 546.039   9
   6 -10  12 8331.75 621.245   8
  -6  10  12 6006.69 763.707   1
  10  -6  12 8597.16 606.799   8
  -6  10  10 5009.57 690.880   1
  10  -6  10 6158.24 493.957   8
 -10   6  10 3956.51 628.130   1
   6 -10  10 5435.88 492.612   8
 -10  -6 -10 5568.59 447.223   9
  -6 -10 -10 5725.16 440.665   9
 -10  -6 -10 6099.74 478.953   3
 -10   6   8 8082.75 912.995   1
  10  -6   8 7872.65 625.199   8
 -10  -6  -8 8573.79 583.093   9
  -6  10   8 7639.06 900.631   1
  -6 -10  -8 7578.92 571.436   9
 -10  -6  -8 8624.32 647.432   6
  -6 -10  -8 8308.73 625.754   3
  -6 -10  -6 2446.08 285.401   3
 -10  -6  -6 2143.08 249.573   3
  -6  10   6 2416.13 516.785   1
   6 -10   6 2113.13 281.035   8
   6 -10   6 2146.41 370.308   5
 -10   6   6 1309.97 430.238   1
 -10  -6  -6 2122.72 206.474   9
 -10  -6  -6 2372.44 308.265   6
  -6 -10  -6 2082.39 204.350   9
 -10  -6  -4 20993.5 1363.47   3
 -10   6   4 21325.9 1781.58   1
 -10  -6  -4 22704.3 1349.74   9
  -6 -10  -4 20195.7 1396.91   3
   6 -10   4 22981.2 1638.77   5
  -6  10   4 20877.1 1809.24   1
 -10  -6  -4 21217.1 1444.26   6
  -6 -10  -4 20792.1 1343.49   9
 -10  -6  -2 17610.2 1082.82   9
 -10   6   2 16011.1 1429.67   1
   6 -10   2 18162.8 1365.34   5
  -6  10   2 17419.6 1478.09   1
 -10  -6  -2 17410.3 1179.12   6
 -10   6   2 15933.6 1088.23   6
  -6  10   0 9267.84 698.963   6
  -6  10   0 9528.49 941.181   1
 -10  -6   0 10060.6 650.046   7
 -10   6   0 10140.6 668.521   2
 -10   6   0 9870.52 689.517   6
  -6  10  -2 16006.6 1124.61   6
  -6  10  -2 16152.8 1275.95   1
 -10  -6   2 15948.9 1042.56   7
 -10  -6   2 17396.7 1132.33   6
 -10   6  -2 17414.2 1108.52   6
  -6  10  -4 22439.3 1444.16   6
 -10  -6   4 21980.1 1359.48   7
   6  10   4 20903.1 1704.87   4
 -10   6  -4 20487.4 1421.16   6
 -10  -6   6 2504.36 223.595   7
  -6 -10   6 2471.68 222.511   7
  -6  10  -8 9143.88 679.508   6
  -6 -10   8 9184.33 639.913   7
   6  10   8 8818.94 954.941   4
 -10   6  -8 9533.51 681.347   6
  -6  10 -10 5942.43 449.153   6
 -10  -6  10 4433.24 467.446   8
  -6 -10  10 5469.80 446.610   8
   6  10  10 5604.31 703.217   4
 -10   6 -10 5883.25 444.766   6
 -10  -6  12 6786.32 571.603   8
  -6 -10  12 7125.33 546.548   8
 -10   6 -12 7412.42 524.666   6
   6  10  12 6586.16 809.481   4
  10   6  12 7305.97 902.598   4
  -6  10 -12 7165.00 525.178   6
 -10   6 -14 826.593 122.565   6
 -10  -6  14 741.006 160.409   8
  -6  10 -14 889.894 130.155   6
  -6 -10  14 827.497 149.091   8
  -6 -10  16 331.082 106.461   8
  -6 -10  18 184.623 86.7739   8
  -6 -10  20 107.105 56.5084   8
 -10   7  19 275.113 70.2359   2
   7 -10  19 187.977 63.5222   8
 -10  -7 -19 371.026 61.3377   9
  -7 -10 -17 1415.92 141.589   9
   7 -10  17 976.690 156.606   8
 -10  -7 -17 1389.97 150.201   9
  -7 -10 -15 795.645 138.356   9
   7 -10  15 888.551 164.453   8
 -10  -7 -15 875.894 149.413   9
  -7 -10 -13 2286.93 245.139   9
 -10  -7 -13 1825.12 244.076   9
   7 -10  13 2428.96 289.349   8
  -7  10  11 367.556 221.069   1
   7 -10  11 396.716 174.622   8
 -10   7  11 166.960 172.811   1
  10  -7  11 369.452 154.297   8
  -7 -10 -11 260.542 123.318   9
 -10  -7 -11 431.469 177.275   3
  -7  10   9 4563.91 658.050   1
   7 -10   9 4405.40 415.067   8
 -10   7   9 4576.29 636.400   1
  -7 -10  -9 3521.74 337.060   9
  10  -7   9 4075.12 390.542   8
 -10  -7  -7 8977.66 651.722   3
 -10   7   7 9123.06 1001.51   1
  -7  10   7 8246.08 1004.04   1
  -7 -10  -7 8438.58 613.422   9
 -10  -7  -7 9527.04 625.645   9
 -10  -7  -7 8545.94 702.505   6
  -7 -10  -7 8606.45 665.375   3
  -7 -10  -5 1913.84 195.739   9
 -10  -7  -5 2046.37 324.145   6
  -7 -10  -5 2303.50 280.326   3
 -10  -7  -5 1824.50 239.636   3
   7 -10   5 2102.95 378.226   5
 -10  -7  -5 2011.59 199.114   9
 -10   7   5 2282.79 521.614   1
 -10  -7  -3 356.456 204.320   6
  -7  10   3 175.943 317.589   1
 -10  -7  -3 593.972 103.668   9
  -7 -10  -3 568.958 186.261   3
 -10  -7  -3 500.214 150.130   3
   7 -10   3 749.072 249.199   5
 -10   7   3 451.600 305.811   1
  -7  10   1 479.050 281.359   1
 -10  -7  -1 668.483 219.972   6
  -7  10   1 663.589 128.663   6
 -10   7   1 626.690 116.696   6
 -10   7   1 681.231 119.663   2
 -10   7   1 498.002 266.190   1
   7 -10   1 564.698 247.872   5
 -10   7  -1 748.467 151.728   6
  -7  10  -1 643.030 251.109   1
  -7  10  -1 742.299 168.542   6
 -10  -7   1 968.388 121.103   7
 -10   7  -3 638.500 151.276   6
  -7  10  -3 661.630 169.464   6
 -10  -7   3 657.961 103.710   7
  -7 -10   3 606.359 107.068   7
  -7  10  -3 869.907 214.817   1
 -10   7  -5 2403.95 284.135   6
 -10  -7   5 2429.50 218.349   7
  -7  10  -5 2424.80 292.333   6
   7  10   5 2252.70 460.909   4
   7  10   7 8840.49 951.872   4
 -10   7  -7 8795.95 672.881   6
  -7  10  -9 3747.10 347.434   6
   7  10   9 3356.17 566.277   4
 -10   7  -9 3816.31 352.181   6
 -10   7 -11 546.772 128.239   6
 -10  -7  11 191.798 135.468   8
  -7  10 -11 285.703 120.636   6
  -7 -10  11 427.402 125.617   8
   7  10  11 194.120 251.230   4
  -7 -10  13 2064.71 236.965   8
 -10   7 -13 2207.53 216.535   6
 -10  -7  13 1934.21 252.417   8
  -7  10 -13 2101.21 214.610   6
  -7 -10  15 920.760 154.047   8
 -10   7 -15 955.989 123.895   6
  -7  10 -15 925.213 122.083   6
  -7 -10  17 787.809 132.159   8
  -7 -10  19 290.198 70.6896   8
  -8 -10 -18 456.953 76.6316   9
   8 -10  18 444.837 86.2655   8
 -10  -8 -18 598.000 87.0551   9
   8 -10  16 35.1671 84.9454   8
  -8 -10 -16 65.4705 76.6517   9
 -10  -8 -16 111.196 86.5709   9
 -10  -8 -14 1866.90 217.463   9
  -8 -10 -14 1985.74 216.116   9
  10  -8  14 1967.36 233.867   8
   8 -10  14 1936.67 246.371   8
   8 -10  12 2941.01 319.073   8
  -8 -10 -12 2334.82 266.277   9
 -10  -8 -12 2300.85 272.228   9
 -10  -8 -10 5251.58 425.767   9
   8 -10  10 6044.87 488.159   8
  -8 -10 -10 4930.89 415.456   9
 -10   8  10 4758.35 656.762   1
 -10  -8 -10 4836.39 450.766   3
  10  -8  10 5566.28 470.724   8
   8 -10   8 3705.06 381.028   8
  -8 -10  -8 3366.96 355.316   3
  10  -8   8 3507.21 364.277   8
  -8 -10  -8 3546.04 309.630   9
 -10   8   8 3326.75 599.160   1
  -8  10   8 3013.58 598.415   1
 -10  -8  -8 3131.91 346.055   3
  -8 -10  -6 194.194 104.187   9
 -10  -8  -6 54.6273 205.809   6
  -8 -10  -6 351.735 193.564   3
 -10  -8  -6 397.440 176.235   3
   8 -10   6 531.344 181.441   8
 -10   8   6-130.674 305.264   1
  -8  10   6 417.563 333.988   1
 -10  -8  -4 3817.91 350.956   3
 -10  -8  -4 3152.03 417.565   6
 -10  -8  -4 4119.45 314.647   9
  -8 -10  -4 3941.79 311.423   9
   8 -10   4 3621.91 492.217   5
  -8 -10  -4 3567.31 362.072   3
  -8  10   4 3730.89 670.067   1
 -10  -8  -2 3204.59 403.964   6
 -10  -8  -2 3475.87 324.424   3
   8 -10   2 3653.42 502.267   5
  10  -8   2 3199.76 451.005   5
 -10   8   2 3439.90 581.244   1
  -8  10   2 4103.03 639.506   1
 -10   8   0 10362.2 962.398   1
 -10  -8   0 9490.65 675.046   3
  -8  10   0 8598.07 929.738   1
 -10  -8   0 9877.20 646.033   7
 -10   8   0 10070.1 687.551   6
  -8  10   0 9041.65 680.129   6
  -8  10  -2 3044.78 334.494   6
 -10  -8   2 3822.70 284.576   7
  -8 -10   2 3644.96 284.797   7
  -8  10  -2 3339.84 466.479   1
 -10   8  -2 3158.85 326.166   6
  -8  10  -4 3830.78 393.050   6
 -10  -8   4 4143.27 318.019   7
  -8 -10   4 4167.15 320.786   7
 -10   8  -4 3787.22 381.763   6
  -8  10  -6 245.075 170.770   6
 -10  -8   6 259.673 103.274   7
  -8 -10   6 287.557 108.620   7
   8  10   6 258.096 284.293   4
   8  10   8 3175.61 555.140   4
 -10   8  -8 3492.39 351.522   6
  -8  10  -8 3509.45 341.627   6
  -8  10 -10 6125.75 481.855   6
   8  10  10 6098.35 762.061   4
  10   8  10 5240.87 809.662   4
 -10   8 -10 6217.11 484.127   6
  -8 -10  12 2437.40 273.408   8
 -10  -8  12 2319.81 284.829   8
 -10   8 -12 2663.12 257.342   6
  -8  10 -12 2997.04 269.828   6
 -10  -8  14 1588.87 219.123   8
 -10   8 -14 2242.60 201.704   6
  -8 -10  14 2059.47 223.601   8
  -8  10 -14 1961.53 195.574   6
  -8 -10  16 107.833 74.1264   8
   9 -10  17 1564.21 152.300   8
  -9 -10 -17 1353.64 137.795   9
 -10  -9 -17 1309.99 139.838   9
  -9 -10 -15 3810.29 317.798   9
  10  -9  15 3986.12 335.337   8
   9 -10  15 4572.91 356.661   8
 -10  -9 -15 3685.47 316.160   9
  -9 -10 -13 584.816 136.665   9
 -10  -9 -13 548.705 138.812   9
   9 -10  13 644.322 166.504   8
  10  -9  13 571.333 151.794   8
 -10  -9 -11 3030.35 300.624   9
   9 -10  11 3248.20 335.451   8
  -9 -10 -11 2939.03 291.039   9
 -10  -9 -11 3073.13 325.136   3
  10  -9  11 2653.25 317.097   8
  -9 -10  -9 126.424 114.640   9
 -10  -9  -9 226.831 182.615   3
  -9 -10  -9 137.436 172.519   3
   9 -10   9 318.435 182.302   8
  10  -9   9 263.921 163.241   8
 -10   9   9 164.473 263.043   1
  -9  10   9 111.277 245.002   1
 -10  -9  -9 171.619 123.646   9
  -9 -10  -7 4666.51 365.324   9
   9 -10   7 4812.22 432.490   8
 -10  -9  -7 4615.01 366.520   9
 -10   9   7 3211.85 654.084   1
  10  -9   7 4761.45 437.560   8
  -9  10   7 3704.01 701.176   1
  -9 -10  -7 3620.70 396.903   3
 -10  -9  -7 4450.34 408.946   3
  -9 -10  -5 12064.5 802.319   9
 -10  -9  -5 11311.4 834.873   3
  -9 -10  -5 12293.7 851.887   3
 -10  -9  -3 7039.30 541.491   3
  -9 -10  -3 6964.57 550.376   3
   9 -10   3 7508.71 749.637   5
 -10   9   3 6425.29 888.569   1
  -9  10   3 6167.80 898.246   1
  -9  10   1 13033.0 1260.26   1
 -10  -9  -1 14121.1 938.831   3
 -10   9   1 13950.0 1283.10   1
   9 -10   1 13575.8 1178.36   5
  10  -9   1 13252.9 1146.19   5
 -10   9   1 14328.1 925.770   6
  -9  10   1 13249.5 919.172   6
 -10   9  -1 10761.8 1091.22   1
  -9  10  -1 11248.2 1105.56   1
 -10  -9   1 13146.7 840.365   7
  -9 -10   1 13537.0 844.269   7
 -10   9  -1 12257.3 886.284   6
  -9  10  -1 12722.0 890.458   6
  -9  10  -3 6070.75 684.891   1
  -9  10  -3 6905.81 583.278   6
 -10  -9   3 7661.61 515.247   7
  -9 -10   3 7333.59 513.776   7
 -10   9  -3 7387.55 585.396   6
  -9  10  -5 11361.9 861.120   6
 -10  -9   5 11576.2 787.325   7
  -9 -10   5 12120.6 792.388   7
 -10   9  -5 12181.9 871.747   6
 -10  -9   7 4408.41 357.264   7
  -9 -10   7 4350.11 356.540   7
   9  10   7 4655.35 670.793   4
  -9  10  -9 343.827 141.481   6
 -10   9  -9 211.279 137.169   6
   9  10   9 213.213 242.361   4
  10   9   9 635.231 291.586   4
 -10   9 -11 3201.94 288.748   6
  -9  10 -11 2826.66 283.192   6
 -10   9 -13 640.688 116.048   6
  -9  10 -13 698.980 116.168   6
 -10  -9  13 453.764 131.608   8
  -9 -10  13 508.384 128.294   8
  -9 -10  15 3335.72 316.332   8
 -10   9 -15 4372.32 306.852   6
  -9  10 -15 4197.16 306.133   6
  10 -10  16 977.157 129.225   8
 -10 -10 -16 999.018 122.412   9
 -10 -10 -14 6104.94 464.911   9
  10 -10  14 6645.22 493.143   8
 -10 -10 -12 30.7376 102.710   9
  10 -10  12 91.6753 123.943   8
  10 -10  10 23060.4 1454.58   8
 -10 -10 -10 21796.0 1415.69   3
 -10 -10 -10 20213.1 1393.27   9
 -10 -10  -8 13921.9 949.051   9
 -10  10   8 12309.1 1347.46   1
  10 -10   8 15518.7 1024.54   8
 -10 -10  -8 13636.4 980.419   3
  10 -10   6 4302.32 440.032   8
 -10 -10  -6 5236.39 382.953   9
 -10 -10  -6 4314.21 417.647   3
 -10  10   4 18768.7 1887.59   1
 -10 -10  -4 23065.9 1470.41   3
 -10  10   2 25972.9 2133.38   1
  10 -10   2 26339.9 1955.00   5
 -10 -10  -2 26385.9 1697.84   3
 -10  10   0 35977.5 2691.01   1
  10 -10   0 34650.0 2619.66   5
 -10 -10   0 37939.7 2321.00   7
 -10  10   0 38148.8 2360.49   6
 -10 -10   2 28161.2 1732.03   7
 -10  10  -2 26701.1 1791.74   6
 -10 -10   4 21873.1 1345.08   7
 -10  10  -4 19525.0 1413.81   6
 -10  10  -6 2905.68 339.552   6
 -10 -10   6 3354.21 283.155   7
  10  10   8 11040.2 1141.64   4
 -10  10 -10 21777.5 1420.69   6
 -10  10 -12 198.536 103.819   6
 -10  10 -14 7237.26 504.651   6
   0  11   1 6515.20 813.306   1
   0  11  -1 8673.27 822.303   1
 -11   0  -1 7786.42 549.588   2
   0 -11   1 7100.56 726.575   5
   0 -11  -1 7605.81 738.718   5
 -11   0   1 8294.42 565.132   6
 -11   0  -1 7919.72 573.745   6
   0  11   3 1756.77 468.595   1
   0 -11   3 1902.35 341.091   5
   0 -11  -3 2269.91 374.359   5
 -11   0   3 2267.01 213.305   2
 -11   0   3 2150.31 213.810   6
   0  11  -3 1894.68 324.588   1
   0 -11   5 30449.4 1973.68   8
   0  11   5 32232.6 2378.31   1
 -11   0   5 32134.1 1964.27   2
 -11   0  -5 30343.3 1985.77   6
 -11   0  -7 10251.0 664.053   9
   0 -11   7 9225.04 704.273   8
   0  11   7 11361.6 1076.97   1
 -11   0   7 9653.22 715.642   2
 -11   0  -7 9927.65 719.023   6
   0  11   9 10964.2 1029.01   1
 -11   0  -9 9934.11 676.990   3
   0 -11   9 9309.96 719.336   8
 -11   0  -9 10365.3 692.449   9
 -11   0   9 9649.54 745.259   2
 -11   0  -9 10248.2 716.151   6
   0 -11  11 5227.07 456.787   8
   0  11  11 4754.40 660.829   1
 -11   0 -11 5414.91 420.479   3
 -11   0 -11 5700.00 441.892   9
 -11   0  11 6176.77 487.586   2
 -11   0 -11 5439.88 429.466   6
 -11   0 -13 409.404 131.690   9
   0 -11  13 345.522 136.694   8
 -11   0  13 471.288 138.496   2
   0  11  13 529.093 220.722   1
   0 -11  15 13163.8 886.930   8
 -11   0 -15 12469.9 862.256   9
 -11   0 -17 41.6234 78.1813   9
   0 -11  17-18.2313 90.7841   8
 -11   0 -19 1451.77 139.432   9
   0 -11  21 30.6816 43.6676   8
   1 -11  20 1625.67 163.949   8
 -11  -1 -20 1777.72 143.747   9
 -11  -1 -18-28.8101 66.4834   9
 -11  -1 -16 1798.47 199.937   9
   1 -11  16 1894.19 223.779   8
   1 -11  14 7015.19 525.034   8
 -11  -1 -14 5945.13 471.832   3
 -11   1  14 7506.16 526.808   2
 -11  -1 -14 6239.74 496.984   9
   1 -11  12 827.442 181.739   8
 -11  -1 -12 826.949 154.929   3
 -11  -1 -12 538.364 151.283   9
  -1  11  12 1151.82 317.894   1
 -11  -1 -10 22511.0 1412.14   3
 -11  -1 -10 23002.9 1438.20   6
   1 -11  10 20656.6 1452.16   8
  -1  11  10 21801.7 1746.32   1
 -11  -1 -10 22053.3 1427.49   9
 -11  -1  -8 2097.72 218.259   3
 -11  -1  -8 1710.10 232.419   6
   1 -11   8 1825.41 236.162   8
  -1  11   8 1941.72 423.400   1
 -11  -1  -8 2290.11 209.774   9
   1 -11   6 2195.24 259.148   8
  -1 -11  -6 2466.29 429.059   5
 -11  -1  -6 2806.24 224.467   9
 -11   1   6 2715.72 272.795   2
 -11  -1  -6 2644.22 287.849   6
  -1  11   4 17471.7 1506.11   1
   1 -11   4 15469.9 1094.88   8
  -1 -11  -4 18324.8 1345.47   5
 -11   1   4 17001.9 1086.08   2
 -11   1   4 16693.9 1071.99   6
 -11  -1  -4 16114.1 1115.02   6
   1  11  -2 12152.3 1031.56   1
   1 -11   2 11657.2 1004.25   5
  -1  11   2 11722.1 1146.21   1
 -11   1   2 11763.4 797.044   6
  -1 -11  -2 12532.2 1019.71   5
  -1  11   0 44433.2 2960.22   1
   1  11   0 42167.5 2950.51   1
  -1 -11   0 41487.2 2825.66   5
   1 -11   0 42036.4 2845.10   5
 -11  -1   0 39294.7 2594.41   2
 -11   1   0 41979.3 2597.35   2
 -11  -1   0 43613.8 2622.30   6
 -11   1   0 44594.1 2619.53   6
  -1 -11   2 12296.0 1009.92   5
 -11   1  -2 12605.1 797.453   2
   1  11   2 10518.3 1118.46   1
   1 -11  -2 12188.1 1020.79   5
 -11  -1   2 11610.8 791.966   2
  -1 -11   2 11215.3 763.522   7
 -11  -1   2 12289.3 811.936   6
 -11   1  -2 12776.5 828.738   6
  -1  11  -2 11916.3 1000.39   1
   1  11   4 16973.4 1435.41   1
  -1 -11   4 14601.4 968.258   7
 -11  -1   4 15476.6 1008.00   2
 -11  -1   4 16146.7 1016.25   6
  -1 -11   6 1979.00 185.934   7
 -11  -1   6 2165.77 232.930   2
   1  11   6 1963.23 395.598   4
  -1 -11   6 2024.55 228.860   8
 -11   1  -6 2198.98 250.094   6
 -11   1  -8 2514.96 224.076   9
  -1 -11   8 2282.58 258.382   8
 -11   1  -8 2329.19 221.189   3
 -11  -1   8 2424.80 271.505   2
   1  11   8 2541.66 468.067   4
 -11   1  -8 2476.14 267.380   6
   1  11   8 2533.31 485.901   1
 -11   1 -10 21397.7 1334.37   3
  -1 -11  10 21061.5 1385.02   8
   1  11  10 22982.2 1729.27   1
 -11  -1  10 19495.2 1391.18   2
 -11   1 -10 22352.2 1373.39   6
 -11   1 -10 20175.4 1353.84   9
 -11   1 -12 744.254 155.845   9
 -11   1 -12 972.579 149.003   6
  -1 -11  12 1063.43 179.440   8
   1  11  12 696.211 296.584   1
 -11  -1  12 1207.77 187.994   2
  -1  11 -14 6628.28 473.002   6
  -1 -11  14 6978.56 513.992   8
 -11   1 -14 5936.36 489.018   9
  -1 -11  16 2309.14 247.887   8
 -11   1 -16 2478.00 232.997   9
 -11   1 -18 72.4586 68.8629   9
  -1 -11  18 7.78601 84.3792   8
 -11   1 -20 1879.42 151.134   9
   2 -11  19 2856.27 237.960   8
 -11  -2 -19 2624.76 211.708   9
 -11  -2 -17 355.868 99.0705   9
 -11  -2 -15 4328.45 366.205   9
 -11  -2 -13 1377.21 190.210   9
 -11  -2 -13 1285.11 185.262   3
   2 -11  13 1320.91 209.814   8
  -2  11  13 899.079 290.805   1
   2 -11  11 10748.2 788.426   8
  -2  11  11 9939.84 1006.60   1
 -11  -2 -11 11708.7 752.106   3
 -11  -2 -11 9947.38 748.526   9
  -2  11   9 2314.25 456.964   1
   2 -11   9 2111.45 262.755   8
 -11  -2  -9 2547.14 244.871   3
 -11  -2  -9 2291.67 259.323   6
 -11  -2  -9 1984.98 224.239   9
 -11  -2  -7 682.426 111.918   9
 -11  -2  -7 687.066 169.615   6
 -11  -2  -7 774.783 152.975   3
   2 -11   7 368.372 138.867   8
  -2  11   7 370.969 275.790   1
   2 -11   5 31852.6 2074.17   8
  -2 -11  -5 33538.4 2320.02   5
 -11  -2  -5 32423.2 2092.66   6
 -11  -2  -5 33207.6 2021.50   9
  -2  11   5 33029.8 2503.61   1
   2 -11   3 3968.97 350.074   8
 -11  -2  -3 4150.04 299.911   9
  -2 -11  -3 4114.58 497.994   5
  -2  11   3 3289.52 617.597   1
 -11  -2  -3 4130.80 369.352   6
 -11   2   3 4141.66 323.654   6
   2  11  -3 3291.88 466.131   1
  -2 -11  -1 16874.7 1243.97   5
   2 -11   1 16592.8 1258.65   5
 -11   2   1 15111.8 1010.19   2
 -11  -2  -1 15661.1 1044.83   6
 -11   2   1 15409.7 1019.49   6
  -2  11   1 16176.4 1361.28   1
  -2 -11   1 11925.5 1026.21   5
 -11  -2   1 12679.8 837.500   2
   2 -11  -1 11376.0 1036.91   5
 -11   2  -1 13106.2 834.282   2
 -11  -2   1 12748.0 861.966   6
 -11   2  -1 12349.2 854.934   6
  -2  11  -1 12618.1 1074.69   1
 -11  -2   3 3462.33 298.426   2
  -2 -11   3 3609.64 270.462   7
 -11   2  -3 3395.75 329.404   6
 -11  -2   3 3593.82 314.162   6
  -2  11  -3 3398.33 422.060   1
 -11   2  -5 29531.1 2020.11   6
  -2 -11   5 31510.5 1958.95   7
   2  11   5 27815.6 2244.31   4
 -11  -2   5 33941.3 2003.08   2
 -11  -2   5 33065.2 2008.16   6
 -11   2  -7 1196.02 188.928   6
  -2 -11   7 965.959 164.431   8
   2  11   7 1411.78 401.000   1
  -2 -11   7 1028.10 134.096   7
   2  11   7 1487.04 366.266   4
 -11  -2   7 967.380 168.415   2
  -2 -11   9 2677.79 269.280   8
   2  11   9 2694.41 488.912   1
   2  11   9 2275.16 467.414   4
 -11   2  -9 2582.30 266.506   6
 -11  -2   9 2354.31 270.901   2
   2  11  11 9932.09 969.557   1
  -2 -11  11 9386.31 670.164   8
   2  11  11 10387.1 1001.08   4
 -11   2 -11 9531.37 651.683   6
 -11   2 -11 8202.84 644.929   9
 -11   2 -13 1481.90 192.884   9
 -11   2 -13 1531.51 171.408   6
  -2  11 -13 1467.07 177.822   6
  -2 -11  13 1383.01 191.795   8
 -11   2 -15 3842.03 337.123   9
  -2 -11  15 4462.96 362.716   8
 -11   2 -17 181.931 82.3596   9
  -2 -11  17 137.472 92.6082   8
 -11   2 -19 3373.84 249.078   9
  -2 -11  19 3398.04 276.490   8
   3 -11  20 942.779 119.558   8
 -11  -3 -20 1190.84 105.033   9
   3 -11  18 656.244 126.611   8
 -11  -3 -18 724.112 105.251   9
 -11  -3 -16 295.535 107.953   9
   3 -11  16 401.325 132.940   8
 -11  -3 -14 1219.08 181.969   9
 -11  -3 -14 1096.82 173.332   3
 -11  -3 -12 731.431 161.012   9
 -11  -3 -12 931.560 179.838   3
   3 -11  12 1144.82 203.859   8
  -3  11  12 992.400 304.993   1
 -11  -3 -10 7491.41 536.149   3
 -11  -3 -10 6390.24 523.328   9
   3 -11  10 7343.18 572.819   8
  -3  11  10 6721.52 805.474   1
 -11  -3 -10 7238.93 546.822   6
 -11  -3  -8 3553.32 325.792   3
   3 -11   8 3344.40 351.767   8
 -11  -3  -8 3733.63 357.498   6
 -11  -3  -8 4110.06 320.792   9
  -3  11   8 4274.30 624.350   1
 -11  -3  -6 12787.6 816.643   9
 -11  -3  -6 11624.2 881.775   6
   3 -11   6 12447.9 872.829   8
   3 -11   4 17429.0 1298.43   5
  -3 -11  -4 16116.4 1253.98   5
   3 -11   4 15285.7 1052.51   8
 -11  -3  -4 15631.2 994.026   9
 -11  -3  -4 14865.0 1069.79   6
  -3  11   4 15568.7 1436.05   1
  -3 -11  -2 8266.37 768.987   5
 -11   3   2 7790.89 582.253   2
  -3  11   2 8383.94 925.434   1
 -11   3   2 8170.01 580.005   6
 -11  -3  -2 8917.48 563.167   9
   3 -11   0 25072.1 1897.96   5
 -11   3   0 26419.4 1658.63   2
 -11  -3   0 26708.2 1696.53   6
  -3  11   0 26145.2 1964.66   1
 -11   3   0 26688.0 1676.25   6
 -11   3  -2 8856.99 626.313   6
 -11   3  -2 8891.64 591.247   2
 -11  -3   2 8099.48 595.327   2
  -3 -11   2 8279.84 568.825   7
  -3  11  -2 8859.61 791.582   1
 -11  -3   2 8619.58 620.347   6
 -11  -3   4 15351.4 996.222   2
  -3 -11   4 15042.6 959.581   7
 -11  -3   4 15979.7 1011.20   6
  -3 -11   6 9729.74 685.664   7
 -11  -3   6 10823.4 731.703   2
   3  11   6 10336.8 996.746   4
 -11  -3   6 11412.2 757.388   6
 -11   3  -6 10140.8 749.780   6
  -3 -11   8 4314.51 350.997   8
  -3 -11   8 3831.99 312.050   7
 -11  -3   8 3590.42 338.950   2
   3  11   8 2907.27 515.813   4
 -11   3  -8 3622.13 343.556   6
 -11   3 -10 7724.06 554.281   6
  -3 -11  10 7162.81 555.100   8
   3  11  10 8046.46 849.103   1
   3  11  10 6032.29 792.264   4
 -11   3 -12 714.522 146.527   9
 -11   3 -12 799.095 134.613   6
   3  11  12 975.590 300.806   1
  -3  11 -12 734.972 142.214   6
  -3 -11  12 1090.91 161.377   8
   3  11  12 1021.76 330.827   4
 -11   3 -14 914.078 147.178   9
  -3  11 -14 1158.25 142.859   6
  -3 -11  14 877.522 155.683   8
 -11   3 -16 217.506 88.0418   9
  -3 -11  16 338.076 108.911   8
 -11   3 -18 869.826 103.893   9
  -3 -11  18 582.430 116.591   8
  -3 -11  20 1202.29 125.667   8
 -11   3 -20 1008.29 94.9935   9
  -3  11 -20 1198.20 97.5409   9
   4 -11  19 973.424 120.176   8
 -11  -4 -19 900.829 103.997   9
   4 -11  17 1081.68 160.544   8
 -11   4  17 958.690 140.052   2
 -11  -4 -17 1038.20 134.832   9
 -11  -4 -15 18.4972 105.253   9
   4 -11  15 94.5762 118.485   8
 -11  -4 -13 3781.07 339.398   9
 -11  -4 -13 3778.99 343.267   3
   4 -11  11 4668.59 431.101   8
  -4 -11 -11 4449.90 369.629   9
  -4  11  11 4391.38 617.505   1
 -11  -4 -11 4489.08 392.653   9
 -11  -4 -11 4904.07 406.734   3
 -11  -4  -9 116.023 137.459   6
 -11  -4  -9-139.487 162.894   3
   4 -11   9-43.7835 144.457   8
  -4 -11  -9 42.3152 86.8183   9
  -4  11   9 153.686 251.957   1
 -11  -4  -9 9.89396 101.496   9
  -4 -11  -7 20861.9 1364.41   9
 -11  -4  -7 21643.7 1373.55   9
 -11  -4  -7 21961.0 1386.73   3
   4 -11   7 21589.8 1434.48   8
  -4  11   7 23047.4 1833.95   1
 -11  -4  -7 21793.8 1444.11   6
   4 -11   5 40938.9 2521.28   8
   4 -11   5 42688.4 2796.99   5
  -4 -11  -5 37301.2 2452.66   9
 -11  -4  -5 42153.4 2461.79   9
  -4  11   5 43684.3 3007.29   1
 -11  -4  -5 38668.3 2540.22   6
   4 -11   3 13964.1 1179.04   5
  -4  11   3 13725.8 1322.46   1
 -11  -4  -3 14075.0 993.715   6
 -11   4   3 14012.6 943.221   2
 -11  -4  -3 14222.7 908.888   9
 -11  -4  -1 37607.8 2256.14   9
 -11   4   1 36914.0 2281.89   6
   4 -11   1 36677.5 2551.49   5
  -4  11   1 38038.6 2662.15   1
 -11   4   1 35018.9 2271.05   2
 -11   4  -1 36445.6 2271.35   2
  -4  11  -1 37870.7 2557.46   1
 -11  -4   1 36032.4 2315.43   6
 -11   4  -1 37408.9 2305.79   6
 -11   4  -3 11503.1 760.098   2
  -4  11  -3 11252.2 935.696   1
  -4 -11   3 11270.5 748.706   7
 -11  -4   3 11591.1 807.956   6
 -11   4  -3 11583.1 811.889   6
  -4 -11   5 37641.7 2430.00   7
   4  11   5 35744.7 2743.91   4
 -11  -4   5 43879.6 2502.53   6
 -11  -4   5 40365.5 2470.79   2
 -11  -4   7 23212.5 1545.96   2
  -4 -11   7 23913.1 1515.78   7
   4  11   7 24140.3 1880.93   4
 -11   4  -7 25521.7 1582.22   6
 -11   4  -9 126.740 113.419   6
  -4 -11   9 35.0533 92.7666   8
   4  11   9 95.4255 240.499   4
  -4  11 -11 5307.50 423.601   6
  -4 -11  11 5532.54 434.737   8
   4  11  11 4394.59 652.254   1
   4  11  11 5023.98 688.057   4
 -11   4 -11 5223.40 417.753   6
  -4  11 -13 4704.27 368.713   6
  -4 -11  13 4569.00 381.743   8
 -11   4 -13 4421.14 356.205   6
 -11   4 -15 131.457 77.7740   9
  -4  11 -15 269.580 79.8817   6
  -4 -11  15 133.416 94.9492   8
 -11   4 -17 1062.04 128.405   9
  -4 -11  17 1361.09 160.975   8
  -4 -11  19 1353.37 140.643   8
 -11   4 -19 1072.02 105.988   9
  -4  11 -19 1136.23 104.567   9
 -11   5  18 96.8595 66.1900   2
   5 -11  18 61.2055 71.1138   8
   5 -11  16 1857.15 218.311   8
 -11  -5 -16 1778.11 194.792   9
   5 -11  14 3879.63 365.074   8
 -11  -5 -14 3256.85 321.228   9
  -5 -11 -14 3813.66 311.291   9
  -5  11  12 1911.25 384.729   1
 -11  -5 -12 1763.79 246.985   3
  -5 -11 -12 1984.51 212.992   9
 -11  -5 -12 2033.61 235.628   9
 -11  -5 -10 14536.6 958.030   3
  -5 -11 -10 13404.3 928.039   9
 -11  -5 -10 14980.1 953.474   9
  -5 -11  -8 15126.6 1032.41   9
 -11  -5  -8 15358.0 1054.89   3
  11  -5   8 15749.4 1088.62   8
 -11  -5  -8 16813.1 1049.04   9
  -5  11   8 14831.3 1416.63   1
 -11  -5  -8 16176.8 1108.62   6
   5 -11   8 16381.9 1102.90   8
 -11  -5  -6 1347.54 240.851   6
   5 -11   6 1257.22 221.989   8
  -5 -11  -6 1354.52 157.583   9
 -11  -5  -6 1339.51 157.254   9
 -11  -5  -4 49199.4 2948.41   9
   5 -11   4 49983.8 3266.59   5
  -5  11   4 46251.6 3461.40   1
 -11  -5  -4 45457.6 3035.90   6
   5 -11   2 52017.2 3568.19   5
  -5  11   2 57149.7 3746.09   1
 -11  -5  -2 53941.2 3351.04   6
 -11  -5  -2 54964.2 3262.08   9
 -11   5   2 54532.8 3287.38   2
 -11   5   2 50240.9 3271.47   6
 -11  -5   0 1592.39 234.529   6
 -11   5   0 1399.28 180.180   6
  -5  11   0 1781.54 389.956   1
   5 -11   0 1660.33 346.963   5
 -11   5   0 1579.35 172.586   2
  -5  11  -2 49726.8 3356.83   1
 -11   5  -2 49595.1 3106.53   2
  -5 -11   2 50501.2 3098.63   7
 -11  -5   2 52847.1 3171.53   6
 -11   5  -2 51607.7 3157.69   6
  -5 -11   4 46660.9 2815.91   7
   5  11   4 40189.4 3104.07   4
 -11  -5   4 47129.5 2884.76   6
 -11   5  -4 45473.9 2883.80   6
 -11   5  -6 1143.15 205.313   6
  -5 -11   6 944.531 135.595   7
   5  11   6 1070.51 330.889   4
  -5  11  -8 17785.1 1144.02   6
 -11   5  -8 16467.9 1134.25   6
  -5 -11   8 16782.6 1090.10   7
   5  11   8 14680.4 1396.32   4
  -5  11 -10 15104.8 998.420   6
  -5 -11  10 14317.9 993.170   8
   5  11  10 12289.8 1259.34   4
 -11   5 -10 15236.5 994.339   6
  -5  11 -12 2250.94 234.016   6
  -5 -11  12 2458.09 248.119   8
   5  11  12 1554.87 390.703   1
   5  11  12 2091.03 428.373   4
 -11   5 -12 2495.32 235.141   6
  -5 -11  14 3437.72 314.202   8
  -5  11 -14 3607.61 296.391   6
 -11   5 -14 3654.17 292.567   6
  -5 -11  16 2097.94 218.067   8
  -5 -11  18 63.1209 64.1108   8
  -5 -11  20 295.118 61.1457   8
   6 -11  19 335.973 72.9354   8
 -11   6  19 197.967 61.5584   2
 -11  -6 -19 333.923 63.7859   9
   6 -11  17 878.659 141.767   8
  -6 -11 -15 140.492 86.7539   9
   6 -11  15 279.791 128.377   8
   6 -11  13 4769.78 414.710   8
  -6 -11 -13 4247.60 359.514   9
 -11  -6 -13 4343.04 390.738   3
 -11  -6 -13 3999.28 372.107   9
   6 -11  11 8673.76 637.862   8
  11  -6  11 8488.12 618.119   8
  -6 -11 -11 7980.51 575.819   9
 -11  -6 -11 7460.59 583.460   9
 -11  -6 -11 7745.29 603.129   3
  -6 -11  -9 1676.90 211.733   9
 -11  -6  -9 1821.37 265.999   6
  11  -6   9 2603.75 279.507   8
  -6  11   9 1676.20 423.597   1
 -11  -6  -9 1956.61 226.344   9
 -11  -6  -7 11434.1 817.329   3
   6 -11   7 11947.3 861.706   8
  11  -6   7 11308.9 843.285   8
  -6  11   7 11274.8 1213.09   1
 -11  -6  -7 11741.5 882.497   6
  -6 -11  -7 11652.8 792.063   9
 -11  -6  -7 12376.2 800.581   9
 -11   6   5 16518.3 1603.54   1
 -11  -6  -5 18207.1 1215.42   3
  -6 -11  -5 18654.3 1196.22   9
   6 -11   5 18653.8 1262.38   8
   6 -11   5 19057.5 1490.99   5
  -6  11   5 20554.5 1748.78   1
  -6 -11  -5 18235.5 1249.52   3
 -11  -6  -5 18230.3 1295.51   6
 -11  -6  -5 19608.6 1202.20   9
 -11  -6  -3 222.905 174.825   6
  -6  11   3 301.008 296.659   1
   6 -11   3 711.762 261.570   5
 -11  -6  -3 285.864 88.3835   9
  -6  11   1 16995.3 1164.83   6
  -6  11   1 18844.2 1521.91   1
   6 -11   1 18697.8 1440.55   5
 -11  -6  -1 18030.2 1232.34   6
 -11   6   1 17479.3 1153.29   2
 -11   6   1 18413.9 1163.12   6
  -6  11  -1 17725.0 1173.36   6
  -6  11  -1 17817.5 1406.53   1
 -11  -6   1 16896.5 1093.44   7
 -11   6  -1 17260.7 1111.31   2
 -11  -6   1 17870.2 1189.70   6
 -11   6  -1 17056.2 1150.23   6
 -11  -6   3 787.292 183.860   6
 -11   6  -3 524.542 165.836   6
  -6  11  -3 231.064 164.091   6
 -11  -6   3 520.963 92.8449   7
  -6 -11   3 402.317 99.7279   7
  -6  11  -3 492.518 199.435   1
  -6  11  -5 18814.7 1179.85   6
 -11  -6   5 16874.1 1088.37   7
  -6 -11   5 17116.6 1089.61   7
   6  11   5 14849.3 1388.19   4
 -11   6  -5 15913.3 1154.60   6
  -6 -11   7 13983.6 890.682   7
   6  11   7 11155.5 1167.16   4
 -11   6  -7 13390.3 954.715   6
 -11   6  -9 1896.84 233.009   6
  -6  11  -9 1947.87 239.493   6
   6  11   9 1540.37 387.003   4
  -6 -11  11 7754.19 586.509   8
   6  11  11 8135.48 878.199   4
 -11   6 -11 7924.02 577.555   6
 -11   6 -13 5130.78 394.198   6
  -6 -11  13 4971.94 415.560   8
  -6  11 -13 5255.06 399.357   6
  -6  11 -15 290.594 80.3908   6
  -6 -11  15 239.401 94.9051   8
  -6 -11  17 572.249 108.003   8
  -6 -11  19 274.299 68.5221   8
 -11  -7 -18 280.340 66.0475   9
   7 -11  18 181.999 73.1380   8
 -11   7  18 137.859 73.1662   2
   7 -11  16 105.921 99.1165   8
  -7 -11 -16 70.7831 68.2126   9
 -11  -7 -16 82.3485 85.8567   9
  -7 -11 -14 905.345 146.577   9
   7 -11  14 883.344 178.366   8
   7 -11  12 3673.98 365.440   8
  11  -7  12 3910.03 357.031   8
  -7 -11 -12 2965.27 311.656   9
 -11  -7 -12 4214.52 371.585   3
  -7 -11 -10 3487.17 320.452   9
   7 -11  10 4102.48 386.457   8
  11  -7  10 4083.78 373.081   8
 -11  -7 -10 3336.65 330.748   9
  -7  11   8 727.403 358.071   1
 -11  -7  -8 757.146 216.365   6
  -7 -11  -8 1189.62 170.319   9
 -11  -7  -8 1103.60 221.710   3
 -11   7   8 904.364 362.344   1
  11  -7   8 1132.63 224.996   8
 -11  -7  -8 1022.58 164.313   9
 -11  -7  -6 494.607 228.093   6
 -11  -7  -6 140.887 102.851   9
  -7 -11  -6 166.780 188.966   3
 -11  -7  -6 94.3943 171.693   3
 -11   7   6 63.6181 313.011   1
   7 -11   6 437.121 184.050   8
  -7 -11  -6 42.2514 94.2580   9
 -11  -7  -4 1495.12 298.636   6
 -11  -7  -4 1593.49 174.986   9
  -7  11   4 1284.29 430.794   1
  -7 -11  -4 1401.09 241.401   3
 -11  -7  -4 1770.02 228.472   3
   7 -11   4 1561.93 351.008   5
  -7  11   2 2484.46 540.678   1
 -11  -7  -2 2889.18 366.933   6
 -11  -7  -2 2693.15 274.249   3
   7 -11   2 2938.43 465.231   5
 -11   7   2 2737.31 259.575   2
 -11   7   2 2579.51 243.830   6
  -7  11   0 5327.12 435.810   6
   7 -11   0 4952.77 627.695   5
 -11  -7   0 5336.16 384.744   7
 -11   7   0 5084.28 398.765   2
 -11   7   0 5624.66 431.177   6
  -7  11   0 5634.07 679.565   1
 -11   7  -2 1949.87 257.847   6
  -7  11  -2 2192.89 275.486   6
 -11  -7   2 2525.85 208.757   7
  -7  11  -2 1819.89 351.770   1
  -7  11  -4 592.240 188.776   6
 -11   7  -4 673.733 184.454   6
 -11  -7   4 785.411 119.943   7
  -7  11  -6 291.427 160.427   6
 -11  -7   6 320.416 107.909   7
   7  11   6 192.064 236.819   4
 -11   7  -8 1121.35 212.033   6
  -7  11  -8 1365.18 215.251   6
   7  11   8 1201.21 354.273   4
   7  11  10 3242.01 549.696   4
 -11   7 -10 4014.71 359.636   6
  -7  11 -10 4360.25 366.911   6
  -7 -11  12 2547.82 277.637   8
  -7  11 -12 3095.28 275.202   6
 -11   7 -12 2966.58 274.131   6
 -11   7 -14 825.391 125.705   6
  -7 -11  14 748.127 139.551   8
  -7 -11  16-21.7576 77.3411   8
  -7 -11  18 194.837 68.1220   8
   8 -11  17 970.166 125.203   8
 -11  -8 -17 1001.27 118.351   9
   8 -11  15 3107.86 287.923   8
  -8 -11 -15 3037.71 256.093   9
 -11  -8 -15 2702.84 261.425   9
   8 -11  13-13.0616 132.448   8
  11  -8  13 116.419 116.658   8
  -8 -11 -13 9.30330 104.857   9
 -11  -8 -13 10.0483 127.935   9
   8 -11  11 764.487 197.009   8
  11  -8  11 1185.16 200.947   8
  -8 -11 -11 830.485 158.515   9
 -11  -8  -9 211.203 186.710   3
 -11   8   9 159.891 241.958   1
   8 -11   9 351.990 179.826   8
  11  -8   9 421.605 181.780   8
  -8  11   9 395.505 256.467   1
  -8 -11  -9 20.6600 133.974   9
 -11  -8  -7 3531.49 352.511   3
  -8 -11  -7 3151.32 294.629   9
  11  -8   7 3662.11 364.680   8
 -11   8   7 2533.84 563.265   1
  -8 -11  -7 3162.39 350.401   3
 -11  -8  -7 3771.21 314.903   9
  -8  11   7 2976.03 623.869   1
 -11  -8  -5 10317.8 746.579   3
 -11   8   5 10133.9 1172.81   1
   8 -11   5 10669.9 985.177   5
 -11  -8  -5 10868.7 720.079   9
 -11  -8  -5 10684.2 846.997   6
  -8 -11  -5 10045.9 765.273   3
  -8  11   5 9113.15 1172.71   1
  -8 -11  -3 8712.36 668.530   3
 -11  -8  -3 10016.3 661.413   3
   8 -11   3 8700.06 877.663   5
 -11   8   3 8110.64 1010.93   1
 -11  -8  -3 7967.46 737.716   6
  -8  11   3 7788.00 1008.22   1
 -11  -8  -1 5428.52 455.861   3
 -11   8   1 6210.82 450.159   6
   8 -11   1 5071.94 653.698   5
 -11  -8  -1 5764.71 415.255   7
 -11   8   1 5756.81 436.625   2
  -8  11   1 6035.56 782.794   1
  -8  11   1 5646.13 442.372   6
 -11  -8   1 6844.02 465.917   7
  -8 -11   1 6567.45 468.729   7
  -8  11  -1 5485.18 701.547   1
 -11   8  -1 6815.33 519.657   6
  -8  11  -1 5890.83 512.111   6
 -11  -8   3 9893.55 648.790   7
  -8 -11   3 9443.47 650.864   7
 -11   8  -3 9956.92 725.105   6
  -8  11  -3 8602.75 721.199   6
  -8  11  -5 7624.57 610.813   6
 -11  -8   5 7507.26 532.169   7
  -8 -11   5 8065.43 537.013   7
 -11   8  -5 6379.51 592.431   6
  -8 -11   7 2460.65 241.193   7
   8  11   7 2257.81 464.620   4
 -11   8  -9 315.764 150.677   6
  -8  11  -9 429.884 156.807   6
   8  11   9 48.9861 258.987   4
 -11   8 -11 1239.55 181.448   6
  -8  11 -11 1490.53 187.313   6
 -11   8 -13 48.7090 89.1501   6
  -8  11 -13 138.448 89.8790   6
  -8 -11  13 205.423 99.4673   8
  -8 -11  15 2382.54 243.442   8
 -11   8 -15 2769.11 225.070   6
  -8  11 -15 2873.51 228.752   6
 -11   9  18-4.13539 56.9858   2
 -11  -9 -16 690.386 106.182   9
  -9 -11 -16 696.055 95.4255   9
   9 -11  16 643.953 109.227   8
  -9 -11 -14 4584.78 350.166   9
  11  -9  14 4506.48 364.643   8
   9 -11  14 4457.32 379.500   8
 -11  -9 -14 4069.65 348.896   9
   9 -11  12 550.553 166.033   8
  11  -9  12 574.451 150.309   8
  -9 -11 -12 326.300 127.017   9
 -11  -9 -12 207.962 126.830   9
 -11  -9 -10 4885.57 443.275   9
   9 -11  10 5762.07 499.736   8
  11  -9  10 5980.39 491.950   8
  -9 -11 -10 5491.73 447.576   9
 -11  -9 -10 6212.93 483.861   3
   9 -11   8 8222.38 623.445   8
  -9 -11  -8 7352.03 547.220   9
  11  -9   8 7136.98 596.687   8
 -11   9   8 6610.28 900.571   1
  -9  11   8 7332.29 953.933   1
  -9 -11  -8 6466.94 566.800   3
 -11  -9  -8 7895.61 585.458   3
   9 -11   6 6147.79 568.479   8
 -11   9   6 6717.03 935.570   1
 -11  -9  -6 6908.36 551.561   3
  -9 -11  -6 7306.23 562.338   3
  -9 -11  -4 390.166 188.993   3
 -11  -9  -4 335.163 183.438   3
 -11   9   4 560.821 393.788   1
   9 -11   4 597.228 236.925   5
  -9  11   4 71.8415 296.519   1
 -11   9   2 9584.24 1094.03   1
 -11  -9  -2 11206.0 769.815   3
  -9  11   2 9143.38 1115.73   1
   9 -11   2 10834.4 1008.94   5
 -11   9   2 10832.1 743.843   2
 -11  -9   0 42721.1 2674.38   3
  -9  11   0 41456.2 3025.48   1
   9 -11   0 38743.8 2955.40   5
 -11  -9   0 44217.0 2639.86   7
  -9 -11   0 43597.7 2641.76   7
 -11   9   0 42755.0 2680.69   6
  -9  11   0 41714.5 2677.08   6
  -9  11  -2 7086.99 823.838   1
 -11  -9   2 9083.28 613.021   7
  -9 -11   2 9066.58 618.964   7
 -11   9  -2 8897.51 678.842   6
  -9  11  -2 9215.57 683.011   6
 -11   9  -4 571.219 185.745   6
  -9  11  -4 847.987 212.932   6
 -11  -9   4 803.358 129.828   7
  -9 -11   4 699.817 127.368   7
  -9  11  -6 7333.97 608.909   6
 -11  -9   6 7772.27 544.509   7
  -9 -11   6 7723.17 544.709   7
   9  11   6 7124.97 859.716   4
 -11   9  -6 7122.26 607.802   6
   9  11   8 6082.39 781.409   4
 -11   9  -8 7141.02 560.739   6
 -11   9 -10 6586.69 518.322   6
  -9  11 -10 6675.16 516.643   6
 -11   9 -12 574.557 124.689   6
  -9  11 -12 500.929 118.286   6
  -9  11 -14 4569.37 360.436   6
 -11   9 -14 5178.98 366.309   6
 -11  10  17 877.973 112.280   2
  11 -10  15 7012.91 471.305   8
  10 -11  15 6286.86 472.322   8
 -11 -10 -15 6612.81 462.365   9
  11 -10  13 3439.42 312.119   8
 -11 -10 -13 3146.51 290.764   9
  10 -11  13 3360.63 316.107   8
 -10 -11 -13 3362.32 291.906   9
  11 -10  11 11874.7 793.778   8
 -10 -11 -11 9893.40 748.889   9
 -11 -10 -11 10178.7 751.734   9
  10 -11  11 11817.2 798.599   8
  10 -11   9 1404.32 236.673   8
  11 -10   9 1829.02 248.488   8
 -10 -11  -9 1161.15 187.316   9
 -11 -10  -9 1040.33 213.483   3
 -11 -10  -9 1214.38 192.333   9
  10 -11   7 17536.2 1159.09   8
  11 -10   7 17898.5 1162.26   8
 -11 -10  -7 16249.8 1089.64   9
 -10 -11  -7 16082.6 1118.88   3
 -11 -10  -7 15150.0 1109.62   3
 -10  11   5 32934.3 2987.32   1
 -10 -11  -5 41137.3 2520.55   3
 -11 -10  -5 39961.1 2513.88   3
 -11 -10  -3 5046.80 446.332   3
 -11  10   3 3411.17 692.748   1
 -10  11   3 3936.19 716.712   1
 -11  10   3 5737.35 422.712   2
 -10 -11  -3 4885.71 445.445   3
 -11 -10  -1 31565.2 2066.40   3
 -11  10   1 32502.1 2470.39   1
 -10  11   1 30746.9 2460.69   1
  10 -11   1 33674.1 2370.67   5
 -11 -10  -1 32832.3 2025.87   7
 -10 -11  -1 33359.7 2028.39   7
 -11  10   1 32213.5 2050.05   6
 -10  11   1 32465.1 2048.83   6
 -10  11  -1 32801.6 2536.98   1
  10 -11  -1 32585.6 2545.42   5
 -11 -10   1 36183.1 2217.67   7
 -10 -11   1 36941.3 2220.70   7
 -11  10  -1 35861.0 2270.04   6
 -10  11  -1 35054.8 2266.54   6
 -11 -10   3 5845.57 412.503   7
 -10 -11   3 5823.12 413.065   7
 -11  10  -3 4687.77 463.142   6
 -10  11  -3 4785.29 467.133   6
 -11 -10   5 41249.8 2395.44   7
 -10 -11   5 40673.6 2395.02   7
 -11  10  -5 34776.3 2455.09   6
 -10  11  -5 34219.1 2450.32   6
 -10  11  -7 15202.2 1062.30   6
 -11  10  -9 988.572 189.228   6
 -10  11  -9 1352.44 201.272   6
 -11  10 -11 11536.6 799.635   6
 -10  11 -11 11659.4 796.949   6
 -11  10 -13 3610.91 294.699   6
 -10  11 -13 3597.01 294.339   6
 -10  11 -15 6438.33 429.585   6
 -11  10 -15 6178.68 427.783   6
  11 -11  14 7375.17 523.407   8
  11 -11  12 205.973 122.783   8
  11 -11  10 18305.0 1234.46   8
  11 -11   8 12967.2 874.319   8
 -11 -11  -8 10995.8 827.947   3
  11 -11   6 7016.69 575.796   8
 -11 -11  -6 6675.37 544.881   3
 -11  11   4 22772.8 2130.43   1
 -11  11   4 26366.6 1654.83   2
 -11 -11  -4 25556.5 1672.27   3
 -11  11   2 20085.0 1853.98   1
 -11 -11  -2 23469.1 1428.46   7
 -11 -11  -2 21511.9 1471.45   3
  11 -11   0 24051.8 1964.05   5
 -11 -11   0 26618.6 1660.91   7
 -11  11   0 26864.4 1698.32   6
  11 -11  -2 19277.6 1649.54   5
 -11 -11   2 21503.7 1335.79   7
 -11  11  -2 20510.9 1393.46   6
 -11 -11   4 27037.7 1598.66   7
 -11  11  -4 22197.2 1657.47   6
 -11 -11   6 5864.87 447.746   7
 -11  11  -6 6085.19 519.649   6
 -11  11 -10 19467.1 1276.98   6
 -11  11 -12 309.808 99.7944   6
 -11  11 -14 9169.26 606.373   6
   0  12   0 97868.6 6246.63   1
   0 -12   0 91837.2 6099.15   5
 -12   0   0 97671.5 5876.29   6
   0  12   2 2509.71 523.233   1
   0 -12   2 1990.71 375.466   5
   0 -12  -2 3272.19 454.428   5
 -12   0   2 2641.43 242.674   2
 -12   0   2 2250.28 240.759   6
   0  12  -2 2357.94 389.145   1
 -12   0  -2 2570.93 273.819   6
   0  12   4 4320.40 689.682   1
   0 -12  -4 3961.28 539.269   5
 -12   0   4 4122.08 346.940   2
 -12   0   4 3783.08 337.243   6
 -12   0  -4 4540.92 398.144   6
   0 -12   6 22827.1 1540.11   8
   0 -12  -6 22474.8 1819.20   5
 -12   0   6 24970.2 1548.34   2
 -12   0  -6 23834.3 1564.51   6
 -12   0  -8 2705.14 258.630   3
   0 -12   8 2462.31 280.208   8
 -12   0   8 2721.95 309.209   2
 -12   0  -8 3063.34 306.451   6
   0  12   8 3593.15 574.998   1
 -12   0  -8 2936.30 252.975   9
 -12   0 -10 13340.0 855.692   3
   0 -12  10 13673.2 907.546   8
 -12   0  10 12479.5 918.799   2
 -12   0 -10 13586.1 891.021   6
 -12   0 -10 11492.9 863.047   9
   0  12  10 11743.7 1178.69   1
 -12   0 -12 319.000 127.064   9
   0  12  12 88.6114 169.623   1
 -12   0 -12 391.592 126.753   3
   0 -12  12 354.439 134.117   8
 -12   0 -12 195.080 96.2180   6
 -12   0  12 337.342 134.904   2
   0  12 -14 2961.93 259.145   6
   0 -12  14 3060.97 294.364   8
 -12   0  14 2893.04 274.326   2
 -12   0 -14 2969.60 283.496   9
 -12   0 -16 527.922 118.434   9
   0 -12  16 802.714 140.967   8
   0 -12  18 491.057 102.885   8
 -12   0 -18 594.495 91.8130   9
 -12  -1 -19 2519.10 193.858   9
   1 -12  17 228.050 97.0939   8
 -12  -1 -17 155.580 78.2056   9
   1 -12  15 5117.71 394.789   8
 -12   1  15 4409.05 362.846   2
 -12  -1 -15 4280.01 364.420   9
 -12  -1 -13 1329.41 198.974   9
 -12  -1 -13 1543.79 194.585   3
   1 -12  13 1700.91 218.301   8
 -12   1  13 1682.36 225.385   2
   1 -12  11 10808.4 780.103   8
 -12   1  11 11518.6 814.076   2
 -12  -1 -11 11174.3 758.606   6
  -1  12  11 9541.14 1023.42   1
 -12  -1 -11 9584.68 745.904   9
 -12  -1 -11 11327.5 742.793   3
 -12  -1  -9 2422.88 246.004   3
 -12  -1  -9 2021.22 252.896   6
   1 -12   9 2228.35 263.920   8
  -1  12   9 2897.57 507.956   1
 -12  -1  -9 2133.86 228.785   9
 -12   1   9 2592.57 307.482   2
   1 -12   7 2788.00 319.114   8
 -12   1   7 3437.25 352.323   2
 -12  -1  -7 3417.39 353.235   6
 -12  -1  -7 3909.19 292.386   9
  -1  12   5 47679.1 3244.87   1
  -1 -12  -5 41674.9 3016.81   5
   1 -12   5 42383.7 2751.26   8
 -12   1   5 46394.8 2751.43   2
 -12  -1  -5 43215.9 2778.35   6
  -1  12   3 8332.18 963.107   1
   1 -12   3 7853.22 617.450   8
   1 -12   3 8493.45 825.319   5
  -1 -12  -3 9525.23 859.495   5
 -12   1   3 8707.67 602.389   6
  -1  12   1 30827.2 2316.33   1
   1  12  -1 30521.7 2240.26   1
  -1 -12  -1 27669.8 2147.74   5
   1 -12   1 30152.5 2179.52   5
 -12   1   1 30380.4 1917.29   2
 -12  -1  -1 31291.4 1955.11   6
 -12   1   1 31325.9 1933.83   6
   1  12   1 32293.6 2444.00   1
  -1 -12   1 31169.7 2284.64   5
 -12   1  -1 32622.4 2048.34   2
   1 -12  -1 36426.8 2351.43   5
 -12  -1   1 32253.2 2048.61   2
 -12  -1   1 32300.4 2066.87   6
 -12   1  -1 33429.3 2079.28   6
  -1  12  -1 34690.9 2375.45   1
   1 -12  -3 6611.32 717.417   5
 -12  -1   3 7294.75 516.000   2
  -1 -12   3 6384.03 472.619   7
 -12  -1   3 7379.57 528.138   6
   1  12   3 6101.84 847.196   1
 -12   1  -3 8035.67 565.385   6
   1  12   5 44037.5 3043.65   1
  -1 -12   5 38893.0 2511.61   7
 -12  -1   5 44205.8 2570.74   2
 -12  -1   5 42007.5 2561.27   6
 -12   1  -5 40331.2 2593.74   6
  -1 -12   7 3034.34 316.993   8
  -1 -12   7 3535.88 284.329   7
 -12  -1   7 3637.62 348.829   2
   1  12   7 3816.48 628.304   1
 -12   1  -7 3769.84 352.152   6
 -12   1  -9 2624.19 249.108   3
  -1 -12   9 2787.38 284.877   8
 -12  -1   9 2458.93 292.433   2
 -12   1  -9 2619.54 283.887   6
  -1 -12  11 10103.1 672.541   8
 -12  -1  11 9340.21 674.242   2
 -12   1 -11 8918.69 643.310   6
 -12   1 -11 8101.73 634.158   9
   1  12  11 8099.91 936.005   1
 -12   1 -13 1423.08 204.574   9
  -1  12 -13 2083.29 212.429   6
  -1 -12  13 2044.60 226.414   8
  -1 -12  15 4748.95 379.900   8
 -12   1 -15 4213.80 354.096   9
 -12   1 -17 195.016 75.2172   9
  -1 -12  17 100.912 81.0445   8
 -12   1 -19 2627.77 191.220   9
  -1 -12  19 2370.94 212.936   8
   2 -12  20 1494.29 138.039   8
 -12  -2 -20 1362.16 113.895   9
 -12  -2 -18 1026.08 120.040   9
   2 -12  16 733.753 144.641   8
 -12   2  16 626.019 111.427   2
 -12  -2 -16 674.949 118.501   9
 -12  -2 -14 2508.04 251.281   3
   2 -12  14 2993.13 292.450   8
 -12   2  14 2792.06 279.315   2
 -12  -2 -14 2425.25 262.483   9
   2 -12  12 4008.86 358.010   8
  -2  12  12 2511.80 512.520   1
 -12   2  12 3773.00 370.335   2
 -12  -2 -12 2992.88 314.411   9
 -12  -2 -12 3798.40 322.595   3
 -12  -2 -10 7343.41 523.828   3
   2 -12  10 6852.81 554.859   8
 -12  -2 -10 7242.37 542.560   6
  -2  12  10 5723.88 777.397   1
 -12  -2 -10 6631.00 518.917   9
  -2  12   8 4759.33 660.617   1
 -12  -2  -8 3902.19 340.485   3
   2 -12   8 3840.32 368.896   8
 -12  -2  -8 4262.32 333.443   9
 -12   2   8 4429.43 415.618   2
 -12  -2  -8 3338.92 365.128   6
   2 -12   6 41599.3 2718.53   8
 -12   2   6 42124.7 2724.54   2
 -12  -2  -6 45177.4 2749.69   6
 -12  -2  -6 44193.4 2666.29   9
 -12  -2  -4 377.712 173.200   6
  -2  12   4 298.761 286.669   1
   2 -12   4 303.675 132.750   8
 -12  -2  -4 127.776 68.3786   9
  -2 -12  -4 232.587 191.005   5
   2 -12   2 12832.5 925.952   8
   2  12  -2 14470.4 1182.36   1
  -2 -12  -2 13323.0 1131.64   5
   2 -12   2 14865.1 1177.50   5
 -12   2   2 13178.1 905.745   2
 -12   2   2 14318.8 913.461   6
  -2  12   2 13549.1 1290.69   1
  -2 -12   0 105505. 6786.87   5
   2  12   0 109198. 6931.19   1
   2 -12   0 98437.5 6789.80   5
 -12   2   0 109979. 6523.87   2
 -12  -2   0 109198. 6559.39   6
 -12   2   0 105623. 6543.18   6
  -2  12   0 113409. 6912.85   1
 -12   2  -2 15055.5 956.898   2
 -12  -2   2 15211.7 965.814   2
   2 -12  -2 14338.0 1210.12   5
  -2 -12   2 13608.2 925.015   7
 -12  -2   2 14262.9 978.403   6
  -2  12  -2 13154.1 1157.92   1
 -12   2  -2 15641.4 1002.18   6
 -12  -2   4 240.393 117.401   6
  -2 -12   4 124.416 74.4334   7
 -12  -2   4 70.8615 102.953   2
  -2 -12   6 42030.8 2557.12   7
 -12  -2   6 42204.1 2603.00   2
   2  12   6 39194.3 2887.00   4
 -12  -2   6 40970.1 2609.28   6
 -12   2  -6 41309.7 2630.21   6
  -2 -12   8 3486.60 335.726   8
 -12   2  -8 3616.35 299.943   3
   2  12   8 3875.62 601.370   1
 -12  -2   8 3875.55 358.021   2
   2  12   8 3660.75 580.378   4
 -12   2  -8 4165.36 365.404   6
  -2 -12  10 5843.45 478.549   8
   2  12  10 5528.32 743.963   1
 -12  -2  10 6173.20 494.945   2
 -12   2 -10 6405.60 486.287   6
  -2  12 -12 4097.22 327.010   6
  -2 -12  12 3700.92 329.329   8
   2  12  12 3135.73 520.546   1
 -12   2 -12 3862.27 314.079   6
 -12   2 -12 2880.46 304.490   9
  -2  12 -14 2770.80 239.878   6
  -2 -12  14 2675.93 263.560   8
 -12   2 -14 2318.15 243.018   9
  -2 -12  16 785.826 134.222   8
 -12   2 -16 678.222 117.596   9
  -2 -12  18 1597.89 168.205   8
 -12   2 -18 1598.75 144.303   9
  -2 -12  20 1410.49 134.125   8
 -12  -3 -19 2246.50 177.260   9
   3 -12  19 2323.14 199.673   8
 -12   3  17 94.7877 65.4187   2
 -12  -3 -17 103.700 71.5561   9
 -12   3  15 434.795 123.303   2
 -12  -3 -15 106.265 101.750   9
   3 -12  13 1594.43 215.704   8
 -12  -3 -13 1403.78 192.425   3
 -12  -3 -13 969.710 176.240   9
   3 -12  11 7202.09 579.073   8
  -3  12  11 6257.97 789.646   1
 -12  -3 -11 6560.63 539.705   9
 -12  -3 -11 8425.76 560.372   3
 -12  -3  -9 2827.18 280.548   3
   3 -12   9 2248.96 292.332   8
 -12  -3  -9 2902.19 304.125   6
  -3  12   9 2226.07 488.607   1
 -12  -3  -9 2653.08 261.097   9
 -12  -3  -7 3237.40 303.008   3
   3 -12   7 2638.50 319.997   8
 -12  -3  -7 3598.54 358.044   6
 -12  -3  -7 3488.57 282.598   9
  -3  12   7 3368.26 602.450   1
 -12  -3  -5 34430.3 2077.54   9
 -12  -3  -5 32909.9 2161.78   6
  -3  12   5 32626.6 2571.42   1
   3 -12   5 32546.4 2132.94   8
 -12  -3  -3 49981.7 2932.82   9
   3 -12   3 44980.0 2979.39   8
  -3 -12  -3 44019.3 3200.38   5
   3 -12   3 47176.3 3241.26   5
 -12   3   3 50500.6 2972.07   2
 -12  -3  -3 50609.1 3025.15   6
  -3  12   3 48082.5 3424.80   1
 -12   3   3 45211.7 2947.91   6
 -12   3   1 23344.3 1528.04   2
 -12  -3  -1 24659.6 1580.21   6
  -3  12   1 25926.6 1940.46   1
 -12   3   1 24209.1 1540.89   6
   3 -12  -1 22897.1 1839.29   5
 -12   3  -1 24544.7 1584.11   2
  -3  12  -1 24542.2 1866.48   1
 -12  -3   1 25979.4 1627.83   6
 -12   3  -1 25896.4 1621.16   6
 -12   3  -3 43370.8 2740.85   6
 -12  -3   3 45146.7 2709.30   2
  -3 -12   3 42574.8 2669.29   7
 -12  -3   3 43787.3 2726.46   6
 -12  -3   5 34748.8 2088.06   2
  -3 -12   5 32045.6 2039.61   7
 -12  -3   5 32782.3 2103.55   6
  -3 -12   7 2800.14 240.389   7
 -12  -3   7 2421.52 272.744   2
 -12   3  -7 2562.56 297.827   6
   3  12   7 1873.67 418.142   4
  -3 -12   9 1799.60 215.224   8
   3  12   9 2064.00 425.230   1
   3  12   9 1187.78 348.009   4
 -12  -3   9 1241.02 210.397   2
 -12   3  -9 1896.96 236.197   6
  -3  12 -11 6156.62 473.501   6
  -3 -12  11 5692.79 469.079   8
   3  12  11 5678.03 726.443   1
   3  12  11 5206.57 707.732   4
 -12   3 -11 6547.36 471.589   6
 -12   3 -13 1285.52 161.482   6
  -3  12 -13 1194.64 161.702   6
  -3 -12  13 1580.12 186.901   8
 -12   3 -15 184.370 91.3187   9
  -3  12 -15 227.568 76.8702   6
  -3 -12  15 276.271 101.334   8
 -12   3 -17 70.9143 59.6950   9
  -3 -12  17 107.498 73.6893   8
  -3 -12  19 2512.93 212.370   8
   4 -12  18 419.562 96.1645   8
 -12   4  18 395.407 70.4071   2
 -12  -4 -18 390.883 78.7096   9
   4 -12  16 746.165 147.672   8
 -12   4  16 708.406 124.420   2
 -12  -4 -16 751.369 124.504   9
 -12  -4 -14 537.209 141.150   3
 -12  -4 -14 628.877 136.875   9
 -12  -4 -12 1082.73 191.995   3
   4 -12  12 1144.11 212.025   8
 -12  -4 -12 1107.29 179.936   9
 -12  -4 -10 1302.20 208.183   6
 -12  -4 -10 1554.60 223.226   3
   4 -12  10 1449.54 232.041   8
  -4  12  10 762.186 330.150   1
 -12  -4 -10 1163.66 188.952   9
   4 -12   8 5963.56 509.196   8
 -12  -4  -8 6112.39 475.090   3
  -4  12   8 6039.70 795.481   1
 -12  -4  -8 5733.90 510.501   6
 -12  -4  -8 5980.59 455.075   9
 -12  -4  -6 22728.7 1387.63   9
   4 -12   6 21030.1 1441.24   8
 -12  -4  -6 20697.7 1462.25   6
   4 -12   4 16614.6 1207.73   8
   4 -12   4 18702.6 1475.36   5
 -12  -4  -4 18940.9 1160.69   9
  -4  12   4 19079.3 1668.75   1
 -12  -4  -4 16199.5 1240.93   6
 -12   4   4 19395.9 1211.28   2
   4 -12   2 22566.1 1820.93   5
  -4  12   2 26438.6 2017.11   1
 -12   4   2 24729.0 1559.78   2
 -12   4   2 23359.5 1549.01   6
 -12  -4  -2 25093.4 1530.70   9
 -12   4   0 44515.9 2760.95   2
  -4  12   0 42381.3 3096.86   1
 -12  -4   0 45191.3 2814.46   6
 -12   4   0 45217.4 2784.39   6
 -12   4  -2 22262.2 1425.28   2
  -4  12  -2 20847.1 1649.89   1
   4 -12  -2 22295.2 1724.16   5
  -4 -12   2 21341.9 1404.99   7
 -12  -4   2 23674.5 1478.63   6
 -12   4  -2 24328.4 1480.38   6
  -4 -12   4 16614.8 1086.58   7
 -12  -4   4 17251.0 1150.92   6
 -12   4  -4 17462.7 1165.30   6
 -12  -4   6 17495.6 1197.25   2
  -4 -12   6 18662.2 1160.12   7
   4  12   6 16217.5 1460.29   4
 -12   4  -6 18290.6 1233.07   6
   4  12   8 4491.27 668.962   4
 -12   4  -8 6134.98 489.234   6
  -4  12 -10 2052.13 228.281   6
   4  12  10 1947.17 406.457   1
 -12   4 -10 1913.18 221.466   6
  -4 -12  10 1588.10 205.402   8
  -4  12 -12 975.123 146.686   6
  -4 -12  12 556.277 128.352   8
 -12   4 -12 750.524 133.637   6
 -12   4 -14 603.747 110.360   6
  -4  12 -14 666.874 115.649   6
  -4 -12  14 631.089 124.465   8
  -4 -12  16 694.734 121.811   8
  -4 -12  18 455.640 89.9358   8
   5 -12  19 443.896 75.1554   8
 -12  -5 -19 437.345 64.8176   9
   5 -12  17 413.583 103.549   8
 -12   5  17 297.298 89.6273   2
 -12  -5 -17 486.344 89.4919   9
   5 -12  15 137.279 113.802   8
 -12  -5 -15-33.3527 96.1925   9
 -12  -5 -13 2354.36 254.612   9
 -12  -5 -13 2393.57 272.792   3
  -5 -12 -11 4907.19 410.283   9
   5 -12  11 5743.05 481.374   8
 -12  -5 -11 4998.16 430.640   9
 -12  -5 -11 5777.93 457.360   3
  -5 -12  -9 502.188 129.386   9
 -12  -5  -9 570.617 171.456   6
 -12  -5  -9 593.164 193.737   3
  -5  12   9 331.106 252.319   1
   5 -12   9 620.652 186.717   8
 -12  -5  -9 570.065 143.039   9
   5 -12   7 12297.1 854.082   8
  12  -5   7 11090.1 825.972   8
  -5  12   7 10573.2 1185.36   1
 -12  -5  -7 10964.4 856.396   6
 -12  -5  -7 11887.4 788.984   9
 -12  -5  -5 18279.6 1250.17   3
   5 -12   5 19151.9 1298.25   8
   5 -12   5 21611.5 1585.34   5
  -5  12   5 18022.4 1725.81   1
 -12  -5  -5 19545.3 1341.99   6
 -12  -5  -5 19998.8 1241.02   9
  -5  12   3 4241.98 693.350   1
   5 -12   3 4072.92 563.237   5
 -12  -5  -3 4625.07 444.016   6
 -12   5   3 4391.05 372.319   2
 -12  -5  -3 4225.59 332.142   9
  -5  12   1 15595.7 1116.85   6
   5 -12   1 16342.3 1374.51   5
  -5  12   1 17126.4 1476.64   1
 -12   5   1 17539.7 1106.62   2
 -12   5   1 17490.8 1115.37   6
 -12   5  -1 15968.4 1016.59   6
  -5  12  -1 14645.7 1247.72   1
 -12   5  -1 13921.4 968.201   2
  -5 -12   1 14592.4 956.118   7
 -12  -5   1 15576.1 1038.33   6
  -5 -12   3 4219.48 320.990   7
 -12  -5   3 3728.29 386.057   6
 -12   5  -3 4067.32 380.217   6
  -5 -12   5 20058.4 1277.15   7
  -5 -12   7 11156.6 753.696   7
   5  12   7 9885.40 1044.83   4
 -12   5  -7 11572.5 828.031   6
 -12   5  -9 538.009 167.082   6
  -5  12  -9 863.299 174.350   6
   5  12   9 808.499 312.305   4
  -5  12 -11 6337.62 484.207   6
  -5 -12  11 5974.12 481.437   8
 -12   5 -11 6381.37 481.683   6
  -5 -12  13 2938.44 271.712   8
 -12   5 -13 2805.74 256.393   6
  -5  12 -13 2882.15 261.579   6
  -5  12 -15 129.892 69.2603   6
  -5 -12  15 40.9016 82.1494   8
  -5 -12  17 574.749 96.9572   8
  -5 -12  19 281.113 63.1036   8
   6 -12  18 165.218 63.5954   8
 -12   6  18 185.879 59.1694   2
   6 -12  16 126.579 94.6441   8
 -12  -6 -16 197.626 90.0930   9
 -12   6  16 141.435 86.9126   2
   6 -12  14 1906.68 240.543   8
  -6 -12 -14 1838.55 192.312   9
 -12  -6 -14 1580.13 205.935   9
  -6 -12 -12 3704.45 322.574   9
 -12  -6 -12 3346.66 334.902   9
 -12  -6 -12 4323.32 366.079   3
  -6 -12 -10 8775.66 620.373   9
  12  -6  10 9962.75 673.939   8
 -12  -6 -10 7896.98 625.148   9
 -12  -6 -10 8832.25 650.281   3
  -6  12   8 2551.86 557.067   1
   6 -12   8 3437.35 368.507   8
  12  -6   8 3642.06 358.865   8
 -12  -6  -8 3400.38 377.116   6
  -6 -12  -8 3221.46 305.385   9
 -12  -6  -8 3832.19 321.223   9
 -12  -6  -6 1832.93 313.662   6
 -12  -6  -6 1945.94 256.276   3
   6 -12   6 2064.16 277.563   8
 -12  -6  -6 2166.89 220.727   9
 -12  -6  -4 5203.37 445.938   3
   6 -12   4 6011.76 493.404   8
  -6  12   4 5288.77 819.696   1
   6 -12   4 5525.19 669.278   5
 -12  -6  -4 5041.44 529.391   6
 -12   6   4 6062.97 472.470   2
 -12  -6  -4 6066.98 429.066   9
  -6  12   2 6294.48 792.362   1
   6 -12   2 5972.86 684.386   5
 -12   6   2 5501.25 436.124   2
 -12  -6  -2 5807.48 524.924   6
 -12   6   2 5244.79 421.194   6
  -6  12   0 856.350 316.581   1
 -12   6   0 724.881 147.273   6
  -6  12   0 703.992 160.493   6
   6 -12   0 607.314 268.754   5
 -12   6   0 637.655 124.935   2
  -6  12  -2 6830.77 559.877   6
  -6  12  -2 5739.19 678.358   1
 -12   6  -2 6596.64 484.154   2
  -6 -12   2 6923.56 481.075   7
 -12  -6   2 6555.30 565.379   6
 -12   6  -2 7069.47 544.166   6
  -6  12  -4 4589.42 433.644   6
 -12  -6   4 4294.96 339.546   7
  -6 -12   4 4840.05 349.351   7
 -12   6  -4 3833.82 408.656   6
  -6  12  -6 2103.82 278.674   6
  -6 -12   6 2079.08 213.047   7
  -6  12  -8 4251.28 391.333   6
   6  12   8 3085.65 545.391   4
 -12   6  -8 4173.12 391.260   6
  -6  12 -10 9125.04 645.765   6
   6  12  10 7157.97 876.318   4
 -12   6 -10 8908.82 646.809   6
  -6 -12  12 3413.93 328.940   8
 -12   6 -12 4028.71 327.966   6
  -6  12 -12 4005.06 331.621   6
  -6 -12  14 1570.23 189.775   8
 -12   6 -14 1911.07 180.598   6
  -6  12 -14 1612.58 178.599   6
  -6 -12  16 192.396 76.3418   8
  -6 -12  18 285.280 63.2152   8
   7 -12  17 300.728 80.6175   8
 -12   7  17 267.261 77.6869   2
   7 -12  15 2277.39 238.411   8
 -12  -7 -13 536.306 140.593   9
   7 -12  13 714.934 176.068   8
  -7 -12 -13 459.082 123.634   9
 -12  -7 -11 616.301 162.659   9
 -12  -7 -11 650.997 207.921   3
   7 -12  11 442.437 178.338   8
  12  -7  11 849.202 169.657   8
  -7 -12 -11 696.752 142.286   9
  -7  12   9 1993.43 472.614   1
 -12  -7  -9 2321.64 293.543   6
  12  -7   9 2657.16 298.263   8
  -7 -12  -9 2310.57 246.428   9
 -12  -7  -9 2218.12 251.774   9
 -12  -7  -7 7473.16 561.554   3
  -7  12   7 6303.46 917.593   1
 -12  -7  -7 7477.42 537.761   9
   7 -12   7 7199.97 592.570   8
  12  -7   7 7365.17 586.633   8
 -12  -7  -7 5962.74 597.123   6
 -12  -7  -5 6368.17 506.691   3
  -7  12   5 4553.72 841.585   1
   7 -12   5 5710.38 697.369   5
 -12  -7  -5 5886.33 581.626   6
 -12  -7  -5 6721.37 478.062   9
   7 -12   5 7099.95 555.115   8
  -7  12   3 1397.10 427.427   1
 -12  -7  -3 1101.38 278.961   6
 -12  -7  -3 1397.74 212.554   3
   7 -12   3 873.660 294.647   5
 -12   7   3 1469.88 197.693   2
 -12  -7  -1 2205.73 332.787   6
  -7  12   1 1736.29 212.726   6
   7 -12   1 2418.50 429.145   5
 -12  -7  -1 1986.99 188.775   7
 -12   7   1 2218.24 219.896   2
 -12   7   1 2026.87 220.406   6
  -7  12   1 1707.25 436.372   1
 -12  -7   1 2054.46 311.972   6
 -12   7  -1 2629.68 266.457   6
  -7  12  -1 1575.90 235.925   6
 -12   7  -1 1875.36 201.598   2
 -12  -7   1 2099.29 192.432   7
   7 -12  -1 1834.92 414.876   5
  -7  12  -1 2088.21 415.055   1
 -12   7  -3 1872.92 250.879   6
  -7  12  -3 2116.62 276.986   6
 -12  -7   3 1815.84 186.030   7
  -7  12  -5 5261.89 459.289   6
 -12  -7   5 4873.63 374.366   7
  -7 -12   5 4795.56 376.335   7
 -12   7  -5 4551.52 446.408   6
  -7 -12   7 6264.56 469.277   7
 -12   7  -9 2609.11 282.218   6
  -7  12  -9 2284.12 271.457   6
   7  12   9 1895.78 417.798   4
 -12   7 -11 1109.41 169.027   6
  -7  12 -11 964.554 162.414   6
 -12   7 -13 595.271 115.462   6
  -7  12 -13 597.785 118.856   6
  -7 -12  13 443.745 119.403   8
  -7 -12  15 1604.50 186.109   8
 -12   7 -15 2200.71 181.314   6
  -7  12 -15 1947.92 176.942   6
  -7 -12  17 205.854 63.7901   8
   8 -12  16 263.213 85.0398   8
 -12  -8 -16 200.419 76.8968   9
 -12   8  16 337.202 95.7624   2
   8 -12  14 1284.32 192.074   8
  -8 -12 -12 1037.94 169.351   9
   8 -12  12 1198.93 203.473   8
  12  -8  12 1079.98 182.553   8
   8 -12  10 3821.14 379.025   8
  12  -8  10 3824.41 359.830   8
  -8 -12 -10 3264.24 318.338   9
 -12  -8 -10 3553.11 335.312   9
 -12  -8  -8 1981.08 265.021   3
  12  -8   8 2467.71 289.650   8
 -12  -8  -8 2548.27 255.348   9
 -12  -8  -6 1242.05 174.757   9
 -12  -8  -6 1224.30 226.380   3
   8 -12   6 1255.51 245.912   8
 -12  -8  -4 13573.3 913.423   3
  -8  12   4 11498.3 1340.58   1
   8 -12   4 12759.2 1163.65   5
 -12  -8  -4 11039.3 991.150   6
 -12   8   4 14743.4 933.116   2
 -12  -8  -2 4157.61 364.210   3
   8 -12   2 3651.74 545.240   5
 -12  -8  -2 3646.65 298.490   7
 -12   8   2 3866.82 327.735   2
  -8  12   2 2684.82 581.245   1
  -8  12   0 4571.58 413.753   6
 -12  -8   0 5097.27 428.303   3
   8 -12   0 5500.93 675.061   5
 -12   8   0 5031.71 393.958   2
 -12  -8   0 5484.48 383.881   7
  -8 -12   0 5177.92 387.432   7
  -8  12   0 4874.92 660.317   1
 -12   8   0 5263.05 427.193   6
 -12   8  -2 2393.89 287.881   6
  -8  12  -2 2478.64 299.461   6
 -12  -8   2 2929.37 242.904   7
  -8 -12   2 2675.60 242.692   7
  -8  12  -4 10498.3 887.387   6
 -12  -8   4 13237.9 826.458   7
 -12   8  -4 12768.4 906.853   6
 -12   8  -6 2120.06 298.459   6
  -8  12  -6 2368.12 300.680   6
 -12   8  -8 2413.86 286.777   6
  -8  12 -10 4103.99 365.265   6
 -12   8 -10 4284.49 375.185   6
 -12   8 -12 1242.33 169.519   6
  -8  12 -12 1350.12 174.422   6
 -12   8 -14 1241.16 139.902   6
  -8  12 -14 1085.04 137.992   6
 -12   9  17 155.196 60.0448   2
   9 -12  15 2771.11 247.875   8
 -12  -9 -15 2712.70 231.451   9
  12  -9  13 37.2539 86.3148   8
   9 -12  13 54.8366 114.431   8
 -12  -9 -13-26.0485 99.2443   9
   9 -12  11 4506.78 415.418   8
  12  -9  11 4627.10 402.184   8
 -12  -9 -11 4434.49 397.179   3
 -12  -9  -9 1539.67 242.827   3
   9 -12   9 1225.11 231.271   8
  12  -9   9 1139.59 207.700   8
 -12  -9  -7 3392.78 303.960   9
  12  -9   7 2916.48 334.931   8
 -12  -9  -7 3032.79 331.224   3
  -9 -12  -5 15195.9 1056.86   3
   9 -12   5 14230.7 1077.64   8
 -12   9   5 17819.8 1079.76   2
 -12  -9  -5 15429.3 1048.37   3
 -12  -9  -3 4416.75 385.246   3
   9 -12   3 3741.25 532.093   5
 -12  -9  -3 3895.78 315.706   7
 -12   9   3 3759.36 347.361   2
  -9  12   3 4107.82 713.654   1
 -12  -9  -1 5285.29 443.039   3
 -12   9   1 5096.52 414.618   6
   9 -12   1 4134.00 612.061   5
 -12  -9  -1 5453.59 390.991   7
 -12   9   1 4865.28 399.798   2
  -9 -12  -1 5954.02 403.786   7
  -9  12   1 5001.28 728.823   1
  -9  12   1 5001.27 411.604   6
 -12   9  -1 4304.64 389.859   6
   9 -12  -1 3539.46 567.699   5
 -12  -9   1 4744.92 341.667   7
  -9  12  -1 3936.24 568.093   1
  -9 -12   1 4492.09 344.648   7
  -9  12  -1 3978.46 380.071   6
 -12  -9   3 3794.98 306.607   7
  -9 -12   3 3820.85 313.843   7
 -12   9  -3 3451.18 378.858   6
  -9  12  -3 3852.69 387.922   6
 -12  -9   5 16528.2 1035.65   7
  -9 -12   5 16133.0 1037.93   7
 -12   9  -5 13782.7 1096.78   6
  -9  12  -5 16039.2 1111.62   6
  -9  12  -7 2528.37 311.032   6
  -9 -12   7 2845.90 265.274   7
 -12   9  -9 1024.08 193.224   6
  -9  12  -9 1233.30 199.715   6
 -12   9 -11 4620.68 378.320   6
  -9  12 -11 4556.24 377.000   6
 -12   9 -13 94.2789 81.3373   6
  -9  12 -13-50.2458 72.7804   6
  -9  12 -15 2751.02 218.947   6
 -12   9 -15 2843.86 219.615   6
  10 -12  16 996.966 109.473   8
  12 -10  14 3281.90 275.587   8
  10 -12  14 3714.22 296.711   8
  10 -12  12 100.258 114.997   8
  12 -10  12 10.1369 101.646   8
 -12 -10 -12 106.949 99.5581   9
  10 -12  10 13431.1 915.284   8
  12 -10  10 13596.8 907.948   8
 -12 -10 -10 12925.6 885.075   3
 -12 -10 -10 11694.0 870.036   9
  10 -12   8 5953.34 522.677   8
  12 -10   8 6487.90 526.385   8
 -12 -10  -8 5894.82 498.067   3
  12 -10   6 3593.90 365.846   8
 -10 -12  -6 3407.73 341.759   3
 -12 -10  -6 3334.68 345.785   3
 -12 -10  -4 14351.1 923.824   7
 -10  12   4 10701.3 1340.81   1
 -12  10   4 14204.2 961.398   2
 -10 -12  -4 13951.3 975.145   3
 -12 -10  -4 14053.0 971.826   3
 -12 -10  -2 9625.84 683.950   3
  10 -12   2 7532.58 863.457   5
 -10  12   2 7727.79 1001.89   1
 -12 -10  -2 9323.47 627.411   7
 -10 -12  -2 9208.55 630.677   7
 -10  12   0 13161.5 1223.18   1
  10 -12   0 11820.5 1159.33   5
 -12 -10   0 13119.3 864.741   7
 -10 -12   0 13504.5 869.515   7
 -12  10   0 13088.0 902.807   6
 -10  12   0 13057.6 900.971   6
  10 -12  -2 8918.19 1005.20   5
 -12 -10   2 10798.3 713.015   7
 -10 -12   2 10787.1 716.275   7
 -12  10  -2 10575.0 778.795   6
 -10  12  -2 10210.0 771.414   6
 -12 -10   4 14056.2 908.027   7
 -10 -12   4 14158.3 910.597   7
 -12  10  -4 12554.3 975.423   6
 -10  12  -4 13559.2 983.993   6
 -10 -12   6 3753.27 311.441   7
 -12  10  -6 3380.04 373.955   6
 -10  12  -6 3584.76 376.207   6
 -12  10 -10 14255.2 966.906   6
 -10  12 -10 14276.1 964.255   6
 -12  10 -12 269.792 99.4155   6
 -10  12 -12 133.671 90.2044   6
 -12  10 -14 3948.78 294.060   6
 -10  12 -14 3931.61 293.280   6
  11 -12  15 4417.72 281.589   8
 -12  11  15 3785.76 293.271   2
 -12  11  13 1899.17 227.169   2
  12 -11  13 2182.09 206.360   8
  11 -12  13 2215.61 214.995   8
  11 -12  11 3582.02 345.063   8
  12 -11  11 3971.69 340.907   8
  11 -12   9 11114.5 797.235   8
  12 -11   9 10786.0 788.619   8
  11 -12   7 9631.09 706.030   8
  12 -11   7 8895.96 695.180   8
 -12  11   7 8999.12 688.368   2
 -12 -11  -7 8922.25 669.516   3
  11 -12   5 23676.9 1498.67   8
  12 -11   5 22852.7 1488.95   8
 -12  11   5 21784.2 1449.26   2
 -11  12   5 21098.2 1439.57   2
 -11 -12  -5 22663.9 1460.03   3
 -12 -11  -5 21929.6 1457.14   3
 -12 -11  -3 3286.89 277.179   7
 -11 -12  -3 3377.24 280.311   7
 -12 -11  -3 3118.24 332.833   3
 -12 -11  -1 14071.0 925.607   7
 -11 -12  -1 14237.8 927.347   7
 -12 -11   1 15164.1 966.126   7
 -11 -12   1 14544.3 964.429   7
 -12  11  -1 14550.2 1010.26   6
 -11  12  -1 14755.9 1009.11   6
 -12  11  -3 2781.25 312.031   6
 -11  12  -3 2480.30 300.075   6
 -12 -11   3 2892.11 246.875   7
 -11 -12   3 2666.73 247.339   7
 -12 -11   5 21580.3 1336.45   7
 -11 -12   5 22585.1 1340.02   7
 -12  11  -5 17866.7 1391.93   6
 -11  12  -5 19884.7 1399.52   6
 -12  11  -7 9682.14 723.052   6
 -11  12  -7 9581.59 718.811   6
 -12  11 -11 3585.26 305.054   6
 -11  12 -11 3398.74 299.487   6
 -12  11 -13 2148.51 194.006   6
 -11  12 -13 2137.48 192.928   6
  12 -12  14 1319.15 127.100   8
 -12  12  14 1295.35 148.507   2
  12 -12  12 3729.25 291.924   8
 -12  12  12 3011.74 299.522   2
  12 -12  10 23117.0 1330.94   8
 -12  12  10 17551.7 1315.37   2
  12 -12   8 1709.21 231.294   8
 -12  12   8 1515.75 216.539   2
 -12 -12  -6 1406.87 212.091   3
  12 -12   6 1809.45 243.450   8
 -12 -12  -6 1622.82 178.160   7
 -12  12   6 1203.62 191.617   2
  12 -12   4 35697.5 2216.66   8
 -12 -12  -4 32773.4 2178.47   3
 -12 -12  -4 35040.8 2144.36   7
 -12 -12  -2 10387.1 701.138   7
 -12  12   0-73.1919 86.8401   6
 -12 -12   0-7.56414 75.3571   7
 -12 -12   2 8750.08 609.759   7
 -12  12  -2 9186.13 665.732   6
 -12 -12   4 39149.7 2307.18   7
 -12  12  -4 33920.5 2362.78   6
 -12  12  -6 1499.25 226.415   6
 -12  12  -8 1915.53 235.120   6
 -12  12 -10 23457.7 1496.01   6
 -12  12 -12 4408.84 332.841   6
 -12  12 -14 1831.87 153.154   6
   0  13   1 10146.3 1009.61   1
   0 -13   1 7967.76 841.108   5
   0 -13  -1 8791.06 862.925   5
 -13   0   1 8653.00 648.534   6
 -13   0  -1 9476.80 672.735   6
   0  13  -1 8424.05 887.744   1
   0  13   3 795.346 365.320   1
 -13   0   3 879.887 146.912   6
   0 -13  -3 842.668 281.901   5
 -13   0   3 671.766 141.424   2
   0  13   5 21687.7 1793.73   1
   0 -13   5 18830.3 1317.68   8
   0 -13  -5 18772.0 1607.69   5
 -13   0   5 21268.8 1326.85   2
 -13   0   5 19659.4 1305.59   6
 -13   0  -5 20434.8 1362.11   6
 -13   0  -7 1689.27 257.889   6
   0 -13   7 1438.13 212.795   8
 -13   0   7 1756.65 245.747   2
 -13   0  -9 4404.50 330.806   3
   0 -13   9 3639.86 346.364   8
   0  13   9 3892.92 600.817   1
 -13   0   9 3396.98 364.674   2
 -13   0  -9 4096.22 363.810   6
 -13   0  -9 3260.17 309.475   9
   0 -13  11 3545.07 331.502   8
 -13   0  11 3840.98 358.871   2
 -13   0 -11 3404.28 318.087   6
 -13   0 -11 3042.23 306.747   9
 -13   0 -11 3872.46 314.225   3
   0 -13  13 352.265 125.571   8
 -13   0  13 177.706 115.233   2
 -13   0 -13 193.979 111.724   9
   0 -13  15 1964.71 204.806   8
 -13   0 -15 1454.61 178.136   9
   0 -13  17 100.587 76.7129   8
 -13   0 -17 161.652 67.1556   9
   0 -13  19 1352.13 135.482   8
   1 -13  18 920.891 121.452   8
 -13  -1 -18 962.625 102.651   9
   1 -13  16 1045.75 153.379   8
 -13  -1 -16 986.804 133.026   9
   1  13 -14 4102.57 318.697   6
   1 -13  14 4344.25 355.744   8
 -13   1  14 3908.80 337.920   2
 -13  -1 -14 3660.29 334.578   9
 -13  -1 -12 645.442 132.974   6
 -13  -1 -12 788.532 150.898   3
   1 -13  12 667.640 150.581   8
 -13   1  12 881.947 182.036   2
 -13  -1 -12 570.177 139.676   9
 -13  -1 -10 10299.9 682.184   3
   1 -13  10 9183.64 708.425   8
 -13   1  10 9537.92 743.946   2
 -13  -1 -10 10337.1 713.158   6
  -1  13  10 9834.56 1010.43   1
 -13  -1 -10 9150.28 681.031   9
 -13  -1  -8 9637.35 645.150   3
   1 -13   8 8594.43 673.302   8
 -13   1   8 9635.41 714.117   2
 -13  -1  -8 9070.26 694.477   6
  -1  13   8 8588.31 1009.50   1
 -13  -1  -8 8829.88 633.066   9
   1 -13   6 14107.5 1025.01   8
 -13   1   6 16426.3 1049.52   2
 -13  -1  -6 14422.4 1057.59   6
  -1  13   6 16285.9 1476.74   1
   1 -13   4 4653.74 414.665   8
  -1 -13  -4 4699.08 613.345   5
  -1  13   4 4932.62 767.094   1
 -13   1   4 5560.06 420.795   2
 -13   1   4 4446.13 391.194   6
 -13  -1  -4 5292.25 470.326   6
   1  13  -2 7953.59 800.980   1
   1 -13   2 7741.96 786.956   5
  -1 -13  -2 6495.05 748.053   5
  -1  13   2 7284.88 905.168   1
 -13   1   2 7778.40 575.815   6
 -13  -1  -2 8490.24 623.444   6
   1  13   0 27795.6 2219.50   1
  -1 -13   0 27658.2 2114.86   5
   1 -13   0 28026.2 2132.32   5
 -13   1   0 30003.7 1861.45   2
 -13  -1   0 30166.4 1893.37   6
 -13   1   0 29848.7 1888.19   6
  -1  13   0 28881.7 2217.54   1
   1 -13  -2 7913.00 771.718   5
 -13  -1   2 6546.37 499.871   2
  -1 -13   2 6332.49 458.826   7
 -13  -1   2 6582.10 518.100   6
   1  13   2 6553.90 846.541   1
  -1  13  -2 6150.69 691.373   1
 -13   1  -2 7633.95 555.556   6
   1 -13  -4 7229.04 774.588   5
 -13  -1   4 6213.99 498.005   2
  -1 -13   4 6512.44 451.748   7
   1  13   4 6247.76 850.155   1
 -13  -1   4 6481.62 508.429   6
   1  13   6 16705.9 1440.65   1
   1 -13  -6 14111.4 1289.20   5
  -1 -13   6 13434.0 915.612   7
 -13  -1   6 14698.4 982.618   2
 -13   1  -6 14710.7 1008.69   6
   1  13   8 10822.1 1062.01   1
  -1 -13   8 8547.89 636.702   8
 -13   1  -8 8674.62 595.742   3
   1 -13  -8 7701.22 923.200   5
 -13  -1   8 8364.72 653.217   2
 -13   1  -8 8214.42 651.061   6
 -13   1 -10 9780.16 651.335   3
  -1 -13  10 9424.63 687.338   8
 -13  -1  10 9276.62 706.619   2
 -13   1 -10 9375.93 688.009   6
   1  13  10 8464.01 980.606   1
 -13   1 -12 543.425 123.960   6
  -1 -13  12 694.587 137.373   8
 -13  -1  12 713.468 144.037   2
 -13   1 -12 426.526 127.314   9
  -1  13 -14 4409.88 337.004   6
  -1 -13  14 5121.30 370.057   8
  -1 -13  16 746.979 124.812   8
 -13   1 -16 685.826 110.170   9
  -1 -13  18 941.338 119.607   8
 -13   1 -18 915.764 95.5974   9
 -13  -2 -19 2620.98 188.860   9
   2 -13  17 377.630 98.8668   8
 -13  -2 -17 324.324 79.2579   9
   2 -13  15 188.481 105.500   8
 -13   2  15 152.882 89.7422   2
 -13  -2 -15 79.9633 91.7525   9
   2 -13  13 2989.66 287.326   8
 -13   2  13 2999.78 297.631   2
 -13  -2 -13 2181.92 255.204   9
 -13  -2 -13 2726.55 260.045   3
   2 -13  11 6787.42 532.522   8
 -13   2  11 6252.15 548.282   2
 -13  -2 -11 6538.13 501.893   6
 -13  -2 -11 5956.26 495.821   9
 -13  -2 -11 7229.98 506.220   3
 -13  -2  -9 813.601 176.002   6
 -13  -2  -9 846.117 174.544   3
   2 -13   9 1075.26 188.690   8
  -2  13   9 491.962 316.255   1
 -13   2   9 668.804 205.770   2
 -13  -2  -9 824.899 146.009   9
 -13  -2  -7 8077.66 567.194   3
   2 -13   7 6811.15 584.505   8
 -13   2   7 7268.12 616.550   2
 -13  -2  -7 7635.47 620.559   6
 -13  -2  -7 8349.79 553.229   9
   2 -13   5 26669.9 1799.97   8
 -13  -2  -5 28138.4 1743.35   9
 -13   2   5 27949.6 1798.80   2
 -13  -2  -5 28738.6 1845.22   6
  -2  13   5 29247.9 2281.11   1
   2 -13   3 27947.6 1810.66   8
   2 -13   3 26364.0 2064.94   5
  -2 -13  -3 27130.2 2064.34   5
 -13   2   3 28767.3 1787.24   6
  -2  13   3 29486.4 2270.16   1
   2  13  -1 28855.4 2231.82   1
  -2 -13  -1 28759.8 2177.85   5
   2 -13   1 30112.3 2195.10   5
 -13   2   1 30330.1 1912.36   2
 -13  -2  -1 31490.0 1962.04   6
 -13   2   1 30301.2 1927.24   6
  -2  13   1 30553.3 2320.54   1
   2  13   1 28324.3 2227.09   1
 -13   2  -1 30222.6 1825.60   2
   2 -13  -1 27590.8 2101.37   5
  -2 -13   1 28086.3 1788.53   7
  -2  13  -1 29106.5 2125.37   1
 -13  -2   1 29255.2 1857.08   6
 -13   2  -1 28615.4 1854.89   6
   2  13   3 27802.9 2294.84   1
 -13  -2   3 29973.5 1862.13   2
   2 -13  -3 30661.6 2194.65   5
  -2 -13   3 28775.9 1816.99   7
 -13  -2   3 29515.9 1879.55   6
 -13   2  -3 29163.5 1899.92   6
   2  13   5 37035.6 2657.01   1
 -13  -2   5 35280.0 2172.12   2
   2 -13  -5 34405.5 2517.95   5
  -2 -13   5 33735.7 2117.47   7
 -13  -2   5 33534.4 2177.96   6
  -2 -13   7 7186.11 500.576   7
 -13  -2   7 6650.12 548.335   2
 -13   2  -7 6979.42 572.612   6
 -13   2  -9 1343.68 202.879   6
 -13   2  -9 1011.04 154.956   3
  -2 -13   9 1038.00 171.836   8
 -13  -2   9 1161.84 198.370   2
  -2 -13  11 7330.05 548.768   8
 -13  -2  11 7223.61 557.350   2
 -13   2 -11 7390.08 545.704   6
  -2  13 -13 2725.17 249.797   6
  -2 -13  13 2754.46 262.241   8
 -13   2 -13 2504.29 239.115   6
  -2  13 -15 289.524 78.7649   6
  -2 -13  15 325.040 98.0179   8
 -13   2 -15 215.229 82.9691   9
  -2 -13  17 273.864 80.3267   8
  -2 -13  19 3152.01 235.949   8
 -13  -3 -18 439.988 72.6266   9
   3 -13  16 817.511 137.862   8
 -13   3  16 717.694 113.721   2
 -13  -3 -16 795.542 122.138   9
 -13  -3 -14 1591.72 189.231   9
 -13  -3 -14 1229.15 171.405   3
   3 -13  14 1530.26 201.862   8
 -13   3  14 1334.14 195.629   2
   3 -13  12 5249.48 405.912   8
 -13   3  12 5024.37 426.739   2
 -13  -3 -12 4186.22 368.203   3
 -13  -3 -10 2510.13 264.995   3
   3 -13  10 2677.25 285.659   8
  -3  13  10 1569.92 415.146   1
 -13  -3 -10 2598.92 276.310   6
 -13  -3 -10 2219.57 246.762   9
 -13   3  10 2154.15 301.840   2
 -13  -3  -8 8755.37 591.739   3
   3 -13   8 7580.81 609.728   8
 -13   3   8 7769.78 653.476   2
  -3  13   8 6615.21 904.610   1
 -13  -3  -8 7492.85 622.087   6
 -13  -3  -8 7888.45 569.085   9
 -13  -3  -6 47047.1 2888.86   3
   3 -13   6 44414.2 2928.04   8
  -3  13   6 48298.9 3447.23   1
 -13  -3  -6 46243.0 2964.76   6
 -13  -3  -6 47970.3 2879.37   9
  -3  13   4 2578.38 589.868   1
   3 -13   4 3898.75 355.483   8
   3 -13   4 3134.81 497.146   5
 -13   3   4 3595.37 332.731   2
 -13  -3  -4 3734.96 394.880   6
 -13  -3  -4 3650.52 290.518   9
   3 -13   2 19803.0 1363.40   8
 -13   3   2 21293.2 1344.69   2
  -3  13   2 23670.9 1823.87   1
 -13   3   2 20445.3 1342.97   6
   3  13   0 94596.9 6211.70   1
   3 -13   0 86010.3 6071.65   5
 -13   3   0 95034.0 5783.86   2
  -3  13   0 93549.2 6164.36   1
 -13  -3   0 100573. 5840.92   6
 -13   3   0 94582.1 5806.81   6
   3 -13  -2 21802.5 1710.77   5
  -3 -13   2 20291.4 1369.82   7
 -13  -3   2 22576.4 1440.91   6
 -13   3  -2 24432.0 1458.70   6
 -13  -3   4 1817.46 249.750   6
 -13   3  -4 2184.83 278.372   6
   3  13   4 1578.22 444.756   1
  -3 -13   4 2176.94 199.621   7
   3 -13  -4 2205.43 436.875   5
   3  13   6 46250.6 3187.42   1
 -13  -3   6 43628.3 2718.12   2
  -3 -13   6 42044.9 2666.17   7
 -13  -3   6 44731.6 2731.29   6
 -13   3  -6 43283.7 2751.95   6
   3  13   8 6706.87 854.665   1
 -13  -3   8 6384.60 534.754   2
 -13   3  -8 7407.11 563.148   6
 -13   3 -10 1975.02 232.541   6
   3  13  10 1959.41 431.822   1
  -3 -13  10 1764.08 216.093   8
  -3  13 -12 4192.27 355.489   6
  -3 -13  12 4412.13 360.088   8
 -13   3 -12 4230.22 350.048   6
  -3  13 -14 2028.51 186.040   6
  -3 -13  14 1396.70 181.875   8
  -3 -13  16 815.698 125.183   8
  -3 -13  18 745.274 96.7824   8
 -13   4  17 431.517 77.1624   2
 -13  -4 -17 391.410 82.5465   9
 -13   4  15 102.449 90.6289   2
 -13  -4 -15 31.1172 86.9150   9
 -13  -4 -13 73.1876 125.548   3
   4 -13  13 242.536 134.961   8
 -13   4  13 219.127 140.590   2
 -13  -4 -13 90.5154 102.924   9
 -13  -4 -11 2256.68 253.466   3
   4 -13  11 2267.84 264.827   8
 -13  -4 -11 1714.37 219.705   9
 -13   4  11 1787.75 275.804   2
 -13  -4  -9 4468.15 371.759   3
   4 -13   9 3985.36 383.775   8
  -4  13   9 3151.77 603.235   1
 -13  -4  -9 3935.00 389.492   6
 -13   4   9 3689.12 422.879   2
 -13  -4  -9 4078.13 350.634   9
 -13  -4  -7 1175.91 248.007   6
 -13  -4  -7 1217.82 207.549   3
   4 -13   7 1316.36 212.110   8
 -13  -4  -7 1204.20 164.572   9
 -13  -4  -5 18820.0 1171.18   9
   4 -13   5 17489.6 1224.05   8
  -4  13   5 16967.7 1651.19   1
 -13   4   5 18574.0 1226.63   2
 -13  -4  -5 17214.4 1265.48   6
   4 -13   3 43265.3 2828.77   8
   4 -13   3 44640.7 3119.37   5
 -13  -4  -3 47663.1 2779.73   9
  -4  13   3 46311.6 3327.71   1
 -13   4   3 46025.9 2816.58   2
 -13  -4  -3 46257.7 2885.30   6
 -13   4   3 42338.5 2792.67   6
 -13   4   1 16627.3 1066.09   2
  -4  13   1 13907.2 1401.62   1
 -13  -4  -1 17066.1 1136.05   6
 -13   4   1 15447.7 1071.23   6
   4 -13  -1 12980.0 1233.06   5
 -13   4  -1 14890.2 964.867   2
  -4  13  -1 13021.1 1216.28   1
  -4 -13   1 13527.4 936.744   7
 -13  -4   1 16465.6 1032.59   6
 -13   4  -1 15383.2 1007.25   6
   4 -13  -3 43892.8 3114.12   5
  -4 -13   3 43517.7 2730.33   7
 -13  -4   3 45864.6 2806.52   6
 -13   4  -3 45103.3 2811.77   6
  -4 -13   5 18521.6 1189.13   7
 -13  -4   5 18672.0 1268.57   6
 -13   4  -7 1079.42 219.309   6
  -4 -13   7 1356.88 165.855   7
  -4  13  -9 4633.25 399.648   6
   4  13   9 4272.62 635.667   1
 -13   4  -9 4324.67 399.897   6
  -4 -13  11 1877.13 208.543   8
 -13   4 -11 1632.13 204.024   6
  -4  13 -11 1678.73 210.706   6
 -13   4 -13 359.333 103.878   6
  -4  13 -13 205.064 97.4350   6
  -4 -13  13 438.879 107.864   8
  -4  13 -15 11.5061 61.3421   6
  -4 -13  15-14.7368 67.3124   8
  -4 -13  17 526.850 92.7918   8
   5 -13  18 249.319 65.2656   8
 -13  -5 -18 187.729 53.1355   9
   5 -13  16-22.9171 77.4570   8
 -13   5  16 13.1209 68.8291   2
 -13  -5 -16 36.1429 68.8495   9
 -13   5  14 881.960 160.384   2
 -13  -5 -14 764.299 142.124   9
 -13  -5 -12 954.808 188.242   3
   5 -13  12 1089.54 195.243   8
 -13  -5 -12 533.471 154.679   9
 -13   5  12 602.664 178.774   2
 -13  -5 -10 1814.24 235.652   6
   5 -13  10 1866.97 254.382   8
 -13  -5 -10 1414.66 217.544   9
 -13  -5  -8 10239.1 707.938   3
   5 -13   8 10136.8 738.604   8
  -5  13   8 8505.92 1041.85   1
 -13  -5  -8 8197.04 731.716   6
 -13  -5  -8 10323.6 695.978   9
 -13  -5  -6 1633.42 294.393   6
 -13  -5  -6 1911.42 213.013   9
  -5  13   6 2186.71 543.871   1
   5 -13   6 2250.15 269.809   8
 -13   5   6 1867.60 279.844   2
 -13  -5  -4 394.205 212.369   6
 -13  -5  -4 517.436 166.207   3
  -5  13   4 136.044 281.290   1
   5 -13   4 672.009 175.739   8
   5 -13   4 488.261 245.664   5
 -13   5   4 386.791 151.642   2
 -13  -5  -4 479.174 108.047   9
   5 -13   2 12899.8 1145.89   5
  -5  13   2 11502.5 1223.15   1
 -13   5   2 12308.7 854.220   2
 -13  -5  -2 12869.3 938.174   6
 -13   5   2 12521.1 850.246   6
  -5  13   0 25931.0 1747.68   6
  -5  13   0 27800.6 2082.15   1
   5 -13   0 27829.6 2047.40   5
 -13   5   0 25873.3 1703.38   2
 -13  -5   0 28700.6 1788.27   6
 -13   5   0 27568.9 1734.29   6
  -5 -13   2 13062.9 867.338   7
 -13  -5   2 13092.8 943.969   6
 -13   5  -2 13678.5 941.050   6
 -13  -5   4 478.081 177.728   6
 -13   5  -4 394.264 164.302   6
  -5 -13   4 679.410 117.826   7
  -5  13  -6 2748.28 317.804   6
  -5 -13   6 2447.80 236.362   7
 -13   5  -8 11567.0 846.407   6
  -5  13 -10 2377.75 246.593   6
 -13   5 -10 1777.11 231.662   6
 -13   5 -12 857.315 142.968   6
  -5  13 -12 645.182 136.023   6
  -5 -13  12 665.957 127.235   8
 -13   5 -14 661.101 107.182   6
  -5  13 -14 597.405 111.095   6
  -5 -13  14 549.793 112.787   8
  -5 -13  16-5.86780 56.6273   8
   6 -13  17 797.188 106.082   8
 -13   6  17 641.859 91.3011   2
 -13  -6 -17 658.363 93.0093   9
   6 -13  15 2306.59 237.587   8
 -13   6  15 2290.97 229.127   2
 -13  -6 -15 2110.60 209.476   9
 -13  -6 -13 1417.48 202.640   3
 -13  -6 -13 1032.69 173.963   9
 -13   6  13 1489.95 221.150   2
 -13  -6 -11 143.256 161.292   3
   6 -13  11 223.497 152.140   8
 -13  -6 -11-32.9458 114.661   9
 -13  -6  -9 592.533 181.212   6
   6 -13   9 654.021 184.130   8
 -13  -6  -9 580.580 149.003   9
 -13  -6  -7 7605.37 571.588   9
   6 -13   7 8279.86 630.270   8
  13  -6   7 7798.58 611.207   8
 -13  -6  -7 7295.57 643.573   6
 -13   6   7 7920.20 650.800   2
 -13  -6  -5 4186.12 380.542   3
   6 -13   5 3861.04 400.964   8
 -13  -6  -5 4141.26 462.416   6
 -13   6   5 4941.87 417.524   2
 -13  -6  -5 4924.39 362.237   9
 -13  -6  -3 4170.83 388.870   3
  -6  13   3 5160.81 781.210   1
   6 -13   3 4712.54 425.068   8
   6 -13   3 4235.37 594.011   5
 -13   6   3 5262.98 406.804   2
 -13  -6  -3 4728.38 493.546   6
  -6  13   1 1572.10 417.806   1
 -13   6   1 1879.13 223.747   6
  -6  13   1 2017.37 233.498   6
   6 -13   1 2286.46 434.671   5
 -13   6   1 2183.29 225.026   2
 -13  -6   1 1417.40 258.262   6
 -13   6  -1 1309.88 202.853   6
  -6  13  -1 1221.88 218.585   6
  -6  13  -1 973.537 303.050   1
   6 -13  -1 1417.47 379.844   5
  -6 -13   1 1432.54 169.198   7
 -13   6  -1 1468.22 176.115   2
  -6  13  -3 4688.19 447.316   6
  -6 -13   3 4953.98 372.168   7
 -13  -6   3 4775.92 458.683   6
 -13   6  -3 4850.91 443.990   6
  -6  13  -5 5384.15 467.951   6
  -6 -13   5 4982.20 384.486   7
 -13   6  -5 4536.17 455.401   6
  -6 -13   7 8299.76 592.228   7
 -13   6  -9 453.658 160.751   6
  -6  13  -9 401.392 146.902   6
 -13   6 -11 223.277 119.749   6
  -6  13 -11 319.094 119.218   6
  -6  13 -13 1232.91 160.395   6
 -13   6 -13 1482.10 167.681   6
  -6 -13  15 1713.89 178.022   8
  -6  13 -15 1894.40 167.529   6
  -6 -13  17 528.498 78.6813   8
   7 -13  16 784.788 117.576   8
 -13   7  16 573.893 101.974   2
 -13  -7 -16 611.206 93.5351   9
   7 -13  14 1357.60 186.625   8
 -13  -7 -14 1252.95 165.038   9
 -13   7  14 1440.76 188.569   2
 -13  -7 -12 4151.79 344.287   3
 -13  -7 -12 3175.05 318.948   9
   7 -13  10 6255.45 544.269   8
  13  -7  10 7695.48 535.787   8
 -13  -7 -10 5928.29 502.815   9
   7 -13   8 8576.86 673.123   8
  13  -7   8 9826.27 677.821   8
 -13  -7  -8 8026.92 679.607   6
 -13   7   8 8645.73 706.203   2
 -13  -7  -8 8831.16 634.139   9
 -13  -7  -8 8178.77 646.740   3
  -7  13   6 1507.66 455.772   1
 -13  -7  -6 1014.26 271.657   6
 -13  -7  -6 1789.08 240.561   3
   7 -13   6 1335.63 245.201   8
 -13  -7  -6 1843.73 204.600   9
 -13   7   6 1331.11 245.171   2
 -13  -7  -4 23849.5 1610.08   3
   7 -13   4 25648.7 1665.48   8
  -7  13   4 22575.5 2100.78   1
   7 -13   4 23409.8 1915.57   5
 -13  -7  -4 25975.0 1729.94   6
 -13   7   4 26882.4 1641.87   2
 -13  -7  -2 12751.9 916.666   3
  -7  13   2 13080.4 1337.78   1
   7 -13   2 13716.3 1226.15   5
 -13   7   2 14346.5 925.510   2
 -13  -7  -2 14056.5 1040.61   6
 -13   7   2 13436.7 913.472   6
  -7  13   0 8050.66 607.388   6
   7 -13   0 8441.86 889.373   5
 -13   7   0 8162.63 576.199   2
  -7 -13   0 7481.88 557.116   7
 -13   7   0 8906.62 612.073   6
  -7  13   0 6860.47 864.523   1
  -7  13  -2 14211.1 1019.66   6
   7 -13  -2 14518.1 1305.18   5
  -7 -13   2 14682.3 948.938   7
 -13   7  -2 14276.1 1012.35   6
  -7  13  -4 22707.4 1576.20   6
 -13  -7   4 22904.9 1490.67   7
  -7 -13   4 25220.9 1503.96   7
 -13   7  -4 23357.8 1581.73   6
 -13   7  -6 1136.15 231.806   6
  -7  13  -6 1053.96 217.605   6
  -7 -13   6 1036.78 157.540   7
 -13   7  -8 9733.15 733.532   6
 -13   7 -10 7738.90 582.884   6
  -7  13 -10 7642.85 578.614   6
 -13   7 -12 2886.73 261.222   6
  -7  13 -12 2736.59 256.749   6
  -7  13 -14 1044.44 132.421   6
 -13   7 -14 1316.27 139.754   6
 -13   8  17 239.982 59.1986   2
   8 -13  15 1768.02 178.405   8
 -13   8  15 1386.76 169.226   2
 -13  -8 -13 2561.86 259.476   9
   8 -13  13 3337.80 299.902   8
  13  -8  11 712.695 153.084   8
 -13  -8 -11 1047.90 168.197   9
 -13  -8  -9 695.083 192.528   3
  13  -8   9 887.727 178.844   8
 -13  -8  -9 695.594 160.066   9
   8 -13   7 13736.6 972.593   8
  13  -8   7 14220.0 965.484   8
 -13   8   7 13423.6 978.364   2
 -13  -8  -7 13961.0 920.940   9
 -13  -8  -7 12394.4 927.171   3
 -13  -8  -5 19371.9 1315.85   3
   8 -13   5 19929.4 1357.83   8
 -13   8   5 22392.3 1358.56   2
 -13  -8  -3 8872.11 661.785   3
   8 -13   3 8911.89 922.387   5
 -13   8   3 9960.48 668.495   2
 -13  -8  -1 22952.2 1493.42   3
  -8  13   1 20953.9 1862.95   1
   8 -13   1 24981.9 1849.77   5
 -13   8   1 23071.0 1478.03   2
 -13  -8  -1 22607.5 1449.46   7
 -13   8   1 23902.6 1492.49   6
 -13  -8   1 20996.3 1415.45   3
   8 -13  -1 21278.9 1759.54   5
 -13  -8   1 22159.2 1382.22   7
 -13   8  -1 23176.9 1452.01   6
  -8  13  -1 21384.3 1442.84   6
   8 -13  -3 9211.14 999.207   5
 -13  -8   3 9735.48 651.615   7
 -13   8  -3 9512.51 729.698   6
  -8  13  -3 9220.97 727.218   6
 -13   8  -5 18884.7 1385.06   6
  -8  13  -5 22269.4 1401.47   6
  -8  13  -7 13471.4 952.585   6
 -13   8  -9 739.457 175.787   6
  -8  13  -9 902.090 175.470   6
 -13   8 -11 1306.30 179.990   6
  -8  13 -11 1456.43 180.310   6
 -13   8 -13 3170.90 271.210   6
  -8  13 -13 3387.95 273.122   6
 -13   8 -15 1567.60 142.904   6
  -8  13 -15 1590.05 143.437   6
   9 -13  16 21.4239 51.4292   8
 -13   9  16 32.0399 49.6025   2
   9 -13  14 872.998 135.882   8
   9 -13  12 339.766 135.201   8
  13  -9  12 469.933 111.960   8
 -13   9  12 321.082 148.157   2
 -13   9  10 2407.08 315.059   2
   9 -13  10 2822.45 296.755   8
  13  -9  10 2467.66 269.210   8
 -13  -9 -10 2282.75 272.793   3
 -13  -9 -10 2155.29 254.006   9
 -13  -9  -8 2308.71 282.280   3
  13  -9   8 2600.15 286.977   8
 -13   9   8 2359.67 305.484   2
   9 -13   6 13869.7 970.842   8
  13  -9   6 13848.2 959.069   8
 -13   9   6 13503.1 956.758   2
 -13  -9  -6 12866.2 927.793   3
 -13  -9  -4 7460.14 585.063   3
   9 -13   4 7230.33 614.104   8
 -13  -9  -4 7773.08 537.154   7
 -13   9   4 7827.40 584.529   2
 -13  -9  -2 8322.13 622.726   3
   9 -13   2 7349.99 832.178   5
 -13  -9  -2 8251.09 571.132   7
 -13   9   2 8455.02 599.872   2
  -9 -13  -2 8603.07 582.045   7
  -9  13   2 6259.25 942.425   1
 -13  -9   0 25702.6 1664.57   3
  -9  13   0 23022.0 1985.33   1
   9 -13   0 25625.7 1996.22   5
 -13  -9   0 25844.6 1623.73   7
  -9 -13   0 26389.3 1631.86   7
 -13   9   0 25733.8 1667.91   6
  -9  13   0 26462.1 1667.01   6
   9 -13  -2 7607.81 912.148   5
 -13  -9   2 8851.84 614.440   7
  -9 -13   2 9560.62 623.258   7
 -13   9  -2 9123.74 682.774   6
  -9  13  -2 8479.55 672.823   6
 -13  -9   4 6703.54 472.782   7
  -9 -13   4 6883.32 479.620   7
 -13   9  -4 5395.25 531.857   6
  -9  13  -4 6258.96 538.093   6
  -9 -13   6 11478.2 825.288   7
 -13   9  -6 12844.6 910.304   6
  -9  13  -6 13390.2 899.315   6
 -13   9 -10 2566.92 270.377   6
  -9  13 -10 2645.08 264.117   6
 -13   9 -12 474.598 112.008   6
  -9  13 -12 530.378 107.370   6
 -13   9 -14 696.812 99.9551   6
  -9  13 -14 742.834 100.185   6
  10 -13  15 921.597 108.634   8
  13 -10  13 183.072 74.4416   8
  10 -13  13 183.745 92.8858   8
 -13  10  13 238.465 105.712   2
  10 -13  11 1403.09 200.209   8
  13 -10  11 1492.62 187.075   8
 -13  10  11 1295.73 220.085   2
 -13 -10  -9 1591.64 219.273   3
  10 -13   9 1810.50 236.811   8
  13 -10   9 1497.08 215.756   8
 -13  10   9 1414.33 233.650   2
 -13 -10  -7 167.867 161.648   3
  13 -10   7 315.615 154.640   8
 -13  10   7 269.195 165.588   2
  10 -13   5 11665.4 856.602   8
  13 -10   5 11445.3 844.067   8
 -13 -10  -5 11295.8 778.607   7
 -13  10   5 12336.1 830.999   2
 -13 -10  -5 11602.8 822.987   3
 -13 -10  -3 2369.50 282.349   3
 -13 -10  -3 2373.75 216.755   7
 -10 -13  -3 2536.05 228.911   7
 -13  10   3 1828.57 230.440   2
 -13 -10  -1 5025.58 443.786   3
 -13 -10  -1 5313.06 397.737   7
 -10 -13  -1 5701.22 407.314   7
 -13  10   1 5475.31 423.982   6
 -13 -10   1 5685.11 398.093   7
 -10 -13   1 5408.81 400.361   7
 -13  10  -1 4784.73 434.956   6
 -10  13  -1 5069.26 435.546   6
 -13  10  -3 1782.31 264.562   6
 -10  13  -3 1914.83 264.521   6
 -13 -10   3 2094.60 204.839   7
 -10 -13   3 2277.49 216.851   7
 -10 -13   5 11254.3 706.768   7
 -10  13  -5 10293.6 762.728   6
 -13  10  -7 293.327 166.622   6
 -10  13  -7 367.548 165.149   6
 -13  10  -9 1707.21 224.926   6
 -13  10 -11 1230.32 167.150   6
 -10  13 -11 1490.08 175.613   6
 -13  10 -13 215.260 77.1819   6
 -10  13 -13 290.325 79.3787   6
  11 -13  14 2002.80 163.465   8
 -13  11  14 1797.55 172.390   2
 -11  13  14 1550.58 168.163   2
  13 -11  12 779.707 118.643   8
  11 -13  12 736.328 132.139   8
 -13  11  12 585.299 140.559   2
  11 -13  10 7987.84 511.501   8
  13 -11  10 7328.92 494.829   8
 -13 -11 -10 5260.37 436.119   7
 -13  11  10 5901.91 499.135   2
 -13 -11  -8 1395.49 194.633   3
  11 -13   8 1156.59 200.560   8
  13 -11   8 1348.49 201.379   8
 -13 -11  -8 1180.48 154.343   7
 -13  11   8 1402.18 202.038   2
 -13 -11  -6 833.056 186.464   3
  13 -11   6 1058.24 193.523   8
 -13 -11  -6 925.936 137.853   7
 -13  11   6 827.795 172.735   2
 -13 -11  -4 7470.29 516.756   7
 -11 -13  -4 7246.81 518.088   7
 -13  11   4 7044.96 535.250   2
 -13 -11  -4 7100.88 563.565   3
 -13 -11  -2 570.156 108.038   7
 -11 -13  -2 781.802 123.383   7
 -13 -11   0 3960.88 310.322   7
 -11 -13   0 3974.03 313.409   7
 -13  11   0 3729.03 337.769   6
 -11  13   0 3928.05 335.905   6
 -13  11  -2 536.455 150.571   6
 -11  13  -2 565.309 149.975   6
 -13 -11   2 480.892 104.848   7
 -11 -13   2 502.683 109.297   7
 -13 -11   4 9001.48 598.304   7
 -11 -13   4 9542.85 603.702   7
 -13  11  -4 7395.88 652.777   6
 -11  13  -4 7641.75 645.481   6
 -13  11  -6 518.496 177.388   6
 -11  13  -6 907.194 183.405   6
 -11  13  -8 1459.92 210.262   6
 -13  11 -10 7057.47 530.147   6
 -11  13 -10 7501.98 531.144   6
 -13  11 -12 1068.42 137.449   6
 -11  13 -12 1131.66 135.017   6
 -13  11 -14 1926.28 162.704   6
 -11  13 -14 2118.65 163.018   6
  12 -13  13 714.884 89.0468   8
 -13  12  13 438.545 94.2238   2
 -12  13  13 660.954 100.024   2
  12 -13  11 1069.54 140.853   8
 -13 -12 -11 793.717 101.980   7
 -12 -13 -11 698.021 104.689   7
 -13  12  11 656.671 135.114   2
 -12  13  11 766.463 141.856   2
  12 -13   9 17683.7 1029.55   8
  13 -12   9 16848.7 1020.66   8
 -13 -12  -9 14107.2 967.759   7
 -12 -13  -9 14970.4 979.943   7
 -13  12   9 14034.0 1007.61   2
 -12  13   9 14858.5 1005.91   2
  12 -13   7 787.761 173.185   8
  13 -12   7 1131.86 180.859   8
 -13 -12  -7 855.504 125.327   7
 -12 -13  -7 758.153 129.952   7
 -13  12   7 580.076 147.227   2
 -12  13   7 594.598 140.595   2
 -13 -12  -5 1355.03 205.359   3
  12 -13   5 1316.87 217.705   8
  13 -12   5 1346.50 214.546   8
 -13 -12  -5 1579.08 168.441   7
 -12 -13  -5 1458.42 163.776   7
 -13 -12  -3 13807.2 885.163   7
 -12 -13  -3 13217.4 884.245   7
 -13 -12  -1 609.237 105.219   7
 -12 -13  -1 636.095 112.375   7
 -13  12  -1 744.811 143.094   6
 -12  13  -1 726.116 146.971   6
 -13 -12   1 851.181 120.198   7
 -12 -13   1 758.150 120.738   7
 -13 -12   3 15169.3 938.797   7
 -12 -13   3 14404.0 934.476   7
 -13  12  -3 13372.4 984.657   6
 -12  13  -3 13967.9 985.424   6
 -13  12  -5 1481.24 222.604   6
 -12  13  -5 1530.78 223.189   6
 -13  12  -7 1299.97 207.746   6
 -12  13  -7 1643.44 216.312   6
 -13  12 -11 1152.04 144.465   6
 -12  13 -11 1212.01 142.234   6
 -13  12 -13 821.007 97.8926   6
 -12  13 -13 869.081 101.134   6
 -13 -13 -10 8533.28 556.994   7
 -13  13  10 7218.65 576.346   2
  13 -13   8 5900.80 418.849   8
 -13 -13  -8 5463.73 378.863   7
 -13  13   8 4528.75 385.820   2
  13 -13   6 3202.64 292.929   8
 -13 -13  -6 2558.78 232.805   7
  13 -13   4 11061.4 804.195   8
 -13 -13  -4 11365.6 746.110   7
 -13 -13  -2 5410.66 395.315   7
 -13 -13   0 1635.33 166.712   7
 -13 -13   2 5824.65 429.837   7
 -13  13  -2 6450.41 478.021   6
 -13  13  -4 11813.7 827.286   6
 -13  13  -6 3269.84 313.180   6
 -13  13  -8 6484.82 483.470   6
 -13  13 -12 4323.25 306.401   6
 -14   0   0 299.366 148.713   6
   0  14   0 51.4468 233.641   1
   0 -14   0 210.577 173.786   5
 -14   0   2 494.621 141.625   6
 -14   0  -2 511.884 185.961   6
   0 -14  -2 702.770 261.709   5
   0  14   2 853.540 362.210   1
 -14   0   2 337.200 137.834   2
   0 -14  -4 12837.6 1213.69   5
 -14   0   4 13684.0 932.415   2
 -14   0   4 13265.1 924.787   6
   0  14   4 13611.4 1363.20   1
 -14   0  -6 49.6609 166.066   6
   0 -14   6 142.729 113.571   8
   0  14   6-63.9088 272.338   1
 -14   0   6 264.647 145.563   2
 -14   0  -8 2182.21 227.048   3
 -14   0  -8 1964.23 264.554   6
   0  14   8 1235.79 436.056   1
   0 -14   8 1889.60 231.986   8
 -14   0   8 2160.39 267.718   2
 -14   0 -10 13757.9 867.336   3
   0 -14  10 13619.3 897.734   8
 -14   0  10 11792.1 911.720   2
 -14   0 -10 12245.4 891.403   6
   0 -14  12 2738.17 252.289   8
 -14   0  12 2780.84 261.753   2
 -14   0 -12 2486.55 233.936   6
 -14   0 -12 2459.56 228.108   3
   0  14 -14 2011.66 187.108   6
   0 -14  14 1851.70 196.508   8
 -14   0  14 1903.15 187.246   2
 -14   0 -14 1535.88 182.531   9
   0 -14  16 510.106 92.9312   8
 -14   0 -16 188.908 70.4188   9
   0 -14  18 79.3193 44.5282   8
   1 -14  17 307.576 78.8397   8
 -14  -1 -17 279.309 61.6398   9
   1 -14  15 2363.96 220.605   8
 -14   1  15 2190.51 198.335   2
 -14  -1 -15 2110.26 202.908   9
 -14  -1 -13 822.013 136.939   3
   1 -14  13 1020.33 151.517   8
 -14   1  13 680.814 146.086   2
 -14  -1 -13 516.318 128.126   9
 -14  -1 -11 1746.15 212.372   6
 -14  -1 -11 1767.97 205.432   3
   1 -14  11 1886.51 223.009   8
 -14   1  11 2092.50 252.505   2
 -14  -1 -11 1329.05 188.851   9
 -14  -1  -9 13944.7 827.766   3
   1 -14   9 11525.8 843.757   8
 -14   1   9 11213.7 872.578   2
 -14  -1  -9 12509.2 862.212   6
 -14  -1  -9 10990.2 807.848   9
 -14  -1  -7 5079.58 396.214   3
   1 -14   7 4377.76 414.747   8
 -14   1   7 5579.27 462.576   2
 -14  -1  -7 4699.04 457.060   6
  -1  14   5 7787.86 1000.50   1
   1 -14   5 8335.64 634.759   8
 -14   1   5 9038.80 649.358   2
 -14  -1  -5 7967.09 676.318   6
  -1  14   3 6541.60 876.497   1
  -1 -14  -3 4965.16 672.190   5
 -14   1   3 6361.92 486.604   6
  -1  14   1 6871.86 910.800   1
  -1 -14  -1 7812.33 824.948   5
   1 -14   1 8141.54 840.583   5
 -14   1   1 7948.81 590.737   2
 -14  -1  -1 8809.02 647.532   6
 -14   1   1 8141.90 610.421   6
   1  14  -1 7798.44 859.458   1
   1  14   1 9638.89 1045.83   1
   1 -14  -1 9047.30 934.725   5
  -1 -14   1 9465.14 656.392   7
 -14  -1   1 10866.5 740.953   6
  -1  14  -1 8999.27 954.055   1
 -14   1  -1 10851.0 748.775   6
   1  14   3 6056.64 863.861   1
   1 -14  -3 6715.66 764.113   5
 -14  -1   3 7057.33 531.242   2
  -1 -14   3 6728.72 475.142   7
 -14  -1   3 6503.70 533.451   6
 -14   1  -3 7569.07 591.994   6
   1  14   5 7909.94 969.494   1
 -14  -1   5 8453.79 589.361   2
  -1 -14   5 7522.12 513.652   7
   1 -14  -5 6754.73 824.143   5
 -14  -1   5 6966.09 567.366   6
 -14   1  -5 6532.61 604.917   6
 -14  -1   7 4024.00 396.011   2
   1 -14  -7 3946.28 634.402   5
 -14   1  -7 4011.03 404.468   6
 -14   1  -9 13260.4 836.872   3
  -1 -14   9 12814.4 869.552   8
 -14  -1   9 10745.6 878.976   2
 -14   1  -9 12880.7 891.022   6
 -14   1 -11 1686.89 199.827   6
  -1 -14  11 1547.65 194.424   8
 -14  -1  11 1474.04 212.861   2
 -14   1 -13 1012.55 142.346   6
  -1  14 -13 1055.99 148.670   6
  -1 -14  13 980.087 147.415   8
  -1  14 -15 2862.80 232.355   6
  -1 -14  15 3094.93 258.117   8
  -1 -14  17 336.437 77.2427   8
   2 -14  18 180.129 59.4369   8
   2 -14  16 1499.58 158.391   8
 -14  -2 -16 1258.63 138.762   9
   2  14 -14 2563.05 217.890   6
   2 -14  14 2913.68 254.007   8
 -14   2  14 2248.87 235.586   2
 -14  -2 -14 2130.33 226.417   9
 -14  -2 -12 408.684 137.991   3
   2 -14  12 418.834 136.127   8
 -14   2  12 514.884 151.884   2
 -14  -2 -12 498.322 127.378   9
 -14  -2 -10 6551.89 468.325   3
   2 -14  10 5856.63 475.564   8
 -14   2  10 5176.73 501.726   2
 -14  -2 -10 6226.28 483.664   6
 -14  -2 -10 5550.67 452.153   9
 -14  -2  -8 8097.51 554.444   3
   2 -14   8 7264.16 575.991   8
 -14   2   8 7881.93 621.686   2
 -14  -2  -8 7415.89 597.915   6
  -2  14   8 7945.73 937.882   1
 -14  -2  -8 6711.72 530.504   9
 -14  -2  -6 8837.98 606.811   3
   2 -14   6 7630.53 628.048   8
 -14   2   6 8565.52 656.239   2
 -14  -2  -6 7808.86 670.532   6
 -14  -2  -6 8762.90 588.155   9
  -2  14   6 8257.76 1033.09   1
  -2  14   4 1259.73 440.259   1
 -14   2   4 1605.23 198.317   6
 -14  -2  -4 1546.81 269.054   6
   2 -14   4 1326.65 207.555   8
  -2 -14  -2 7567.06 824.486   5
   2 -14   2 8539.27 847.372   5
 -14   2   2 7586.43 590.009   2
 -14  -2  -2 8610.53 659.456   6
 -14   2   2 8320.02 603.612   6
  -2  14   2 7323.81 938.971   1
   2  14   0 16840.3 1557.15   1
   2 -14   0 19001.6 1519.16   5
 -14   2   0 18687.2 1215.05   2
  -2 -14   0 17815.5 1176.50   7
  -2  14   0 18047.6 1556.63   1
 -14  -2   0 20235.0 1271.66   6
 -14   2   0 18992.1 1247.06   6
   2  14   2 8714.03 1024.83   1
   2 -14  -2 8557.06 904.712   5
  -2 -14   2 8617.50 601.305   7
 -14  -2   2 8602.25 672.564   6
 -14   2  -2 10262.2 709.253   6
 -14  -2   4 2079.84 256.113   6
 -14   2  -4 2303.88 297.338   6
  -2 -14   4 1740.21 186.469   7
   2 -14  -4 2734.75 462.237   5
   2  14   4 1339.48 479.404   1
   2  14   6 5558.64 828.725   1
 -14  -2   6 7416.10 551.792   2
   2 -14  -6 7612.98 863.102   5
  -2 -14   6 6943.81 483.918   7
 -14  -2   6 5920.42 529.675   6
 -14   2  -6 6610.35 573.643   6
 -14   2  -8 7431.93 515.452   3
 -14  -2   8 6489.78 560.805   2
   2 -14  -8 6010.81 842.855   5
 -14   2  -8 7965.05 594.145   6
   2  14   8 7568.71 903.216   1
  -2 -14  10 6126.63 463.897   8
 -14  -2  10 5222.57 468.666   2
 -14   2 -10 6396.85 482.186   6
 -14   2 -12 612.620 122.046   6
  -2  14 -12 570.573 125.891   6
  -2 -14  12 536.992 114.858   8
  -2  14 -14 3335.71 260.562   6
  -2 -14  14 2879.79 266.943   8
  -2 -14  16 1030.51 126.995   8
  -2 -14  18 204.694 53.0637   8
   3 -14  17 1046.34 126.246   8
 -14  -3 -17 1089.56 111.103   9
 -14   3  15 693.359 115.372   2
   3 -14  15 773.937 126.470   8
 -14  -3 -15 512.376 114.263   9
 -14  -3 -13 281.922 120.970   3
   3 -14  13 206.036 114.027   8
 -14   3  13-54.7134 114.965   2
 -14  -3 -13 73.4569 93.8487   9
   3 -14  11 4518.03 388.265   8
 -14   3  11 4235.01 409.166   2
 -14  -3 -11 4522.13 366.590   6
 -14  -3 -11 3384.18 346.984   9
 -14  -3 -11 4974.76 382.544   3
 -14  -3  -9 822.217 183.972   6
 -14  -3  -9 877.345 176.600   3
   3 -14   9 824.833 175.797   8
 -14   3   9 893.663 214.917   2
 -14  -3  -9 1018.30 157.511   9
 -14  -3  -7 1115.45 234.955   6
 -14  -3  -7 1615.98 214.528   3
   3 -14   7 1055.43 192.250   8
 -14   3   7 1175.05 226.912   2
 -14  -3  -7 1343.18 168.391   9
 -14  -3  -5 21342.8 1318.77   9
   3 -14   5 20484.3 1371.84   8
  -3  14   5 18221.3 1791.25   1
 -14  -3  -5 19810.5 1412.66   6
   3 -14   3 17939.0 1233.75   8
 -14   3   3 19521.1 1225.96   2
  -3  14   3 17052.8 1641.46   1
 -14   3   3 17951.2 1207.64   6
   3  14  -1 8451.93 960.301   1
   3 -14   1 8848.75 941.550   5
 -14   3   1 10667.2 710.945   2
  -3  14   1 10398.8 1083.70   1
 -14  -3  -1 10983.3 777.518   6
 -14   3   1 9144.63 709.695   6
   3  14   1 8180.58 988.029   1
   3 -14  -1 9377.14 938.157   5
  -3 -14   1 8743.39 618.586   7
 -14  -3   1 9560.89 709.334   6
 -14   3  -1 9963.00 700.346   6
   3  14   3 16190.3 1559.41   1
   3 -14  -3 15390.7 1422.14   5
  -3 -14   3 17375.3 1096.68   7
 -14  -3   3 16567.5 1162.86   6
 -14   3  -3 17859.2 1191.82   6
   3  14   5 24204.0 1875.50   1
   3 -14  -5 20184.5 1724.11   5
  -3 -14   5 20807.5 1323.59   7
 -14  -3   5 20340.7 1384.34   6
 -14   3  -7 2012.43 279.512   6
   3 -14  -7 2649.65 525.635   5
 -14   3  -9 761.922 173.918   6
  -3  14 -11 5109.21 403.829   6
  -3 -14  11 4751.37 389.581   8
 -14   3 -11 4786.93 395.828   6
 -14   3 -13 295.486 91.5909   6
  -3  14 -13 239.277 88.9177   6
  -3 -14  13 177.978 85.0950   8
  -3  14 -15 762.423 100.934   6
  -3 -14  15 625.492 107.933   8
  -3 -14  17 792.411 100.142   8
   4 -14  16 122.425 71.5885   8
 -14   4  16-5.15939 56.7681   2
 -14  -4 -16 10.3102 60.2919   9
   4 -14  14 1524.50 184.167   8
 -14   4  14 1528.52 184.203   2
 -14  -4 -14 1018.44 156.692   9
 -14  -4 -12 1682.27 213.194   3
   4 -14  12 1610.04 213.249   8
 -14   4  12 1551.87 230.496   2
 -14  -4 -12 1272.18 194.684   9
 -14  -4 -10 1267.10 206.642   6
 -14  -4 -10 1952.18 235.656   3
   4 -14  10 1437.49 216.601   8
 -14   4  10 1666.63 261.508   2
 -14  -4 -10 1308.88 191.737   9
 -14  -4  -8 6627.49 476.914   3
   4 -14   8 5129.45 474.959   8
 -14   4   8 5628.84 526.051   2
 -14  -4  -8 5523.55 499.417   6
 -14  -4  -8 6018.89 453.596   9
 -14  -4  -6 1819.24 297.737   6
   4 -14   6 1896.32 250.688   8
  -4  14   6 1706.61 506.016   1
 -14  -4  -6 2083.85 207.910   9
 -14  -4  -4 646.707 232.802   6
   4 -14   4 594.988 168.280   8
  -4  14   4 1031.32 422.997   1
 -14   4   4 756.717 176.447   2
   4 -14   2 7898.64 645.989   8
   4 -14   2 8683.49 895.543   5
 -14   4   2 8975.30 632.057   2
  -4  14   2 9232.36 1027.11   1
 -14   4   2 8563.44 624.990   6
   4 -14   0 17440.4 1333.15   8
   4  14   0 18138.4 1658.28   1
   4 -14   0 19526.2 1619.86   5
 -14   4   0 21497.9 1324.29   2
  -4  14   0 18336.1 1648.62   1
  -4 -14   0 20548.5 1289.83   7
 -14  -4   0 22161.9 1398.97   6
 -14   4   0 21742.2 1353.50   6
   4 -14  -2 7483.74 842.083   5
  -4 -14   2 7724.37 535.584   7
 -14  -4   2 7474.20 617.359   6
 -14   4  -2 7861.71 613.698   6
   4  14   2 6921.35 914.713   1
 -14  -4   4 690.200 194.549   6
 -14   4  -4 1173.22 228.684   6
   4 -14  -4 934.689 337.597   5
  -4 -14   4 971.469 138.753   7
   4  14   4 866.737 358.123   1
   4  14   6 1649.29 423.063   1
   4 -14  -6 1728.43 423.752   5
  -4 -14   6 1324.04 164.157   7
 -14   4  -8 6749.98 555.692   6
 -14   4 -10 1806.96 224.217   6
  -4  14 -10 1885.56 228.921   6
  -4  14 -12 1951.67 205.889   6
  -4 -14  12 1583.21 185.721   8
 -14   4 -12 1768.79 199.594   6
  -4 -14  14 1421.99 156.930   8
 -14   4 -14 1188.73 143.464   6
  -4  14 -14 1487.92 152.222   6
  -4 -14  16 24.6290 54.1919   8
 -14  -5 -17 1899.35 155.014   9
 -14   5  15 3881.03 301.192   2
 -14  -5 -15 3530.34 289.523   9
 -14  -5 -13 1247.84 178.851   3
   5 -14  13 1321.73 182.209   8
 -14   5  13 1237.83 192.646   2
 -14  -5 -13 764.246 154.265   9
 -14  -5 -11 1148.02 200.445   3
   5 -14  11 1147.78 192.888   8
 -14   5  11 1165.95 231.010   2
 -14  -5 -11 803.538 159.559   9
 -14  -5  -9 1921.26 272.054   6
   5 -14   9 2413.20 274.361   8
 -14  -5  -9 2137.37 249.198   9
 -14  -5  -9 2861.66 287.281   3
   5 -14   7 10440.9 841.472   8
 -14   5   7 11380.8 877.975   2
 -14  -5  -7 11655.9 889.509   6
 -14  -5  -7 13443.1 823.503   9
 -14  -5  -5 5271.91 425.077   3
   5 -14   5 4378.01 441.432   8
  -5  14   5 4424.29 786.667   1
 -14   5   5 5658.85 469.455   2
 -14  -5  -5 4762.89 504.912   6
 -14  -5  -5 5504.68 404.203   9
 -14  -5  -3 3239.53 388.658   6
  -5  14   3 1867.43 553.153   1
   5 -14   3 2529.37 297.190   8
   5 -14   3 2664.45 477.357   5
 -14   5   3 2830.71 288.983   2
 -14   5   1 671.208 146.793   6
  -5  14   1 682.208 302.762   1
  -5  14   1 633.865 146.560   6
   5 -14   1 758.300 182.345   8
   5 -14   1 740.606 281.956   5
 -14   5   1 762.633 147.327   2
 -14  -5   1 457.774 200.411   6
 -14   5  -1 588.339 163.075   6
  -5  14  -1 496.281 165.926   6
  -5 -14   1 380.067 102.849   7
 -14   5  -1 449.660 126.867   2
 -14  -5   3 2488.45 316.140   6
 -14   5  -3 2401.29 308.941   6
  -5  14  -3 2607.08 316.279   6
   5 -14  -3 2245.83 456.006   5
  -5 -14   3 2512.33 229.896   7
  -5  14  -5 5791.04 476.379   6
  -5 -14   5 4959.64 378.045   7
   5 -14  -5 4204.14 665.307   5
 -14   5  -5 4251.06 449.000   6
  -5  14  -7 15245.0 964.435   6
  -5 -14   7 12845.0 883.660   7
 -14   5  -7 12390.6 950.746   6
  -5  14  -9 4125.79 362.346   6
 -14   5  -9 3448.45 362.559   6
 -14   5 -11 1190.18 174.242   6
  -5  14 -11 1293.48 175.843   6
 -14   5 -13 1017.86 139.105   6
  -5  14 -13 859.013 137.678   6
  -5  14 -15 3291.57 249.192   6
   6 -14  16 296.372 79.8537   8
 -14   6  16 101.288 62.3561   2
 -14  -6 -16 312.156 68.2858   9
 -14   6  14 2423.18 239.374   2
 -14  -6 -14 2410.48 228.604   9
   6 -14  12 10483.0 721.798   8
 -14  -6 -12 8626.98 687.579   9
 -14   6  12 10808.1 743.897   2
 -14  -6 -12 10426.7 702.358   3
   6 -14  10 8055.86 603.981   8
 -14  -6 -10 7060.27 575.982   6
 -14  -6 -10 7314.81 574.797   9
 -14  -6 -10 8865.55 598.746   3
   6 -14   8 5610.43 461.626   8
 -14  -6  -8 5016.06 466.082   6
 -14   6   8 4457.71 470.838   2
 -14  -6  -8 5173.14 421.900   9
 -14  -6  -6 10201.4 738.930   3
   6 -14   6 9643.02 763.283   8
  14  -6   6 10158.7 760.490   8
 -14   6   6 11225.5 797.690   2
 -14  -6  -6 10014.3 819.371   6
 -14  -6  -6 11128.9 730.614   9
 -14  -6  -4 15192.7 1010.72   3
   6 -14   4 14260.2 1042.61   8
 -14   6   4 16806.6 1048.71   2
 -14  -6  -4 14662.4 1112.42   6
  -6  14   2 9529.25 1127.75   1
 -14  -6  -2 9631.65 728.498   3
   6 -14   2 9992.41 772.513   8
   6 -14   2 11583.9 1051.28   5
 -14   6   2 11511.1 752.554   2
 -14  -6  -2 11488.5 860.149   6
 -14   6   2 10453.6 737.958   6
 -14  -6   0 617.708 233.777   6
 -14   6   0 517.744 152.177   6
  -6  14   0 624.131 157.047   6
   6 -14   0 481.136 262.207   5
  -6 -14   0 844.276 129.875   7
 -14   6   0 757.469 144.152   2
  -6  14   0 358.269 248.501   1
  -6  14  -2 10216.9 759.973   6
  -6 -14   2 9637.32 676.789   7
 -14  -6   2 10340.1 783.944   6
 -14   6  -2 10230.3 759.518   6
  -6  14  -4 15218.9 1066.02   6
   6 -14  -4 14188.1 1370.69   5
  -6 -14   4 15054.1 982.592   7
 -14   6  -4 15156.9 1069.83   6
  -6  14  -6 11394.8 786.832   6
  -6 -14   6 9651.58 695.097   7
 -14   6  -8 5923.96 507.984   6
  -6  14 -10 11156.5 734.822   6
 -14   6 -10 9421.90 724.931   6
 -14   6 -12 10128.2 703.498   6
  -6  14 -12 10453.6 703.577   6
 -14   6 -14 2127.74 199.919   6
  -6  14 -14 2495.37 204.190   6
   7 -14  15 2718.86 224.913   8
 -14   7  15 2227.94 212.217   2
 -14  -7 -15 2480.92 208.379   9
 -14   7  13 4851.60 390.995   2
 -14  -7 -13 4395.27 359.455   9
   7 -14  11 2738.75 293.397   8
 -14  -7 -11 2457.42 258.893   9
 -14  -7 -11 2882.13 286.911   3
   7 -14   9 3347.36 342.328   8
 -14  -7  -9 3571.25 319.418   9
 -14   7   9 3143.08 379.167   2
 -14  -7  -7 30376.2 1935.76   3
   7 -14   7 32393.5 1977.55   8
  14  -7   7 30231.6 1958.33   8
 -14  -7  -7 28941.2 1987.59   6
 -14   7   7 30129.0 1987.69   2
 -14  -7  -5 20302.2 1318.00   3
   7 -14   5 20160.0 1354.69   8
 -14   7   5 20774.9 1350.98   2
 -14  -7  -5 18872.7 1408.53   6
 -14  -7  -3 764.366 260.481   6
 -14  -7  -3 575.668 171.978   3
   7 -14   3 838.122 190.711   8
   7 -14   3 369.586 230.125   5
 -14   7   3 538.846 150.246   2
  -7  14   3 682.395 329.149   1
 -14  -7  -1 32471.8 2091.42   3
  -7  14   1 30958.1 2502.15   1
   7 -14   1 30939.7 2424.00   5
 -14   7   1 34276.7 2094.65   2
  -7 -14  -1 33767.4 2069.37   7
 -14   7   1 33280.2 2101.25   6
  -7  14  -1 31831.0 2088.14   6
   7 -14  -1 29530.1 2395.78   5
  -7 -14   1 32740.0 2030.82   7
 -14   7  -1 34165.8 2095.41   6
 -14   7  -3 947.236 195.923   6
  -7  14  -3 596.372 178.575   6
   7 -14  -3 483.344 292.629   5
  -7 -14   3 756.697 128.116   7
  -7  14  -5 19801.6 1301.25   6
  -7 -14   5 19366.5 1228.69   7
 -14   7  -5 17628.5 1301.31   6
  -7  14  -7 29818.9 1927.77   6
 -14   7  -9 3421.54 341.810   6
 -14   7 -11 3579.87 304.190   6
  -7  14 -11 3188.08 293.199   6
 -14   7 -13 5060.22 389.113   6
  -7  14 -13 5697.38 395.349   6
  -7  14 -15 2836.34 214.243   6
   8 -14  16 521.697 77.5737   8
 -14   8  16 389.215 68.3473   2
   8 -14  14 2190.77 201.663   8
 -14   8  14 1890.07 196.236   2
 -14  -8 -12 1559.99 185.629   9
   8 -14  10 8888.66 686.646   8
  14  -8  10 10048.1 671.197   8
 -14   8  10 8831.35 716.304   2
   8 -14   8 14972.2 1050.15   8
  14  -8   8 15863.5 1045.10   8
 -14   8   8 14868.4 1073.62   2
 -14  -8  -8 14980.5 1026.36   3
 -14  -8  -6 378.889 171.710   3
   8 -14   6 131.252 156.785   8
  14  -8   6 135.925 146.196   8
 -14   8   6 200.945 165.241   2
 -14  -8  -4 27703.0 1825.90   3
   8 -14   4 27983.0 1866.13   8
 -14   8   4 30486.2 1850.84   2
 -14  -8  -2 32139.2 2067.48   3
 -14   8   2 33268.9 2064.97   2
 -14  -8   0 3581.55 336.657   3
 -14   8   0 3411.46 302.995   2
 -14   8   0 3684.77 335.240   6
  -8  14   0 3485.37 324.172   6
 -14  -8   2 27083.0 1818.62   3
 -14   8  -2 29818.7 1871.84   6
  -8  14  -2 30034.9 1870.09   6
  -8 -14   4 27997.6 1669.32   7
 -14   8  -4 24920.0 1738.16   6
  -8  14  -4 25207.7 1730.96   6
 -14   8  -6 159.578 161.184   6
  -8  14  -6 284.160 161.967   6
  -8 -14   6 141.255 97.2694   7
 -14   8 -10 10134.5 734.099   6
  -8  14 -10 10782.9 732.495   6
 -14   8 -12 1764.80 190.322   6
  -8  14 -12 1881.99 187.999   6
 -14   8 -14 1746.09 161.040   6
  -8  14 -14 1839.03 161.351   6
   9 -14  15 39.5440 48.8253   8
 -14   9  15 9.11842 52.3699   2
   9 -14  13 1035.20 149.748   8
 -14   9  13 1118.44 154.049   2
 -14   9  11 2732.60 297.998   2
 -14  -9  -9 567.995 161.008   3
  14  -9   9 583.236 140.623   8
 -14   9   9 540.449 186.191   2
   9 -14   7 12121.3 845.699   8
  14  -9   7 12010.1 829.040   8
 -14   9   7 10741.6 832.334   2
 -14  -9  -7 11463.4 807.829   3
   9 -14   5 19335.6 1261.21   8
  14  -9   5 18429.4 1243.98   8
 -14   9   5 18922.4 1234.79   2
 -14  -9  -5 17294.5 1215.58   3
 -14  -9  -3 9131.88 706.397   3
   9 -14   3 10418.8 753.424   8
 -14   9   3 10336.6 704.599   2
  -9 -14  -3 9785.36 674.536   7
 -14  -9  -1 20054.9 1372.53   3
 -14   9   1 21257.7 1355.49   2
  -9 -14  -1 21601.5 1344.40   7
 -14   9   1 21251.2 1366.77   6
 -14  -9   1 19710.8 1335.30   3
 -14  -9   1 21291.2 1302.75   7
  -9 -14   1 19693.0 1305.37   7
 -14   9  -1 21409.7 1361.05   6
  -9  14  -1 20665.4 1353.27   6
 -14  -9   3 11273.6 740.045   7
 -14   9  -3 10358.9 806.822   6
  -9  14  -3 11330.0 810.445   6
 -14   9  -5 16355.2 1152.37   6
  -9  14  -5 16767.1 1139.45   6
 -14   9  -7 10201.1 780.969   6
  -9  14  -7 10985.7 772.280   6
 -14   9  -9 638.582 157.099   6
 -14   9 -11 3109.20 270.914   6
  -9  14 -11 2794.32 258.525   6
 -14   9 -13 1378.67 144.351   6
  -9  14 -13 1438.76 142.822   6
  10 -14  14 520.145 84.5248   8
 -14  10  14 456.124 87.0150   2
 -10  14  14 343.016 80.2119   2
  10 -14  12 225.110 100.197   8
 -14  10  12 34.1236 97.7829   2
  10 -14  10 2700.72 271.605   8
  14 -10  10 2924.12 255.211   8
 -14  10  10 2219.59 272.132   2
 -14 -10  -8 1298.95 196.179   3
 -14  10   8 980.718 207.162   2
  10 -14   6 6817.71 541.708   8
  14 -10   6 6728.45 528.508   8
 -14  10   6 6461.10 516.805   2
 -14 -10  -6 6176.37 504.698   3
  10 -14   4 3221.80 339.002   8
 -14  10   4 2692.81 284.690   2
 -10 -14  -4 3364.30 274.584   7
 -14 -10  -4 2970.36 309.964   3
  10 -14   2 10072.3 693.774   8
 -14 -10  -2 9152.70 599.747   7
 -10 -14  -2 8309.35 601.696   7
 -14 -10  -2 8037.48 638.852   3
 -14 -10   0 11148.9 719.000   7
 -10 -14   0 10376.8 721.898   7
 -14  10   0 10844.1 753.275   6
 -10  14   0 10673.3 746.217   6
 -14 -10   2 7680.11 532.296   7
 -10 -14   2 7461.61 535.709   7
 -14  10  -2 7509.44 587.401   6
 -10  14  -2 7970.38 589.772   6
 -14  10  -4 2890.38 324.173   6
 -10 -14   4 3099.17 262.472   7
 -10  14  -4 2789.91 306.472   6
 -14  10  -6 5634.42 503.490   6
 -10  14  -6 6399.15 501.049   6
 -10  14  -8 1102.25 180.503   6
 -14  10 -10 2461.33 248.638   6
 -10  14 -10 2577.45 244.686   6
 -14  10 -12 208.157 82.5633   6
 -10  14 -12 263.411 82.8864   6
 -10  14 -14 654.654 77.0276   6
  11 -14  13 126.261 54.7262   8
 -11 -14 -13 83.5168 44.5913   7
 -14  11  13 78.6963 65.5276   2
  14 -11  11 1758.02 164.403   8
  11 -14  11 1735.10 181.820   8
 -14  11  11 1554.49 187.527   2
 -11  14  11 1258.14 168.563   2
  11 -14   9 3893.24 311.674   8
  14 -11   9 3711.55 293.894   8
 -11  14   9 2712.89 272.844   2
 -14  11   9 2431.19 289.197   2
 -14 -11  -7 1163.41 177.269   3
  14 -11   7 904.915 167.505   8
 -11 -14  -7 1032.21 143.943   7
 -14  11   7 612.870 160.294   2
  11 -14   5 4837.06 408.911   8
  14 -11   5 4581.87 395.153   8
 -14  11   5 4164.42 357.285   2
 -14 -11  -5 4130.45 329.556   7
 -11 -14  -5 4409.24 339.737   7
 -14 -11  -5 4172.36 372.414   3
 -14 -11  -3 559.993 177.236   3
  11 -14   3 776.795 185.585   8
 -14 -11  -3 603.549 109.497   7
 -11 -14  -3 623.059 113.640   7
 -14 -11  -1 1207.06 138.655   7
 -11 -14  -1 1086.27 143.962   7
 -14  11  -1 1639.65 197.385   6
 -11  14  -1 1647.57 198.928   6
 -14 -11   1 1372.93 156.390   7
 -11 -14   1 1425.12 161.390   7
 -14  11  -3 631.898 167.479   6
 -11  14  -3 565.026 159.327   6
 -11 -14   3 609.817 117.783   7
 -14  11  -5 3235.50 344.788   6
 -11  14  -5 3552.61 332.028   6
 -14  11  -7 739.707 170.157   6
 -11  14  -7 971.558 170.672   6
 -11  14 -11 1380.29 155.862   6
 -14  11 -11 1647.52 167.863   6
 -14  11 -13 134.475 55.9530   6
 -11  14 -13 203.819 53.9607   6
  12 -14  12 1365.01 130.640   8
  12 -14  10 8626.77 519.563   8
  14 -12  10 7894.05 503.344   8
 -12 -14 -10 7096.42 481.207   7
  12 -14   8 1548.42 193.728   8
  14 -12   8 1607.40 181.886   8
 -12 -14  -8 1481.43 157.341   7
 -14  12   8 1311.72 172.786   2
  14 -12   6 167.284 114.097   8
 -14 -12  -6 152.317 72.2813   7
 -12 -14  -6 117.214 83.0891   7
 -14  12   6 91.8418 91.6973   2
  14 -12   4 5931.74 487.631   8
 -14 -12  -4 5853.21 426.323   7
 -12 -14  -4 6596.98 438.322   7
 -14 -12  -4 5480.64 455.903   3
  12 -14   2 1748.91 250.657   8
 -14 -12  -2 2242.34 193.514   7
 -12 -14  -2 1923.30 189.521   7
 -14 -12   0 84.5777 70.1753   7
 -12 -14   0 20.1881 71.4392   7
 -14 -12   2 2526.22 212.960   7
 -12 -14   2 2379.56 213.937   7
 -14  12  -2 2341.89 251.436   6
 -12  14  -2 2264.26 242.608   6
 -14  12  -4 5494.80 463.507   6
 -12  14  -4 5957.60 463.052   6
 -14  12  -6 89.3059 124.626   6
 -12  14  -6 10.4025 110.950   6
 -14  12  -8 1538.10 191.025   6
 -12  14  -8 1556.21 187.949   6
 -14  12 -10 8098.66 557.441   6
 -14  12 -12 1726.43 146.474   6
 -12  14 -12 1541.32 141.624   6
  13 -14   9 6051.09 420.911   8
  14 -13   9 5871.97 414.059   8
 -13 -14  -9 5702.00 391.008   7
  13 -14   7 6132.83 411.428   8
  14 -13   7 5355.95 399.074   8
 -14 -13  -7 4731.46 355.101   7
 -13 -14  -7 5106.15 365.659   7
  13 -14   5 7186.52 523.296   8
  14 -13   5 6957.89 519.866   8
 -14 -13  -5 6728.25 469.547   7
 -13 -14  -5 6869.95 474.677   7
  14 -13   3 1889.95 233.020   8
 -14 -13  -3 2102.82 186.567   7
 -13 -14  -3 2031.55 187.456   7
  13 -14   1 4958.79 418.806   8
 -14 -13  -1 4678.88 353.327   7
 -13 -14  -1 5096.12 358.553   7
 -14 -13   1 4898.32 363.763   7
 -13 -14   1 5252.73 369.594   7
 -14  13  -3 1806.26 208.189   6
 -13  14  -3 1876.54 209.315   6
 -14  13  -5 5820.16 457.486   6
 -13  14  -5 6163.47 459.641   6
 -14  13  -7 4931.41 392.667   6
 -13  14  -7 5110.95 393.040   6
 -14  13  -9 7797.48 524.644   6
 -13  14  -9 7346.25 521.270   6
 -14  13 -11 2699.62 198.103   6
 -13  14 -11 2301.17 195.235   6
  14 -14   8 3303.10 255.709   8
  14 -14   6 732.955 117.263   8
 -14 -14  -6 484.426 75.9985   7
  14 -14   4 8265.60 574.330   8
 -14 -14  -4 7827.76 527.607   7
 -14 -14  -2 3866.92 286.269   7
  14 -14   0 6484.04 492.485   8
 -14 -14   0 6234.39 433.149   7
 -14  14  -4 6867.88 493.381   6
 -14  14  -6 443.171 103.860   6
 -14  14  -8 3636.35 283.546   6
   0  15   1 6129.24 863.791   1
   0 -15  -1 7145.41 803.101   5
 -15   0   1 7861.59 605.799   6
 -15   0  -1 7944.98 624.452   6
   0 -15  -3 29107.5 2369.69   5
 -15   0   3 33210.2 2081.85   2
 -15   0   3 32408.8 2089.16   6
 -15   0  -3 34678.8 2147.78   6
   0  15   3 29950.1 2520.47   1
 -15   0   5 169.614 118.398   6
 -15   0  -5 339.268 196.809   6
   0  15   5 131.520 250.865   1
 -15   0   5 263.416 150.734   2
   0 -15   7 6058.60 484.818   8
 -15   0  -7 6254.08 463.683   3
 -15   0   7 6105.73 521.990   2
 -15   0  -7 6138.91 538.625   6
 -15   0  -9 35682.5 2122.48   3
   0 -15   9 33239.3 2142.31   8
 -15   0   9 30492.3 2167.70   2
 -15   0  -9 36068.4 2175.74   6
 -15   0 -11 1652.16 195.670   6
 -15   0 -11 1768.94 186.776   3
   0 -15  11 1074.60 168.537   8
 -15   0  11 1576.00 208.265   2
   0  15 -13 1395.66 162.198   6
   0 -15  13 1337.34 165.500   8
 -15   0  13 1544.24 169.216   2
   0 -15  15 4864.48 357.471   8
   0 -15  17 507.479 74.2696   8
   1 -15  16 550.075 85.8844   8
   1  15 -14 2334.68 196.817   6
   1 -15  14 2340.36 213.530   8
 -15   1  14 2742.55 210.196   2
   1 -15  12 8847.11 560.293   8
 -15   1  12 9515.11 582.976   2
 -15  -1 -12 7668.94 539.124   6
 -15  -1 -12 8995.44 546.473   3
 -15  -1 -10 10993.5 728.397   3
   1 -15  10 10582.5 741.627   8
 -15   1  10 10191.9 774.730   2
 -15  -1 -10 10281.0 748.450   6
 -15  -1  -8 10550.5 673.901   3
   1 -15   8 9184.86 684.699   8
 -15   1   8 8691.22 722.043   2
 -15  -1  -8 9076.40 717.818   6
   1 -15   6 11491.2 830.442   8
 -15  -1  -6 12200.3 806.215   3
 -15   1   6 12308.7 868.722   2
 -15  -1  -6 12244.6 899.786   6
 -15   1   4 17958.5 1136.22   2
 -15   1   4 15802.2 1116.96   6
  -1  15   4 14608.9 1534.98   1
  -1  15   2 5993.41 861.429   1
  -1 -15  -2 6087.25 760.775   5
 -15   1   2 7029.85 555.890   6
 -15  -1  -2 7931.15 615.811   6
   1 -15   0 15859.9 1413.75   5
  -1 -15   0 16402.1 1094.49   7
  -1  15   0 15087.4 1451.45   1
 -15  -1   0 19108.0 1207.76   6
 -15   1   0 19125.3 1193.34   6
   1  15   0 16736.5 1494.75   1
   1 -15  -2 7363.49 839.639   5
  -1 -15   2 7398.72 526.733   7
   1  15   2 7485.51 941.636   1
 -15  -1   2 7537.76 607.599   6
 -15   1  -2 9388.29 659.649   6
   1 -15  -4 14259.8 1325.48   5
  -1 -15   4 14665.1 955.413   7
 -15  -1   4 15304.4 1028.67   6
   1  15   4 14643.4 1454.49   1
 -15  -1   6 14222.3 937.861   2
 -15   1  -6 11915.6 948.127   6
   1  15   6 12256.0 1317.65   1
 -15   1  -8 9739.21 633.892   3
 -15  -1   8 7885.97 676.956   2
 -15   1  -8 9248.06 699.140   6
 -15   1 -10 9336.43 635.186   3
  -1 -15  10 8943.40 650.437   8
 -15  -1  10 9127.83 682.242   2
 -15   1 -10 9587.83 674.363   6
  -1  15 -12 9847.37 638.806   6
  -1 -15  12 9381.06 633.806   8
 -15  -1  12 8338.30 629.967   2
 -15   1 -12 8728.55 624.874   6
  -1  15 -14 2638.23 219.797   6
  -1 -15  14 2587.73 227.417   8
  -1 -15  16 467.722 80.1624   8
   2 -15  17 1104.32 109.934   8
   2 -15  15 2310.58 202.036   8
 -15   2  15 2304.86 185.088   2
 -15  -2 -15 1864.07 181.653   9
 -15  -2 -13 887.259 137.640   3
   2 -15  13 968.648 141.491   8
 -15   2  13 936.331 152.965   2
 -15  -2 -13 634.518 130.151   9
 -15  -2 -11 932.069 159.316   6
 -15  -2 -11 1222.02 181.034   3
   2 -15  11 1314.75 179.737   8
 -15   2  11 1290.77 203.535   2
 -15  -2 -11 902.979 157.849   9
 -15  -2  -9 5029.85 376.852   3
   2 -15   9 4475.83 379.662   8
 -15   2   9 3738.14 404.342   2
 -15  -2  -9 4332.74 398.511   6
 -15  -2  -9 4015.00 348.540   9
 -15  -2  -7 3028.84 288.675   3
 -15  -2  -7 2818.93 346.644   6
   2 -15   7 2605.96 290.036   8
 -15   2   7 3249.06 349.273   2
 -15  -2  -5 2687.87 350.283   6
   2 -15   5 2355.92 272.227   8
 -15   2   5 2634.15 297.377   2
  -2  15   5 2494.67 579.715   1
 -15   2   3 558.816 142.909   6
  -2  15   3 325.610 279.051   1
 -15  -2  -1 1744.08 274.447   6
 -15   2   1 1842.77 235.141   6
   2 -15   1 1253.63 346.178   5
  -2 -15  -1 1438.03 162.130   7
  -2  15   1 1194.89 381.264   1
 -15  -2   1 1718.56 245.231   6
 -15   2  -1 1247.82 224.136   6
   2 -15  -1 783.753 293.185   5
  -2 -15   1 1427.23 157.231   7
   2  15   1 860.335 348.782   1
   2  15   3 63.6286 242.600   1
 -15  -2   3 208.273 145.191   6
 -15   2  -3 85.1628 168.866   6
   2 -15  -3 98.8965 210.842   5
  -2 -15   3 185.897 78.5640   7
  -2 -15   5 2972.99 256.818   7
   2 -15  -5 2164.43 472.516   5
 -15  -2   5 3443.04 328.751   6
   2  15   5 2792.08 582.118   1
 -15   2  -7 2822.46 335.108   6
 -15   2  -7 2591.05 247.888   3
 -15   2  -9 3904.42 318.646   3
 -15   2  -9 4068.89 374.574   6
 -15   2 -11 950.098 156.511   6
  -2  15 -11 973.681 157.923   6
  -2 -15  11 777.378 133.701   8
 -15   2 -13 799.529 121.003   6
  -2  15 -13 1000.63 134.115   6
  -2 -15  13 579.289 116.385   8
  -2 -15  15 2136.61 188.990   8
  -2  15 -15 2185.09 176.751   6
   3 -15  16 203.243 66.8152   8
 -15   3  16 157.885 52.1952   2
 -15  -3 -16 285.425 61.7724   9
   3  15 -14 1126.45 124.880   6
   3 -15  14 1228.71 150.885   8
 -15   3  14 1265.73 150.011   2
 -15  -3 -14 776.120 131.802   9
   3 -15  12 1900.06 221.186   8
 -15   3  12 2469.57 252.575   2
 -15  -3 -12 2542.18 236.749   3
 -15  -3 -12 1648.58 210.448   9
   3 -15  10 2921.48 289.268   8
 -15  -3 -10 2897.87 296.994   6
 -15  -3 -10 2505.06 271.469   9
 -15   3  10 2793.19 329.923   2
 -15  -3 -10 3708.65 302.629   3
 -15  -3  -8 3287.53 290.676   3
   3 -15   8 2451.82 280.805   8
 -15  -3  -8 3053.62 328.943   6
 -15  -3  -8 2592.30 259.671   9
 -15   3   8 2373.94 320.498   2
 -15  -3  -6 125.134 184.614   6
 -15  -3  -6 253.470 150.912   3
   3 -15   6 195.644 120.305   8
 -15  -3  -6 93.3381 76.8457   9
 -15  -3  -4 3121.44 387.292   6
   3 -15   4 2909.07 314.455   8
 -15   3   4 3393.79 334.473   2
  -3  15   4 3636.09 663.126   1
 -15   3   2 5317.63 431.095   2
   3 -15   2 4477.07 618.739   5
  -3  15   2 3668.37 687.139   1
 -15  -3  -2 5647.33 507.901   6
 -15   3   2 5200.05 433.162   6
   3 -15   0 6739.22 800.416   5
  -3 -15   0 7496.88 528.200   7
 -15  -3   0 8108.94 636.338   6
 -15   3   0 7733.17 598.252   6
   3  15   2 4140.93 684.346   1
   3 -15  -2 3294.69 566.265   5
  -3 -15   2 4823.28 350.850   7
 -15  -3   2 4543.07 430.346   6
 -15   3  -2 4609.29 437.186   6
 -15   3  -4 3079.74 362.080   6
   3  15   4 2914.24 565.132   1
  -3 -15   4 3304.20 263.482   7
   3 -15  -4 2485.86 496.108   5
 -15  -3   4 2718.74 322.529   6
  -3 -15   6 91.6818 77.2029   7
 -15   3  -8 2776.93 323.254   6
  -3  15 -10 4118.12 351.596   6
 -15   3 -10 3610.22 346.512   6
  -3  15 -12 2339.97 226.066   6
 -15   3 -12 2199.06 222.571   6
  -3  15 -14 1143.82 127.575   6
  -3 -15  14 926.656 123.531   8
  -3 -15  16 240.719 56.4255   8
   4 -15  15 3101.76 236.673   8
 -15   4  15 2611.18 221.808   2
 -15  -4 -15 2514.50 217.005   9
 -15  -4 -13 798.994 145.370   3
   4 -15  13 1098.19 152.881   8
 -15   4  13 1024.19 158.324   2
 -15  -4 -13 765.307 135.588   9
 -15  -4 -11 379.394 124.342   6
 -15  -4 -11 308.716 139.605   3
   4 -15  11 512.258 134.447   8
 -15   4  11 342.234 160.624   2
 -15  -4 -11 254.060 112.957   9
 -15  -4  -9 605.276 163.911   6
 -15  -4  -9 676.361 177.606   3
   4 -15   9 904.254 166.731   8
 -15   4   9 768.938 205.287   2
 -15  -4  -9 642.832 140.620   9
 -15  -4  -7 8641.20 613.630   3
   4 -15   7 7579.15 621.009   8
 -15  -4  -7 8965.55 686.925   6
 -15  -4  -7 8388.35 596.824   9
 -15  -4  -5 2786.75 363.293   6
   4 -15   5 2731.47 295.132   8
 -15   4   5 2643.01 303.989   2
 -15  -4  -3 3330.55 402.970   6
   4 -15   3 3306.89 331.501   8
  -4  15   3 2707.68 597.936   1
 -15   4   3 3236.27 323.592   2
 -15   4   3 3028.47 294.484   6
 -15  -4  -1 524.355 201.884   6
 -15   4   1 465.044 138.430   6
  -4  15   1 453.975 273.534   1
  -4  15   1 322.399 128.949   6
   4 -15   1 494.245 157.345   8
  -4 -15  -1 634.733 113.548   7
 -15   4   1 423.728 134.032   2
 -15  -4   1 422.033 191.405   6
 -15   4  -1 237.760 146.485   6
   4 -15  -1 525.933 247.896   5
  -4 -15   1 460.431 104.714   7
   4  15   1 681.263 313.178   1
   4  15   3 2400.46 516.560   1
 -15   4  -3 2906.64 346.271   6
   4 -15  -3 2519.48 484.357   5
  -4 -15   3 3346.56 265.852   7
 -15  -4   3 2985.42 343.727   6
 -15   4  -5 2273.91 317.839   6
  -4 -15   5 2455.24 228.008   7
  -4  15  -7 9269.32 658.361   6
 -15   4  -7 7425.09 656.998   6
 -15   4  -9 628.623 169.236   6
  -4  15  -9 926.297 167.175   6
 -15   4 -11 466.729 124.811   6
  -4  15 -11 458.704 126.984   6
 -15   4 -13 612.290 107.423   6
  -4  15 -13 571.952 110.831   6
  -4  15 -15 2384.69 187.566   6
   5 -15  16 172.907 56.6245   8
 -15   5  16 114.690 47.5277   2
   5 -15  14 1861.39 186.435   8
 -15   5  14 1939.11 190.728   2
 -15  -5 -14 1667.92 178.749   9
   5 -15  12 12709.4 813.723   8
 -15   5  12 12923.2 833.793   2
 -15  -5 -12 13219.9 804.520   3
   5 -15  10 5485.49 435.434   8
 -15   5  10 5139.89 464.819   2
 -15  -5 -10 4639.69 415.440   6
 -15  -5 -10 4622.84 405.080   9
 -15  -5  -8 2919.73 294.769   3
 -15  -5  -8 2879.82 320.445   6
   5 -15   8 2340.11 281.077   8
 -15  -5  -8 2765.75 263.439   9
   5 -15   6 10711.5 753.160   8
 -15   5   6 10004.7 767.524   2
 -15  -5  -6 9730.87 796.158   6
 -15  -5  -4 3451.32 404.158   6
 -15  -5  -4 3078.34 302.283   3
   5 -15   4 3160.99 323.965   8
 -15   5   4 2972.45 319.998   2
 -15   5   2 1681.16 210.873   6
  -5  15   2 1614.55 439.958   1
   5 -15   2 1891.24 250.319   8
 -15   5   2 2052.78 233.010   2
   5 -15   2 1528.46 372.570   5
 -15  -5   0 268.519 200.406   6
 -15   5   0 319.194 142.660   6
  -5  15   0 199.942 125.356   6
   5 -15   0 168.118 142.899   8
  -5 -15   0 310.103 96.4666   7
 -15  -5   2 1593.70 263.129   6
 -15   5  -2 1655.30 241.422   6
  -5  15  -2 1459.76 233.594   6
   5  15   2 1361.84 390.272   1
   5 -15  -2 1559.38 385.903   5
  -5 -15   2 1464.65 166.276   7
 -15   5  -4 1770.74 285.733   6
  -5  15  -4 2377.44 298.021   6
  -5 -15   4 2285.96 214.249   7
  -5  15  -6 10565.8 731.148   6
  -5 -15   6 8911.97 645.709   7
 -15   5  -8 3021.79 336.402   6
  -5  15 -10 6141.69 466.201   6
 -15   5 -10 5737.55 472.215   6
 -15   5 -12 13283.1 891.892   6
  -5  15 -12 13782.5 890.121   6
 -15   5 -14 1915.85 175.150   6
  -5  15 -14 2181.80 180.592   6
   6 -15  15 4810.52 315.669   8
 -15   6  15 3683.36 297.928   2
   6 -15  13 6552.71 446.101   8
 -15   6  13 6680.22 449.764   2
   6 -15  11 2093.35 239.113   8
 -15  -6 -11 2101.03 224.478   9
 -15   6  11 2534.32 273.562   2
 -15  -6 -11 2272.39 245.062   3
   6 -15   9 8394.32 621.689   8
 -15  -6  -9 7567.59 617.896   6
 -15  -6  -9 7849.13 596.437   9
 -15  -6  -9 9329.19 618.511   3
   6 -15   7 30275.5 1932.87   8
 -15   6   7 30465.9 1964.03   2
 -15  -6  -7 29289.3 1962.51   6
 -15  -6  -5 995.223 266.184   6
 -15  -6  -5 1133.39 204.142   3
   6 -15   5 946.724 194.916   8
 -15   6   5 951.812 203.923   2
 -15  -6  -3 3071.96 430.404   6
 -15  -6  -3 3852.21 339.548   3
   6 -15   3 3695.02 361.135   8
 -15   6   3 3899.81 351.050   2
   6 -15   1 6472.99 543.970   8
 -15   6   1 7040.81 516.928   2
  -6 -15  -1 6921.40 483.421   7
 -15   6   1 6270.46 514.502   6
  -6  15  -1 7490.73 591.121   6
  -6 -15   1 7518.41 530.403   7
 -15  -6   1 7013.40 632.997   6
 -15   6  -1 8002.21 599.180   6
  -6  15  -3 3222.94 353.863   6
  -6 -15   3 3735.25 296.092   7
 -15   6  -3 3497.48 371.704   6
 -15   6  -5 815.288 217.101   6
  -6  15  -5 779.694 193.804   6
  -6 -15   5 1108.08 145.435   7
  -6  15  -7 37129.8 2357.43   6
 -15   6  -9 9515.72 701.825   6
 -15   6 -11 2240.17 232.867   6
  -6  15 -11 2334.20 227.662   6
 -15   6 -13 5836.08 418.638   6
  -6  15 -13 5961.49 417.163   6
  -6  15 -15 4660.24 315.247   6
 -15   7  14 956.482 123.957   2
   7 -15  12 11384.2 774.534   8
   7 -15  10 5510.29 443.309   8
 -15   7  10 5409.33 478.567   2
   7 -15   8 4585.98 397.869   8
 -15   7   8 3935.06 416.521   2
 -15  -7  -8 4756.99 391.701   3
 -15  -7  -6 9215.29 691.193   3
   7 -15   6 9575.91 717.877   8
  15  -7   6 9791.66 708.974   8
 -15   7   6 9925.26 731.429   2
 -15  -7  -6 10311.7 780.008   6
 -15  -7  -4 6458.97 510.214   3
   7 -15   4 6011.32 531.464   8
 -15   7   4 7281.80 536.986   2
 -15  -7  -4 7075.04 628.089   6
 -15  -7  -2 6859.37 558.049   3
   7 -15   2 7674.55 603.378   8
 -15   7   2 7895.35 568.694   2
  -7 -15  -2 7859.18 536.492   7
 -15  -7  -2 7963.87 685.576   6
 -15   7   2 7348.43 554.568   6
 -15  -7   0 2957.83 310.238   3
   7 -15   0 3216.99 342.294   8
  -7 -15   0 3279.39 274.528   7
 -15   7   0 3772.94 329.238   6
  -7  15   0 3066.60 304.281   6
  -7  15  -2 8041.64 653.570   6
  -7 -15   2 9224.65 604.452   7
 -15   7  -2 8481.33 669.493   6
  -7  15  -4 6179.37 541.445   6
  -7 -15   4 7174.79 487.962   7
 -15   7  -4 6192.81 553.442   6
  -7  15  -6 11387.4 766.028   6
  -7 -15   6 10325.5 693.139   7
  -7  15  -8 5638.62 464.793   6
 -15   7 -10 6435.36 495.209   6
  -7  15 -10 6432.69 482.027   6
 -15   7 -12 12644.8 840.264   6
  -7  15 -12 12969.8 838.133   6
 -15   7 -14 1212.93 121.143   6
  -7  15 -14 1245.59 121.962   6
   8 -15  11 2077.26 218.691   8
 -15   8  11 1630.13 224.063   2
 -15  -8  -9 180.182 138.563   3
   8 -15   9 169.105 126.446   8
 -15   8   9 311.259 160.089   2
   8 -15   7 6292.88 500.857   8
  15  -8   7 6432.59 484.622   8
 -15   8   7 5518.12 498.746   2
 -15  -8  -7 5961.55 474.790   3
 -15  -8  -5 6224.72 497.297   3
   8 -15   5 7300.16 540.229   8
  15  -8   5 6834.76 518.161   8
 -15   8   5 5652.75 504.402   2
 -15  -8  -3 1122.18 202.957   3
   8 -15   3 1408.83 231.007   8
 -15   8   3 1400.75 195.316   2
 -15  -8  -1 11180.2 779.024   3
   8 -15   1 11334.3 816.947   8
 -15   8   1 10673.5 761.522   2
  -8 -15  -1 10891.6 744.409   7
 -15   8   1 11808.1 778.303   6
 -15  -8   1 12333.4 847.330   3
  -8 -15   1 12453.3 817.292   7
 -15   8  -1 11961.7 866.531   6
  -8  15  -1 12460.7 861.840   6
 -15   8  -3 1528.68 239.297   6
  -8  15  -3 1622.45 228.081   6
 -15  -8   3 1595.65 217.014   3
  -8 -15   3 1573.13 176.395   7
  -8 -15   5 6337.76 430.408   7
 -15   8  -5 4704.81 479.885   6
  -8  15  -5 5512.20 475.107   6
 -15   8  -7 5706.90 506.237   6
  -8  15  -7 6507.70 501.919   6
 -15   8  -9 393.509 138.543   6
 -15   8 -11 1899.62 201.887   6
  -8  15 -11 2018.87 199.336   6
 -15   8 -13 922.624 116.751   6
  -8  15 -13 1184.32 120.927   6
   9 -15  14 95.6993 53.8637   8
 -15   9  12 114.546 91.0971   2
 -15  -9 -10 1422.41 178.368   3
   9 -15  10 1525.54 187.603   8
 -15   9  10 1141.21 195.318   2
   9 -15   8 2811.27 281.622   8
  15  -9   8 2968.99 265.096   8
 -15   9   8 2505.06 293.982   2
 -15  -9  -8 2316.21 260.241   3
   9 -15   6 6274.59 488.571   8
  15  -9   6 5664.30 464.154   8
 -15   9   6 5255.48 464.190   2
 -15  -9  -6 5918.84 458.054   3
 -15  -9  -4 584.255 171.528   3
   9 -15   4 1126.49 201.365   8
  -9 -15  -4 772.618 132.962   7
 -15  -9  -2 6970.77 545.823   3
   9 -15   2 7245.23 584.487   8
 -15   9   2 7467.07 533.580   2
 -15  -9   0 13149.7 892.440   3
 -15   9   0 13022.1 892.557   6
 -15   9  -2 8417.09 643.349   6
  -9  15  -2 8713.28 638.677   6
 -15   9  -4 542.805 186.593   6
  -9  15  -4 839.633 174.176   6
 -15   9  -6 4103.86 423.958   6
  -9  15  -6 5477.79 424.844   6
  -9  15  -8 2918.88 287.325   6
 -15   9 -10 1542.27 184.782   6
 -15   9 -12 231.901 76.1542   6
  -9  15 -12 70.3711 64.3675   6
  10 -15  13 182.522 56.2378   8
 -10 -15 -13 105.769 44.1020   7
 -15  10  13 98.8943 59.0722   2
 -10 -15 -11 801.828 108.868   7
 -15  10  11 613.437 130.022   2
  15 -10   9 288.434 96.0944   8
 -15  10   9 390.182 134.778   2
 -15 -10  -7 1367.67 188.784   3
  10 -15   7 1382.33 200.482   8
  15 -10   7 1124.55 169.819   8
 -10 -15  -7 1357.27 159.492   7
 -15  10   7 1211.31 189.393   2
  10 -15   5 4822.99 419.440   8
  15 -10   5 4584.82 404.185   8
 -15  10   5 4713.50 397.444   2
 -10 -15  -5 5017.25 370.262   7
 -15 -10  -5 4908.20 401.513   3
  10 -15   3 6679.33 526.679   8
 -15  10   3 5676.45 466.977   2
 -10 -15  -3 6998.21 465.705   7
 -15 -10  -3 6316.15 492.211   3
 -15 -10  -1 1577.58 219.530   3
  10 -15   1 1876.52 252.907   8
 -10 -15  -1 1625.35 175.700   7
 -15  10  -1 1894.23 221.079   6
 -10  15  -1 1832.20 213.168   6
 -10 -15   1 1880.62 188.178   7
 -10 -15   3 5342.91 393.546   7
 -15  10  -3 4925.49 444.567   6
 -10  15  -3 5750.74 444.833   6
 -15  10  -5 4053.94 384.375   6
 -10  15  -5 4094.52 366.022   6
 -15  10  -7 1263.16 203.116   6
 -10  15  -7 1261.89 187.665   6
 -15  10 -11 757.720 112.232   6
 -10  15 -11 747.449 109.952   6
  11 -15  12 309.971 64.9674   8
  11 -15  10 463.475 104.252   8
  15 -11  10 509.234 80.2811   8
 -11 -15 -10 385.180 79.9902   7
 -15  11  10 198.881 95.7615   2
  15 -11   8-7.52757 75.4674   8
 -11 -15  -8 86.5003 76.3194   7
 -15  11   8 68.7321 90.1728   2
 -15 -11  -6 1511.56 189.775   3
  11 -15   6 1805.77 215.348   8
  15 -11   6 1459.11 188.864   8
 -11 -15  -6 1698.41 172.691   7
 -15  11   6 1359.58 179.380   2
 -15 -11  -4 529.345 146.050   3
  11 -15   4 555.900 156.611   8
  15 -11   4 712.078 151.015   8
 -11 -15  -4 535.836 113.987   7
 -15 -11  -2 597.689 158.319   3
  11 -15   2 850.557 182.652   8
 -11 -15  -2 858.766 123.233   7
  11 -15   0 1382.23 224.529   8
 -11 -15   0 1808.88 173.940   7
 -15  11  -2 723.276 147.341   6
 -11  15  -2 636.516 136.447   6
 -11 -15   2 785.868 115.975   7
 -15  11  -4 545.233 153.584   6
 -11  15  -4 535.649 142.046   6
 -11 -15   4 786.982 119.926   7
 -15  11  -6 1393.24 207.759   6
 -11  15  -6 1701.53 201.651   6
 -15  11  -8 144.100 108.102   6
 -11  15  -8-8.21782 94.4181   6
 -15  11 -10 805.047 121.661   6
 -11  15 -12 573.844 76.9501   6
  12 -15   9 2753.49 217.414   8
  15 -12   9 2546.68 200.021   8
 -12 -15  -9 2514.29 192.080   7
  15 -12   7 1557.30 173.488   8
 -12 -15  -7 1634.13 156.494   7
  12 -15   5 2911.94 290.074   8
  15 -12   5 2983.26 283.554   8
 -12 -15  -5 3383.71 257.575   7
  12 -15   3 306.780 136.692   8
  15 -12   3 144.974 118.293   8
 -12 -15  -3 313.559 92.3091   7
  12 -15   1 670.354 168.446   8
 -12 -15  -1 718.702 107.920   7
 -15  12  -1 348.685 107.578   6
  12 -15  -1 730.150 167.696   8
 -12 -15   1 569.484 99.1261   7
 -15  12  -3 204.132 110.018   6
 -12  15  -3 196.477 107.345   6
 -12 -15   3 459.629 92.7706   7
 -15  12  -5 2354.88 251.683   6
 -12  15  -5 2535.42 241.661   6
 -15  12  -7 1392.36 179.606   6
 -12  15  -7 1620.21 181.333   6
 -12  15  -9 3560.67 280.229   6
  15 -13   8 1299.11 127.828   8
  13 -15   8 1134.60 133.064   8
  15 -13   6 143.717 74.2985   8
 -13 -15  -6 55.3056 54.5888   7
  15 -13   4 3794.00 313.563   8
 -13 -15  -4 3764.73 283.461   7
  13 -15   2 1783.01 215.715   8
  15 -13   2 1976.91 216.452   8
 -13 -15  -2 1936.08 172.153   7
  13 -15   0 2530.42 257.372   8
  15 -13   0 2308.14 249.313   8
 -13 -15   0 2210.97 193.538   7
 -15  13  -2 1236.37 154.009   6
  13 -15  -2 1460.01 198.607   8
 -15  13  -4 2882.59 253.723   6
 -13  15  -4 2621.22 243.406   6
 -15  13  -6 88.7792 84.8166   6
 -13  15  -6 131.501 79.7452   6
 -13  15  -8 1074.09 133.358   6
 -15  13  -8 1374.27 143.288   6
  14 -15   5 8776.42 595.752   8
  15 -14   5 8958.84 593.518   8
  15 -14   3 6813.49 486.289   8
 -14 -15  -3 6778.64 449.818   7
  14 -15   1 6085.72 442.313   8
 -14 -15  -1 5745.79 396.864   7
  14 -15  -1 5625.47 408.126   8
  15 -14  -1 4719.49 399.017   8
  14 -15  -3 8142.66 579.873   8
 -15  14  -5 6105.23 456.087   6
 -14  15  -5 6493.40 457.922   6
  15 -15   0 28986.1 1803.01   8
  15 -15  -2 11975.5 786.517   8
 -16   0   0 37909.0 2427.85   6
 -16   0   2 5855.79 492.298   6
 -16   0  -2 5803.24 535.665   6
 -16   0   4 16306.4 1107.52   6
 -16   0  -6 23285.0 1454.32   3
 -16   0   6 22389.8 1512.82   2
 -16   0  -6 22331.2 1545.07   6
 -16   0  -8 6010.81 438.249   3
 -16   0   8 5285.98 481.130   2
 -16   0  -8 5730.79 498.856   6
   0 -16  10 7206.93 532.138   8
 -16   0  10 7408.40 569.769   2
 -16   0 -10 7008.60 552.028   6
 -16   0 -10 7990.20 532.299   3
   0  16 -12 12743.2 756.177   6
   0 -16  12 11014.8 741.662   8
 -16   0 -12 10106.3 738.418   6
   0  16 -14 1153.15 122.314   6
   0 -16  14 1000.03 119.837   8
   1 -16  15 3366.31 249.940   8
   1  16 -13 2371.23 206.722   6
   1 -16  13 2374.36 212.866   8
 -16  -1 -11 985.938 154.496   6
 -16  -1 -11 1284.96 159.826   3
   1 -16  11 865.080 138.316   8
 -16   1  11 1236.04 182.828   2
 -16  -1  -9 22198.5 1324.77   3
   1 -16   9 20109.0 1327.47   8
 -16   1   9 18802.8 1363.88   2
 -16  -1  -9 20710.8 1361.47   6
 -16  -1  -7 11265.0 743.636   3
   1 -16   7 10190.1 751.385   8
 -16   1   7 11293.2 809.568   2
 -16  -1  -7 10362.8 812.295   6
 -16  -1  -5 1890.68 305.509   6
 -16   1   5 1979.52 264.808   2
  -1 -16  -3 21035.4 1360.08   7
 -16   1   3 21164.0 1421.30   6
 -16  -1  -3 24064.9 1502.60   6
  -1 -16  -1 8830.62 617.544   7
 -16  -1  -1 9783.57 741.702   6
 -16   1   1 9794.21 707.710   6
 -16  -1   1 9231.83 703.105   6
 -16   1  -1 8743.46 703.853   6
 -16  -1   3 20018.7 1424.53   6
 -16   1  -3 23929.9 1493.28   6
 -16  -1   5 1679.64 223.589   6
 -16   1  -7 10995.0 719.116   3
 -16   1  -7 9675.15 792.855   6
 -16   1  -9 21918.5 1389.36   3
 -16   1  -9 22009.0 1443.84   6
 -16   1 -11 1295.87 166.868   6
  -1  16 -11 1304.77 164.966   6
  -1 -16  11 831.989 130.270   8
  -1  16 -13 2476.95 207.086   6
  -1 -16  13 2179.52 196.308   8
 -16   1 -13 2096.82 197.816   6
  -1 -16  15 2722.50 206.383   8
   2  16 -14 885.393 101.439   6
   2 -16  14 818.529 113.095   8
   2 -16  12 3993.22 337.093   8
 -16   2  12 4671.37 363.934   2
 -16  -2 -12 4532.13 341.924   3
   2 -16  10 2793.07 252.974   8
 -16  -2 -10 2209.73 255.672   6
 -16   2  10 2092.46 283.586   2
 -16  -2 -10 3049.34 264.389   3
 -16  -2  -8 804.077 198.481   6
 -16  -2  -8 1176.55 177.764   3
   2 -16   8 707.154 149.753   8
 -16   2   8 736.204 205.990   2
 -16  -2  -6 2246.29 339.174   6
 -16  -2  -6 2820.00 268.079   3
   2 -16   6 2267.67 262.393   8
 -16   2   6 2697.01 312.787   2
 -16   2   4 1656.62 216.253   6
 -16  -2  -2 1068.78 264.112   6
 -16   2   2 822.268 170.194   6
  -2 -16  -2 885.734 133.909   7
 -16  -2   0 280.923 165.986   6
 -16   2   0 132.584 148.068   6
  -2 -16   0 196.794 84.5960   7
 -16  -2   2 1289.56 220.782   6
 -16   2  -2 1240.87 241.437   6
  -2 -16   2 1111.73 142.605   7
 -16  -2   4 1914.42 259.035   6
 -16   2  -4 2583.79 330.212   6
  -2 -16   4 2329.03 209.593   7
 -16   2  -6 2204.35 310.835   6
 -16   2  -8 1086.79 220.041   6
 -16   2  -8 1016.43 155.867   3
  -2  16 -10 3307.56 293.266   6
 -16   2 -10 2678.78 288.344   6
  -2  16 -12 4849.49 348.130   6
 -16   2 -12 4081.56 339.963   6
  -2  16 -14 851.503 104.039   6
   3 -16  15 547.288 85.5601   8
   3  16 -13 1028.91 130.166   6
   3 -16  13 1074.06 141.099   8
 -16   3  13 1380.05 158.392   2
 -16  -3 -11 640.023 131.678   6
 -16  -3 -11 1021.06 161.186   3
   3 -16  11 955.861 141.613   8
 -16   3  11 655.014 165.443   2
 -16  -3 -11 520.521 120.757   9
 -16  -3  -9-120.123 140.445   6
 -16  -3  -9 131.877 138.451   3
   3 -16   9 184.568 102.135   8
 -16   3   9-157.163 161.021   2
 -16  -3  -7 5582.18 405.249   3
   3 -16   7 4576.96 404.948   8
 -16   3   7 4132.33 440.289   2
 -16  -3  -7 4668.45 461.377   6
 -16  -3  -5 1214.19 280.263   6
 -16  -3  -5 1844.30 218.669   3
   3 -16   5 1362.30 201.690   8
 -16   3   3 4413.59 375.833   2
 -16   3   3 3482.11 336.478   6
 -16  -3  -1 646.471 220.413   6
 -16   3   1 568.464 153.571   6
  -3 -16  -1 646.261 110.668   7
 -16  -3   1 785.464 197.414   6
 -16   3  -1 447.166 156.963   6
  -3 -16   1 524.161 101.355   7
  -3 -16   3 4735.47 353.254   7
 -16  -3   3 4236.01 426.240   6
 -16   3  -3 4939.41 466.892   6
 -16   3  -5 1986.64 296.439   6
  -3 -16   5 1556.03 173.479   7
  -3  16  -7 5908.03 464.097   6
 -16   3  -7 4800.78 380.359   3
 -16   3  -7 4958.40 477.781   6
 -16   3  -9 12.2292 129.050   6
  -3  16  -9 106.128 120.785   6
 -16   3 -11 828.234 148.482   6
  -3  16 -11 982.729 147.761   6
 -16   3 -13 1118.98 133.181   6
  -3  16 -13 1097.29 130.557   6
   4 -16  14 858.351 106.142   8
 -16   4  14 574.798 100.001   2
   4 -16  12 5234.43 398.802   8
 -16   4  12 5766.36 422.271   2
 -16  -4 -12 5142.01 394.555   3
   4 -16  10 3304.07 293.639   8
 -16   4  10 3208.30 333.266   2
 -16  -4 -10 2800.62 291.374   6
 -16  -4 -10 3588.60 303.965   3
 -16  -4  -8 7786.97 562.181   3
   4 -16   8 7482.19 567.641   8
 -16   4   8 7991.40 625.253   2
 -16  -4  -8 7154.21 598.128   6
 -16  -4  -6 1282.73 269.313   6
 -16  -4  -6 1163.50 200.333   3
   4 -16   6 1440.57 199.161   8
 -16  -4  -4 698.623 239.829   6
   4 -16   4 608.341 155.852   8
 -16   4   4 971.993 191.535   2
 -16   4   2 7833.47 567.463   2
  -4 -16  -2 7117.35 510.656   7
 -16   4   2 7156.36 555.429   6
 -16  -4   0 2112.17 315.993   6
 -16   4   0 1914.51 253.179   6
  -4  16   0 2206.00 258.817   6
  -4 -16   0 2097.20 198.788   7
  -4  16  -2 6979.27 596.858   6
  -4 -16   2 7771.90 529.886   7
 -16  -4   2 7061.96 616.492   6
 -16   4  -2 8519.86 633.981   6
 -16   4  -4 445.552 193.624   6
  -4  16  -4 699.775 187.684   6
  -4 -16   4 461.979 106.327   7
  -4  16  -6 1201.55 211.208   6
 -16   4  -8 6588.55 549.373   6
  -4  16 -10 3428.25 307.115   6
 -16   4 -10 3667.37 325.892   6
 -16   4 -12 5422.71 408.167   6
  -4  16 -12 5713.91 406.181   6
  -4  16 -14 885.291 102.335   6
   5 -16  15 2598.43 202.442   8
   5 -16  13 5462.13 398.225   8
 -16   5  13 5605.91 407.162   2
   5 -16  11 3577.41 316.312   8
 -16   5  11 4126.75 353.299   2
 -16  -5 -11 3924.74 320.456   3
   5 -16   9 3121.02 295.326   8
 -16  -5  -9 2812.56 306.801   6
 -16  -5  -9 3500.84 302.458   3
   5 -16   7 22430.9 1433.22   8
 -16   5   7 21137.2 1461.83   2
 -16  -5  -7 21979.9 1470.99   6
 -16  -5  -5 3521.61 331.774   3
   5 -16   5 3849.39 351.703   8
 -16   5   5 3740.44 370.258   2
 -16  -5  -5 4051.92 435.834   6
 -16  -5  -3 595.416 240.226   6
 -16  -5  -3 455.595 157.922   3
   5 -16   3 520.784 149.230   8
  -5 -16  -3 262.317 92.8572   7
 -16   5   3 454.251 148.489   2
   5 -16   1 6570.02 530.759   8
  -5 -16  -1 6304.15 467.529   7
 -16  -5  -1 7231.08 614.861   6
 -16   5   1 6806.27 521.151   6
  -5  16  -1 7214.57 596.764   6
  -5 -16   1 7895.65 546.108   7
 -16  -5   1 8097.31 658.609   6
 -16   5  -1 8578.98 630.751   6
 -16   5  -3 455.036 178.258   6
  -5  16  -3 357.999 163.590   6
  -5 -16   3 340.064 96.6255   7
  -5  16  -5 3488.42 347.911   6
 -16   5  -5 2921.27 358.147   6
  -5 -16   5 3089.74 266.907   7
  -5  16  -7 29787.8 1911.04   6
 -16   5  -9 3323.13 324.034   6
 -16   5 -11 3380.45 296.572   6
  -5  16 -11 3556.05 290.980   6
 -16   5 -13 4771.40 355.302   6
  -5  16 -13 5262.96 357.882   6
   6 -16  14 547.974 81.8171   8
 -16   6  14 391.874 79.2322   2
   6 -16  12 17391.4 1115.87   8
 -16   6  12 17453.8 1131.51   2
   6 -16  10 4772.69 395.510   8
 -16  -6 -10 5290.62 397.854   3
   6 -16   8 2867.07 274.966   8
 -16   6   8 2480.90 307.472   2
 -16  -6  -6 18912.3 1220.23   3
   6 -16   6 17964.5 1239.80   8
 -16   6   6 18884.2 1264.19   2
 -16  -6  -6 19234.7 1303.27   6
 -16  -6  -4 5467.24 440.864   3
   6 -16   4 5663.31 464.059   8
 -16   6   4 5810.58 469.870   2
  -6 -16  -4 5737.73 414.972   7
 -16  -6  -4 4950.91 537.921   6
 -16  -6  -2 4261.90 367.513   3
   6 -16   2 4162.40 389.141   8
 -16   6   2 4485.49 377.339   2
  -6 -16  -2 4272.77 332.474   7
 -16   6   2 4326.16 361.617   6
  -6  16   0 10989.0 794.089   6
 -16  -6   0 10413.2 782.522   3
   6 -16   0 11828.8 828.888   8
  -6 -16   0 11910.2 760.717   7
 -16   6   0 12128.9 820.566   6
  -6  16  -2 3757.98 371.485   6
  -6 -16   2 4065.59 320.202   7
 -16   6  -2 4711.61 411.391   6
  -6  16  -4 5862.39 489.983   6
  -6 -16   4 5996.12 431.702   7
 -16   6  -4 5428.88 506.370   6
  -6  16  -6 22294.2 1336.33   6
 -16   6  -6 17488.5 1339.41   6
  -6  16  -8 2917.77 290.734   6
 -16   6  -8 2682.48 307.744   6
 -16   6 -10 5581.16 448.224   6
  -6  16 -10 6050.06 440.922   6
 -16   6 -12 19873.0 1256.51   6
  -6  16 -12 19933.2 1251.83   6
  -6  16 -14 548.156 71.9509   6
   7 -16  13 4136.13 300.623   8
 -16   7  13 3845.08 304.511   2
   7 -16  11 2183.45 217.880   8
 -16  -7 -11 2350.95 218.743   3
   7 -16   9 3269.28 285.680   8
 -16   7   9 2498.13 299.191   2
   7 -16   7 10991.0 811.247   8
 -16   7   7 12429.1 848.478   2
 -16  -7  -7 11803.8 799.440   3
 -16  -7  -5 761.279 163.533   3
   7 -16   5 487.690 151.421   8
  16  -7   5 598.132 147.377   8
  -7 -16  -5 765.569 127.455   7
 -16   7   5 888.385 173.541   2
 -16  -7  -3 308.943 148.276   3
   7 -16   3 296.735 140.273   8
  -7 -16  -3 110.681 85.2107   7
 -16   7   3 257.439 122.469   2
 -16  -7  -1 4252.37 348.061   3
   7 -16   1 3249.02 352.250   8
  -7 -16  -1 3627.07 298.225   7
 -16   7   1 3948.91 336.399   6
 -16  -7   1 3897.35 346.849   3
   7 -16  -1 3997.93 374.814   8
  -7 -16   1 3974.17 308.714   7
 -16   7  -1 3804.27 359.287   6
  -7  16  -1 3674.81 341.728   6
 -16   7  -3 266.929 147.719   6
  -7  16  -3 307.085 138.159   6
 -16  -7   3 334.938 148.150   3
  -7 -16   3 248.465 92.8839   7
 -16   7  -5 348.901 182.294   6
  -7  16  -5 565.600 156.025   6
  -7 -16   5 688.347 116.614   7
  -7  16  -7 14491.8 983.756   6
 -16   7  -9 3400.98 318.658   6
 -16   7 -11 3056.31 259.775   6
  -7  16 -11 2906.48 248.997   6
 -16   7 -13 4387.06 324.244   6
  -7  16 -13 4958.23 328.224   6
   8 -16  12 2229.30 198.993   8
   8 -16  10 139.565 90.6526   8
 -16   8  10 329.981 126.928   2
 -16  -8  -8 1613.99 201.807   3
   8 -16   8 1733.70 202.953   8
 -16   8   8 1560.63 222.126   2
 -16  -8  -6-44.1588 133.530   3
   8 -16   6-67.5850 115.548   8
  16  -8   6 19.2288 97.4847   8
  -8 -16  -6 60.0187 92.9834   7
 -16   8   6 71.4040 129.564   2
 -16  -8  -4 2322.05 256.680   3
   8 -16   4 2350.67 266.988   8
  16  -8   4 2144.78 246.517   8
  -8 -16  -4 2554.49 221.345   7
 -16   8   4 2263.56 256.698   2
 -16  -8  -2 6056.88 482.849   3
   8 -16   2 6420.39 515.182   8
  -8 -16  -2 6498.30 456.181   7
 -16   8   0 921.810 153.483   6
 -16  -8   0 621.883 165.763   3
   8 -16   0 937.463 189.880   8
  -8 -16   0 988.433 130.497   7
 -16  -8   2 7036.29 541.947   3
   8 -16  -2 7305.05 586.906   8
  -8 -16   2 7407.04 514.905   7
 -16   8  -2 7670.86 580.068   6
  -8  16  -2 7523.40 560.504   6
 -16   8  -4 2179.60 279.229   6
  -8  16  -4 1753.61 239.006   6
  -8 -16   4 2432.83 214.357   7
 -16   8  -6-27.5372 142.918   6
  -8  16  -6 143.795 119.269   6
  -8  16  -8 2014.34 220.822   6
 -16   8 -10 169.603 97.4190   6
 -16   8 -12 2541.49 216.375   6
  -8  16 -12 2779.29 214.187   6
   9 -16  11 73.5471 68.0821   8
  -9 -16 -11 159.305 64.1011   7
 -16   9  11 98.2951 84.8592   2
   9 -16   9 1549.67 179.208   8
  -9 -16  -9 1425.87 161.587   7
 -16   9   9 1368.73 197.001   2
 -16  -9  -9 1670.76 174.659   3
 -16  -9  -7 1483.68 186.718   3
  16  -9   7 1516.35 171.349   8
 -16   9   7 1165.41 193.783   2
   9 -16   5 5048.50 417.274   8
  16  -9   5 4672.86 390.480   8
 -16   9   5 5096.51 402.062   2
 -16  -9  -5 4753.67 393.451   3
   9 -16   3 15289.7 1004.09   8
 -16  -9  -3 14030.5 967.986   3
   9 -16   1 2521.02 278.456   8
 -16  -9  -1 2202.95 251.824   3
 -16   9  -1 1937.51 228.816   6
 -16  -9   1 1814.20 229.294   3
   9 -16  -1 2128.85 263.110   8
  -9  16  -1 2274.83 222.011   6
   9 -16  -3 12976.1 913.916   8
  -9 -16   3 13439.7 844.543   7
 -16   9  -3 12437.6 903.513   6
  -9  16  -3 12429.8 879.517   6
 -16   9  -5 4832.75 454.989   6
  -9  16  -5 6020.34 446.922   6
 -16   9  -7 1887.33 235.028   6
  -9  16  -7 1941.97 219.630   6
  -9  16  -9 2062.37 204.911   6
 -16   9 -11 75.2303 75.2088   6
  -9  16 -11 93.7521 63.7342   6
  10 -16  10 1059.31 130.255   8
 -10 -16 -10 946.611 108.552   7
 -16  10  10 813.790 130.544   2
 -16 -10  -8 1351.48 155.583   3
  10 -16   8 1342.40 167.169   8
 -10 -16  -8 1482.90 149.433   7
 -16  10   8 1025.20 166.411   2
  10 -16   6 5412.04 412.904   8
  16 -10   6 4943.77 389.705   8
 -16  10   6 4446.16 392.209   2
 -10 -16  -6 5760.06 381.290   7
 -16 -10  -6 4999.97 389.667   3
  10 -16   4 3615.19 327.869   8
  16 -10   4 3554.86 316.128   8
 -10 -16  -4 3617.23 283.932   7
 -16 -10  -4 3432.43 310.685   3
  10 -16   2 7296.43 542.198   8
 -10 -16  -2 7013.50 479.102   7
 -16 -10  -2 6228.88 500.015   3
  10 -16   0 12623.5 793.925   8
 -10 -16   0 9927.19 701.589   7
  10 -16  -2 6043.52 492.655   8
 -16  10  -2 5808.75 460.573   6
 -10  16  -2 5772.68 443.341   6
 -16  10  -4 2759.83 302.655   6
 -10  16  -4 3524.08 296.731   6
 -16  10  -6 4728.68 408.315   6
 -10  16  -6 4952.93 387.392   6
 -16  10  -8 1921.83 211.156   6
 -10  16  -8 1753.18 197.028   6
 -16  10 -10 1407.74 150.208   6
 -11 -16  -9 186.415 58.3427   7
 -16  11   9 100.703 72.5897   2
  11 -16   7 1889.59 183.273   8
  16 -11   7 1636.76 157.054   8
 -11 -16  -7 1727.00 154.387   7
  11 -16   5 3448.73 288.515   8
  16 -11   5 2819.26 265.311   8
 -11 -16  -5 3300.61 251.195   7
 -16 -11  -5 2907.13 264.084   3
 -16 -11  -3 1161.11 171.651   3
  11 -16   3 1423.73 194.727   8
  16 -11   3 1340.38 180.521   8
 -11 -16  -3 1640.69 154.984   7
  11 -16   1 3803.50 344.017   8
 -11 -16  -1 3667.01 283.784   7
  11 -16  -1 3405.82 317.389   8
 -11 -16   1 3180.34 247.934   7
 -16  11  -1 2760.12 261.487   6
 -16  11  -3 1051.05 166.192   6
 -11  16  -3 1126.67 156.787   6
  11 -16  -3 1539.93 204.720   8
 -11 -16   3 1277.66 141.790   7
 -16  11  -5 2634.57 282.302   6
 -11  16  -5 3206.85 278.127   6
 -16  11  -7 1639.98 200.673   6
 -11  16  -7 2002.24 189.823   6
 -11  16  -9 130.143 64.6982   6
 -12 -16  -8 538.600 73.3566   7
  12 -16   6 495.762 104.451   8
  16 -12   6 593.108 97.3658   8
 -12 -16  -6 611.781 85.5687   7
  12 -16   4 922.771 151.363   8
  16 -12   4 872.097 140.646   8
 -12 -16  -4 1247.21 127.810   7
  12 -16   2 818.397 151.373   8
  16 -12   2 1049.65 153.459   8
 -12 -16  -2 1072.73 119.687   7
  12 -16   0 408.967 133.246   8
 -12 -16   0 385.178 80.8876   7
 -16  12  -2 1454.70 167.806   6
  12 -16  -2 1840.99 213.537   8
 -16  12  -4 571.158 126.576   6
 -12  16  -4 655.336 111.764   6
  12 -16  -4 795.516 145.826   8
 -16  12  -6 364.756 102.264   6
 -12  16  -6 303.438 92.1328   6
  12 -16  -6 365.847 101.606   8
 -16  12  -8 739.069 110.528   6
 -12  16  -8 720.473 101.673   6
  13 -16   5 1681.90 157.419   8
  16 -13   5 1408.44 145.574   8
 -13 -16  -5 1369.37 129.173   7
  13 -16   3 499.344 107.368   8
  16 -13   3 460.281 97.6671   8
 -13 -16  -3 564.027 83.2828   7
  13 -16   1 586.738 119.117   8
  16 -13   1 508.094 112.210   8
 -13 -16  -1 546.692 87.0120   7
  13 -16  -1 918.849 141.571   8
  16 -13  -1 735.743 137.204   8
  13 -16  -3 591.971 132.192   8
  14 -16   2 3071.73 248.055   8
  16 -14   2 3119.07 246.009   8
  14 -16   0 9477.56 623.038   8
  16 -14   0 9095.55 620.678   8
 -17   0   1 263.894 149.193   6
 -17   0  -1 149.619 166.045   6
 -17   0   3 793.745 180.489   6
 -17   0  -3 1114.05 261.621   6
 -17   0  -5 261.852 131.828   3
 -17   0  -7 4536.59 340.759   3
 -17   0  -7 3298.89 395.921   6
 -17   0  -9 8235.37 539.569   3
 -17   0  -9 6820.31 569.660   6
 -17   0 -11 546.491 118.210   6
   0  17 -11 447.485 113.287   6
   0  17 -13 1177.86 122.419   6
   1  17 -12 3337.11 247.616   6
   1 -17  12 3342.17 237.860   8
   1 -17  10 3247.95 260.780   8
 -17  -1 -10 2782.72 278.596   6
 -17  -1 -10 3263.21 269.920   3
 -17  -1  -8 327.014 153.772   6
 -17  -1  -8 641.297 142.118   3
 -17  -1  -6 2804.31 258.812   3
 -17  -1  -6 2067.32 321.152   6
  -1 -17  -4 4609.53 331.084   7
 -17   1   4 3791.15 365.134   6
 -17   1   2 224.020 133.105   6
 -17  -1  -2 447.700 220.837   6
 -17  -1   0 240.553 179.965   6
 -17   1   0 379.317 172.809   6
 -17  -1   2 212.090 151.015   6
 -17   1  -2 68.1204 178.877   6
 -17   1  -4 3169.88 383.743   6
 -17  -1   4 3490.54 337.424   6
 -17   1  -6 1991.55 308.532   6
 -17   1  -6 2316.30 229.022   3
 -17   1  -8 328.758 162.496   6
 -17   1  -8 497.151 124.262   3
  -1  17 -10 3510.49 287.636   6
 -17   1 -10 2804.78 284.717   6
  -1  17 -12 3456.43 261.082   6
 -17   1 -12 2999.93 258.583   6
   2  17 -13 272.789 69.1013   6
   2 -17  13 269.869 66.3708   8
 -17  -2 -11 1381.61 169.310   6
   2 -17  11 1489.57 157.325   8
 -17  -2 -11 1846.54 180.150   3
 -17  -2  -9 675.312 160.885   6
 -17  -2  -9 848.760 153.839   3
   2 -17   9 751.958 124.185   8
 -17   2   9 766.672 173.225   2
 -17  -2  -7 1340.57 242.416   6
 -17  -2  -7 1364.28 189.282   3
 -17   2   7 1255.52 225.386   2
 -17  -2  -5 2951.12 363.166   6
 -17  -2  -5 2930.50 277.086   3
  -2 -17  -5 2743.93 242.809   7
  -2 -17  -3 10019.8 655.820   7
 -17   2   3 9375.20 701.661   6
 -17  -2  -1 1827.70 296.974   6
 -17   2   1 1855.89 248.506   6
  -2 -17  -1 1916.94 183.955   7
 -17  -2   1 1326.83 250.585   6
 -17   2  -1 1456.18 250.795   6
  -2 -17   1 1852.79 171.358   7
  -2 -17   3 10413.3 687.464   7
 -17  -2   3 10326.8 764.967   6
 -17   2  -3 10393.7 801.308   6
 -17   2  -7 1311.49 257.365   6
  -2  17  -7 1835.69 231.492   6
 -17   2  -7 1658.50 184.893   3
 -17   2  -9 657.525 164.556   6
  -2  17 -11 1822.37 181.931   6
 -17   2 -11 1600.32 183.001   6
  -2  17 -13 317.646 73.2512   6
 -17  -3 -12 866.501 118.612   3
   3  17 -12 703.486 104.571   6
   3 -17  12 780.687 107.545   8
 -17  -3 -10 895.539 158.264   6
 -17  -3 -10 1219.67 161.644   3
   3 -17  10 993.520 134.019   8
 -17   3  10 1052.34 182.140   2
 -17  -3  -8 10724.3 700.056   3
   3 -17   8 9853.11 695.536   8
 -17   3   8 9156.03 741.866   2
 -17  -3  -8 10597.3 746.821   6
 -17  -3  -6 3597.95 311.086   3
   3 -17   6 3315.07 305.351   8
 -17  -3  -6 3019.31 381.006   6
 -17  -3  -4 1183.18 282.447   6
  -3 -17  -4 1178.10 142.856   7
  -3 -17  -2 16747.8 1094.12   7
 -17  -3  -2 19340.1 1248.79   6
 -17   3   2 16788.3 1146.86   6
  -3  17   0 16774.9 1181.75   6
  -3 -17   0 17735.1 1132.40   7
 -17  -3   0 18933.5 1258.55   6
 -17   3   0 18474.5 1213.86   6
  -3  17  -2 15049.4 1057.96   6
  -3 -17   2 15265.8 989.033   7
 -17  -3   2 15630.4 1086.24   6
 -17   3  -2 16128.9 1097.44   6
 -17   3  -4 2284.10 308.092   6
  -3  17  -4 2331.43 270.780   6
  -3 -17   4 1901.64 189.757   7
  -3  17  -6 4622.38 393.191   6
 -17   3  -6 3937.72 323.592   3
 -17   3  -8 9257.45 696.864   6
 -17   3 -10 1232.18 169.380   6
  -3  17 -10 1188.08 162.194   6
 -17   3 -12 878.872 121.706   6
  -3  17 -12 887.816 114.619   6
   4  17 -13 2169.64 171.455   6
   4 -17  13 2225.83 182.179   8
   4 -17  11 2619.38 223.699   8
 -17   4  11 2435.59 245.973   2
 -17  -4 -11 2544.51 229.454   3
 -17  -4  -9 1242.43 197.100   6
 -17  -4  -9 1569.62 187.837   3
   4 -17   9 1555.62 176.415   8
 -17   4   9 1200.88 206.271   2
   4 -17   7 5974.56 485.882   8
 -17  -4  -7 5999.10 536.538   6
   4 -17   5 3674.57 347.120   8
 -17   4   5 4403.97 398.714   2
  -4 -17  -5 4418.86 325.602   7
 -17  -4  -5 3409.56 430.564   6
 -17  -4  -3 16811.8 1141.14   3
  -4 -17  -3 18185.8 1124.56   7
 -17  -4  -1 1753.35 303.754   6
 -17   4   1 2080.61 236.084   6
  -4 -17  -1 1747.09 178.981   7
 -17  -4   1 1422.31 266.764   6
 -17   4  -1 1849.52 246.988   6
  -4  17  -1 1650.29 222.052   6
  -4 -17   1 1561.90 164.613   7
  -4  17  -3 18310.4 1237.63   6
  -4 -17   3 18020.3 1168.83   7
 -17   4  -3 19471.6 1275.55   6
  -4  17  -5 4654.00 406.357   6
 -17   4  -5 4067.17 427.455   6
  -4  17  -7 6517.48 507.660   6
 -17   4  -9 1508.57 213.032   6
 -17   4 -11 2251.53 230.368   6
  -4  17 -11 2967.83 234.972   6
 -17   4 -13 1932.65 178.799   6
  -4  17 -13 2653.94 188.253   6
   5 -17  12 5901.89 415.115   8
 -17   5  12 6184.05 433.020   2
   5 -17  10 1502.84 177.088   8
 -17   5  10 1622.74 213.016   2
   5 -17   8 5892.99 436.000   8
 -17  -5  -8 4820.01 455.636   6
 -17  -5  -8 6014.42 433.910   3
 -17  -5  -6 2956.70 356.801   6
   5 -17   6 2888.83 283.079   8
 -17   5   6 3083.87 323.935   2
  -5 -17  -6 3075.00 259.192   7
 -17  -5  -4 4782.47 383.251   3
   5 -17   4 4374.62 390.549   8
  -5 -17  -4 5149.25 359.455   7
 -17  -5  -4 3779.65 467.464   6
 -17  -5  -2 10927.1 762.741   3
  -5 -17  -2 11306.9 740.637   7
 -17   5   2 11256.0 776.912   6
 -17  -5   0 51.7182 184.870   6
 -17   5   0 149.498 117.984   6
  -5  17   0 122.635 108.520   6
  -5 -17   0 59.7814 72.1480   7
  -5  17  -2 10253.1 772.995   6
  -5 -17   2 11305.1 728.686   7
 -17   5  -2 11240.8 812.789   6
  -5  17  -4 4850.36 428.386   6
  -5 -17   4 5156.19 371.080   7
 -17   5  -4 4649.82 453.744   6
  -5  17  -6 4109.19 343.128   6
 -17   5  -6 2737.53 352.502   6
  -5  17  -8 6974.05 504.029   6
 -17   5  -8 6213.59 521.556   6
 -17   5 -10 1911.14 209.987   6
  -5  17 -10 2019.49 201.245   6
 -17   5 -12 6585.21 454.195   6
  -5  17 -12 6662.00 451.706   6
   6 -17  13 5634.70 373.492   8
  -6 -17 -13 5478.54 367.107   7
   6 -17  11 2638.95 228.349   8
 -17   6  11 2434.48 246.255   2
 -17  -6 -11 3157.28 237.632   3
   6 -17   9 2121.38 211.005   8
 -17   6   9 1606.09 235.854   2
 -17  -6  -9 2214.94 217.674   3
   6 -17   7 19100.9 1250.46   8
 -17   6   7 17469.9 1274.96   2
  -6 -17  -7 20579.8 1232.31   7
 -17  -6  -5 5191.70 408.232   3
   6 -17   5 4611.89 411.510   8
 -17   6   5 5271.60 443.838   2
  -6 -17  -5 5570.47 390.602   7
 -17  -6  -3 25.7145 135.368   3
   6 -17   3 262.714 123.518   8
  -6 -17  -3 190.452 87.2136   7
 -17  -6  -1 12524.4 846.648   3
   6 -17   1 12481.0 872.697   8
  -6 -17  -1 12714.3 818.773   7
 -17   6   1 12260.3 855.099   6
 -17  -6   1 12226.9 839.389   3
  -6 -17   1 12889.6 810.208   7
 -17   6  -1 12159.3 869.771   6
  -6  17  -1 11880.8 842.617   6
 -17   6  -3 302.811 158.307   6
  -6  17  -3 128.036 113.058   6
  -6 -17   3 240.358 87.2732   7
  -6  17  -5 5410.50 428.515   6
 -17   6  -5 4542.01 449.136   6
  -6  17  -7 23323.0 1498.57   6
 -17   6  -9 2310.30 243.683   6
 -17   6 -11 3889.46 306.159   6
  -6  17 -11 3927.90 296.528   6
   7 -17  12 6066.18 410.620   8
  -7 -17 -12 6079.49 403.517   7
   7 -17  10 1490.90 157.056   8
  -7 -17 -10 1519.95 154.546   7
 -17   7  10 1237.34 181.448   2
   7 -17   8 3844.27 314.929   8
 -17   7   8 3348.48 336.074   2
  -7 -17  -8 3864.09 298.909   7
 -17  -7  -8 3832.20 309.612   3
   7 -17   6 4023.04 337.971   8
 -17   7   6 3506.60 348.467   2
  -7 -17  -6 4197.81 312.082   7
 -17  -7  -6 3831.98 328.368   3
 -17  -7  -4 6216.73 492.818   3
   7 -17   4 6642.13 516.369   8
  -7 -17  -4 7294.55 479.692   7
 -17  -7  -2 6840.67 515.699   3
   7 -17   2 6927.16 537.914   8
  -7 -17  -2 7061.55 486.766   7
 -17  -7   0 3486.15 320.129   3
   7 -17   0 3320.34 330.068   8
  -7 -17   0 3757.08 282.796   7
 -17   7   0 3495.06 318.795   6
 -17  -7   2 5803.47 468.349   3
  -7 -17   2 6323.19 440.003   7
 -17   7  -2 6771.71 513.837   6
  -7  17  -2 6078.82 477.108   6
 -17  -7   4 6012.71 459.784   3
  -7 -17   4 6982.50 445.609   7
 -17   7  -4 5441.56 502.495   6
  -7  17  -4 5693.35 478.022   6
 -17   7  -6 3729.14 404.732   6
  -7  17  -6 5450.13 395.481   6
  -7  17  -8 4151.67 338.353   6
 -17   7 -10 1507.07 174.320   6
 -17   7 -12 7269.10 499.423   6
  -7  17 -12 7931.49 499.947   6
   8 -17  11 654.986 88.1146   8
  -8 -17 -11 537.881 78.1565   7
 -17   8  11 392.294 93.0962   2
 -17  -8  -9 141.235 88.7843   3
   8 -17   9 157.644 78.6323   8
  -8 -17  -9 76.5266 70.6932   7
 -17   8   9 86.0779 99.5198   2
   8 -17   7 4663.61 369.458   8
 -17   8   7 4487.68 383.727   2
  -8 -17  -7 4875.85 351.516   7
 -17  -8  -7 4585.53 360.150   3
   8 -17   5 6325.45 462.144   8
  -8 -17  -5 5778.55 421.102   7
 -17  -8  -5 5718.91 438.966   3
   8 -17   3 6437.96 491.464   8
  17  -8   3 5727.69 466.064   8
  -8 -17  -3 6300.02 443.389   7
 -17  -8  -3 6676.96 473.795   3
 -17  -8  -1 8112.14 591.728   3
   8 -17   1 8953.33 624.925   8
  -8 -17  -1 8155.85 562.355   7
 -17  -8   1 8087.88 576.581   3
   8 -17  -1 8536.79 610.886   8
  -8 -17   1 8237.00 546.510   7
 -17   8  -1 7292.53 581.232   6
  -8 -17   3 6093.75 408.410   7
 -17   8  -3 5300.69 462.293   6
  -8  17  -3 5238.46 432.709   6
 -17   8  -5 4874.86 461.752   6
  -8  17  -5 6382.61 449.564   6
 -17   8  -7 5400.79 454.416   6
  -8  17  -7 5886.95 432.837   6
 -17   8  -9-15.6841 98.7493   6
  -8  17  -9 84.4044 74.2563   6
 -17   8 -11 703.591 97.2451   6
  -8  17 -11 550.861 87.5011   6
   9 -17  10 2191.56 187.780   8
   9 -17   8 5888.71 409.625   8
 -17  -9  -8 6015.65 396.915   3
   9 -17   6 4794.73 367.079   8
 -17  -9  -6 4489.83 355.187   3
   9 -17   4 11453.5 764.306   8
  17  -9   4 10779.8 739.439   8
 -17  -9  -4 10870.4 740.696   3
   9 -17   2 14932.9 968.890   8
  17  -9   2 13129.3 944.347   8
  -9 -17  -2 14768.7 916.997   7
 -17  -9  -2 14205.0 942.191   3
   9 -17   0 10892.2 730.037   8
  -9 -17   0 10095.4 667.676   7
 -17  -9   0 9655.98 690.104   3
   9 -17  -2 15176.3 1003.25   8
  -9 -17   2 15284.9 946.510   7
 -17   9  -2 14206.8 985.201   6
  -9  17  -2 14307.8 963.124   6
 -17   9  -4 9002.52 680.526   6
  -9  17  -4 9819.20 659.763   6
 -17   9  -6 3197.09 327.528   6
  -9  17  -6 4085.99 313.989   6
 -17   9  -8 6386.47 495.145   6
  -9  17  -8 7314.94 485.907   6
 -17   9 -10 2362.19 206.529   6
  10 -17   9 1011.80 109.036   8
 -10 -17  -9 861.581 96.9462   7
  10 -17   7 3290.05 254.759   8
 -10 -17  -7 2802.25 229.518   7
  10 -17   5 6703.13 471.033   8
  17 -10   5 6033.27 445.463   8
 -10 -17  -5 6628.28 442.848   7
 -17 -10  -5 6299.62 453.262   3
  10 -17   3 9955.72 635.231   8
  17 -10   3 8268.52 604.729   8
 -17 -10  -3 8513.12 601.821   3
  10 -17   1 6857.39 516.874   8
  10 -17  -1 6179.37 452.989   8
 -17  10  -1 5211.95 412.354   6
  10 -17  -3 9140.99 612.093   8
 -17  10  -3 7689.79 592.240   6
 -10  17  -3 8403.12 577.178   6
 -17  10  -5 5507.05 441.833   6
 -10  17  -5 5969.43 426.035   6
 -17  10  -7 3074.96 273.648   6
 -10  17  -7 3061.37 255.012   6
 -10  17  -9 1112.09 120.469   6
  11 -17   6 92.9545 67.9316   8
 -11 -17  -6 51.4917 55.3841   7
  11 -17   4 3352.71 278.880   8
  17 -11   4 3071.12 264.011   8
 -11 -17  -4 3631.49 256.438   7
  11 -17   2 6877.43 462.279   8
  17 -11   2 5599.19 440.346   8
 -11 -17  -2 6014.92 415.762   7
  11 -17   0 2147.11 227.638   8
  17 -11   0 1911.23 215.508   8
 -11 -17   0 2464.56 191.909   7
  11 -17  -2 6721.78 443.556   8
 -17  11  -2 5018.77 403.063   6
 -17  11  -4 2275.27 235.525   6
 -11  17  -4 2899.89 225.552   6
 -17  11  -6 34.3937 79.3645   6
 -11  17  -6-66.0087 73.8676   6
  12 -17   5 1652.82 155.342   8
 -12 -17  -5 1564.16 135.500   7
  12 -17   3 876.063 122.932   8
  17 -12   3 798.425 114.424   8
 -12 -17  -3 954.228 102.869   7
  12 -17   1 1687.01 171.697   8
  17 -12   1 1357.52 163.063   8
 -12 -17  -1 1516.49 136.625   7
  12 -17  -1 2129.76 199.342   8
  17 -12  -1 1740.56 195.992   8
 -18   0   0 3060.53 338.101   6
 -18   0   2 964.419 189.535   6
 -18   0  -2 1301.79 250.271   6
 -18   0   4 355.835 123.087   6
 -18   0  -4 16.7664 202.938   6
 -18   0  -4 438.280 140.022   3
 -18   0  -6 253.971 183.771   6
 -18   0  -6 28.0538 115.052   3
 -18   0  -8 1152.73 199.258   6
 -18   0  -8 1169.52 154.624   3
   0  18 -10 1523.78 168.286   6
 -18   0 -10 1278.98 171.984   6
 -18   0 -10 1482.87 148.990   3
   0  18 -12 1377.74 133.839   6
 -18  -1 -11 730.172 101.455   3
   1  18 -11 878.801 107.260   6
 -18  -1  -9 214.479 124.978   6
 -18  -1  -9 401.480 108.543   3
 -18  -1  -7 2376.05 217.990   3
 -18  -1  -7 1594.36 260.642   6
 -18  -1  -5 4569.93 363.869   3
 -18   1   3 3778.01 353.292   6
 -18  -1  -3 4709.42 447.144   6
 -18  -1  -1 661.017 219.298   6
 -18   1   1 857.358 172.505   6
 -18  -1   1 623.123 187.196   6
 -18   1  -1 707.079 196.041   6
 -18  -1   3 4296.52 384.071   6
 -18   1  -3 4173.47 430.691   6
 -18   1  -5 4193.90 334.113   3
 -18   1  -7 1842.03 187.842   3
  -1  18  -7 2198.70 230.634   6
 -18   1  -9 614.431 135.718   6
 -18   1  -9 306.904 95.3061   3
 -18   1 -11 562.806 109.869   6
  -1  18 -11 663.735 104.624   6
   2  18 -12 325.018 67.1201   6
 -18  -2 -10 309.250 101.690   6
 -18  -2 -10 502.696 103.594   3
  -2 -18  -8 6954.76 499.911   7
 -18  -2  -8 7321.21 562.133   6
 -18  -2  -8 8069.33 522.519   3
 -18  -2  -6 8305.75 560.785   3
  -2 -18  -6 7864.07 537.003   7
 -18  -2  -6 7329.77 635.624   6
 -18  -2  -4 2445.54 247.202   3
  -2 -18  -4 2604.18 217.034   7
  -2 -18  -2 12929.3 844.097   7
 -18  -2  -2 14268.8 982.656   6
 -18   2   2 12919.3 902.624   6
 -18  -2   0 30424.0 1765.01   6
 -18   2   0 27776.7 1721.75   6
  -2  18  -2 12344.3 885.045   6
 -18  -2   2 12626.3 909.509   6
 -18   2  -2 13748.0 939.497   6
  -2  18  -4 3159.74 306.720   6
 -18   2  -4 2418.41 329.252   6
  -2  18  -6 9602.35 668.803   6
 -18   2  -6 8969.00 617.989   3
  -2  18  -8 10246.8 669.518   6
 -18   2  -8 8743.39 687.354   6
 -18   2 -10 308.461 101.672   6
  -2  18 -10 366.954 94.7805   6
  -2  18 -12 437.152 75.2375   6
   3  18 -11 1786.35 155.321   6
   3 -18  11 1521.64 139.562   8
  -3 -18 -11 1554.94 140.233   7
 -18  -3 -11 1546.45 152.659   3
  -3 -18  -9 8434.74 569.173   7
 -18  -3  -9 7202.35 595.193   6
 -18  -3  -7 162.967 148.532   6
 -18  -3  -7-21.3217 110.601   3
  -3 -18  -7 72.2322 70.4681   7
 -18  -3  -5 6814.07 483.600   3
  -3 -18  -5 6917.17 461.913   7
  -3 -18  -3 39148.4 2401.37   7
  -3 -18  -1 3627.41 277.939   7
 -18  -3  -1 3981.57 407.490   6
 -18   3   1 3294.23 331.776   6
  -3  18  -1 3708.80 342.175   6
  -3 -18   1 4044.78 300.501   7
 -18  -3   1 3927.60 398.499   6
 -18   3  -1 4279.94 389.895   6
  -3  18  -3 39784.6 2557.06   6
  -3 -18   3 41084.2 2501.48   7
 -18   3  -3 41837.4 2606.84   6
  -3  18  -5 7711.74 538.184   6
 -18   3  -5 6698.04 478.012   3
 -18   3  -5 6193.47 557.325   6
 -18   3  -7-76.7265 158.487   6
  -3  18  -7 55.9095 102.989   6
 -18   3  -9 10052.1 702.228   6
 -18   3 -11 1844.53 186.322   6
  -3  18 -11 2195.88 182.463   6
 -18  -4 -10 712.113 113.437   3
   4 -18  10 535.211 87.4650   8
  -4 -18 -10 631.527 95.2570   7
   4 -18   8 8767.75 591.610   8
  -4 -18  -8 9104.66 586.973   7
 -18  -4  -8 7586.27 621.726   6
 -18  -4  -8 9087.05 599.826   3
 -18  -4  -6 4108.28 326.089   3
  -4 -18  -6 4054.85 305.163   7
 -18  -4  -6 3436.81 382.913   6
 -18  -4  -4 2839.94 384.707   6
  -4 -18  -4 3631.29 275.707   7
 -18  -4  -2 18217.0 1157.75   3
  -4 -18  -2 18393.5 1132.43   7
 -18  -4  -2 18210.3 1262.62   6
 -18   4   2 16594.5 1164.54   6
  -4 -18   0 13395.4 862.765   7
 -18  -4   0 13728.1 982.169   6
 -18   4   0 13248.2 926.204   6
  -4  18  -2 16133.4 1124.44   6
  -4 -18   2 17617.5 1084.03   7
 -18   4  -2 17096.2 1169.97   6
  -4  18  -4 4093.61 350.944   6
 -18   4  -4 3622.80 387.884   6
  -4  18  -6 4661.19 357.430   6
 -18   4  -6 3264.56 373.760   6
  -4  18  -8 10914.9 700.118   6
 -18   4  -8 9307.89 717.523   6
 -18   4 -10 784.704 126.915   6
  -4  18 -10 803.051 113.682   6
  -4  18 -12 44.7377 45.5502   6
  -5 -18 -11 842.683 96.4052   7
 -18  -5  -9 427.727 106.600   3
   5 -18   9 450.244 87.7480   8
  -5 -18  -9 402.610 89.0239   7
   5 -18   7 4043.48 319.753   8
  -5 -18  -7 4092.14 308.458   7
 -18  -5  -5 620.714 222.178   6
  -5 -18  -5 1138.72 135.544   7
 -18  -5  -3 8804.95 609.614   3
  -5 -18  -3 8657.88 584.616   7
 -18   5   1 693.950 142.661   6
 -18  -5  -1 1041.23 179.318   3
  -5 -18  -1 1058.37 123.701   7
 -18   5  -1 803.411 174.177   6
  -5  18  -1 495.963 122.935   6
 -18  -5   1 826.194 168.558   3
  -5 -18   1 924.279 114.815   7
  -5  18  -3 8723.19 651.566   6
  -5 -18   3 9660.79 615.819   7
 -18   5  -3 8956.04 692.855   6
 -18   5  -5 820.999 198.921   6
  -5  18  -5 918.127 162.886   6
  -5  18  -7 4985.21 389.681   6
 -18   5  -9 616.109 129.296   6
  -5  18  -9 720.989 115.155   6
 -18   5 -11 1100.19 126.424   6
  -5  18 -11 1176.18 121.019   6
 -18  -6 -10 268.237 81.5663   3
   6 -18  10 261.604 65.6802   8
  -6 -18 -10 345.884 71.7291   7
   6 -18   8 1837.03 185.487   8
  -6 -18  -8 2200.51 185.464   7
   6 -18   6 3460.15 301.618   8
  -6 -18  -6 3920.61 290.361   7
 -18  -6  -6 3826.45 309.298   3
 -18  -6  -4 3221.04 288.262   3
   6 -18   4 3085.32 284.725   8
  -6 -18  -4 3578.60 265.635   7
 -18  -6  -2 4831.74 397.841   3
  -6 -18  -2 5419.40 373.925   7
 -18   6   0 1672.59 211.242   6
 -18  -6   0 1909.09 215.917   3
  -6 -18   0 1896.53 171.118   7
 -18  -6   2 5766.53 424.922   3
  -6 -18   2 5877.00 389.356   7
 -18   6  -2 5001.80 447.239   6
  -6  18  -2 4806.30 407.666   6
 -18  -6   4 3419.51 286.398   3
 -18   6  -4 3369.36 337.153   6
  -6  18  -4 2857.04 284.132   6
 -18   6  -6 3221.56 347.006   6
  -6  18  -6 4091.41 320.849   6
  -6  18  -8 2442.78 224.826   6
 -18   6 -10 330.842 93.9926   6
   7 -18   9 287.714 72.5429   8
  -7 -18  -9 255.991 69.6908   7
   7 -18   7 6611.79 449.890   8
  -7 -18  -7 6252.16 434.738   7
 -18  -7  -7 6087.74 443.275   3
   7 -18   5 1563.47 185.075   8
  -7 -18  -5 2018.69 177.240   7
 -18  -7  -5 1895.11 199.679   3
   7 -18   3 1887.69 202.861   8
 -18  -7  -3 1928.47 207.533   3
  -7 -18  -3 1762.05 169.745   7
 -18  -7  -1 4911.78 389.611   3
  -7 -18  -1 5138.65 361.602   7
 -18  -7   1 4840.40 376.405   3
  -7 -18   1 4790.94 340.190   7
 -18   7  -1 4482.31 380.898   6
 -18   7  -3 1014.87 187.531   6
  -7  18  -3 1241.33 161.051   6
 -18  -7   3 1166.83 167.037   3
  -7 -18   3 1324.29 136.991   7
 -18   7  -5 1053.62 198.289   6
  -7  18  -5 1547.46 179.235   6
 -18   7  -7 5588.27 476.727   6
  -7  18  -7 6994.73 462.467   6
 -18   7  -9 508.989 104.378   6
  -7  18  -9 287.269 78.9204   6
   8 -18   8 3825.93 288.108   8
  -8 -18  -8 4023.71 280.588   7
 -18  -8  -8 3750.25 284.471   3
 -18  -8  -6 241.758 94.3995   3
   8 -18   6 311.042 86.9552   8
  -8 -18  -6 194.857 69.6393   7
   8 -18   4 4112.15 338.487   8
  -8 -18  -4 4693.68 318.690   7
 -18  -8  -4 3964.43 332.358   3
   8 -18   2 9336.79 638.940   8
  -8 -18  -2 9093.58 602.562   7
 -18  -8  -2 9081.02 628.503   3
 -18  -8   0 907.840 155.386   3
  -8 -18   0 870.184 110.232   7
  -8 -18   2 9169.50 575.298   7
 -18   8  -2 7821.99 612.448   6
 -18   8  -4 3362.83 322.379   6
  -8  18  -4 3512.36 287.631   6
 -18   8  -6 84.1390 104.904   6
  -8  18  -6 243.078 84.3796   6
  -8  18  -8 4074.09 305.932   6
   9 -18   7 1601.91 153.613   8
  -9 -18  -7 1458.58 136.229   7
 -18  -9  -7 1549.31 146.543   3
   9 -18   5 4596.84 350.377   8
  -9 -18  -5 4703.12 334.006   7
 -18  -9  -5 4879.23 349.020   3
   9 -18   3 14966.4 950.218   8
  -9 -18  -3 14736.0 921.569   7
 -18  -9  -3 13959.9 935.206   3
   9 -18   1 4165.88 326.632   8
  18  -9   1 3401.83 307.896   8
  -9 -18  -1 4342.66 294.610   7
 -18  -9  -1 3932.75 315.114   3
  -9 -18   1 4002.13 291.653   7
 -18   9  -3 9843.27 743.790   6
  -9  18  -3 11961.9 726.159   6
 -18   9  -5 3431.98 304.054   6
  -9  18  -5 3572.73 277.443   6
 -18   9  -7 1055.80 153.397   6
  -9  18  -7 1434.25 140.590   6
 -18 -10  -4 492.641 94.7844   3
  10 -18   4 538.135 98.3496   8
  10 -18   2 4312.87 314.744   8
  18 -10   2 3653.35 292.844   8
  10 -18   0 6022.15 417.057   8
 -10 -18   0 6314.77 391.728   7
 -18  10  -4 530.729 106.074   6
 -18  10  -6 310.332 90.9393   6
 -11 -18  -3 185.355 54.2967   7
 -11 -18  -1 342.895 72.0754   7
  18 -11  -1 385.350 93.1382   8
  18 -11  -3 117.640 79.7186   8
 -19   0   1 640.409 165.844   6
 -19   0  -1 683.315 193.124   6
 -19   0   3 2057.24 231.598   6
 -19   0  -3 1953.83 283.890   6
 -19   0  -3 2483.54 223.620   3
 -19   0  -5 2749.60 242.388   3
 -19   0  -7 1750.82 173.758   3
   0  19  -7 1974.43 194.018   6
 -19   0  -9 199.477 92.2033   6
 -19   0  -9 78.7337 67.5142   3
   0  19 -11 55.2408 47.3469   6
   1  19 -10 1295.60 131.439   6
 -19  -1 -10 1048.62 132.159   6
 -19  -1  -8 2703.63 285.060   6
 -19  -1  -8 3482.81 256.498   3
 -19  -1  -6 499.539 191.774   6
 -19  -1  -6 1366.82 150.520   3
 -19  -1  -4 204.974 188.945   6
 -19  -1  -4 233.648 118.463   3
 -19  -1  -2 4688.87 348.888   3
 -19   1   2 3762.62 358.833   6
 -19  -1  -2 4499.30 423.240   6
 -19  -1   0 8986.59 705.911   6
 -19   1   0 9925.09 701.422   6
  -1  19  -2 3655.54 322.019   6
 -19  -1   2 3322.42 329.446   6
 -19   1  -2 3905.23 372.112   6
 -19   1  -4 85.2566 168.676   6
  -1  19  -4 131.107 115.225   6
 -19   1  -4 283.080 111.895   3
  -1  19  -6 1503.32 186.824   6
 -19   1  -6 1486.54 163.515   3
  -1  19  -8 3613.80 276.626   6
 -19   1  -8 3084.68 299.108   6
 -19   1  -8 3154.41 247.972   3
  -1  19 -10 1175.34 126.017   6
 -19   1 -10 893.984 131.196   6
   2  19  -9 4375.47 288.355   6
 -19  -2  -9 3831.58 274.862   3
 -19  -2  -7-53.0915 127.933   6
 -19  -2  -7 75.8971 93.2815   3
 -19  -2  -5 8268.06 527.834   3
 -19  -2  -5 6022.24 591.196   6
 -19  -2  -3 23229.4 1433.39   3
 -19  -2  -3 21570.7 1515.91   6
 -19  -2  -1 5080.22 444.720   6
 -19   2   1 4486.24 389.581   6
  -2  19  -1 4130.60 336.087   6
 -19  -2   1 3629.47 372.795   6
 -19   2  -1 4918.99 399.254   6
  -2  19  -3 21559.2 1411.98   6
 -19   2  -3 23180.5 1389.95   3
 -19   2  -3 20618.9 1458.54   6
  -2  19  -5 8324.30 567.124   6
 -19   2  -5 8100.55 532.164   3
 -19   2  -5 6520.24 595.827   6
 -19   2  -7 108.971 128.696   6
 -19   2  -7 101.583 77.6451   3
  -2  19  -7 132.036 86.0244   6
 -19   2  -9 3532.74 297.445   6
  -2  19 -11 656.233 82.4713   6
   3  19 -10 472.200 72.7888   6
 -19  -3  -8 4914.19 419.331   6
 -19  -3  -8 6099.94 399.325   3
  -3 -19  -6 9254.06 611.564   7
 -19  -3  -6 7885.76 681.053   6
  -3 -19  -4 3987.05 289.652   7
 -19  -3  -2 11992.6 831.978   6
 -19   3   2 10546.4 747.723   6
 -19  -3   0 24325.0 1468.69   3
 -19  -3   0 22971.0 1528.78   6
 -19   3   0 21742.8 1491.00   6
  -3  19  -2 10842.3 753.377   6
 -19   3  -2 11750.7 812.076   6
  -3  19  -4 4318.99 364.894   6
 -19   3  -4 4985.61 342.292   3
 -19   3  -4 4141.64 410.222   6
  -3  19  -6 11541.6 773.234   6
  -3  19  -8 7001.43 470.844   6
 -19   3  -8 6259.55 493.582   6
 -19   3 -10 213.671 82.5014   6
 -19  -4  -9 3886.02 284.722   3
 -19  -4  -7 801.157 119.835   3
  -4 -19  -7 639.147 89.6135   7
  -4 -19  -5 4639.89 329.215   7
 -19  -4  -3 22590.3 1421.02   3
  -4 -19  -3 22502.9 1398.00   7
 -19  -4  -1 2612.04 250.910   3
  -4 -19  -1 2740.83 210.799   7
 -19   4   1 2345.15 244.802   6
 -19  -4   1 2752.22 271.461   3
  -4 -19   1 2962.28 227.275   7
 -19   4  -1 2986.53 294.452   6
  -4  19  -3 19986.1 1342.37   6
 -19   4  -3 21350.3 1321.36   3
 -19  -4   3 22609.1 1351.70   3
 -19   4  -3 20391.4 1392.04   6
  -4  19  -5 4265.16 326.055   6
 -19   4  -5 3438.64 358.138   6
  -4  19  -7 858.124 121.916   6
 -19  -4   7 465.152 102.639   3
 -19   4  -9 3333.94 309.040   6
  -4  19  -9 4541.61 298.562   6
  -5 -19  -8 1939.68 163.713   7
 -19  -5  -8 2153.81 181.057   3
  -5 -19  -6 170.450 63.8912   7
 -19  -5  -4 1466.40 177.113   3
  -5 -19  -4 1705.01 151.067   7
 -19  -5  -2 6803.46 488.041   3
  -5 -19  -2 6859.00 460.904   7
 -19   5   0 182.375 99.2093   6
 -19  -5   0 146.714 120.024   3
  -5 -19   0 147.846 66.1726   7
 -19  -5   2 6250.26 428.388   3
 -19   5  -2 5714.96 451.861   6
  -5  19  -2 5035.81 398.483   6
 -19   5  -4 1285.36 198.174   6
  -5  19  -4 1072.31 146.788   6
 -19  -5   4 1514.67 172.932   3
 -19   5  -6 61.9344 116.410   6
  -5  19  -6 80.7236 81.1637   6
 -19   5  -8 1299.19 181.443   6
  -5  19  -8 1825.18 162.303   6
  -6 -19  -7 3276.54 240.213   7
 -19  -6  -5 352.667 107.394   3
  -6 -19  -5 311.845 75.9561   7
 -19  -6  -3 459.462 118.778   3
  -6 -19  -3 452.162 83.7567   7
 -19  -6  -1 2585.43 247.695   3
  -6 -19  -1 2884.94 217.843   7
 -19  -6   1 3449.61 279.375   3
  -6 -19   1 3434.97 243.494   7
 -19   6  -3 71.6089 115.994   6
  -6  19  -3 70.1513 73.1483   6
 -19  -6   3 199.998 105.995   3
 -19   6  -5 110.538 120.051   6
  -6  19  -5-19.1972 73.1400   6
 -19   6  -7 3002.03 307.113   6
  -6  19  -7 4412.57 293.275   6
  -7 -19  -6 1699.79 144.177   7
 -19  -7  -6 1591.39 159.624   3
 -19  -7  -4 40.7007 88.3905   3
  -7 -19  -4 26.5208 49.8433   7
  -7 -19  -2 3153.41 230.094   7
 -19  -7  -2 2756.62 254.474   3
 -19  -7   0 558.031 127.040   3
  -7 -19   0 575.697 83.7871   7
 -19  -7   2 2872.68 229.600   3
 -19   7  -2 2211.68 237.420   6
 -19   7  -4 127.083 108.943   6
  -7  19  -4 27.9644 60.9668   6
 -19   7  -6 988.631 157.976   6
  -7  19  -6 1380.23 140.046   6
 -19  -8  -5 656.789 104.631   3
  -8 -19  -5 756.831 85.8033   7
  -8 -19  -3 4868.77 335.932   7
 -19  -8  -3 4917.19 355.783   3
 -19  -8  -1 68.2995 90.2165   3
  -8 -19  -1 171.113 61.1023   7
 -19   8  -3 2526.73 235.671   6
 -19   8  -5 497.911 109.113   6
  -9 -19  -4 824.914 88.5333   7
  -9 -19  -2 4492.24 308.346   7
 -20   0   0 957.823 173.161   6
 -20   0  -2 236.466 139.449   6
   0  20  -2 186.984 78.4556   6
 -20   0  -2 275.597 110.442   3
   0  20  -4 1802.24 181.727   6
 -20   0  -4 1927.73 178.417   3
 -20   0  -6 361.110 139.780   6
 -20   0  -6 745.491 104.264   3
   0  20  -6 479.630 98.5517   6
 -20   0  -8 26.3091 86.2746   6
   0  20  -8 75.3138 53.4989   6
   1  20  -7 2557.49 201.210   6
 -20  -1  -7 2446.09 189.158   3
 -20  -1  -5 3472.27 263.274   3
   1  20  -5 3177.16 270.485   6
   1  20  -3 729.207 122.831   6
 -20  -1  -3 1004.91 135.966   3
 -20  -1  -1 351.169 150.681   6
 -20   1   1 306.886 112.468   6
   1  20  -1 223.928 82.9981   6
 -20  -1  -1 469.938 126.063   3
 -20   1  -1 437.386 140.976   6
 -20   1  -1 569.328 126.550   3
  -1  20  -3 671.580 112.802   6
 -20   1  -3 805.076 123.463   3
  -1  20  -5 2416.70 222.558   6
 -20   1  -5 3083.97 217.503   3
  -1  20  -7 2283.20 189.086   6
 -20   1  -7 1789.90 218.333   6
   2  20  -8 1297.85 132.802   6
   2  20  -6 2780.42 208.064   6
 -20  -2  -6 2457.83 198.537   3
 -20  -2  -4 155.473 93.6730   3
 -20  -2  -2 2453.34 287.690   6
 -20  -2   0 10198.6 616.054   3
 -20   2   0 7529.97 620.491   6
 -20   2  -2 3726.07 262.546   3
 -20  -2   2 3334.02 277.833   3
 -20   2  -2 3027.48 301.644   6
 -20   2  -4 75.7625 124.272   6
  -2  20  -4 18.5911 69.8394   6
 -20   2  -4-18.9840 77.2444   3
  -2  20  -6 2137.76 194.560   6
 -20   2  -8 1166.85 150.507   6
  -2  20  -8 1308.65 130.350   6
 -20  -3  -7 494.837 89.9596   3
   3  20  -7 404.944 79.5871   6
 -20  -3  -5 4305.67 317.268   3
 -20   3   1 1485.91 190.894   6
 -20  -3  -1 2913.92 221.436   3
 -20   3  -1 1527.81 212.857   6
 -20  -3   1 2523.45 218.350   3
 -20   3  -3 11352.9 651.872   3
 -20  -3   3 11420.6 677.284   3
 -20   3  -3 8186.88 690.181   6
  -3  20  -3 8666.66 647.984   6
 -20   3  -5 2939.07 315.938   6
  -3  20  -5 3508.17 277.231   6
  -3  20  -7 305.845 71.1376   6
 -20  -4  -6 1794.67 162.775   3
 -20  -4  -2 8964.20 602.454   3
 -20  -4   0 3595.98 259.935   3
 -20   4   0 2198.37 241.836   6
 -20  -4   2 9201.62 542.830   3
 -20   4  -2 7828.44 512.208   3
 -20   4  -4 1569.82 227.687   6
  -4  20  -4 2086.88 189.497   6
 -20   4  -6 1073.60 165.102   6
  -4  20  -6 1306.80 133.113   6
 -20  -5  -3 828.341 125.018   3
 -20  -5  -1 6152.74 424.768   3
  -5 -20  -1 5823.55 391.086   7
 -20   5  -1 4652.02 338.666   3
 -20   5  -1 4045.11 361.808   6
 -20   5  -3 513.038 127.865   6
 -20  -5   3 851.773 120.481   3
 -20   5  -5 1926.26 213.181   6
 -20  -6  -4 1479.43 150.514   3
 -20  -6  -2 3634.98 280.436   3
 -20  -6   0 1648.49 168.319   3
 -20   6  -4 592.183 120.142   6
 -21   0  -1 148.304 82.2087   3
 -21   0  -3 4803.80 336.207   3
 -21   0   3 4752.87 349.358   3
 -21  -1  -2 751.446 107.816   3
 -21   1   2 676.397 113.961   3
 -21   1   0 133.478 87.3529   3
 -21   1  -2 533.802 93.3966   3
 -21  -1   2 543.149 106.270   3
 -21  -1   4 5001.99 289.690   3
 -21   1  -4 2212.14 294.195   6
 -21  -2  -3 40.5150 73.1367   3
 -21   2   1 167.779 82.7891   3
 -21  -2   1 173.830 93.7511   3
 -21   2  -1 43.6843 73.5391   3
 -21   2  -3 67.9919 90.7087   6
 -21  -2   3 57.8903 77.5193   3
 -21   3   2 719.203 108.998   3
 -21  -3   0 898.204 126.166   3
 -21  -3   2 710.002 112.453   3
   0   0   0    0.00    0.00   0

TITL 20161003B1-1 in I-42m
REM I-42m (#121 in standard setting)
CELL 1.54184  17.279345  17.279345  19.824632  90.0000  90.0000  90.0000
ZERR    2.00   0.000280   0.000280   0.000627   0.0000   0.0000   0.0000
LATT -2
SYMM -x,-y, z
SYMM  y,-x,-z
SYMM -y, x,-z
SYMM -x, y,-z
SYMM  x,-y,-z
SYMM -y,-x, z
SYMM  y, x, z
SFAC C H N O F S Ag
UNIT 160.00 208.00 16.00 16.00 24.00 16.00 24.00
TREF
HKLF 4
END
;
_shelx_hkl_checksum              62427
loop_
_space_group_symop_operation_xyz
'x, y, z'
'y, -x, -z'
'-x, -y, z'
'-y, x, -z'
'x, -y, -z'
'-x, y, -z'
'-y, -x, z'
'y, x, z'
'x+1/2, y+1/2, z+1/2'
'y+1/2, -x+1/2, -z+1/2'
'-x+1/2, -y+1/2, z+1/2'
'-y+1/2, x+1/2, -z+1/2'
'x+1/2, -y+1/2, -z+1/2'
'-x+1/2, y+1/2, -z+1/2'
'-y+1/2, -x+1/2, z+1/2'
'y+1/2, x+1/2, z+1/2'
loop_
_atom_site_label
_atom_site_type_symbol
_atom_site_fract_x
_atom_site_fract_y
_atom_site_fract_z
_atom_site_U_iso_or_equiv
_atom_site_adp_type
_atom_site_occupancy
_atom_site_site_symmetry_order
_atom_site_calc_flag
_atom_site_refinement_flags_posn
_atom_site_refinement_flags_adp
_atom_site_refinement_flags_occupancy
_atom_site_disorder_assembly
_atom_site_disorder_group
Ag1 Ag 0.500000 0.500000 0.20447(5) 0.0275(2) Uani 1 4 d S T P C .
Ag2 Ag 0.66102(3) 0.47149(4) 0.16589(6) 0.0523(3) Uani 1 1 d . . . . .
Ag3 Ag 0.58493(9) 0.500000 0.000000 0.0318(3) Uani 0.5 2 d S T P . .
S1 S 0.59876(11) 0.59876(11) 0.19927(15) 0.0327(6) Uani 1 2 d S T P C .
C1 C 0.6252(6) 0.6252(6) 0.2877(8) 0.073(6) Uani 1 2 d S T P . .
C2 C 0.5791(6) 0.5791(6) 0.3397(9) 0.059(4) Uani 1 2 d S T P C .
H2A H 0.604588 0.582626 0.383726 0.088 Uiso 0.5 1 calc GR . . A -1
H2B H 0.576404 0.524719 0.325712 0.088 Uiso 0.5 1 calc GR . . A -1
H2C H 0.526574 0.600221 0.343012 0.088 Uiso 0.5 1 calc GR . . A -1
C3 C 0.7110(10) 0.6090(13) 0.2954(9) 0.099(5) Uani 1 1 d . U . . .
H3A H 0.728635 0.627894 0.339445 0.148 Uiso 1 1 calc GR . . . .
H3B H 0.739549 0.635631 0.259567 0.148 Uiso 1 1 calc GR . . . .
H3C H 0.720196 0.553204 0.292283 0.148 Uiso 1 1 calc GR . . . .
S2 S 0.60176(13) 0.39824(13) 0.07034(17) 0.0545(10) Uani 1 2 d S T P C .
C4 C 0.6714(6) 0.3286(6) 0.0303(6) 0.050(3) Uani 1 2 d DS TU P . .
C5 C 0.6252(8) 0.2734(8) -0.0110(9) 0.083(5) Uani 1 1 d D . . . .
H5A H 0.591928 0.242508 0.018648 0.125 Uiso 1 1 calc GR . . . .
H5B H 0.660284 0.238982 -0.035733 0.125 Uiso 1 1 calc GR . . . .
H5C H 0.593130 0.302207 -0.043059 0.125 Uiso 1 1 calc GR . . . .
C6 C 0.7137(8) 0.2863(8) 0.0849(10) 0.093(6) Uani 1 2 d DS TU P C .
H6A H 0.687751 0.295170 0.125776 0.139 Uiso 0.5 1 d R . . B -1
H6B H 0.716280 0.231830 0.075616 0.139 Uiso 0.5 1 d R . . B -1
H6C H 0.766841 0.305990 0.088466 0.139 Uiso 0.5 1 d R . . B -1
O1 O 0.6936(11) 0.3711(15) 0.2461(11) 0.087(7) Uani 0.5 1 d D . . C -1
O2 O 0.5867(8) 0.3256(9) 0.2924(10) 0.056(4) Uani 0.5 1 d D . . C -1
C7 C 0.6548(8) 0.3430(12) 0.2910(7) 0.041(4) Uani 0.5 1 d D . . C -1
C8 C 0.7033(9) 0.3236(8) 0.3526(9) 0.046(6) Uani 0.5 1 d D . . C -1
F1 F 0.7193(13) 0.2485(9) 0.3529(10) 0.108(9) Uani 0.5 1 d D U . C -1
F2 F 0.670(4) 0.342(4) 0.4101(6) 0.102(11) Uani 0.5 1 d D U . C -1
F3 F 0.7681(10) 0.3624(14) 0.3596(11) 0.101(6) Uani 0.5 1 d D U . C -1
N1 N 0.7956(4) 0.4828(5) 0.1665(7) 0.065(3) Uani 1 1 d . . . . .
C9 C 0.8429(6) 0.4236(6) 0.1830(9) 0.070(4) Uani 1 1 d . . . . .
H9 H 0.819773 0.376776 0.197824 0.084 Uiso 1 1 calc R . . . .
C10 C 0.9222(6) 0.4264(6) 0.1797(8) 0.065(4) Uani 1 1 d . . . . .
H10 H 0.952633 0.382345 0.190418 0.078 Uiso 1 1 calc R . . . .
C11 C 0.9573(4) 0.4968(6) 0.1600(7) 0.054(3) Uani 1 1 d . . . . .
C12 C 0.9097(6) 0.5583(6) 0.1450(7) 0.053(3) Uani 1 1 d . . . . .
H12 H 0.930916 0.606672 0.131843 0.064 Uiso 1 1 calc R . . . .
C13 C 0.8299(5) 0.5484(6) 0.1494(8) 0.056(3) Uani 1 1 d . . . . .
H13 H 0.797876 0.591660 0.139478 0.068 Uiso 1 1 calc R . . . .
O3 O 0.5211(11) 0.2294(10) 0.3914(10) 0.068(5) Uani 0.5 1 d . . . D -1
H3 H 0.553761 0.257386 0.371641 0.101 Uiso 0.5 1 calc GR . . D -1
C14 C 0.503(2) 0.2615(16) 0.4542(14) 0.082(8) Uani 0.5 1 d D . . D -1
H14A H 0.461099 0.299719 0.449374 0.098 Uiso 0.5 1 calc R . . D -1
H14B H 0.549383 0.288463 0.472565 0.098 Uiso 0.5 1 calc R . . D -1
C15 C 0.479(3) 0.197(2) 0.502(3) 0.127(15) Uani 0.5 1 d D U . D -1
H15A H 0.433251 0.212307 0.525770 0.191 Uiso 0.5 1 d R . . D -1
H15B H 0.466671 0.153567 0.473860 0.191 Uiso 0.5 1 d R . . D -1
H15C H 0.518951 0.182587 0.532350 0.191 Uiso 0.5 1 d R . . D -1
loop_
_atom_site_aniso_label
_atom_site_aniso_U_11
_atom_site_aniso_U_22
_atom_site_aniso_U_33
_atom_site_aniso_U_23
_atom_site_aniso_U_13
_atom_site_aniso_U_12
Ag1 0.0208(3) 0.0208(3) 0.0408(5) 0.000 0.000 -0.0019(4)
Ag2 0.0204(3) 0.0282(3) 0.1084(6) 0.0100(4) 0.0036(4) 0.0017(2)
Ag3 0.0236(7) 0.0275(7) 0.0442(8) 0.0055(8) 0.000 0.000
S1 0.0286(8) 0.0286(8) 0.0408(13) -0.0019(8) -0.0019(8) -0.0105(11)
C1 0.087(10) 0.087(10) 0.047(8) -0.009(4) -0.009(4) -0.061(12)
C2 0.062(6) 0.062(6) 0.052(8) -0.003(5) -0.003(5) -0.027(8)
C3 0.075(8) 0.154(12) 0.068(7) 0.006(8) -0.011(7) -0.055(8)
S2 0.0639(16) 0.0639(16) 0.0357(15) 0.0019(8) -0.0019(8) 0.0424(19)
C4 0.053(4) 0.053(4) 0.044(5) 0.002(3) -0.002(3) 0.019(5)
C5 0.083(9) 0.063(8) 0.104(12) -0.043(8) 0.004(8) 0.033(7)
C6 0.101(8) 0.101(8) 0.076(10) -0.004(5) 0.004(5) 0.059(9)
O1 0.060(11) 0.120(17) 0.080(12) 0.052(12) 0.023(9) 0.048(12)
O2 0.034(8) 0.048(9) 0.084(11) 0.011(8) -0.023(8) -0.004(7)
C7 0.02(2) 0.06(3) 0.040(7) -0.02(2) -0.008(18) 0.010(6)
C8 0.034(10) 0.050(13) 0.055(10) 0.002(8) -0.004(8) -0.003(10)
F1 0.140(19) 0.064(11) 0.120(12) 0.034(9) -0.050(11) 0.018(13)
F2 0.13(2) 0.12(2) 0.057(6) -0.005(13) -0.022(13) -0.018(18)
F3 0.058(9) 0.124(15) 0.121(13) 0.001(11) -0.036(9) -0.030(10)
N1 0.016(3) 0.032(4) 0.146(9) 0.015(6) -0.005(5) 0.007(3)
C9 0.020(4) 0.030(5) 0.160(14) 0.013(6) -0.005(6) -0.004(4)
C10 0.023(4) 0.037(5) 0.136(13) 0.014(6) -0.004(6) 0.005(4)
C11 0.019(4) 0.030(4) 0.114(8) -0.002(7) 0.002(5) 0.003(3)
C12 0.024(5) 0.031(5) 0.105(9) 0.005(5) -0.001(5) -0.003(4)
C13 0.020(4) 0.026(5) 0.123(10) 0.007(5) -0.007(5) 0.002(3)
O3 0.061(11) 0.048(9) 0.094(12) 0.008(9) 0.017(9) -0.005(8)
C14 0.09(2) 0.070(16) 0.083(16) -0.001(14) 0.037(18) 0.002(17)
C15 0.13(2) 0.131(18) 0.123(17) -0.002(14) 0.008(14) 0.008(12)
loop_
_atom_type_symbol
_atom_type_description
_atom_type_scat_dispersion_real
_atom_type_scat_dispersion_imag
_atom_type_scat_source
C C 0.0181 0.0091 'International Tables Vol C Tables 4.2.6.8 and 6.1.1.4'
H H 0.0000 0.0000 'International Tables Vol C Tables 4.2.6.8 and 6.1.1.4'
Ag Ag 0.1306 4.2820 'International Tables Vol C Tables 4.2.6.8 and 6.1.1.4'
F F 0.0727 0.0534 'International Tables Vol C Tables 4.2.6.8 and 6.1.1.4'
N N 0.0311 0.0180 'International Tables Vol C Tables 4.2.6.8 and 6.1.1.4'
O O 0.0492 0.0322 'International Tables Vol C Tables 4.2.6.8 and 6.1.1.4'
S S 0.3331 0.5567 'International Tables Vol C Tables 4.2.6.8 and 6.1.1.4'
loop_
_exptl_crystal_face_index_h
_exptl_crystal_face_index_k
_exptl_crystal_face_index_l
_exptl_crystal_face_perp_dist
-11 0 -1 0.0717
11 1 0 0.0559
0 -5 11 0.0375
0 5 -11 0.0375
-10 0 6 0.0609
10 0 -6 0.0609
-1 -11 -2 0.0598
2 11 1 0.0612
0 -7 -10 0.0512
1 7 10 0.0380
-1 0 13 0.0340
-3 -1 -12 0.0402
-1 11 -3 0.0592
1 0 13 0.0314
loop_
_geom_angle_atom_site_label_1
_geom_angle_atom_site_label_2
_geom_angle_atom_site_label_3
_geom_angle
_geom_angle_site_symmetry_1
_geom_angle_site_symmetry_3
Ag2 Ag1 Ag2 104.58(3) 7_665 3_665
Ag2 Ag1 Ag2 67.16(3) 3_665 8
Ag2 Ag1 Ag2 149.71(6) 7_665 8
Ag2 Ag1 Ag2 67.16(3) 7_665 .
Ag2 Ag1 Ag2 104.58(3) 8 .
Ag2 Ag1 Ag2 149.71(6) 3_665 .
S1 Ag1 Ag2 122.78(3) . 3_665
S1 Ag1 Ag2 55.69(2) 3_665 7_665
S1 Ag1 Ag2 55.69(2) . .
S1 Ag1 Ag2 55.69(2) 3_665 3_665
S1 Ag1 Ag2 122.78(3) . 7_665
S1 Ag1 Ag2 55.69(2) . 8
S1 Ag1 Ag2 122.78(3) 3_665 8
S1 Ag1 Ag2 122.78(3) 3_665 .
S1 Ag1 S1 175.11(15) . 3_665
Ag1 Ag2 Ag2 56.420(14) . 7_665
S1 Ag2 Ag1 51.88(6) . .
S1 Ag2 Ag2 108.26(6) . 7_665
S2 Ag2 Ag1 83.90(7) . .
S2 Ag2 Ag2 49.59(5) . 7_665
S2 Ag2 S1 117.61(10) . .
O1 Ag2 Ag1 99.8(4) . .
O1 Ag2 Ag2 70.0(6) . 7_665
O1 Ag2 S1 123.3(6) . .
O1 Ag2 S2 103.3(7) . .
N1 Ag2 Ag1 158.7(3) . .
N1 Ag2 Ag2 139.8(2) . 7_665
N1 Ag2 S1 110.4(2) . .
N1 Ag2 S2 117.1(3) . .
N1 Ag2 O1 79.9(6) . .
Ag3 Ag3 Ag3 45.0 2_565 3_665
Ag3 Ag3 Ag3 45.0 4_655 3_665
Ag3 Ag3 Ag3 90.0 2_565 4_655
Ag3 Ag3 S2 129.82(9) 2_565 4_655
Ag3 Ag3 S2 129.82(9) 4_655 .
Ag3 Ag3 S2 62.71(5) 2_565 .
Ag3 Ag3 S2 62.71(5) 4_655 4_655
S2 Ag3 Ag3 97.39(7) 4_655 3_665
S2 Ag3 Ag3 97.39(7) . 3_665
S2 Ag3 S2 165.23(13) . 4_655
Ag1 S1 Ag2 72.43(6) . 8
Ag1 S1 Ag2 72.43(6) . .
Ag2 S1 Ag2 131.88(12) 8 .
C1 S1 Ag1 107.8(5) . .
C1 S1 Ag2 110.67(13) . 8
C1 S1 Ag2 110.67(13) . .
C2 C1 S1 112.2(10) . .
C3 C1 S1 106.8(10) . .
C3 C1 S1 106.8(10) 8 .
C3 C1 C2 110.3(11) . .
C3 C1 C2 110.3(11) 8 .
C3 C1 C3 110.4(19) . 8
C1 C2 H2A 109.5 . .
C1 C2 H2B 109.5 . .
C1 C2 H2C 109.5 . .
H2A C2 H2B 109.5 . .
H2A C2 H2C 109.5 . .
H2B C2 H2C 109.5 . .
C1 C3 H3A 109.5 . .
C1 C3 H3B 109.5 . .
C1 C3 H3C 109.5 . .
H3A C3 H3B 109.5 . .
H3A C3 H3C 109.5 . .
H3B C3 H3C 109.5 . .
Ag2 S2 Ag2 80.81(10) . 7_665
Ag3 S2 Ag2 136.11(15) . 7_665
Ag3 S2 Ag2 136.11(15) 2_565 .
Ag3 S2 Ag2 97.25(7) 2_565 7_665
Ag3 S2 Ag2 97.25(7) . .
Ag3 S2 Ag3 54.58(10) 2_565 .
C4 S2 Ag2 112.5(3) . 7_665
C4 S2 Ag2 112.5(3) . .
C4 S2 Ag3 108.7(3) . .
C4 S2 Ag3 108.7(3) . 2_565
C5 C4 S2 107.5(8) 7_665 .
C5 C4 S2 107.5(8) . .
C5 C4 C5 112.6(17) 7_665 .
C5 C4 C6 110.2(10) 7_665 .
C5 C4 C6 110.2(10) . .
C6 C4 S2 108.7(11) . .
C4 C5 H5A 109.5 . .
C4 C5 H5B 109.5 . .
C4 C5 H5C 109.5 . .
H5A C5 H5B 109.5 . .
H5A C5 H5C 109.5 . .
H5B C5 H5C 109.5 . .
C4 C6 H6A 108.1 . .
C4 C6 H6B 111.3 . .
C4 C6 H6C 109.9 . .
H6A C6 H6B 110.3 . .
H6A C6 H6C 109.1 . .
H6B C6 H6C 108.0 . .
C7 O1 Ag2 129.7(13) . .
O1 C7 C8 111.8(15) . .
O2 C7 O1 130.6(18) . .
O2 C7 C8 117.5(13) . .
F1 C8 C7 109.5(14) . .
F2 C8 C7 113.6(15) . .
F2 C8 F1 109(3) . .
F3 C8 C7 116.3(16) . .
F3 C8 F1 108.8(19) . .
F3 C8 F2 99(4) . .
C9 N1 Ag2 122.8(6) . .
C13 N1 Ag2 121.0(6) . .
C13 N1 C9 116.1(8) . .
N1 C9 H9 117.7 . .
N1 C9 C10 124.5(10) . .
C10 C9 H9 117.7 . .
C9 C10 H10 120.9 . .
C9 C10 C11 118.2(10) . .
C11 C10 H10 120.9 . .
C10 C11 C11 119.5(11) . 3_765
C12 C11 C10 117.8(8) . .
C12 C11 C11 122.6(11) . 3_765
C11 C12 H12 120.5 . .
C11 C12 C13 119.0(9) . .
C13 C12 H12 120.5 . .
N1 C13 C12 124.3(9) . .
N1 C13 H13 117.8 . .
C12 C13 H13 117.8 . .
C14 O3 H3 109.5 . .
O3 C14 H14A 109.9 . .
O3 C14 H14B 109.9 . .
O3 C14 C15 109(3) . .
H14A C14 H14B 108.3 . .
C15 C14 H14A 109.9 . .
C15 C14 H14B 109.9 . .
C14 C15 H15A 109.7 . .
C14 C15 H15B 106.2 . .
C14 C15 H15C 112.4 . .
H15A C15 H15B 109.0 . .
H15A C15 H15C 110.7 . .
H15B C15 H15C 108.7 . .
loop_
_geom_bond_atom_site_label_1
_geom_bond_atom_site_label_2
_geom_bond_distance
_geom_bond_site_symmetry_2
Ag1 Ag2 2.9272(7) 7_665
Ag1 Ag2 2.9272(7) .
Ag1 Ag2 2.9272(7) 3_665
Ag1 Ag2 2.9272(7) 8
Ag1 S1 2.416(3) 3_665
Ag1 S1 2.416(3) .
Ag2 Ag2 3.2380(12) 7_665
Ag2 S1 2.5360(13) .
Ag2 S2 2.498(3) .
Ag2 O1 2.419(17) .
Ag2 N1 2.334(7) .
Ag3 Ag3 2.935(3) 3_665
Ag3 Ag3 2.075(2) 2_565
Ag3 Ag3 2.075(2) 4_655
Ag3 S2 2.263(3) .
Ag3 S2 2.263(3) 4_655
S1 C1 1.868(16) .
C1 C2 1.53(2) .
C1 C3 1.52(2) .
C1 C3 1.52(2) 8
C2 H2A 0.9800 .
C2 H2B 0.9800 .
C2 H2C 0.9800 .
C3 H3A 0.9800 .
C3 H3B 0.9800 .
C3 H3C 0.9800 .
S2 C4 1.876(15) .
C4 C5 1.490(14) 7_665
C4 C5 1.490(14) .
C4 C6 1.496(16) .
C5 H5A 0.9800 .
C5 H5B 0.9800 .
C5 H5C 0.9800 .
C6 H6A 0.9386 .
C6 H6B 0.9605 .
C6 H6C 0.9821 .
O1 C7 1.217(14) .
O2 C7 1.214(15) .
C7 C8 1.52(2) .
C8 F1 1.327(15) .
C8 F2 1.316(15) .
C8 F3 1.312(14) .
N1 C9 1.348(13) .
N1 C13 1.324(13) .
C9 H9 0.9500 .
C9 C10 1.372(14) .
C10 H10 0.9500 .
C10 C11 1.414(15) .
C11 C11 1.479(16) 3_765
C11 C12 1.376(15) .
C12 H12 0.9500 .
C12 C13 1.392(13) .
C13 H13 0.9500 .
O3 H3 0.8400 .
O3 C14 1.40(3) .
C14 H14A 0.9900 .
C14 H14B 0.9900 .
C14 C15 1.521(14) .
C15 H15A 0.9568 .
C15 H15B 0.9555 .
C15 H15C 0.9554 .
loop_
_geom_torsion_atom_site_label_1
_geom_torsion_atom_site_label_2
_geom_torsion_atom_site_label_3
_geom_torsion_atom_site_label_4
_geom_torsion
_geom_torsion_site_symmetry_1
_geom_torsion_site_symmetry_2
_geom_torsion_site_symmetry_3
_geom_torsion_site_symmetry_4
Ag1 S1 C1 C2 0.000(2) . . . .
Ag1 S1 C1 C3 120.9(11) . . . .
Ag1 S1 C1 C3 -120.9(11) . . . 8
Ag2 S1 C1 C2 -77.4(2) . . . .
Ag2 S1 C1 C2 77.4(2) 8 . . .
Ag2 S1 C1 C3 43.5(12) . . . .
Ag2 S1 C1 C3 -43.5(12) 8 . . 8
Ag2 S1 C1 C3 -161.7(10) 8 . . .
Ag2 S1 C1 C3 161.7(10) . . . 8
Ag2 S2 C4 C5 -74.7(10) . . . 7_665
Ag2 S2 C4 C5 74.7(10) 7_665 . . .
Ag2 S2 C4 C5 163.8(9) . . . .
Ag2 S2 C4 C5 -163.8(9) 7_665 . . 7_665
Ag2 S2 C4 C6 44.56(14) . . . .
Ag2 S2 C4 C6 -44.55(14) 7_665 . . .
Ag2 O1 C7 O2 40(4) . . . .
Ag2 O1 C7 C8 -144.0(18) . . . .
Ag2 N1 C9 C10 175.5(14) . . . .
Ag2 N1 C13 C12 -176.3(12) . . . .
Ag3 S2 C4 C5 -89.7(9) . . . .
Ag3 S2 C4 C5 -31.8(10) 2_565 . . .
Ag3 S2 C4 C5 31.8(10) . . . 7_665
Ag3 S2 C4 C5 89.7(9) 2_565 . . 7_665
Ag3 S2 C4 C6 -151.06(9) 2_565 . . .
Ag3 S2 C4 C6 151.06(9) . . . .
O1 C7 C8 F1 -100(2) . . . .
O1 C7 C8 F2 138(4) . . . .
O1 C7 C8 F3 24(3) . . . .
O2 C7 C8 F1 77(2) . . . .
O2 C7 C8 F2 -46(5) . . . .
O2 C7 C8 F3 -160(2) . . . .
N1 C9 C10 C11 2(3) . . . .
C9 N1 C13 C12 3(2) . . . .
C9 C10 C11 C11 176.3(12) . . . 3_765
C9 C10 C11 C12 0(2) . . . .
C10 C11 C12 C13 0(2) . . . .
C11 C11 C12 C13 -176.8(10) 3_765 . . .
C11 C12 C13 N1 -1(2) . . . .
C13 N1 C9 C10 -3(3) . . . .
loop_
_exptl_oxdiff_crystal_face_indexfrac_h
_exptl_oxdiff_crystal_face_indexfrac_k
_exptl_oxdiff_crystal_face_indexfrac_l
_exptl_oxdiff_crystal_face_x
_exptl_oxdiff_crystal_face_y
_exptl_oxdiff_crystal_face_z
-11.0000 0.0000 -0.9964 0.0272 0.6045 0.7772
11.0000 1.0000 -0.0036 0.0172 -0.5152 -0.8405
0.0000 -5.0000 11.0005 -0.0117 -0.7992 0.5378
-0.0000 5.0000 -11.0005 0.0117 0.7992 -0.5378
-10.0000 -0.0000 6.0034 0.2665 0.1437 0.9610
10.0000 0.0000 -6.0034 -0.2665 -0.1437 -0.9610
-1.0000 -11.0000 -1.9993 -0.9372 -0.1695 0.2922
2.0000 11.0000 0.9990 0.8965 0.1786 -0.4031
-0.0000 -7.0000 -10.0000 -0.9054 0.3733 -0.1825
1.0000 7.0000 9.9997 0.8998 -0.4229 0.1085
-1.0000 -0.0000 13.0007 0.4607 -0.7141 0.5528
-3.0000 -1.0000 -11.9993 -0.4824 0.8232 -0.1934
-1.0000 11.0000 -3.0002 0.7735 0.5624 -0.3284
1.0000 -0.0000 13.0000 0.4494 -0.8133 0.4048
