#------------------------------------------------------------------------------
#$Date: 2019-06-14 11:58:04 +0300 (Fri, 14 Jun 2019) $
#$Revision: 215980 $
#$URL: file:///home/coder/svn-repositories/cod/cif/1/55/14/1551442.cif $
#------------------------------------------------------------------------------
#
# This file is available in the Crystallography Open Database (COD),
# http://www.crystallography.net/
#
# All data on this site have been placed in the public domain by the
# contributors.
#
data_1551442
loop_
_publ_author_name
'Ren-Wu Huang'
'Yong-Sheng Wei'
'Xi-Yan Dong'
'Xiao-Hui Wu'
'Chen-Xia Du'
'Shuang-Quan Zang'
'Thomas C. W. Mak'
_publ_section_title
;
 Hypersensitive dual-function luminescence switching of a
 silver-chalcogenolate cluster-based metal-organic framework
;
_journal_name_full               'Nature Chemistry'
_journal_page_first              689
_journal_page_last               697
_journal_paper_doi               10.1038/nchem.2718
_journal_volume                  9
_journal_year                    2017
_chemical_formula_moiety         'C80 H104 Ag12 F12 N8 O8 S8, 2(C8 H10)'
_chemical_formula_sum            'C96 H124 Ag12 F12 N8 O8 S8'
_chemical_formula_weight         3296.94
_space_group_crystal_system      tetragonal
_space_group_IT_number           121
_space_group_name_Hall           'I -4 2'
_space_group_name_H-M_alt        'I -4 2 m'
_atom_sites_solution_hydrogens   mixed
_atom_sites_solution_primary     direct
_cell_angle_alpha                90
_cell_angle_beta                 90
_cell_angle_gamma                90
_cell_formula_units_Z            2
_cell_length_a                   17.26030(10)
_cell_length_b                   17.26030(10)
_cell_length_c                   20.5849(5)
_cell_measurement_reflns_used    17946
_cell_measurement_temperature    100.00(10)
_cell_measurement_theta_max      32.6420
_cell_measurement_theta_min      2.8230
_cell_volume                     6132.61(16)
_computing_cell_refinement       'CrysAlisPro 1.171.39.7b (Rigaku OD, 2015)'
_computing_data_collection       'CrysAlisPro 1.171.39.7b (Rigaku OD, 2015)'
_computing_data_reduction        'CrysAlisPro 1.171.39.7b (Rigaku OD, 2015)'
_computing_molecular_graphics    'Olex2 (Dolomanov et al., 2009)'
_computing_publication_material  'Olex2 (Dolomanov et al., 2009)'
_computing_structure_refinement  'ShelXL (Sheldrick, 2015)'
_computing_structure_solution    'ShelXS (Sheldrick, 2008)'
_diffrn_ambient_environment      N~2~
_diffrn_ambient_temperature      100.00(10)
_diffrn_detector                 'CCD plate'
_diffrn_measured_fraction_theta_full 0.993
_diffrn_measured_fraction_theta_max 0.937
_diffrn_measurement_details
;
List of Runs (angles in degrees, time in seconds):

  # Type    Start    End  Width  t~exp~   \w     \q     \k     \f   Frames
--------------------------------------------------------------------------
  1  \w    -14.00  36.00   0.50    3.50    --    7.30 -77.00 -30.00  100
  2  \w    -33.00  24.00   0.50    3.50    --   -7.10 -82.00  90.00  114
  3  \w    -33.00  33.00   0.50    3.50    --    7.30 -82.00-120.00  132
  4  \w    -44.00  36.00   0.50    3.50    --    7.30 -77.00 120.00  160
;
_diffrn_measurement_device       'four-circle diffractometer'
_diffrn_measurement_device_type  'XtaLAB Pro:Kappa single'
_diffrn_measurement_method       'omega scans'
_diffrn_orient_matrix_type
'CrysAlisPro convention (1999,Acta A55,543-557)'
_diffrn_orient_matrix_UB_11      -0.0092730000
_diffrn_orient_matrix_UB_12      0.0059574000
_diffrn_orient_matrix_UB_13      0.0331932000
_diffrn_orient_matrix_UB_21      0.0117713000
_diffrn_orient_matrix_UB_22      0.0392171000
_diffrn_orient_matrix_UB_23      -0.0026580000
_diffrn_orient_matrix_UB_31      -0.0382823000
_diffrn_orient_matrix_UB_32      0.0106577000
_diffrn_orient_matrix_UB_33      -0.0088717000
_diffrn_radiation_monochromator  graphite
_diffrn_radiation_probe          x-ray
_diffrn_radiation_type           MoK\a
_diffrn_radiation_wavelength     0.71073
_diffrn_reflns_av_R_equivalents  0.0265
_diffrn_reflns_av_unetI/netI     0.0196
_diffrn_reflns_Laue_measured_fraction_full 0.993
_diffrn_reflns_Laue_measured_fraction_max 0.937
_diffrn_reflns_limit_h_max       24
_diffrn_reflns_limit_h_min       -26
_diffrn_reflns_limit_k_max       25
_diffrn_reflns_limit_k_min       -24
_diffrn_reflns_limit_l_max       30
_diffrn_reflns_limit_l_min       -31
_diffrn_reflns_number            32617
_diffrn_reflns_point_group_measured_fraction_full 0.992
_diffrn_reflns_point_group_measured_fraction_max 0.902
_diffrn_reflns_theta_full        25.250
_diffrn_reflns_theta_max         32.827
_diffrn_reflns_theta_min         2.818
_diffrn_source                   MM007HF-DW
_diffrn_source_type              'Microfocus Rotating Anode X-ray Source'
_exptl_absorpt_coefficient_mu    2.074
_exptl_absorpt_correction_T_max  0.851
_exptl_absorpt_correction_T_min  0.769
_exptl_absorpt_correction_type   gaussian
_exptl_absorpt_process_details
;
CrysAlisPro 1.171.39.7b (Rigaku Oxford Diffraction, 2015)
Numerical absorption correction based on gaussian integration over
			a multifaceted crystal model
Empirical absorption correction using spherical harmonics,
 implemented in SCALE3 ABSPACK scaling algorithm.
;
_exptl_crystal_colour            colourless
_exptl_crystal_colour_primary    colourless
_exptl_crystal_density_diffrn    1.785
_exptl_crystal_description       block
_exptl_crystal_F_000             3240
_exptl_crystal_size_max          0.165
_exptl_crystal_size_mid          0.131
_exptl_crystal_size_min          0.095
_refine_diff_density_max         0.918
_refine_diff_density_min         -0.558
_refine_diff_density_rms         0.078
_refine_ls_abs_structure_details
;
 Flack x determined using 2129 quotients [(I+)-(I-)]/[(I+)+(I-)]
 (Parsons and Flack (2004), Acta Cryst. A60, s61).
;
_refine_ls_abs_structure_Flack   -0.039(10)
_refine_ls_extinction_coef       .
_refine_ls_extinction_method     none
_refine_ls_goodness_of_fit_ref   1.031
_refine_ls_hydrogen_treatment    constr
_refine_ls_matrix_type           full
_refine_ls_number_parameters     242
_refine_ls_number_reflns         5358
_refine_ls_number_restraints     67
_refine_ls_restrained_S_all      1.114
_refine_ls_R_factor_all          0.0248
_refine_ls_R_factor_gt           0.0223
_refine_ls_shift/su_max          0.003
_refine_ls_shift/su_mean         0.000
_refine_ls_structure_factor_coef Fsqd
_refine_ls_weighting_details
;
 w=1/[\s^2^(Fo^2^)+(0.0298P)^2^+6.7097P]
 where P=(Fo^2^+2Fc^2^)/3
;
_refine_ls_weighting_scheme      calc
_refine_ls_wR_factor_gt          0.0537
_refine_ls_wR_factor_ref         0.0545
_reflns_Friedel_coverage         0.782
_reflns_Friedel_fraction_full    0.992
_reflns_Friedel_fraction_max     0.861
_reflns_number_gt                5061
_reflns_number_total             5358
_reflns_threshold_expression     'I > 2\s(I)'
_cod_data_source_file            nchem.2718-s25.cif
_cod_data_source_block           ag12bpy_p-xylene
_cod_depositor_comments
;
The following automatic conversions were performed:

data item '_exptl_absorpt_correction_type' value 'Gaussian' was
changed to 'gaussian' in accordance with the built-in table derived
from the CIF Core dictionary named 'cif_core.dic' version 2.4.5 last
updated on 2014-11-21.

Automatic conversion script
Id: cif_fix_values 6909 2019-04-08 15:41:33Z antanas 
;
_cod_original_cell_volume        6132.61(17)
_cod_database_code               1551442
_chemical_oxdiff_formula         'C80 H104 O8 N8 S8 Ag12'
_chemical_oxdiff_usercomment     st
_shelx_space_group_comment
;
The symmetry employed for this shelxl refinement is uniquely defined
by the following loop, which should always be used as a source of
symmetry information in preference to the above space-group names.
They are only intended as comments.
;
_shelx_estimated_absorpt_t_max   0.827
_shelx_estimated_absorpt_t_min   0.726
_reflns_odcompleteness_completeness 99.85
_reflns_odcompleteness_iscentric 1
_reflns_odcompleteness_theta     30.44
_olex2_refinement_description
;
1. Fixed Uiso
 At 1.2 times of:
  All C(H) groups
 At 1.5 times of:
  All C(H,H,H) groups
2. Restrained distances
 C9-F1 \\sim C9-F2 \\sim C9-F1B \\sim C9-F2B
 with sigma of 0.005
 F1B-F2B \\sim F2-F1 \\sim F2B_$1-F2B \\sim F2B-F1B \\sim F1-F2 \\sim F2-F2_$1
 with sigma of 0.01
 C4-C6 \\sim C4-C7
 with sigma of 0.005
3. Uiso/Uaniso restraints and constraints
Uanis(C16) \\sim Ueq, Uanis(C19) \\sim Ueq, Uanis(F2) \\sim Ueq, Uanis(F1B)
\\sim Ueq: with sigma of 0.01 and sigma for terminal atoms of 0.02
Uanis(C15) \\sim Ueq, Uanis(C20) \\sim Ueq, Uanis(F2B) \\sim Ueq: with sigma of
0.005 and sigma for terminal atoms of 0.01
Uanis(C6) \\sim Ueq, Uanis(C7) \\sim Ueq: with sigma of 0.003 and sigma for
terminal atoms of 0.006
4. Others
 Sof(F2B)=1-FVAR(1)
 Sof(F1B)=0.5*(1-FVAR(2))
 Sof(F1)=0.5*FVAR(2)
 Sof(F2)=FVAR(1)
 Fixed Sof: Ag3(0.25) H3A(0.5) H3B(0.5) H3C(0.5) C5(0.5) H5A(0.5) H5B(0.5)
 H5C(0.5) C6(0.5) H6A(0.5) H6B(0.5) H6C(0.5) C7(0.5) H7A(0.5) H7B(0.5) H7C(0.5)
 C15(0.25) H15A(0.25) H15B(0.25) H15C(0.25) C16(0.25) C17(0.5) H17(0.5)
 C18(0.5) H18(0.5) C19(0.25) C20(0.25) H20A(0.25) H20B(0.25) H20C(0.25)
 Fixed X: C15(0) C16(0) C19(0) C20(0)
 Fixed Z: C15(1) C16(1) C19(1) C20(1)
5.a Riding coordinates:
 C15(H15A,H15B,H15C), C20(H20A,H20B,H20C)
5.b Aromatic/amide H refined with riding coordinates:
 C10(H10), C11(H11), C13(H13), C14(H14), C17(H17), C18(H18)
5.c Idealised Me refined as rotating group:
 C2(H2A,H2B,H2C), C3(H3A,H3B,H3C), C5(H5A,H5B,H5C), C6(H6A,H6B,H6C), C7(H7A,
 H7B,H7C)
Comments: Several groups, including the trifluoroacetate anion, 
the t-butyl mercaptan anion and the guest molecule p-xylene, 
were involved in disorder. Various strategies for the disorder 
treatments were applied to different groups. The trifluoroacetate 
was treated with relatively strong geometrical and ADP restraints 
using "SADI 0.005" or "SADI 0.01" and "ISOR 0.01" or 
"ISOR 0.005", respectively. One t-butyl mercaptan anion also 
suffered positional disorder due to the symmetry. "PART -1" was 
used to suppress the symmetry according to the chemistry with 
0.5 occupancy. The separated carbon atoms in each part with bad 
ADPs were not split more, but they were restrained by the hard 
"ISOR 0.003 0.006" command. For the p-xylene group, the atoms 
were clearly determined from the difference Fourier map. However, 
due to the high disorder, the geometrical symmetry of the molecule 
and the lattice symmetry, only a simple model was created to 
present the major part of the molecule, for which very the strong 
restraints "ISOR 0.005 0.01" or "ISOR 0.01 0.02" were used.
;
_shelx_res_file
;
TITL Ag12bpy_p-xylene in I-42m #121
REM reset to I-42m #121
CELL 0.71073 17.2603 17.2603 20.5849 90 90 90
ZERR 2 0.0001 0.0001 0.0005 0 0 0
LATT -2
SYMM +Y,-X,-Z
SYMM -X,-Y,+Z
SYMM -Y,+X,-Z
SYMM +X,-Y,-Z
SYMM -X,+Y,-Z
SYMM -Y,-X,+Z
SYMM +Y,+X,+Z
SFAC C H Ag F N O S
UNIT 192 248 24 24 16 16 16
EQIV $1 1-Y,1-X,+Z
SADI 0.005 C9 F1 C9 F2 C9 F1B C9 F2B
SADI 0.01 F1B F2B F2 F1 F2B_$1 F2B F2B F1B F1 F2 F2 F2_$1
SADI 0.005 C4 C6 C4 C7
ISOR 0.01 0.02 C16 C19 F2 F1B
ISOR 0.005 0.01 C15 C20 F2B
ISOR 0.003 0.006 C6 C7

L.S. 11
PLAN  5
SIZE 0.165 0.131 0.095
TEMP -173.15
BOND $H
MORE -1
CONF
fmap 2
acta 50.5
OMIT 0 0 4
OMIT 0 1 7
OMIT 1 1 4
OMIT 0 2 2
OMIT -1 1 4
OMIT 1 1 2
OMIT 0 1 3
REM <olex2.extras>
REM <HklSrc "%.\\Ag12bpy_p-xylene.hkl">
REM </olex2.extras>

WGHT    0.029800    6.709700
FVAR       0.03573   0.72119
AG1   3    0.500000    0.500000    0.795648    10.25000    0.01181    0.01181 =
         0.02814    0.00000    0.00000   -0.00076
AG2   3    0.339991    0.529105    0.833257    11.00000    0.01232    0.02244 =
         0.03863    0.00109    0.00015    0.00210
AG3   3    0.416183    0.500000    1.000000    10.25000    0.01653    0.02801 =
         0.03284    0.01570    0.00000    0.00000
S1    7    0.599439    0.599439    0.799990    10.50000    0.01562    0.01562 =
         0.02946    0.00270    0.00270   -0.00327
C1    1    0.624518    0.624518    0.713920    10.50000    0.02889    0.02889 =
         0.02948    0.00632    0.00632   -0.00623
C2    1    0.606720    0.710597    0.704344    11.00000    0.05546    0.02952 =
         0.04336    0.01434    0.01198   -0.00532
AFIX 137
H2A   2    0.551474    0.719888    0.712085    11.00000   -1.50000
H2B   2    0.619842    0.725751    0.659801    11.00000   -1.50000
H2C   2    0.637445    0.741291    0.735010    11.00000   -1.50000
AFIX   0
C3    1    0.576876    0.576876    0.666381    10.50000    0.04413    0.04413 =
         0.03265    0.00451    0.00451   -0.01342
PART -1
AFIX 137
H3A   2    0.574695    0.522981    0.681245    10.50000   -1.50000
H3B   2    0.600965    0.578942    0.623305    10.50000   -1.50000
H3C   2    0.524249    0.597986    0.663941    10.50000   -1.50000
AFIX   0
PART 0
S2    7    0.398431    0.601569    0.927031    10.50000    0.02765    0.02765 =
         0.02080    0.00251   -0.00251    0.00794
C4    1    0.330215    0.669785    0.966859    10.50000    0.04930    0.04930 =
         0.02009   -0.00083    0.00083    0.02579
PART -1
C5    1    0.293824    0.721355    0.916021    10.50000    0.02602    0.02182 =
         0.02640    0.00139   -0.00039    0.00337
AFIX 137
H5A   2    0.333976    0.753430    0.895781    10.50000   -1.50000
H5B   2    0.255018    0.754827    0.936516    10.50000   -1.50000
H5C   2    0.268868    0.689264    0.882785    10.50000   -1.50000
AFIX   0
C6    1    0.382407    0.734258    0.995856    10.50000    0.05590    0.06272 =
         0.01955   -0.01613   -0.00457    0.01406
AFIX 137
H6A   2    0.404948    0.764972    0.960557    10.50000   -1.50000
H6B   2    0.424013    0.710583    1.021455    10.50000   -1.50000
H6C   2    0.351232    0.767952    1.023874    10.50000   -1.50000
AFIX   0
C7    1    0.287409    0.633320    1.022667    10.50000    0.05858    0.06309 =
         0.01774    0.00646    0.01054    0.02545
AFIX 137
H7A   2    0.253585    0.592120    1.006275    10.50000   -1.50000
H7B   2    0.256033    0.672733    1.044627    10.50000   -1.50000
H7C   2    0.324714    0.611347    1.053466    10.50000   -1.50000
AFIX   0
PART 0
O1    6    0.307277    0.600690    0.733823    11.00000    0.03576    0.05481 =
         0.05129    0.02697   -0.00925   -0.01308
C8    1    0.341991    0.658009    0.713261    10.50000    0.02623    0.02623 =
         0.02316    0.00112   -0.00112    0.00521
C9    1    0.306221    0.693779    0.651221    10.50000    0.04678    0.04678 =
         0.04152    0.01608   -0.01608   -0.00805
PART 1
F1    4    0.252772    0.747228    0.667726    20.50000    0.07686    0.07686 =
         0.10142    0.02240   -0.02240    0.04138
F2    4    0.265204    0.647713    0.615665    21.00000    0.12262    0.05515 =
         0.06912    0.00927   -0.06604   -0.01638
PART 0
PART 2
F1B   4    0.342580    0.657420    0.602617   -20.50000    0.13613    0.13613 =
         0.02537   -0.00074    0.00074    0.02530
F2B   4    0.234409    0.679941    0.637764   -21.00000    0.05215    0.12639 =
         0.08725    0.05675   -0.03169   -0.02758
PART 0
N1    5    0.204971    0.515048    0.832444    11.00000    0.01400    0.02511 =
         0.03103    0.00261   -0.00256    0.00006
C10   1    0.169632    0.448940    0.849144    11.00000    0.01875    0.02292 =
         0.02643    0.00481   -0.00698    0.00099
AFIX  43
H10   2    0.200888    0.406027    0.861319    11.00000   -1.20000
AFIX   0
C11   1    0.089896    0.439799    0.849612    11.00000    0.01901    0.02172 =
         0.02391    0.00744   -0.00529   -0.00344
AFIX  43
H11   2    0.067467    0.391360    0.860861    11.00000   -1.20000
AFIX   0
C12   1    0.042858    0.502852    0.833297    11.00000    0.01574    0.02297 =
         0.01353   -0.00039   -0.00093   -0.00127
C13   1    0.079379    0.572240    0.815832    11.00000    0.01527    0.01935 =
         0.02174    0.00015   -0.00041    0.00042
AFIX  43
H13   2    0.049617    0.616544    0.804558    11.00000   -1.20000
AFIX   0
C14   1    0.159730    0.575284    0.815248    11.00000    0.01645    0.01980 =
         0.03074    0.00350   -0.00108   -0.00041
AFIX  43
H14   2    0.184019    0.622113    0.802085    11.00000   -1.20000
AFIX   0

PART -1
C15   1   10.000000    0.441052   11.000000    10.25000    0.05394    0.04010 =
         0.03005    0.00000    0.00134    0.00000
AFIX   3
H15A  2   -0.007990    0.422072    0.955720    10.25000   -1.50000
H15B  2   -0.041990    0.422072    1.027910    10.25000   -1.50000
H15C  2    0.049980    0.422072    1.016370    10.25000   -1.50000
AFIX   0
C16   1   10.000000    0.526477   11.000000    10.25000    0.04350    0.04508 =
         0.01234    0.00000   -0.00292    0.00000
PART 0
C17   1    0.066963    0.569438    0.984648    10.50000    0.04195    0.05374 =
         0.01952   -0.00552   -0.00198    0.00417
AFIX  43
H17   2    0.113855    0.543094    0.974852    10.50000   -1.20000
AFIX   0
C18   1    0.065152    0.650023    0.983681    10.50000    0.03652    0.06021 =
         0.02387   -0.00146    0.00080   -0.01075
AFIX  43
H18   2    0.110509    0.677496    0.971318    10.50000   -1.20000
AFIX   0
PART -1
C19   1   10.000000    0.691003   11.000000    10.25000    0.04513    0.04994 =
         0.02510    0.00000   -0.00046    0.00000
C20   1   10.000000    0.778333   11.000000    10.25000    0.07265    0.06483 =
         0.03874    0.00000   -0.00842    0.00000
AFIX   3
H20A  2   -0.038730    0.797333    1.031010    10.25000   -1.50000
H20B  2   -0.012840    0.797333    0.956520    10.25000   -1.50000
H20C  2    0.051570    0.797333    1.012470    10.25000   -1.50000
AFIX   0
HKLF 4

REM  Ag12bpy_p-xylene in I-42m #121
REM R1 =  0.0223 for    5061 Fo > 4sig(Fo)  and  0.0248 for all    5358 data
REM    242 parameters refined using     67 restraints

END

WGHT      0.0297      6.7230

REM Highest difference peak  0.918,  deepest hole -0.558,  1-sigma level  0.078
Q1    1   0.5000  0.5000  0.7581  10.25000  0.05    0.92
Q2    1   0.0000  0.9392  1.0000  10.50000  0.05    0.77
Q3    1   0.2517  0.6556  0.6288  11.00000  0.05    0.62
Q4    1   0.3483  0.5363  0.8006  11.00000  0.05    0.62
Q5    1   0.3570  0.6430  0.5883  10.50000  0.05    0.57
;
_shelx_res_checksum              35586
_shelx_hkl_file
;
   0   0  -4    1.92    0.09
   0   0   4    1.93    0.09
   0   0   6 2267.61   51.95
   0   0  -6 2271.76   51.96
   0   0   8  120.65    2.77
   0   0  -8  114.66    2.78
   0   0  10   15.45    0.43
   0   0 -10   14.57    0.45
   0   0 -12  374.96    8.82
   0   0  12  385.21    8.81
   0   0  14    5.10    0.23
   0   0  16    6.36    0.28
   0   0  18   90.11    2.22
   0   0  20    0.02    0.23
   0   0  20    0.15    0.14
   0   0  22   25.60    0.76
   0   0  22   23.73    0.87
   0   0  24   52.90    1.58
   0   0  24   56.13    1.48
   0   0  26   -0.02    0.26
   0   0 -26    0.12    0.25
   0   0  28    0.15    0.21
   0   0 -28    0.19    0.29
   0   1   3  260.18    5.85
  -1   0   3  256.26    5.83
   0  -1   3  241.01    5.84
   1   0  -3  256.92    5.83
   0  -1   5  301.59    7.10
   0   1   5  313.32    7.09
  -1   0   5  317.62    7.08
   1   0  -5  303.29    7.09
   0   1  -5  299.67    7.10
   1   0   5  317.33    7.10
  -1   0  -5  302.23    7.11
   1   0  -7   27.78    0.70
   0   1  -7   28.19    0.72
   0   1   7   28.00    0.71
   0  -1   7   29.09    0.71
  -1   0   7   28.82    0.70
  -1   0  -7   28.50    0.73
   1   0   7   26.74    0.71
   0   1  -9  145.74    3.25
  -1   0  -9  140.70    3.26
   0  -1   9  140.91    3.24
  -1   0   9  138.57    3.23
   0   1   9  135.00    3.23
   1   0   9  138.66    3.25
   0   1 -11  133.40    3.16
   1   0 -11  135.73    3.15
   0  -1  11  133.57    3.15
  -1   0  11  132.11    3.13
  -1   0 -11  131.81    3.17
   1   0  11  132.42    3.15
   0   1  11  133.23    3.14
   0   1  13   31.26    0.83
   0   1 -13   31.01    0.85
   0  -1  13   31.68    0.84
  -1   0  13   32.09    0.83
   1   0 -13   30.88    0.84
   1   0  13   31.82    0.84
  -1   0  15    0.40    0.12
   0   1  15    0.21    0.12
   0  -1  15    0.15    0.12
   0   1  15    0.30    0.20
   0   1 -15    0.34    0.15
   1   0  15    0.22    0.12
   0   1  17    2.65    0.28
  -1   0  17    3.03    0.21
   0   1 -17    2.77    0.23
   0   1  17    2.97    0.20
   1   0  17    2.88    0.21
   0  -1  17    3.04    0.21
  -1   0  19   23.69    0.69
   0   1  19   23.77    0.70
   0   1  19   23.09    0.80
  -1   0  19   22.19    0.82
   0  -1  19   24.21    0.71
   1   0  19   23.05    0.70
   1   0  21   18.65    0.60
  -1   0  21   17.96    0.73
   0   1  21   18.28    0.59
   0   1  21   16.37    0.66
   1   0  21   16.94    0.67
  -1   0  21   18.69    0.58
  -1   0 -23    2.06    0.28
  -1   0  23    2.03    0.36
   0  -1  23    1.79    0.33
   0   1  23    1.91    0.22
  -1   0  23    1.94    0.21
   1   0  23    1.82    0.24
   0   1  23    2.15    0.31
   0  -1  23    1.63    0.22
   1   0  23    1.79    0.30
   1   0  25   19.24    0.66
  -1   0  25   19.60    0.78
   0   1  25   19.37    0.73
   0   1 -25   20.35    0.76
   1   0  25   18.16    0.72
   0  -1  25   18.83    0.79
   0  -1  25   19.23    0.67
   0   1  25   19.22    0.65
  -1   0 -25   18.81    0.76
  -1   0  25   20.14    0.65
   0  -1 -25   18.94    0.77
   0  -1  25   19.29    0.66
   0  -1  27    4.55    0.31
  -1   0 -27    4.28    0.40
   0  -1 -27    4.72    0.41
  -1   0  27    4.44    0.31
   0   1 -27    3.80    0.37
   1   0 -27    4.31    0.38
   1   0  29    7.65    0.42
   1   0 -29    7.17    0.49
   0   1  29    6.81    0.40
  -1   0 -29    7.64    0.51
   0  -1 -29    7.27    0.51
   1  -1  28    0.13    0.20
  -1  -1 -28    0.21    0.27
   1   1 -28    0.22    0.25
  -1  -1 -26   -0.08    0.25
   1  -1  26    0.22    0.19
  -1   1  26   -0.24    0.26
   1  -1  26    0.30    0.28
   1  -1  26    0.06    0.20
  -1  -1 -24   26.63    0.93
   1  -1  24   24.89    0.93
   1  -1  24   27.58    0.83
  -1   1  24   24.62    0.90
  -1   1  24   26.73    0.79
   1  -1  22   13.94    0.52
   1  -1  22   14.37    0.64
  -1  -1 -22   14.63    0.61
  -1   1  22   13.99    0.62
  -1   1  22   14.73    0.50
  -1   1  20    1.97    0.19
   1  -1  20    1.89    0.21
  -1   1  20    1.38    0.28
   1  -1  18   15.80    0.53
  -1   1  18   15.83    0.51
  -1   1  18   15.74    0.63
   1  -1  16    0.17    0.13
  -1   1  16    0.20    0.12
  -1   1  16    0.20    0.21
   1   1 -16    0.35    0.15
  -1   1  14   15.36    0.45
   1   1 -14   15.04    0.48
  -1   1  14   14.24    0.57
   1  -1  14   14.76    0.47
   1  -1  12   14.60    0.45
   1   1 -12   14.92    0.45
  -1   1  12   14.14    0.52
  -1   1  12   14.69    0.43
   1  -1  10   70.46    1.69
  -1   1  10   67.52    1.66
   1   1 -10   69.95    1.68
  -1   1  10   71.29    1.77
  -1   1   8   37.51    0.98
  -1   1   8   35.86    0.90
   1  -1   8   36.80    0.92
   1   1  -8   37.38    0.91
  -1   1   6   64.38    1.51
  -1   1   6   64.71    1.58
   1   1  -6   62.82    1.51
   1  -1   6   64.51    1.53
   1  -1   4   25.13    0.65
  -1   1   4   28.11    0.69
   1   1  -4   27.57    0.64
  -1   1   4   25.50    0.63
   1  -1  -2   39.13    1.02
  -1  -1   2   44.51    1.00
  -1  -1   4   26.43    0.64
  -1  -1   6   52.49    1.26
  -1   1  -6   52.11    1.27
   1   1   6   53.42    1.27
  -1   1  -8   34.69    0.88
   1   1   8   33.99    0.87
  -1  -1   8   34.81    0.86
  -1  -1  10   71.56    1.71
  -1   1 -10   71.22    1.74
   1   1  10   70.47    1.72
   1   1  12   13.64    0.42
  -1   1 -12   13.22    0.43
  -1  -1  12   13.45    0.41
  -1  -1  14   15.23    0.46
  -1   1 -14   14.90    0.50
   1   1  14   15.36    0.48
  -1   1 -16    0.29    0.17
   1   1  16    0.20    0.13
   1   1  16    0.09    0.19
  -1  -1  16    0.38    0.14
   1   1  18   15.67    0.51
   1   1  18   14.63    0.58
  -1  -1  18   15.58    0.50
   1   1  20    1.55    0.26
   1   1  20    1.98    0.21
  -1  -1  20    1.99    0.20
  -1  -1  22   14.73    0.50
   1   1  22   13.95    0.56
  -1  -1  22   13.32    0.65
   1   1  22   13.62    0.50
  -1   1 -22   13.79    0.58
   1   1  24   26.51    0.80
  -1  -1  24   27.07    0.98
  -1   1 -24   24.97    0.88
  -1  -1  24   25.75    0.79
   1   1  24   23.91    0.84
  -1  -1  26    0.12    0.17
  -1  -1  26    0.02    0.30
  -1   1 -26   -0.10    0.25
  -1   1 -28    0.65    0.27
  -1  -1  28    0.17    0.20
   1  -1 -28    0.09    0.27
   1  -1 -30    8.32    0.56
  -2   0  -2   17.24    0.48
   2   0   2   18.48    0.45
   0  -2   2   18.73    0.45
   0   2   4   23.59    0.58
   2   0  -4   24.03    0.56
  -2   0   4   23.44    0.56
   0  -2   4   23.27    0.59
   0  -2   4   21.91    0.58
   2   0   4   24.41    0.60
  -2   0  -4   23.22    0.61
   0  -2  -4   23.67    0.59
  -2   0  -6  291.48    6.86
  -2   0   6  302.03    6.82
   0   2   6  279.47    6.85
   0  -2   6  300.33    6.84
   2   0  -6  302.85    6.82
  -2   0  -6  292.79    6.87
   0   2  -6  295.41    6.85
   2   0   6  294.79    6.85
   0  -2   8   29.25    0.77
  -2   0  -8   29.30    0.79
   0   2   8   30.71    0.79
   2   0  -8   30.96    0.74
   0   2   8   29.88    0.76
   2   0   8   29.34    0.77
  -2   0   8   29.42    0.74
   0   2  -8   30.44    0.77
  -2   0 -10   27.82    0.77
   2   0  10   28.83    0.75
   0  -2  10   28.32    0.74
  -2   0  10   26.35    0.71
   2   0 -10   28.81    0.72
   0   2  10   28.03    0.73
   0   2  10   27.34    0.77
   0   2 -10   27.97    0.74
   0   2  12   31.74    0.91
   0  -2  12   34.38    0.88
   2   0 -12   33.21    0.86
   0   2  12   33.38    0.86
   2   0  12   32.74    0.88
  -2   0  12   33.05    0.85
   0   2 -12   33.62    0.88
   0   2 -14   12.33    0.43
   2   0 -14   12.22    0.41
   0   2  14   12.93    0.41
   0  -2  14   12.51    0.42
   2   0  14   12.60    0.42
  -2   0  14   13.13    0.40
   0   2  14   12.99    0.48
   0   2  16    1.76    0.17
  -2   0  16    1.77    0.30
  -2   0  16    2.01    0.16
   0  -2  16    1.78    0.18
   2   0  16    1.88    0.19
   0   2 -16    1.85    0.20
   0   2  16    1.88    0.23
   0   2 -18   10.68    0.43
   2   0  18   10.23    0.41
  -2   0  18   10.58    0.38
  -2   0  18    9.67    0.53
   0   2  18   10.04    0.46
   0  -2  18   11.44    0.41
   0   2  18   10.86    0.39
  -2   0 -18   10.65    0.46
  -2   0  20    6.28    0.30
   2   0  20    6.34    0.38
  -2   0 -20    6.02    0.38
   0  -2  20    6.58    0.32
   0   2  20    6.31    0.37
  -2   0  20    6.09    0.46
  -2   0  22    2.44    0.20
  -2   0  22    2.67    0.37
   0  -2  22    2.34    0.23
  -2   0 -22    2.17    0.28
   0   2  22    2.66    0.22
   0   2  22    2.01    0.26
   0  -2  22    2.20    0.23
   2   0  22    2.41    0.29
   2   0  22    2.90    0.25
   0  -2  24   10.70    0.46
   0   2  24   12.29    0.45
  -2   0  24   10.61    0.42
   0  -2  24   10.23    0.59
  -2   0 -24   10.51    0.54
  -2   0  24   10.38    0.59
   0   2  24   10.49    0.49
   0   2 -24   10.30    0.50
   2   0  24   10.10    0.49
   2   0  24   10.71    0.46
   0  -2 -26    0.15    0.26
   0  -2  26    0.01    0.19
   2   0  26    0.13    0.22
  -2   0  26   -0.06    0.29
   0   2 -26   -0.11    0.24
  -2   0 -26    0.39    0.27
   0  -2  26    0.02    0.32
  -2   0  26   -0.01    0.17
   0  -2  28   -0.21    0.19
   2   0  28    0.03    0.20
   0  -2 -28    0.16    0.27
  -2   0 -28   -0.09    0.26
   0   2 -28    0.06    0.26
   0  -2 -30    3.89    0.44
   1  -2  29    2.38    0.27
  -1  -2 -29    2.44    0.38
  -2  -1 -29    2.08    0.35
  -2  -1 -27    0.72    0.28
  -1  -2 -27    0.32    0.26
   2  -1  27    0.38    0.21
   1  -2  27    0.43    0.21
   1   2 -27    0.46    0.25
  -2  -1 -25    4.46    0.40
   2  -1  25    4.78    0.33
  -1  -2 -25    3.56    0.38
  -1   2  25    4.28    0.34
   2  -1  25    4.39    0.39
   1  -2  25    5.07    0.44
  -2   1  25    4.19    0.39
   1  -2  25    3.95    0.31
   1  -2  25    4.35    0.32
   1  -2  23    1.06    0.21
  -2   1  23    0.95    0.29
   2  -1  23    1.08    0.28
  -1  -2 -23    1.27    0.27
  -2  -1 -23    0.84    0.27
   1  -2  23    1.16    0.20
  -1   2  23    0.75    0.25
  -2   1  23    1.55    0.18
  -1   2  23    1.47    0.19
   2  -1  23    1.50    0.22
  -1   2  21    2.41    0.20
  -2   1  21    2.04    0.19
   1  -2  21    1.61    0.21
  -2   1  21    1.91    0.33
  -1   2  21    2.21    0.28
  -2  -1 -21    2.19    0.29
   2  -1  21    2.23    0.22
   2  -1  19   16.26    0.55
  -1   2  19   16.40    0.63
   1  -2  19   15.84    0.54
  -1   2  19   15.75    0.51
  -2   1  19   14.26    0.65
  -2  -1 -19   15.34    0.61
  -2   1  19   16.55    0.51
   1   2 -19   15.80    0.55
   2  -1  17    4.31    0.26
   1   2 -17    3.84    0.25
  -2   1  17    3.91    0.35
  -1   2  17    4.18    0.22
   1  -2  17    4.12    0.25
  -2   1  17    3.94    0.21
  -1   2  17    3.89    0.31
   2   1 -17    4.32    0.25
   1   2 -15   34.92    0.97
   2  -1  15   36.44    0.98
  -1   2  15   34.29    1.04
   2   1 -15   35.95    0.96
  -2   1  15   36.48    1.09
  -2   1  15   35.96    0.93
   1  -2  15   37.54    0.98
  -1   2  15   36.88    0.94
  -1   2  13   13.14    0.39
   2  -1  13   13.03    0.43
  -2   1  13   13.17    0.39
  -2   1  13   13.17    0.53
   2   1 -13   12.61    0.41
   1  -2  13   12.87    0.42
  -1   2  13   12.83    0.49
   1   2 -13   12.71    0.42
  -1   2  11   37.15    0.93
   1   2 -11   37.63    0.96
   2   1 -11   37.34    0.94
   2  -1  11   37.59    0.97
  -2   1  11   36.36    0.92
  -1   2  11   37.03    1.02
   1  -2  11   37.26    0.96
  -2   1  11   36.29    1.05
   2  -1   9   78.58    1.94
  -2   1   9   78.02    2.02
  -1   2   9   79.50    1.91
   1  -2   9   81.48    1.94
   2   1  -9   80.72    1.91
  -2   1   9   81.10    1.90
   1   2  -9   82.16    1.93
  -1   2   9   81.73    1.99
   1  -2   7   26.89    0.68
   1   2  -7   26.30    0.66
  -1   2   7   26.44    0.65
   2   1  -7   25.37    0.65
  -2   1   7   26.12    0.75
  -2   1   7   26.20    0.64
   2  -1   7   25.85    0.68
  -1   2   7   25.06    0.71
  -2   1   5   78.25    1.96
   1   2  -5   81.47    1.89
  -2  -1  -5   81.10    1.93
   1  -2   5   82.98    1.90
   2   1  -5   81.63    1.88
  -2   1   5   81.84    1.86
   1  -2   5   79.05    1.90
  -1   2   5   80.80    1.92
  -1   2   3   28.34    0.67
   1  -2   3   26.83    0.66
   1   2  -3   28.23    0.65
   2  -1   3   27.13    0.67
   2   1  -3   28.29    0.65
   1   2  -1   76.92    1.82
  -2   1   1   81.34    1.80
  -1  -2   1   73.50    1.68
   2  -1  -1   71.68    1.65
  -2   1  -1   69.76    1.66
  -1  -2   3   30.28    0.71
   2  -1  -3   26.97    0.76
   1  -2  -3   29.46    0.73
  -1  -2   3   28.93    0.70
  -2   1  -3   29.72    0.73
   1  -2  -5   75.37    1.81
   2   1   5   78.16    1.79
  -2   1  -5   72.03    1.79
  -2  -1   5   80.02    1.76
  -1  -2   5   66.87    1.76
  -1  -2   5   80.64    1.77
   1   2   5   73.68    1.75
  -1   2  -7   24.32    0.62
   1   2   7   22.47    0.60
   1   2   7   22.59    0.61
  -2  -1   7   23.52    0.59
  -2   1  -7   24.27    0.63
   2   1   7   23.93    0.62
  -1  -2   7   24.57    0.60
  -2   1  -7   23.98    0.63
  -1  -2   7   23.55    0.60
   2   1   9   78.62    1.91
   1   2   9   79.69    1.90
  -1  -2   9   79.66    1.89
  -2  -1   9   76.53    1.88
  -2   1  -9   80.54    1.92
   1   2   9   76.06    1.90
  -1   2  -9   81.77    1.91
  -2   1  -9   81.36    1.92
   1   2  11   38.31    1.01
  -2   1 -11   39.58    1.02
  -2  -1  11   39.48    0.97
   2   1  11   38.48    1.00
   1   2  11   38.20    0.99
  -1   2 -11   38.83    1.01
  -1  -2  11   38.49    0.98
  -1   2 -13   12.11    0.42
  -2  -1  13   12.63    0.39
  -1  -2  13   12.62    0.40
   1   2  13   11.81    0.40
   2   1  13   12.79    0.41
  -2   1 -13   11.89    0.43
   1   2  13   13.45    0.44
   1   2  15   37.59    0.98
   1   2  15   36.26    1.01
  -1   2 -15   36.05    1.01
  -1  -2  15   37.68    0.97
  -2  -1  15   36.29    0.95
  -2   1 -15   36.70    1.02
   2   1  15   37.56    0.99
  -2   1 -15   34.18    1.01
  -1   2 -17    4.21    0.27
  -2   1 -17    4.51    0.27
   1   2  17    4.41    0.24
   2   1  17    4.43    0.25
   1   2  17    3.89    0.28
  -1  -2  17    4.03    0.24
   2   1  17    3.87    0.28
  -2  -1  17    4.04    0.22
   2   1  19   14.49    0.55
  -2   1 -19   15.04    0.57
   2   1  19   14.96    0.52
   1   2  19   14.92    0.51
   1   2  19   14.31    0.54
  -2  -1  19   15.02    0.49
  -1  -2  19   14.99    0.51
  -1   2 -19   15.12    0.55
  -1   2 -21    1.68    0.24
  -1  -2  21    2.07    0.21
   1   2  21    2.24    0.24
  -2  -1  21    1.73    0.19
   2   1  21    2.24    0.25
   1   2  21    2.00    0.20
  -1  -2  21    2.01    0.21
  -2   1 -21    1.48    0.25
  -2  -1  21    1.99    0.35
   2   1  21    1.98    0.21
  -1   2 -23    1.57    0.25
  -1  -2  23    1.22    0.20
  -1  -2  23    1.43    0.36
  -2   1 -23    1.83    0.28
  -2  -1  23    1.26    0.36
  -2  -1  23    0.90    0.18
  -2  -1  23    1.23    0.18
   1   2  23    1.11    0.19
   1   2  23    1.13    0.22
   2   1  23    1.12    0.19
   2   1  23    0.72    0.22
   2   1  25    4.27    0.31
  -1   2 -25    5.19    0.38
  -1  -2  25    4.33    0.44
  -2  -1  25    4.78    0.45
  -2  -1  25    4.50    0.29
   1   2  25    4.93    0.31
  -1  -2  25    5.71    0.32
  -2   1 -25    3.96    0.37
   1   2  25    3.93    0.29
  -1  -2  25    4.97    0.31
  -1  -2  27    0.38    0.33
  -1  -2  27    0.38    0.17
  -2   1 -27    0.69    0.28
  -1   2 -27    0.52    0.25
  -2  -1  27    0.28    0.31
   2  -1 -29    2.60    0.35
   1  -2 -29    1.69    0.36
  -2  -2 -30    0.40    0.34
   2   2 -28    1.00    0.27
   2  -2  28    1.22    0.24
  -2  -2 -28    1.13    0.31
   2  -2  26    0.22    0.21
   2  -2  26    0.60    0.30
  -2  -2 -26    0.88    0.28
  -2   2  26    0.72    0.25
  -2   2  24    1.70    0.19
  -2  -2 -24    1.57    0.31
  -2   2  24    2.07    0.30
   2  -2  24    1.59    0.24
  -2  -2 -22   11.65    0.56
  -2   2  22   12.44    0.57
  -2   2  22   13.19    0.44
   2  -2  22   12.30    0.49
   2  -2  20   21.16    0.67
   2   2 -20   20.14    0.67
  -2   2  20   21.77    0.62
  -2  -2 -20   20.17    0.75
  -2   2  20   19.33    0.75
  -2   2  18   11.70    0.55
   2   2 -18   11.69    0.45
   2  -2  18   12.89    0.46
  -2   2  18   12.69    0.41
  -2   2  16    9.97    0.47
   2   2 -16   10.96    0.39
   2  -2  16   10.07    0.40
  -2   2  16   10.34    0.35
   2  -2  14   56.08    1.42
  -2   2  14   53.36    1.51
   2   2 -14   56.59    1.40
  -2   2  14   55.72    1.37
  -2   2  12   85.19    2.01
   2   2 -12   82.12    2.03
  -2   2  12   83.28    2.13
   2  -2  12   85.42    2.06
   2   2 -10  130.57    3.06
  -2   2  10  130.11    3.15
   2  -2  10  130.51    3.08
  -2   2  10  128.90    3.04
  -2   2   8   65.91    1.60
  -2   2   8   63.29    1.49
   2   2  -8   61.05    1.51
   2  -2   8   63.03    1.53
   2   2  -6   52.59    1.23
   2  -2   6   49.73    1.25
  -2  -2  -6   50.54    1.29
  -2   2   6   51.61    1.21
  -2   2   6   52.50    1.30
  -2   2   4   37.97    0.95
   2   2  -4   35.54    0.90
   2   2  -4   38.07    0.88
   2  -2   4   38.27    0.90
   2   2  -2   68.04    1.66
  -2   2   2   66.78    1.59
   2  -2   2   68.73    1.62
   2   2  -2   69.19    1.58
   2  -2   0   25.15    0.61
  -2   2   0   24.76    0.62
   2   2   0   23.51    0.65
   2  -2  -2   59.10    1.42
   2  -2  -4   35.06    0.87
  -2   2  -4   34.56    0.83
  -2  -2   4   33.10    0.80
  -2  -2   6   48.67    1.13
   2  -2  -6   47.95    1.22
  -2  -2   6   49.41    1.14
   2   2   8   60.81    1.48
  -2   2  -8   61.90    1.49
  -2  -2   8   61.92    1.45
  -2  -2   8   59.61    1.46
   2   2   8   58.81    1.44
  -2   2  -8   62.41    1.48
   2   2  10  132.05    3.11
  -2   2 -10  134.30    3.13
  -2  -2  10  133.25    3.08
   2   2  10  126.18    3.08
  -2   2 -10  131.50    3.12
   2   2  12   77.84    1.89
  -2  -2  12   78.94    1.88
   2   2  12   77.65    1.90
  -2   2 -12   77.72    1.92
  -2   2 -12   77.12    1.93
  -2  -2  14   53.53    1.35
  -2   2 -14   55.63    1.41
   2   2  14   54.07    1.37
   2   2  14   54.06    1.37
  -2   2 -14   52.05    1.39
  -2   2 -16    9.82    0.40
  -2   2 -16    9.74    0.40
   2   2  16    9.25    0.37
   2   2  16   10.00    0.37
  -2  -2  16    9.56    0.35
   2   2  18   11.46    0.42
   2   2  18   10.22    0.41
  -2   2 -18   11.46    0.46
  -2   2 -18   10.88    0.45
  -2  -2  18   11.39    0.40
   2   2  20   19.10    0.62
  -2  -2  20   19.18    0.61
  -2   2 -20   19.22    0.68
   2   2  20   19.87    0.63
  -2  -2  20   20.36    0.62
  -2   2 -22   11.93    0.52
  -2  -2  22   11.42    0.62
   2   2  22   11.78    0.44
  -2  -2  22   11.32    0.44
  -2  -2  24    1.64    0.20
  -2  -2  24    1.80    0.21
  -2  -2  24    1.95    0.37
   2   2  24    1.97    0.22
   2   2  24    1.32    0.19
  -2   2 -24    2.31    0.29
  -2  -2  26    0.78    0.36
  -2  -2  26    0.74    0.19
  -2   2 -26    0.74    0.26
   2  -2 -30    0.37    0.32
  -3   0  -1   17.88    0.45
   3   0   1   18.42    0.46
   0  -3   1   17.62    0.42
   0  -3   3  292.97    6.90
   3   0   3  297.02    6.93
  -3   0  -3  306.00    6.95
   3   0   3  300.97    6.89
   0   3  -3  302.71    6.90
   0   3  -5   73.76    1.85
  -3   0  -5   78.18    1.89
  -3   0   5   79.12    1.81
   3   0  -5   75.84    1.81
   0  -3  -5   75.40    1.85
   3   0   5   79.86    1.87
   0   3   5   77.47    1.84
   0  -3   5   81.08    1.85
   0   3  -5   80.57    1.85
   0  -3   5   82.58    1.85
   0  -3   7    4.82    0.19
  -3   0  -7    5.28    0.23
   0   3  -7    5.05    0.19
   3   0  -7    4.53    0.15
   0   3   7    4.62    0.19
   3   0   7    4.67    0.21
  -3   0   7    4.70    0.15
   0  -3   7    4.99    0.19
  -3   0  -9   25.17    0.71
   0   3   9   25.17    0.66
   0   3   9   25.06    0.67
   3   0   9   24.80    0.68
   0  -3   9   25.12    0.67
   0   3  -9   24.51    0.67
  -3   0   9   25.32    0.63
   3   0  -9   24.72    0.63
   0  -3   9   25.19    0.66
   3   0  11    0.48    0.12
   0  -3  11    0.54    0.11
   0  -3  11    0.68    0.11
   3   0 -11    0.55    0.08
   0   3  11    0.72    0.13
  -3   0  11    0.56    0.09
   0   3  11    0.74    0.11
  -3   0 -11    0.56    0.13
   0   3 -11    0.85    0.12
  -3   0 -13    0.39    0.15
   0  -3  13    0.35    0.12
   3   0  13    0.06    0.14
   3   0 -13    0.36    0.11
   0   3 -13    0.33    0.14
   0  -3  13    0.05    0.13
  -3   0  13    0.14    0.10
   0   3  13    0.05    0.12
   0   3  13    0.34    0.14
   0  -3  15    6.71    0.29
  -3   0 -15    5.82    0.32
   0   3  15    6.26    0.27
   3   0  15    6.08    0.29
  -3   0  15    6.45    0.25
   0  -3  15    6.66    0.29
   0   3 -15    6.14    0.29
   0   3  15    5.69    0.30
  -3   0  15    5.99    0.43
   3   0 -15    5.88    0.26
  -3   0 -17    1.73    0.24
   0   3  17    1.27    0.21
  -3   0  17    1.74    0.28
   0   3  17    1.87    0.17
   0   3 -17    1.77    0.20
   3   0  17    2.03    0.20
  -3   0  17    1.89    0.16
   0  -3  17    1.60    0.19
   0  -3  17    1.86    0.20
   0   3 -19   15.17    0.55
   0  -3  19   15.37    0.53
   3   0  19   15.54    0.54
  -3   0 -19   15.50    0.61
   0   3  19   14.55    0.50
   0   3  19   14.26    0.54
   0  -3  19   15.16    0.52
  -3   0  19   15.84    0.49
  -3   0  19   14.77    0.68
   0  -3  21    1.01    0.20
   0   3 -21    1.29    0.24
  -3   0  21    0.93    0.16
   3   0  21    0.80    0.22
  -3   0 -21    0.94    0.25
   3   0  21    0.84    0.19
  -3   0  21    0.90    0.30
   0  -3  21    1.08    0.19
   0   3  21    0.87    0.17
   0   3  21    0.99    0.21
   0  -3  23   -0.02    0.16
  -3   0  23    0.04    0.15
  -3   0 -23   -0.13    0.23
   3   0  23    0.02    0.19
   0  -3  23   -0.05    0.17
   0   3 -23    0.01    0.20
  -3   0  23    0.04    0.30
   0   3  23   -0.14    0.19
   3   0  23   -0.05    0.21
   0   3  23    0.03    0.14
   0  -3  25    0.61    0.22
   0   3 -25    0.79    0.25
  -3   0  25    0.85    0.20
  -3   0  25    0.86    0.34
   0  -3  25    0.83    0.21
   3   0  25    0.76    0.23
  -3   0 -25    0.33    0.28
   0   3  25    0.83    0.20
   0  -3  27    0.04    0.18
   0  -3 -27    0.26    0.28
   0   3 -27    0.30    0.24
  -3   0 -27    0.07    0.26
  -3   0  27   -0.02    0.30
   0  -3  27    0.24    0.32
   0  -3 -29    1.13    0.34
   0  -3 -31    0.25    0.34
  -1  -3 -30    0.79    0.36
   3  -1  28   -0.08    0.22
  -1  -3 -28    0.23    0.29
   1  -3  28    0.28    0.21
  -3  -1 -28    0.44    0.29
   1  -3  26    0.45    0.34
  -1  -3 -26    0.21    0.28
  -3  -1 -26    0.27    0.30
   3  -1  26   -0.08    0.21
  -3   1  26    0.02    0.29
   1   3 -26    0.05    0.23
   1  -3  26    0.20    0.21
   1  -3  24   -0.07    0.19
  -1   3  24    0.28    0.16
   3  -1  24    0.03    0.25
   1  -3  24    0.18    0.19
  -3   1  24    0.25    0.30
  -3  -1 -24    0.27    0.26
  -1  -3 -24    0.33    0.27
  -1   3  24    0.22    0.21
  -3  -1 -22    4.41    0.37
   3  -1  22    4.32    0.29
   1  -3  22    4.36    0.29
  -3   1  22    4.08    0.39
  -3   1  22    4.10    0.24
   1  -3  22    4.42    0.29
   1   3 -22    4.44    0.30
  -1   3  22    3.51    0.31
  -1   3  22    4.55    0.26
   3  -1  20   14.80    0.54
   1  -3  20   15.24    0.54
   1  -3  20   15.94    0.55
  -1   3  20   15.22    0.50
  -3  -1 -20   14.62    0.62
  -1   3  20   14.38    0.57
  -3   1  20   14.88    0.48
  -3   1  20   15.26    0.67
   1   3 -20   15.09    0.55
  -3   1  18   12.72    0.40
  -3   1  18   11.70    0.58
  -1   3  18   13.01    0.42
   3   1 -18   11.72    0.43
   3  -1  18   11.87    0.46
  -1   3  18   12.46    0.50
  -3  -1 -18   11.27    0.52
   1  -3  18   11.37    0.45
   1  -3  18   12.34    0.46
   1   3 -18   12.15    0.46
  -1   3  16   11.83    0.39
  -1   3  16   11.12    0.46
  -3  -1 -16   11.90    0.49
   1   3 -16   11.80    0.43
  -3   1  16   11.70    0.37
  -3   1  16   11.77    0.56
   1  -3  16   11.24    0.42
   3  -1  16   11.37    0.42
   3   1 -16   11.73    0.40
   1  -3  16    9.88    0.42
   3  -1  14   20.39    0.63
  -3   1  14   22.08    0.75
   1   3 -14   20.91    0.62
  -1   3  14   19.90    0.66
   1  -3  14   21.03    0.62
   3   1 -14   20.94    0.59
  -3  -1 -14   21.14    0.69
  -3   1  14   21.37    0.57
  -1   3  14   20.65    0.58
   1  -3  12   34.78    0.92
   1   3 -12   34.72    0.90
   1  -3  12   35.24    0.92
  -3  -1 -12   33.77    0.97
  -3   1  12   33.38    0.85
   3  -1  12   34.78    0.92
  -1   3  12   34.56    0.88
   3   1 -12   34.19    0.88
  -1   3  12   33.00    0.95
  -3   1  12   34.07    1.03
   3   1 -10   73.57    1.73
  -1   3  10   74.14    1.80
  -3  -1 -10   72.43    1.82
  -1   3  10   69.74    1.73
   3  -1  10   72.48    1.77
  -3   1  10   72.06    1.71
  -3   1  10   69.81    1.87
   1  -3  10   74.60    1.77
   1   3 -10   72.24    1.76
   1  -3  10   73.28    1.77
  -3   1   8   33.82    0.96
   1   3  -8   34.61    0.85
  -3   1   8   33.32    0.81
   3   1  -8   33.14    0.82
  -1   3   8   33.90    0.88
  -1   3   8   32.98    0.83
   1  -3   8   34.98    0.87
   3  -1   8   34.31    0.87
   1  -3   8   33.28    0.87
  -3  -1  -8   33.40    0.91
   1  -3   6    3.99    0.17
  -3   1   6    4.25    0.24
   3  -1   6    3.77    0.17
   1   3  -6    4.48    0.17
  -3  -1  -6    4.24    0.21
   3   1  -6    3.18    0.14
  -1   3   6    4.58    0.18
  -3   1   6    3.79    0.11
  -1  -3  -6    3.69    0.15
   1  -3   6    4.47    0.18
  -3  -1  -4   48.86    1.22
   1   3  -4   48.44    1.15
   1  -3   4   50.53    1.17
  -1  -3  -4   48.19    1.14
   1   3  -4   49.23    1.16
   3   1  -4   50.24    1.14
   3  -1   4   49.89    1.19
  -3  -1  -2   70.28    1.64
   1   3  -2   69.67    1.64
   3  -1   2   72.10    1.65
   3  -1   2   68.05    1.69
  -3   1   2   69.87    1.62
   1   3  -2   69.07    1.64
  -3  -1   0   59.01    1.41
  -1   3   0   58.36    1.36
   3  -1   0   58.32    1.36
   3  -1   0   56.72    1.36
  -3   1   0   59.26    1.36
  -3   1   0   58.36    1.36
   1   3   0   57.63    1.37
  -1  -3   0   56.33    1.38
  -1  -3   2   69.52    1.63
  -3   1  -2   65.67    1.64
  -3   1  -2   64.25    1.69
   3  -1  -2   70.36    1.61
   3   1   2   73.36    1.65
  -1  -3   2   71.08    1.65
  -3   1  -4   52.20    1.27
  -1   3  -4   50.58    1.23
  -1  -3   4   53.41    1.23
   3   1   4   49.41    1.26
  -1  -3   4   50.62    1.22
   1  -3  -4   51.44    1.24
   3  -1  -4   51.91    1.31
  -1   3  -6    4.20    0.18
   3   1   6    4.32    0.19
  -1  -3   6    4.51    0.16
   1  -3  -6    4.95    0.21
  -3  -1   6    4.71    0.15
  -3   1  -6    4.87    0.20
   3  -1  -6    4.62    0.13
  -1  -3   6    4.77    0.18
   1   3   8   31.29    0.78
  -3   1  -8   33.04    0.85
  -1  -3   8   31.93    0.80
   3   1   8   33.81    0.83
  -1  -3   8   34.51    0.81
  -1   3  -8   33.34    0.82
  -3  -1   8   33.32    0.78
  -3   1  -8   30.36    0.84
  -3   1 -10   75.35    1.83
   1   3  10   73.82    1.80
  -3   1 -10   74.63    1.84
  -1  -3  10   73.71    1.79
  -1   3 -10   74.14    1.81
  -3  -1  10   73.81    1.77
   3   1  10   73.61    1.81
  -1  -3  10   75.10    1.80
   1   3  10   73.82    1.78
  -1   3 -12   35.76    0.96
  -1  -3  12   35.48    0.94
  -3   1 -12   35.91    0.99
   1   3  12   35.82    0.93
  -3   1 -12   35.95    0.98
   3   1  12   36.85    0.96
  -1  -3  12   36.60    0.93
   1   3  12   35.11    0.93
  -3  -1  12   35.81    0.91
   1   3  14   20.36    0.59
  -1   3 -14   20.29    0.62
   1   3  14   19.53    0.59
  -1  -3  14   19.90    0.59
  -1  -3  14   20.31    0.59
  -3  -1  14   20.75    0.57
  -3   1 -14   19.74    0.64
   3   1  14   21.31    0.62
  -3   1 -14   18.75    0.64
  -1  -3  16   11.32    0.40
  -1   3 -16   12.02    0.44
  -3   1 -16   10.98    0.46
   3   1  16   10.76    0.42
   1   3  16   10.49    0.40
  -3  -1  16   11.16    0.37
   1   3  16   12.18    0.41
  -1  -3  16   11.25    0.40
   1   3  18   12.67    0.45
  -1  -3  18   12.50    0.45
  -3  -1  18   12.81    0.42
   1   3  18   12.65    0.44
   3   1  18   12.24    0.45
  -3   1 -18   12.96    0.52
  -1   3 -18   12.19    0.49
   3   1  18   12.56    0.47
  -1  -3  18   12.71    0.45
  -1   3 -20   14.26    0.55
  -1  -3  20   14.48    0.51
  -1  -3  20   14.57    0.51
  -1   3 -20   14.13    0.54
   3   1  20   13.98    0.52
  -3  -1  20   14.69    0.69
   3   1  20   15.09    0.52
  -3  -1  20   14.91    0.49
  -3   1 -20   13.56    0.58
  -3  -1  22    4.21    0.25
  -3  -1  22    3.80    0.24
   1   3  22    3.99    0.26
   1   3  22    4.36    0.27
  -1   3 -22    4.31    0.32
  -3  -1  22    4.68    0.44
  -1  -3  22    4.40    0.27
  -1  -3  22    3.82    0.26
  -3   1 -22    3.96    0.34
   3   1  22    4.01    0.27
  -3   1 -24    0.17    0.23
  -3  -1  24   -0.03    0.16
   3   1  24    0.17    0.18
  -1  -3  24    0.03    0.16
   3   1  24    0.21    0.20
  -1  -3  24    0.02    0.18
   1   3  24    0.18    0.15
  -1   3 -24    0.17    0.21
  -3  -1  24    0.02    0.33
  -1  -3  26    0.01    0.17
  -3  -1  26    0.69    0.34
  -1   3 -26    0.02    0.23
  -3  -1  26    0.30    0.18
  -3   1 -26    0.06    0.25
  -1  -3  26    0.05    0.33
  -3   1 -28   -0.11    0.25
   1  -3 -28    0.44    0.29
   3   1  30    0.45    0.25
   1  -3 -30    0.52    0.32
  -2  -3 -29   -0.21    0.33
   3  -2  29   -0.13    0.21
  -3  -2 -29   -0.16    0.31
   3  -2  27    1.77    0.25
  -2  -3 -27    1.83    0.37
  -3  -2 -27    2.27    0.35
   3  -2  25   -0.02    0.27
   3  -2  25    0.19    0.21
  -2   3  25    0.20    0.24
  -3  -2 -25   -0.09    0.26
   2  -3  25    0.01    0.20
  -3   2  25    0.34    0.25
  -2  -3 -25    0.14    0.26
  -2   3  23    4.66    0.26
   3  -2  23    4.45    0.33
   2  -3  23    4.30    0.30
  -2  -3 -23    4.00    0.39
   2  -3  23    4.48    0.30
  -3   2  23    5.20    0.40
  -3  -2 -23    4.02    0.38
  -2   3  23    4.02    0.34
   3  -2  23    4.51    0.30
  -3   2  21   18.53    0.73
  -3   2  21   18.67    0.56
   2   3 -21   17.98    0.62
  -2   3  21   17.49    0.68
   3  -2  21   19.47    0.64
  -2  -3 -21   18.85    0.73
   2  -3  21   18.12    0.64
   2  -3  21   18.56    0.64
  -3  -2 -21   16.57    0.70
  -2   3  21   18.30    0.57
   3   2 -19    8.88    0.37
   2  -3  19    9.46    0.41
  -2   3  19    9.26    0.35
  -3   2  19   10.11    0.35
   3  -2  19    9.54    0.41
  -3  -2 -19    9.26    0.47
  -2   3  19    9.01    0.46
   2   3 -19    8.37    0.38
  -2  -3 -19    8.95    0.47
  -3   2  19    9.51    0.50
  -2   3  17   27.65    0.86
  -3   2  17   26.73    0.72
   3  -2  17   25.22    0.78
   2   3 -17   25.54    0.77
  -2   3  17   26.99    0.73
   2  -3  17   26.63    0.79
  -3  -2 -17   26.70    0.87
   2  -3  17   26.56    0.79
  -3   2  17   27.53    0.90
   3   2 -17   26.20    0.76
  -2   3  15   97.78    2.46
   2  -3  15   99.37    2.39
  -3   2  15   98.71    2.32
   3  -2  15   94.81    2.38
  -3   2  15   93.03    2.50
   3   2 -15   97.20    2.35
  -3  -2 -15   96.20    2.47
   2   3 -15   95.46    2.37
  -2   3  15   98.84    2.33
  -3   2  13   29.77    0.75
   2   3 -13   29.36    0.80
   3   2 -13   28.98    0.78
  -2   3  13   28.48    0.87
   3  -2  13   29.66    0.82
  -3   2  13   28.68    0.90
  -2   3  13   30.00    0.76
  -3  -2 -13   29.25    0.88
   2  -3  13   29.65    0.82
  -2   3  11   64.09    1.61
   3   2 -11   67.23    1.63
  -3  -2 -11   70.54    1.74
   2   3 -11   68.08    1.64
  -2   3  11   66.28    1.72
  -3   2  11   68.31    1.60
  -3   2  11   66.23    1.76
   2  -3  11   68.00    1.67
   3  -2  11   68.06    1.67
  -3   2   9  178.96    4.12
   3   2  -9  176.66    4.15
  -2   3   9  180.92    4.23
   2   3  -9  174.74    4.16
   2  -3   9  180.79    4.19
  -2   3   9  178.90    4.14
   2  -3   9  181.36    4.20
  -3   2   9  175.06    4.27
  -3  -2  -9  177.99    4.25
   3  -2   9  178.84    4.19
   2  -3   7   88.32    2.09
  -3   2   7   86.59    2.02
   2   3  -7   87.89    2.07
  -2   3   7   91.26    2.12
   3  -2   7   83.64    2.08
  -3  -2  -7   88.11    2.14
  -3   2   7   88.75    2.16
   2  -3   7   86.50    2.08
   3   2  -7   86.58    2.05
   3  -2   5    3.51    0.15
   2   3  -5    3.46    0.12
  -3  -2  -5    3.34    0.20
   2  -3   5    3.52    0.16
  -2   3   5    3.39    0.17
  -3   2   5    3.26    0.21
   2   3  -5    3.55    0.14
   3   2  -5    3.28    0.12
  -3   2   3  233.60    5.32
   2   3  -3  236.56    5.38
   2  -3   3  230.12    5.32
   3  -2   3  231.55    5.36
  -3  -2  -3  230.16    5.32
  -2   3   3  236.97    5.35
   3   2  -3  228.05    5.30
   2   3  -3  230.02    5.31
  -2   3   1   13.95    0.34
   3   2  -1   12.94    0.42
  -2   3   1   14.28    0.36
  -3   2   1   13.42    0.35
   3  -2   1   13.78    0.35
  -3   2   1   13.63    0.33
   2   3  -1   13.10    0.39
   2  -3   1   12.24    0.35
  -2  -3   1   11.94    0.36
   3  -2  -1   12.40    0.29
  -3   2  -1   11.35    0.32
   2   3   1   12.11    0.35
  -3   2  -1   11.43    0.31
   3  -2  -1   11.93    0.31
  -2   3  -1   11.32    0.31
  -3   2  -3  231.53    5.29
   2  -3  -3  229.52    5.26
   3  -2  -3  218.43    5.28
  -2  -3   3  226.26    5.22
  -3  -2   5    2.46    0.08
   3  -2  -5    2.67    0.20
  -2  -3   5    2.47    0.10
  -2  -3   5    2.54    0.12
  -2   3  -5    2.50    0.12
   2  -3  -5    2.43    0.16
  -3   2  -5    2.24    0.15
  -3  -2   7   86.27    2.02
  -2  -3   7   84.27    2.04
  -2  -3   7   85.85    2.02
  -3   2  -7   86.18    2.07
   2  -3  -7   84.53    2.10
  -3  -2   7   86.58    2.00
  -2   3  -7   85.63    2.03
  -3  -2   9  175.73    3.88
  -3   2  -9  176.16    3.93
  -3   2  -9  177.03    3.93
  -2  -3   9  179.85    3.89
  -2   3  -9  174.77    3.90
   3   2   9  173.80    3.92
  -3  -2   9  173.22    3.86
  -2   3  -9  177.55    3.93
  -2  -3   9  176.13    3.88
  -3  -2  11   64.04    1.54
  -2  -3  11   68.45    1.58
  -3  -2  11   66.32    1.56
   2   3  11   61.88    1.53
   3   2  11   65.94    1.60
  -2   3 -11   64.66    1.61
  -3   2 -11   65.08    1.62
   2   3  11   64.82    1.59
   3   2  11   59.24    1.54
  -2   3 -11   65.61    1.59
  -3   2 -11   64.77    1.61
  -2  -3  11   65.51    1.56
  -3  -2  13   29.84    0.76
  -3   2 -13   28.58    0.82
   3   2  13   28.52    0.80
   2   3  13   29.35    0.79
  -2   3 -13   28.13    0.81
  -2  -3  13   29.24    0.77
   3   2  13   28.92    0.76
   2   3  13   27.31    0.74
  -3   2 -13   29.42    0.83
  -2  -3  13   29.15    0.78
  -2   3 -13   28.13    0.79
   3   2  15   95.23    2.27
  -2  -3  15   91.57    2.23
  -2   3 -15   92.12    2.29
  -3  -2  15   95.21    2.23
   3   2  15   89.20    2.22
  -3   2 -15   91.83    2.29
   2   3  15   88.83    2.21
  -2   3 -15   90.08    2.27
  -2  -3  15   94.96    2.24
  -3   2 -15   92.84    2.30
   2   3  15   91.21    2.25
   3   2  17   26.73    0.78
  -3  -2  17   27.17    0.74
  -2  -3  17   27.52    0.75
  -2  -3  17   26.78    0.76
   3   2  17   25.63    0.74
   2   3  17   26.58    0.77
  -2   3 -17   27.43    0.81
  -2   3 -17   25.50    0.79
  -3  -2  17   27.02    0.74
   2   3  17   25.82    0.73
  -3   2 -17   26.56    0.82
  -3   2 -17   25.78    0.81
   2   3  19    8.74    0.37
   3   2  19    9.00    0.37
  -2  -3  19    8.12    0.35
   3   2  19    8.19    0.33
  -3  -2  19    8.78    0.34
  -3   2 -19    8.10    0.41
  -2   3 -19    8.11    0.40
  -2   3 -19    8.14    0.39
   2   3  19    8.40    0.33
  -2  -3  19    8.70    0.36
  -3  -2  21   18.15    0.57
  -2  -3  21   18.41    0.59
  -3  -2  21   18.57    0.57
   2   3  21   18.76    0.60
   3   2  21   17.81    0.60
  -3   2 -21   17.28    0.66
   2   3  21   16.70    0.54
  -2   3 -21   17.35    0.64
  -2  -3  21   18.51    0.58
   3   2  21   16.12    0.54
  -2   3 -23    3.70    0.30
  -2  -3  23    4.09    0.27
  -3  -2  23    3.79    0.44
  -3  -2  23    4.19    0.25
  -3  -2  23    4.26    0.25
   2   3  23    3.75    0.21
  -3   2 -23    3.97    0.34
   3   2  23    4.06    0.28
   3   2  23    3.29    0.21
   2   3  23    4.41    0.27
  -2  -3  23    4.30    0.27
  -3   2 -25    0.45    0.24
  -3  -2  25    0.14    0.16
  -2  -3  25    0.26    0.35
  -2   3 -25    0.38    0.23
  -2  -3  25    0.10    0.17
   2   3  25    0.04    0.17
  -3  -2  25   -0.05    0.33
   3   2  25    0.01    0.19
  -2  -3  25    0.18    0.17
  -3   2 -27    1.65    0.30
  -2   3 -27    2.05    0.31
  -2  -3  27    1.94    0.39
  -2  -3  27    1.81    0.23
  -3  -2  27    1.66    0.37
   2  -3 -31    0.62    0.37
  -3  -3 -30    2.60    0.41
   3  -3  28    1.97    0.26
  -3  -3 -28    1.46    0.35
  -3   3  26    2.27    0.30
  -3  -3 -26    2.43    0.36
   3  -3  26    2.42    0.28
  -3   3  24    8.24    0.47
  -3  -3 -24    7.81    0.51
   3  -3  24    7.93    0.41
   3  -3  24    8.28    0.41
  -3   3  22    3.62    0.22
   3   3 -22    3.30    0.27
  -3   3  22    3.67    0.35
  -3  -3 -22    3.04    0.34
  -3   3  20   20.59    0.77
   3   3 -20   20.12    0.66
  -3   3  20   21.18    0.61
  -3  -3 -20   21.26    0.79
   3  -3  20   21.39    0.71
   3  -3  20   22.35    0.70
  -3  -3 -18   83.53    2.24
   3  -3  18   87.63    2.15
   3   3 -18   84.37    2.12
  -3   3  18   82.05    2.22
   3  -3  18   86.63    2.16
  -3   3  18   85.10    2.06
   3   3 -16    6.30    0.29
  -3  -3 -16    5.69    0.35
  -3   3  16    6.34    0.38
   3  -3  16    6.22    0.31
  -3   3  16    6.43    0.24
  -3   3  14   55.02    1.52
   3  -3  14   55.84    1.43
  -3   3  14   56.72    1.36
  -3  -3 -14   54.67    1.51
   3   3 -14   55.45    1.40
  -3   3  12  224.86    5.45
   3   3 -12  228.46    5.34
   3  -3  12  233.18    5.37
  -3  -3 -12  226.30    5.45
  -3   3  12  228.68    5.30
  -3  -3 -10  113.66    2.78
   3   3 -10  112.27    2.68
   3  -3  10  113.45    2.71
  -3   3  10  116.01    2.78
  -3   3  10  112.69    2.64
  -3  -3  -8   19.58    0.59
   3   3  -8   18.47    0.50
   3  -3   8   18.04    0.53
  -3   3   8   18.26    0.46
   3  -3   8   18.15    0.53
  -3   3   8   19.35    0.58
  -3   3   6  264.45    6.02
   3  -3   6  259.75    5.95
   3  -3   6  261.72    5.98
   3   3  -6  260.25    5.95
  -3   3   4  165.89    3.90
   3   3  -4  165.42    3.83
   3  -3   4  167.31    3.86
   3  -3   2   12.75    0.37
   3   3  -2   13.57    0.43
  -3   3   2   13.96    0.34
  -3   3   2   13.62    0.36
   3  -3   0    7.97    0.22
  -3  -3   0    7.78    0.29
   3  -3   0    7.17    0.23
  -3   3   0    7.93    0.23
  -3   3   0    7.14    0.22
   3   3   0    8.08    0.28
  -3   3  -2   13.04    0.34
  -3  -3   2   12.37    0.42
   3  -3  -2   11.87    0.30
   3  -3  -4  159.94    3.82
  -3   3  -4  163.70    3.80
  -3  -3   6  257.70    5.62
   3  -3  -6  253.39    5.73
  -3   3  -8   19.17    0.55
   3  -3  -8   20.28    0.63
  -3  -3   8   19.74    0.53
  -3  -3   8   19.78    0.50
  -3   3 -10  109.19    2.68
  -3  -3  10  113.70    2.66
  -3  -3  10  111.56    2.63
  -3   3 -10  112.93    2.70
   3   3  10  113.67    2.69
  -3  -3  12  240.39    5.04
   3   3  12  231.66    5.07
  -3   3 -12  233.15    5.08
  -3   3 -12  231.10    5.10
  -3  -3  12  226.69    5.01
  -3   3 -14   52.13    1.29
  -3  -3  14   53.29    1.25
   3   3  14   52.58    1.28
  -3   3 -14   53.40    1.32
  -3  -3  14   52.49    1.23
  -3  -3  16    6.63    0.27
   3   3  16    6.91    0.31
  -3   3 -16    7.02    0.35
  -3  -3  16    7.19    0.29
  -3   3 -16    6.94    0.33
   3   3  16    6.14    0.23
  -3   3 -18   86.54    2.20
  -3  -3  18   92.65    2.13
  -3  -3  18   88.70    2.12
  -3   3 -18   86.12    2.21
   3   3  18   90.03    2.16
  -3   3 -20   21.96    0.71
   3   3  20   17.58    0.54
   3   3  20   20.76    0.65
  -3  -3  20   19.07    0.60
  -3   3 -20   20.32    0.69
  -3  -3  20   21.62    0.63
  -3   3 -22    4.20    0.33
  -3  -3  22    3.74    0.24
   3   3  22    2.84    0.15
  -3  -3  22    3.18    0.22
  -3  -3  24    8.04    0.36
  -3  -3  24    9.10    0.38
  -3   3 -24    8.91    0.47
   3   3  24    8.59    0.40
  -3  -3  24    8.97    0.60
  -3  -3  26    2.07    0.42
   3   3  26    2.04    0.25
  -3  -3  26    2.83    0.24
  -3   3 -26    2.11    0.30
  -3  -3  28    1.72    0.38
  -4   0   0    2.84    0.16
   4   0   0    2.54    0.17
   4   0   2    0.10    0.14
  -4   0  -2    0.21    0.14
   4   0   2    0.28    0.09
   0   4  -2    0.11    0.08
   4   0   2    0.17    0.09
   0  -4   2    0.11    0.05
   4   0  -2    0.14    0.04
  -4   0  -2    0.14    0.06
   0  -4   2    0.12    0.07
   0  -4   4    0.12    0.09
   0  -4   4    0.54    0.08
   4   0   4    0.21    0.07
   0  -4  -4    0.35    0.07
   0   4  -4    0.23    0.07
   4   0   4    0.16    0.11
  -4   0  -4    0.21    0.13
   0  -4   6   71.07    1.66
  -4   0  -6   72.81    1.73
   0   4  -6   70.79    1.67
  -4   0   6   65.67    1.77
   0  -4  -6   69.50    1.66
   4   0  -6   67.84    1.61
   4   0   6   68.19    1.70
   0  -4   6   71.02    1.67
   0   4  -6   68.63    1.66
   0  -4  -8    1.58    0.15
   4   0   8    1.64    0.14
  -4   0  -8    2.08    0.18
  -4   0   8    1.62    0.08
   0   4  -8    1.79    0.14
   0  -4   8    1.51    0.12
   0   4   8    1.77    0.12
   0  -4   8    1.51    0.14
   4   0  -8    1.66    0.09
  -4   0   8    1.45    0.22
   0  -4  10    2.14    0.15
  -4   0  10    2.13    0.10
   0  -4  10    1.72    0.14
   0   4  10    2.20    0.14
   4   0 -10    2.27    0.11
   0   4 -10    1.90    0.14
   4   0  10    2.32    0.17
  -4   0 -10    2.32    0.19
  -4   0  10    2.41    0.26
   0   4  12    3.96    0.20
  -4   0  12    3.62    0.16
   4   0  12    3.62    0.22
   0  -4  12    3.63    0.19
  -4   0  12    3.92    0.31
   0  -4  12    4.01    0.21
   0   4  12    4.11    0.20
  -4   0 -12    4.07    0.26
   0   4 -12    3.86    0.20
   4   0 -12    3.63    0.17
  -4   0 -14    0.07    0.17
   4   0  14    0.29    0.16
   4   0 -14    0.30    0.12
   0   4  14    0.23    0.14
  -4   0  14    0.28    0.11
   0  -4  14    0.31    0.15
  -4   0  14    0.30    0.24
   0   4  14    0.23    0.14
   0  -4  14    0.15    0.14
   0   4 -14    0.16    0.16
  -4   0 -16    0.30    0.19
   0   4  16    0.53    0.15
   0   4 -16    0.54    0.16
   0   4  16    0.57    0.14
   0  -4  16    0.71    0.16
  -4   0  16    0.43    0.29
  -4   0  16    0.72    0.12
   4   0  16    0.68    0.16
   0  -4  16    0.61    0.15
  -4   0  18    8.78    0.32
   4   0  18    8.16    0.37
   0  -4  18    7.98    0.35
   0   4  18    7.48    0.34
  -4   0 -18    8.93    0.44
  -4   0  18    8.74    0.52
   0   4 -18    8.87    0.38
   0   4  18    8.37    0.33
   0  -4  18    8.55    0.36
  -4   0  20    4.05    0.43
   0  -4  20    3.44    0.26
  -4   0  20    3.79    0.22
   0   4  20    3.27    0.24
   0   4  20    3.74    0.25
   0   4 -20    4.01    0.30
  -4   0 -20    3.79    0.35
   0  -4  20    3.68    0.27
   4   0  20    4.04    0.28
   4   0  22   -0.19    0.19
   0   4  22    0.39    0.16
  -4   0 -22   -0.07    0.22
   0   4  22   -0.01    0.14
   0  -4  22    0.24    0.18
  -4   0  22    0.13    0.14
  -4   0  22    0.07    0.31
   0   4 -22    0.03    0.18
   0  -4  22    0.01    0.18
   4   0  22    0.06    0.17
   0   4 -22    0.20    0.20
   0   4  24    8.11    0.36
  -4   0 -24    8.00    0.50
  -4   0  24    8.82    0.36
   4   0  24    9.06    0.43
   0  -4  24    9.65    0.42
  -4   0  24    9.65    0.58
   4   0  24    8.54    0.40
   0   4 -24    8.76    0.43
   0  -4  24    9.74    0.42
   0  -4  26    0.92    0.23
  -4   0 -26    0.74    0.30
   0   4 -26    0.83    0.25
   0  -4  26    0.77    0.25
   0  -4 -26    0.63    0.30
  -4   0  26    0.89    0.33
   0  -4 -28    0.54    0.30
  -4   0 -28    0.61    0.30
   0  -4 -30    1.11    0.33
   4   0  30    1.35    0.28
  -4  -1 -29    0.64    0.31
  -1  -4 -29    0.33    0.30
   4  -1  29    0.11    0.26
  -4  -1 -27    0.97    0.32
  -4   1  27    1.21    0.33
   4  -1  27    0.70    0.24
  -1  -4 -27    1.02    0.32
   1  -4  25    0.20    0.20
  -4   1  25    0.49    0.32
  -1  -4 -25    0.23    0.28
  -1   4  25    0.13    0.19
  -4  -1 -25   -0.07    0.29
   1   4 -25    0.03    0.22
   1  -4  25    0.08    0.20
  -4   1  23    1.14    0.16
   1   4 -23    1.37    0.22
  -4   1  23    1.39    0.32
  -1  -4 -23    1.19    0.26
  -1   4  23    0.90    0.20
   4  -1  23    1.39    0.22
  -4  -1 -23    0.96    0.28
   1  -4  23    0.90    0.19
   1  -4  23    1.06    0.22
   1  -4  21    1.36    0.22
  -1   4  21    1.77    0.18
  -1   4  21    1.85    0.23
   1   4 -21    1.79    0.24
   1  -4  21    1.56    0.22
  -4   1  21    1.88    0.35
   4  -1  21    2.10    0.24
  -4  -1 -21    1.57    0.29
  -4   1  21    1.71    0.17
   1  -4  19   11.85    0.47
   1  -4  19   11.30    0.45
  -4   1  19   11.69    0.60
  -4  -1 -19   12.19    0.54
  -4   1  19   11.94    0.39
  -1   4  19   11.41    0.47
   1   4 -19   12.58    0.47
   4  -1  19   12.00    0.47
  -1   4  17    3.42    0.21
   1  -4  17    3.56    0.24
  -4   1  17    3.45    0.18
   1  -4  17    3.37    0.25
   4  -1  17    3.24    0.23
   4   1 -17    3.32    0.21
  -4  -1 -17    3.50    0.31
   1   4 -17    3.81    0.25
  -1   4  17    3.60    0.26
  -4   1  17    3.42    0.37
  -4  -1 -15    7.20    0.38
   1  -4  15    7.35    0.32
  -4   1  15    7.81    0.26
   4   1 -15    7.29    0.28
   4  -1  15    7.02    0.32
   1   4 -15    7.08    0.32
  -1   4  15    7.70    0.29
  -1   4  15    6.98    0.33
   1  -4  15    7.42    0.33
  -4   1  15    6.64    0.44
   1   4 -13   11.10    0.38
  -1   4  13   11.36    0.40
   4  -1  13   10.23    0.39
  -4   1  13    9.92    0.50
   1  -4  13   10.73    0.39
   1  -4  13   10.76    0.38
   4   1 -13   10.97    0.34
  -4  -1 -13   10.31    0.44
  -4   1  13   10.34    0.32
  -1   4  13   10.34    0.34
  -1   4  11   16.26    0.51
  -4  -1 -11   16.66    0.57
   4  -1  11   16.54    0.51
   1   4 -11   16.59    0.50
  -1   4  11   17.14    0.47
  -4   1  11   16.44    0.62
  -4   1  11   16.54    0.44
   1  -4  11   16.95    0.51
   4   1 -11   16.87    0.46
   1  -4  11   16.45    0.50
   1  -4   9   61.94    1.51
   1   4  -9   64.06    1.51
   4  -1   9   61.33    1.53
  -4   1   9   60.38    1.44
   4   1  -9   60.69    1.46
  -4  -1  -9   61.84    1.58
   1  -4   9   62.34    1.51
  -4   1   9   62.72    1.63
  -1   4   9   60.53    1.51
   1  -4   7   27.47    0.70
  -4   1   7   24.65    0.62
   4   1  -7   27.23    0.65
   1   4  -7   28.22    0.69
  -1  -4  -7   27.31    0.67
  -4   1   7   26.95    0.80
   1  -4   7   26.85    0.70
  -1   4   7   26.80    0.69
   4  -1   7   25.58    0.71
  -4  -1  -7   27.75    0.76
  -1  -4  -5   32.99    0.81
  -4   1   5   31.68    0.92
   1  -4   5   34.41    0.85
   1   4  -5   33.85    0.83
   4  -1   5   33.13    0.87
   1   4  -5   34.52    0.84
   4   1  -5   33.25    0.81
  -4  -1  -5   35.17    0.91
   1  -4   3   15.04    0.40
   1   4  -3   14.40    0.39
   4  -1   3   15.21    0.40
  -4   1   3   15.15    0.36
   4  -1   3   14.66    0.45
  -4  -1  -3   13.71    0.38
   1   4  -3   14.14    0.38
   4  -1   1    3.76    0.14
   4  -1   1    3.79    0.17
  -4   1   1    3.82    0.13
  -4  -1  -1    3.22    0.18
   1   4  -1    3.71    0.14
   4  -1   1    4.02    0.15
  -1  -4  -1    4.00    0.16
   4  -1   1    3.83    0.25
   1   4  -1    3.68    0.15
  -1  -4   1    2.75    0.14
   4  -1  -1    3.10    0.11
  -4   1  -1    2.45    0.14
  -4  -1   1    3.00    0.20
  -1   4  -1    3.08    0.13
  -4   1  -1    3.04    0.13
   4  -1  -1    3.13    0.11
  -1  -4   3   14.92    0.39
  -4   1  -3   14.47    0.48
   4  -1  -3   14.29    0.36
  -4   1  -3   14.24    0.41
   4   1   3   14.97    0.40
  -1  -4   3   14.22    0.40
   4   1   5   32.87    0.85
   4   1   5   31.48    0.77
  -1  -4   5   32.60    0.79
   1  -4  -5   32.12    0.82
  -1   4  -5   31.63    0.81
  -4   1  -5   32.66    0.87
  -1  -4   5   31.33    0.80
  -1  -4   7   28.65    0.69
  -4   1  -7   26.86    0.73
  -1  -4   7   28.68    0.67
  -1   4  -7   26.22    0.64
   1  -4  -7   27.49    0.71
   4   1   7   26.40    0.70
  -1   4  -7   27.36    0.69
  -1  -4   9   63.03    1.46
  -4   1  -9   61.74    1.51
   4   1   9   62.42    1.49
  -1   4  -9   60.46    1.48
   1  -4  -9   61.82    1.51
  -4  -1   9   62.06    1.43
   4  -1  -9   58.97    1.41
  -4   1  -9   64.44    1.53
  -1  -4   9   64.04    1.47
  -4   1 -11   16.91    0.55
  -4  -1  11   16.36    0.45
   1   4  11   16.15    0.45
  -4   1 -11   15.66    0.53
   4   1  11   16.62    0.51
  -1  -4  11   16.13    0.48
   1   4  11   16.49    0.49
  -1  -4  11   16.35    0.48
  -1   4 -11   16.33    0.50
   1   4  13   11.25    0.35
  -4  -1  13   11.06    0.35
  -4   1 -13   10.95    0.44
  -1  -4  13   10.98    0.38
   4   1  13   10.79    0.40
   1   4  13   11.29    0.38
  -1  -4  13   11.09    0.37
  -1   4 -13   11.30    0.41
  -4   1 -15    8.45    0.39
  -1   4 -15    8.29    0.36
   4   1  15    7.94    0.34
   1   4  15    8.22    0.33
  -1  -4  15    7.66    0.32
  -1  -4  15    7.96    0.33
   1   4  15    7.81    0.30
  -4  -1  15    8.70    0.29
   1   4  17    3.31    0.20
  -4  -1  17    3.91    0.38
  -1   4 -17    3.47    0.22
   4   1  17    3.54    0.25
  -4  -1  17    3.46    0.20
  -1   4 -17    3.69    0.25
  -1  -4  17    3.47    0.22
   1   4  17    4.12    0.24
  -1  -4  17    3.77    0.24
  -4   1 -17    3.44    0.28
  -1   4 -19   10.79    0.44
  -4  -1  19   10.96    0.60
   1   4  19   11.88    0.43
  -1  -4  19   11.25    0.43
  -4   1 -19   10.44    0.49
   4   1  19   11.74    0.45
  -1  -4  19   10.77    0.42
   1   4  19   10.58    0.38
   4   1  19   11.25    0.42
  -1   4 -19   11.28    0.46
   4   1  21    1.83    0.19
   1   4  21    1.78    0.17
   4   1  21    1.54    0.22
  -1   4 -21    1.88    0.24
  -1   4 -21    1.52    0.24
  -4  -1  21    1.76    0.37
  -4   1 -21    2.06    0.29
   1   4  21    1.81    0.20
  -4  -1  21    1.53    0.17
  -4  -1  21    1.67    0.17
  -1  -4  21    1.95    0.22
  -1  -4  23    1.01    0.19
   4   1  23    0.98    0.16
   1   4  23    0.84    0.14
  -4  -1  23    1.08    0.34
  -1  -4  23    1.08    0.20
  -4  -1  23    1.15    0.17
   1   4  23    1.09    0.19
  -1   4 -23    1.05    0.22
  -1   4 -23    1.15    0.24
   4   1  23    0.66    0.18
  -4   1 -23    0.53    0.24
  -4  -1  25    0.11    0.16
  -1  -4  25    0.24    0.19
  -1   4 -25    0.20    0.22
  -4  -1  25    0.49    0.34
  -1  -4  25    0.48    0.18
  -4   1 -25    0.02    0.26
  -1  -4  27    0.92    0.21
  -4   1 -27    0.68    0.31
  -4  -1  27    1.24    0.36
  -1  -4  27    1.60    0.40
   1  -4 -29    0.16    0.30
   4  -2  30    0.23    0.23
  -2  -4 -30   -0.09    0.32
  -2  -4 -28    0.16    0.30
  -4  -2 -28    0.05    0.29
   4  -2  28    0.05    0.23
   4  -2  26   -0.10    0.23
   2  -4  26   -0.01    0.21
  -2  -4 -26    0.05    0.30
  -4   2  26   -0.27    0.28
  -4  -2 -26    0.29    0.29
  -2   4  24    0.52    0.22
  -2  -4 -24    0.70    0.27
   2   4 -24    0.50    0.21
  -4   2  24    0.23    0.29
   2  -4  24    0.45    0.20
   2  -4  24    0.78    0.20
   4  -2  24    0.06    0.21
  -4  -2 -24    0.53    0.28
   2   4 -22    1.74    0.23
  -4   2  22    0.98    0.29
  -4  -2 -22    1.51    0.29
   2  -4  22    1.54    0.23
  -4   2  22    1.44    0.16
  -2  -4 -22    1.02    0.26
  -2   4  22    1.55    0.17
  -2   4  22    1.70    0.24
   4  -2  22    1.65    0.24
   2  -4  22    1.66    0.23
  -4   2  20   12.66    0.41
   2   4 -20   13.45    0.49
   2  -4  20   13.00    0.50
  -2   4  20   13.48    0.43
  -4  -2 -20   12.03    0.57
   4   2 -20   12.46    0.46
   2  -4  20   12.40    0.49
  -2   4  20   12.65    0.52
  -4   2  20   12.67    0.61
  -2  -4 -20   11.60    0.57
   4  -2  20   12.45    0.50
  -2   4  18   10.76    0.47
  -4   2  18   10.87    0.36
   4  -2  18   10.69    0.43
  -4  -2 -18   11.37    0.52
  -4   2  18   10.95    0.55
   2  -4  18   11.68    0.46
   2  -4  18   11.24    0.44
   2   4 -18   11.22    0.43
  -2   4  18   11.10    0.38
   4   2 -18   10.97    0.40
  -4   2  16    6.25    0.23
   4   2 -16    6.59    0.27
   2  -4  16    5.56    0.30
   4  -2  16    6.05    0.30
  -2   4  16    6.06    0.25
  -4  -2 -16    6.16    0.36
   2   4 -16    5.24    0.28
  -2   4  16    6.06    0.33
  -4   2  16    5.84    0.42
   2  -4  16    6.19    0.31
   2   4 -14   29.19    0.81
   4   2 -14   30.21    0.78
  -4   2  14   29.91    0.95
  -4  -2 -14   28.50    0.90
  -2   4  14   29.65    0.87
  -2   4  14   29.72    0.77
   4  -2  14   28.95    0.83
   2  -4  14   29.15    0.83
   2  -4  14   29.72    0.83
  -4   2  14   28.64    0.74
  -2   4  12  123.67    3.05
   2  -4  12  124.84    3.01
  -4   2  12  125.92    3.13
   2   4 -12  125.86    2.99
   4   2 -12  124.19    2.96
  -4   2  12  127.01    2.93
   4  -2  12  125.03    3.02
   2  -4  12  125.32    3.02
  -2   4  12  126.10    2.96
  -4  -2 -12  125.92    3.10
  -4   2  10   72.15    1.74
   2   4 -10   74.84    1.81
   2  -4  10   73.80    1.83
   4  -2  10   75.56    1.83
   2  -4  10   76.75    1.83
  -4  -2 -10   75.36    1.90
  -2   4  10   73.60    1.85
   4   2 -10   75.78    1.78
  -2   4  10   75.31    1.77
  -4   2  10   76.96    1.94
   4  -2   8   22.85    0.65
  -4  -2  -8   25.44    0.72
  -4   2   8   25.54    0.74
  -2   4   8   24.53    0.66
   2   4  -8   26.00    0.64
   4   2  -8   24.85    0.61
   2  -4   8   24.97    0.65
   2  -4   8   25.32    0.65
   4  -2   6  104.88    2.46
   2   4  -6  104.91    2.45
  -4   2   6  102.81    2.54
  -2   4   6  109.20    2.47
   4   2  -6  106.69    2.42
   2  -4   6  102.94    2.46
  -4  -2  -6  108.80    2.53
   2   4  -6  106.59    2.42
   2   4  -4  123.51    2.85
   4  -2   4  120.97    2.88
  -4  -2  -4  122.29    2.81
   2   4  -4  118.92    2.82
   2  -4   4  118.78    2.85
  -4   2   4  125.90    2.81
   2   4  -4  125.34    2.88
   4   2  -2   33.97    0.94
   4  -2   2   34.24    0.83
  -4   2   2   33.17    0.81
  -2  -4  -2   32.35    0.87
  -2   4   2   34.22    0.83
  -4  -2  -2   34.47    0.85
   4  -2   2   34.15    0.85
  -4   2   2   33.72    0.79
   2   4  -2   32.83    0.82
   2   4  -2   33.08    0.84
   4  -2   2   33.01    0.90
  -4   2   0   21.21    0.54
   4  -2   0   21.86    0.54
   2   4   0   21.29    0.56
  -2   4   0   22.16    0.54
  -2  -4   0   21.45    0.58
  -4   2   0   20.31    0.53
   2  -4   0   21.77    0.54
   4  -2   0   22.11    0.53
   4  -2  -2   33.96    0.78
  -2   4  -2   32.27    0.82
   4  -2  -2   32.57    0.80
  -4   2  -2   34.26    0.82
   2  -4  -4  120.46    2.76
  -4   2  -4  123.89    2.81
  -2  -4   4  121.02    2.72
   4  -2  -4  117.62    2.81
  -2  -4   6   98.95    2.22
  -2  -4   6  100.30    2.20
   2  -4  -6   98.13    2.27
   4  -2  -6   98.43    2.33
   4   2   6   99.69    2.28
  -2   4  -6   93.43    2.19
  -4   2  -6   95.25    2.28
  -2   4  -8   24.69    0.63
  -4   2  -8   25.62    0.70
   4   2   8   25.89    0.68
  -2   4  -8   22.46    0.66
   2  -4  -8   24.30    0.71
  -2  -4   8   24.93    0.65
  -4  -2   8   23.63    0.59
  -2  -4   8   25.05    0.63
   4   2  10   75.64    1.86
  -4  -2  10   76.55    1.80
  -2  -4  10   73.94    1.81
  -2   4 -10   74.69    1.81
  -2   4 -10   75.47    1.85
  -4   2 -10   77.08    1.88
  -4   2 -10   76.42    1.87
  -4  -2  10   74.87    1.78
  -2  -4  10   75.22    1.83
  -2  -4  12  116.39    2.64
  -4  -2  12  120.59    2.61
  -4  -2  12  119.80    2.63
  -2   4 -12  117.25    2.66
  -4   2 -12  119.46    2.72
   2   4  12  116.65    2.67
  -2   4 -12  117.75    2.70
   4   2  12  118.41    2.69
  -4   2 -12  114.75    2.72
  -2  -4  12  118.42    2.66
  -4  -2  14   28.79    0.72
   2   4  14   27.09    0.76
  -4  -2  14   27.40    0.71
  -2  -4  14   27.33    0.75
  -4   2 -14   26.91    0.81
  -2  -4  14   27.64    0.74
  -4   2 -14   26.91    0.80
  -2   4 -14   27.30    0.75
   4   2  14   27.86    0.77
   2   4  14   25.62    0.68
   4   2  14   24.10    0.69
  -2   4 -14   28.46    0.79
  -2  -4  16    5.98    0.27
  -4   2 -16    6.12    0.34
   2   4  16    4.80    0.21
  -4  -2  16    6.11    0.24
  -2   4 -16    5.90    0.29
  -4   2 -16    6.20    0.34
   4   2  16    6.62    0.31
   2   4  16    6.22    0.29
  -2   4 -16    6.09    0.31
   4   2  16    5.69    0.23
  -2  -4  16    6.36    0.29
  -4  -2  16    6.38    0.26
  -2  -4  18   10.55    0.40
   4   2  18    9.34    0.33
   2   4  18   10.66    0.40
   4   2  18   10.85    0.41
  -2   4 -18   11.09    0.45
   2   4  18    8.59    0.31
  -2   4 -18   10.39    0.41
  -4   2 -18    9.09    0.44
  -2  -4  18   10.27    0.38
  -4  -2  18   10.17    0.37
  -4  -2  18   10.34    0.35
  -4   2 -20   11.12    0.51
  -2  -4  20   12.46    0.44
  -2  -4  20   12.51    0.45
  -4  -2  20   11.17    0.40
  -4  -2  20   12.88    0.42
   2   4  20   12.64    0.46
  -4  -2  20   12.41    0.66
   4   2  20   12.55    0.47
  -2   4 -20   12.16    0.51
   4   2  20   10.75    0.36
   2   4  20   10.32    0.35
  -2   4 -20   12.11    0.48
   4   2  22    1.69    0.23
  -4  -2  22    1.44    0.38
  -2  -4  22    1.47    0.21
  -2   4 -22    1.49    0.26
   2   4  22    1.29    0.12
  -2  -4  22    1.34    0.19
  -4  -2  22    1.45    0.18
  -2   4 -22    1.48    0.24
   4   2  22    1.23    0.12
  -4  -2  22    1.27    0.17
  -4   2 -22    1.61    0.28
   2   4  22    1.57    0.21
  -4  -2  24    0.16    0.34
  -4   2 -24    0.43    0.24
  -2   4 -24    0.28    0.22
  -4  -2  24    0.33    0.16
   4   2  24    0.62    0.19
  -2  -4  24    0.53    0.17
  -2  -4  24    0.45    0.18
   2   4  24    0.23    0.17
  -4  -2  24    0.28    0.16
  -2  -4  26    0.22    0.34
  -4  -2  26   -0.14    0.36
  -4   2 -26    0.33    0.25
  -2   4 -26    0.19    0.23
  -2  -4  28    1.15    0.37
  -4  -2  28    0.58    0.34
   2  -4 -30   -0.27    0.31
   3  -4  29    0.73    0.25
  -4  -3 -29    0.77    0.36
  -3  -4 -29    0.72    0.36
   4  -3  29    0.56    0.23
  -4  -3 -27    0.37    0.32
   4  -3  27    0.77    0.24
  -3  -4 -27    0.45    0.29
  -3   4  25    0.73    0.24
  -3  -4 -25    1.29    0.33
  -4  -3 -25    0.70    0.30
  -4   3  25    1.42    0.30
   3  -4  23    7.91    0.41
   4  -3  23    7.76    0.40
  -4  -3 -23    7.16    0.49
  -3   4  23    7.76    0.43
   3  -4  23    7.87    0.40
  -4   3  23    7.85    0.48
  -3  -4 -23    8.27    0.51
   3   4 -23    7.81    0.38
   4  -3  23    7.80    0.42
   4   3 -21    5.69    0.30
   3   4 -21    5.38    0.31
  -3   4  21    5.77    0.25
  -3  -4 -21    5.11    0.40
  -4   3  21    5.20    0.24
   4  -3  21    5.49    0.34
   3  -4  21    5.37    0.34
  -4   3  21    5.67    0.41
   3  -4  21    4.93    0.31
   4  -3  21    5.44    0.33
  -3   4  21    5.43    0.37
  -4  -3 -21    4.61    0.38
   4   3 -19    3.48    0.23
  -4  -3 -19    2.70    0.32
   4  -3  19    3.37    0.26
  -3   4  19    3.58    0.20
  -3   4  19    2.82    0.29
   3   4 -19    2.92    0.24
   4  -3  19    2.77    0.26
  -3  -4 -19    2.79    0.32
   3  -4  19    3.28    0.25
   3  -4  19    3.24    0.25
  -4   3  19    2.95    0.17
  -4   3  19    3.31    0.33
   3  -4  17   32.11    0.94
  -4  -3 -17   32.78    1.04
   3   4 -17   31.69    0.91
  -3   4  17   33.75    1.01
   4  -3  17   34.02    0.95
  -3   4  17   34.28    0.86
  -3  -4 -17   32.88    1.04
  -4   3  17   30.94    1.04
  -4   3  17   33.87    0.85
   3  -4  17   32.67    0.96
   4   3 -17   31.64    0.89
  -4  -3 -15   75.49    2.00
   3   4 -15   75.17    1.87
   4   3 -15   76.67    1.86
  -3   4  15   74.85    1.96
  -4   3  15   76.03    1.81
  -3   4  15   75.92    1.82
   3  -4  15   76.59    1.91
   4  -3  15   74.51    1.90
  -3  -4 -15   74.86    2.00
   3  -4  15   75.71    1.92
  -4   3  15   74.02    2.01
  -3  -4 -13   53.14    1.46
  -4  -3 -13   50.39    1.45
  -4   3  13   53.32    1.28
  -4   3  13   54.01    1.48
  -3   4  13   54.07    1.29
   3  -4  13   53.79    1.39
   4  -3  13   52.63    1.38
   4   3 -13   51.47    1.32
   3   4 -13   54.49    1.35
  -3   4  13   53.29    1.43
   3  -4  13   53.80    1.38
  -3  -4 -11   29.25    0.86
  -4  -3 -11   28.83    0.87
   3   4 -11   28.27    0.76
   4  -3  11   27.93    0.79
  -4   3  11   28.37    0.70
   3  -4  11   29.25    0.80
  -3   4  11   28.94    0.84
  -3   4  11   29.20    0.72
   4   3 -11   27.53    0.75
   3  -4  11   30.04    0.80
  -4   3  11   29.03    0.88
  -4   3   9   86.15    2.07
  -3  -4  -9   82.43    2.06
  -4   3   9   77.61    1.89
   3  -4   9   84.99    2.00
   4  -3   9   79.85    1.99
   3  -4   9   82.62    1.99
  -4  -3  -9   82.79    2.07
  -3   4   9   83.37    2.03
   4   3  -9   84.50    1.94
  -3   4   9   80.73    1.91
   3   4  -9   84.98    1.96
   3   4  -7   93.33    2.14
   4  -3   7   84.57    2.19
   4  -3   7   89.81    2.17
  -3   4   7   91.61    2.22
   4   3  -7   90.71    2.15
  -4  -3  -7   92.10    2.26
   3  -4   7   92.17    2.20
   3   4  -7   92.16    2.16
  -4   3   7   91.44    2.25
   3  -4   5   24.47    0.61
   4   3  -5   24.14    0.58
   3   4  -5   24.17    0.71
  -4   3   5   24.16    0.69
   4   3  -5   24.39    0.62
  -3   4   5   25.09    0.67
   4  -3   5   24.69    0.65
   3   4  -5   24.44    0.60
   3   4  -5   25.74    0.63
   4   3  -3   90.95    2.22
  -3   4   3   92.74    2.08
  -4   3   3   91.08    2.07
  -3   4   3   90.50    2.11
  -4   3   3   91.30    2.10
   4  -3   3   89.67    2.17
   3   4  -3   89.39    2.09
   4  -3   3   84.42    2.11
   3  -4   3   90.47    2.14
   3   4  -3   89.56    2.17
  -3  -4  -1   53.22    1.32
   3  -4   1   53.65    1.25
  -3   4   1   53.82    1.26
   4  -3   1   53.37    1.25
   4  -3   1   53.07    1.26
  -4   3   1   54.49    1.25
   3   4  -1   52.09    1.30
  -3   4   1   56.31    1.24
   4   3  -1   52.79    1.34
  -4  -3   1   52.67    1.35
   3  -4  -1   51.40    1.22
  -4   3  -1   51.36    1.24
  -3  -4   1   53.90    1.31
   4  -3  -1   53.45    1.22
   3  -4  -1   52.15    1.24
  -4   3  -1   54.20    1.23
   3   4   1   52.18    1.28
   4  -3  -1   51.11    1.23
  -3   4  -1   54.64    1.24
  -4   3  -3   85.78    1.90
   3   4   3   70.10    1.92
   3  -4  -3   82.31    1.93
   4  -3  -3   73.37    1.94
  -3   4  -3   83.19    1.90
   4  -3  -5   23.73    0.70
  -3  -4   5   23.86    0.59
  -4   3  -5   24.22    0.68
   3  -4  -5   23.19    0.67
   3  -4  -7   89.81    2.18
  -4  -3   7   89.57    2.06
   4  -3  -7   89.72    2.21
  -4   3  -7   89.78    2.15
  -3  -4   7   90.36    2.08
  -3   4  -9   85.57    2.04
  -3  -4   9   87.07    2.00
  -4   3  -9   83.91    2.07
  -3  -4   9   85.75    2.03
  -4  -3   9   85.91    1.98
   3  -4  -9   83.68    2.13
   4   3  11   27.64    0.79
  -3   4 -11   27.63    0.79
  -3  -4  11   29.12    0.76
  -4   3 -11   28.19    0.80
  -4  -3  11   28.43    0.71
  -3   4 -11   28.28    0.77
  -4  -3  11   28.53    0.74
  -4   3 -11   28.32    0.80
  -3  -4  11   28.42    0.73
   3   4  11   27.99    0.78
   3   4  13   51.70    1.33
  -3  -4  13   52.19    1.31
  -4   3 -13   52.05    1.37
  -4  -3  13   50.62    1.26
  -3   4 -13   51.77    1.33
  -3   4 -13   51.12    1.36
  -4  -3  13   53.33    1.29
  -3  -4  13   52.38    1.28
  -4   3 -13   52.68    1.36
   4   3  13   50.39    1.34
   4   3  15   74.67    1.87
  -4   3 -15   74.81    1.91
  -4  -3  15   76.34    1.83
  -3  -4  15   76.49    1.85
   3   4  15   73.67    1.86
  -4   3 -15   74.09    1.90
  -3   4 -15   76.01    1.91
  -4  -3  15   73.61    1.80
  -3   4 -15   72.55    1.87
  -3  -4  15   73.51    1.82
  -4  -3  17   34.03    0.80
  -3  -4  17   34.55    0.81
  -3  -4  17   34.02    0.79
   3   4  17   34.98    0.84
  -4   3 -17   32.92    0.89
  -4  -3  17   32.43    0.77
  -3   4 -17   33.00    0.85
  -4   3 -17   33.50    0.88
   4   3  17   33.89    0.85
  -3   4 -17   33.77    0.89
  -3  -4  19    3.21    0.20
  -4   3 -19    3.25    0.29
  -3  -4  19    3.59    0.23
  -4   3 -19    3.37    0.28
  -4  -3  19    2.74    0.18
  -3   4 -19    3.43    0.27
  -3   4 -19    3.08    0.27
   4   3  19    3.40    0.25
  -4  -3  19    3.23    0.22
   3   4  19    3.17    0.24
  -4   3 -21    5.76    0.36
   3   4  21    5.62    0.29
  -3   4 -21    5.62    0.33
  -3  -4  21    6.22    0.29
   4   3  21    5.63    0.31
  -4  -3  21    6.16    0.28
  -3   4 -21    6.19    0.35
  -3  -4  21    5.92    0.27
  -4  -3  23    7.30    0.32
  -3   4 -23    7.72    0.42
  -3  -4  23    7.10    0.33
   3   4  23    8.04    0.38
  -4   3 -23    7.72    0.44
   4   3  23    7.47    0.37
  -4  -3  23    7.56    0.56
  -3  -4  23    7.84    0.36
  -4  -3  23    7.72    0.34
  -4  -3  25    1.15    0.38
   3   4  25    0.93    0.20
  -3  -4  25    1.11    0.38
  -4   3 -25    1.18    0.26
   4   3  25    1.13    0.22
  -3  -4  25    0.82    0.19
  -3   4 -25    0.72    0.25
  -3  -4  27    0.71    0.36
  -4  -3  27   -0.03    0.35
  -4  -4 -30    0.03    0.36
   4  -4  30   -0.02    0.22
  -4  -4 -28    0.85    0.34
  -4   4  26    2.74    0.31
  -4  -4 -26    2.97    0.39
   4  -4  26    2.83    0.30
  -4   4  24    0.85    0.25
  -4  -4 -24    0.73    0.30
   4   4 -24    0.80    0.20
  -4   4  22    5.52    0.40
   4  -4  22    4.80    0.33
   4   4 -22    5.25    0.32
   4  -4  22    5.65    0.35
  -4   4  22    5.51    0.24
  -4  -4 -22    4.73    0.43
  -4  -4 -20   15.28    0.67
  -4   4  20   14.01    0.62
  -4   4  20   15.13    0.46
   4  -4  20   15.07    0.57
   4  -4  20   15.40    0.56
   4   4 -20   15.20    0.52
   4  -4  18   32.32    0.98
  -4  -4 -18   33.07    1.08
   4  -4  18   34.28    0.97
  -4   4  18   33.32    0.86
   4   4 -18   34.19    0.93
  -4   4  18   32.91    1.04
  -4   4  16    5.66    0.37
  -4  -4 -16    6.10    0.39
  -4   4  16    5.88    0.22
   4  -4  16    5.88    0.32
   4  -4  16    5.71    0.32
   4   4 -16    5.74    0.27
   4  -4  14   29.84    0.87
  -4   4  14   29.38    0.75
   4  -4  14   29.58    0.85
   4   4 -14   29.75    0.81
  -4   4  14   30.26    0.93
  -4  -4 -14   29.67    0.94
  -4   4  12   81.96    2.12
   4  -4  12   83.45    2.05
   4  -4  12   85.12    2.07
  -4   4  12   83.28    1.95
   4   4 -12   80.79    2.01
  -4  -4 -12   84.08    2.15
   4  -4  10   64.97    1.64
  -4   4  10   66.27    1.70
   4   4 -10   64.12    1.60
  -4  -4 -10   65.70    1.72
   4  -4  10   66.22    1.65
  -4   4  10   66.46    1.55
   4   4  -8  100.16    2.37
  -4   4   8  106.76    2.46
   4  -4   8  104.34    2.41
  -4   4   8   96.61    2.31
  -4  -4  -8  103.28    2.49
   4   4  -6   91.21    2.12
   4  -4   6   90.20    2.15
  -4   4   6   89.10    2.22
   4   4  -6   91.65    2.16
  -4   4   4  143.59    3.41
   4  -4   4  140.48    3.39
   4   4  -4  142.44    3.33
   4   4  -4  145.26    3.47
   4  -4   4  136.97    3.37
  -4   4   4  146.69    3.35
  -4   4   4  146.04    3.31
  -4   4   2   98.60    2.36
  -4   4   2  105.03    2.39
   4  -4   2  101.64    2.39
   4   4  -2  104.55    2.48
   4  -4   0    2.82    0.14
  -4  -4   0    3.52    0.23
   4   4   0    3.39    0.20
  -4   4   0    3.43    0.15
  -4   4   0    3.45    0.13
   4  -4   0    3.61    0.14
  -4  -4   2  103.72    2.60
  -4   4  -2   99.06    2.49
  -4   4  -2  108.48    2.48
   4  -4  -2  106.52    2.45
   4   4   2  102.87    2.54
   4  -4  -2  107.96    2.48
  -4   4  -4  143.73    3.39
   4  -4  -4  145.27    3.44
  -4   4  -6   91.56    2.23
   4  -4  -6   91.25    2.26
  -4  -4   8  110.15    2.56
   4  -4  -8  110.52    2.72
  -4   4  -8  108.93    2.64
  -4  -4  10   65.12    1.52
  -4   4 -10   66.13    1.60
   4   4  12   79.74    1.98
  -4   4 -12   81.51    1.98
  -4  -4  12   82.75    1.94
  -4   4 -12   76.60    2.00
  -4  -4  12   78.33    1.90
  -4  -4  14   27.86    0.77
  -4   4 -14   28.64    0.82
  -4   4 -14   28.45    0.84
  -4  -4  14   28.27    0.74
   4   4  14   27.89    0.81
  -4  -4  16    5.75    0.27
  -4   4 -16    5.79    0.31
   4   4  16    5.69    0.30
  -4   4 -16    6.23    0.33
  -4  -4  16    5.62    0.24
  -4   4 -18   33.86    0.99
  -4  -4  18   33.90    0.89
   4   4  18   33.09    0.95
  -4  -4  18   33.84    0.93
  -4   4 -18   33.59    1.01
  -4  -4  20   15.38    0.51
   4   4  20   15.54    0.55
  -4   4 -20   14.37    0.58
  -4   4 -20   15.65    0.61
  -4  -4  20   15.10    0.48
  -4   4 -22    5.26    0.36
  -4  -4  22    5.01    0.28
  -4  -4  22    4.73    0.26
  -4  -4  24    0.85    0.17
  -4  -4  24    0.78    0.19
   4   4  24    0.77    0.22
  -4   4 -24    0.31    0.24
  -4  -4  26    2.60    0.44
  -4  -4  28    0.56    0.39
   5   0   1    5.22    0.24
   5   0  -1    4.96    0.27
   0  -5   1    5.23    0.17
  -5   0  -1    4.66    0.29
  -5   0   1    4.62    0.25
  -5   0  -1    5.12    0.21
   5   0   3  118.97    2.95
   0  -5   3  131.85    2.95
   5   0   3  121.41    3.01
   5   0  -3  127.05    2.89
   5   0   3  128.13    2.96
   0   5  -3  127.57    2.94
  -5   0  -3  129.09    3.06
  -5   0  -3  127.14    2.94
   0  -5   3  119.69    2.91
   0  -5  -5   58.13    1.40
   5   0   5   59.29    1.46
  -5   0  -5   58.60    1.51
   0  -5   5   57.17    1.42
   0   5  -5   57.79    1.41
   0  -5   5   58.13    1.41
   5   0   5   58.39    1.40
   0   5  -7   12.30    0.37
   0  -5  -7   11.69    0.37
   0  -5   7   12.35    0.38
  -5   0   7   12.64    0.49
   0  -5   7   11.76    0.37
   0   5  -7   12.53    0.38
   5   0  -7   12.17    0.31
   5   0   7   12.34    0.34
   5   0   7   12.34    0.41
  -5   0  -7   11.52    0.45
   0  -5   9   26.96    0.70
   0   5  -9   28.08    0.71
  -5   0  -9   28.84    0.79
   0  -5   9   27.68    0.70
   0  -5  -9   27.18    0.71
  -5   0   9   27.67    0.85
   5   0   9   27.01    0.72
   5   0 -11    2.89    0.13
   0  -5  11    2.89    0.18
  -5   0 -11    3.32    0.24
  -5   0  11    3.00    0.12
   5   0  11    3.10    0.20
   0   5  11    3.21    0.16
  -5   0  11    3.31    0.30
   0  -5  11    2.92    0.18
   0   5 -11    3.18    0.19
   0   5 -13    0.70    0.14
   0  -5  13    0.91    0.14
  -5   0  13    1.13    0.29
  -5   0 -13    0.82    0.19
  -5   0  13    0.57    0.09
   5   0  13    0.99    0.16
   0   5  13    0.86    0.12
   5   0 -13    0.67    0.10
   0   5  13    0.74    0.13
   0  -5  13    0.57    0.15
  -5   0  15   39.09    0.99
  -5   0  15   40.55    1.26
   5   0  15   40.44    1.09
   0  -5  15   40.18    1.06
  -5   0 -15   42.07    1.17
   0   5 -15   41.68    1.09
   0   5  15   38.09    1.03
   0   5  15   39.54    1.04
   0  -5  15   39.86    1.07
   5   0 -15   40.14    1.01
   0   5  17    0.05    0.12
   0   5 -17    0.11    0.16
   0  -5  17    0.05    0.14
   0  -5  17   -0.13    0.14
  -5   0  17   -0.04    0.27
  -5   0 -17   -0.11    0.21
   5   0  17    0.28    0.16
   0   5  17    0.13    0.14
  -5   0  17    0.02    0.11
   0   5  19   10.50    0.40
   5   0  19   11.62    0.47
  -5   0  19   12.15    0.39
   0  -5  19   11.59    0.45
   0   5  19   12.52    0.43
   0   5 -19   12.41    0.48
   0  -5  19   11.22    0.46
  -5   0  19   12.10    0.63
  -5   0 -19   12.63    0.56
   0   5  21    9.42    0.37
   5   0  21    9.84    0.41
  -5   0  21   10.36    0.60
  -5   0  21   10.22    0.36
   0   5  21   10.26    0.40
  -5   0 -21    9.91    0.54
   0  -5  21   10.87    0.44
   5   0  21   10.16    0.43
   0   5 -21   10.81    0.46
   0   5 -21   10.38    0.43
   0  -5  21   11.00    0.44
  -5   0  23    5.08    0.47
   0   5  23    5.05    0.25
   0  -5  23    4.93    0.30
   0  -5  23    4.88    0.33
   5   0  23    5.39    0.34
   0   5 -23    4.82    0.34
   0   5  23    5.09    0.28
  -5   0  23    5.13    0.26
   5   0  23    4.51    0.27
  -5   0 -23    6.16    0.44
   0   5 -23    4.58    0.31
   0   5 -25    0.81    0.25
   0  -5  25    1.07    0.20
  -5   0  25    0.69    0.17
  -5   0  25    1.14    0.38
   0   5 -25    0.84    0.23
  -5   0 -25    1.02    0.33
   0  -5  25    0.54    0.21
  -5   0  27   11.49    0.65
  -5   0 -27   10.89    0.62
   0  -5 -27    9.95    0.62
   0  -5 -29    0.83    0.35
   5   0  29    1.09    0.28
  -1  -5 -30    0.12    0.31
   5  -1  30    0.43    0.26
  -5  -1 -28    0.40    0.31
   1  -5  28    0.89    0.21
  -1  -5 -28    0.95    0.32
   5  -1  28    1.17    0.27
  -1  -5 -26    2.61    0.38
   5  -1  26    1.84    0.30
  -5  -1 -26    2.84    0.38
  -5   1  26    2.07    0.39
   1   5 -24    0.82    0.22
  -1   5  24    0.84    0.17
  -5   1  24    1.42    0.35
   1  -5  24    1.10    0.22
   1  -5  24    0.74    0.21
  -1   5  24    1.34    0.19
   5  -1  24    1.51    0.24
   1   5 -24    1.11    0.25
  -1  -5 -24    1.07    0.31
  -5  -1 -24    1.31    0.32
   1  -5  22    2.14    0.25
   1   5 -22    2.04    0.25
   1  -5  22    2.11    0.25
  -1   5  22    2.24    0.19
  -5   1  22    2.13    0.17
  -5   1  22    1.80    0.36
  -1   5  22    1.91    0.21
  -5  -1 -22    2.21    0.33
  -5   1  20    3.28    0.18
  -5   1  20    3.10    0.39
   5  -1  20    3.55    0.28
  -1   5  20    2.98    0.23
   1  -5  20    2.96    0.25
   1   5 -20    2.72    0.25
  -1   5  20    2.82    0.22
  -5  -1 -20    2.91    0.33
   1  -5  20    2.99    0.24
  -1   5  18    1.38    0.19
   5  -1  18    1.20    0.21
  -1   5  18    1.31    0.17
  -5  -1 -18    1.46    0.26
   1  -5  18    1.35    0.20
   5   1 -18    1.21    0.16
   1   5 -18    1.38    0.21
   1  -5  18    1.36    0.21
  -5   1  18    1.33    0.29
  -5   1  18    1.29    0.13
   1  -5  16   10.58    0.42
   5  -1  16   10.27    0.41
  -5   1  16   10.78    0.33
  -1   5  16   10.41    0.37
   5   1 -16   10.91    0.36
  -1   5  16   10.51    0.40
  -5  -1 -16   10.81    0.48
   1  -5  16   10.68    0.41
  -5   1  16   10.49    0.55
   1   5 -16   11.04    0.42
   1  -5  14    7.82    0.34
  -5  -1 -14    8.38    0.42
   1  -5  14    9.04    0.34
  -5   1  14    8.13    0.26
   1   5 -14    7.99    0.34
   5   1 -14    8.95    0.29
   5  -1  14    8.75    0.35
  -1   5  14    8.51    0.31
  -1   5  14    8.34    0.33
  -5   1  14    9.21    0.49
  -1   5  12    2.75    0.19
  -5  -1 -12    2.89    0.25
   5   1 -12    2.91    0.14
   1  -5  12    2.90    0.20
  -5   1  12    2.88    0.12
   1   5 -12    3.05    0.19
  -1   5  12    2.59    0.17
   5  -1  12    2.88    0.21
   1  -5  12    2.94    0.19
  -5   1  12    3.04    0.29
   5  -1  10   13.66    0.44
   1  -5  10   13.43    0.42
   1   5 -10   12.71    0.41
   5   1 -10   13.73    0.36
  -5   1  10   12.86    0.55
  -5   1  10   12.82    0.34
  -1   5  10   13.45    0.41
  -5  -1 -10   13.49    0.49
   1  -5  10   13.10    0.42
   5   1  -8    4.58    0.16
  -1  -5  -8    4.90    0.19
  -5   1   8    4.84    0.31
  -5  -1  -8    3.90    0.27
   1   5  -8    4.85    0.20
   1  -5   8    4.37    0.21
   1  -5   8    4.46    0.21
   5  -1   8    4.86    0.23
   1  -5   6   37.78    1.00
   5  -1   6   40.64    1.03
   1   5  -6   41.42    1.00
   1  -5   6   41.44    1.00
  -5   1   6   41.06    0.94
   1   5  -6   40.69    0.99
  -1  -5  -6   39.50    0.97
  -5   1   6   41.65    1.11
  -5  -1  -6   43.03    1.10
   1   5  -6   39.67    0.98
  -5  -1  -4   15.81    0.54
  -5   1   4   16.18    0.39
   1   5  -4   15.83    0.43
   1   5  -4   15.63    0.40
   1  -5   4   16.16    0.44
   5  -1   4   16.64    0.44
   5  -1   4   15.65    0.49
  -5  -1  -2   74.64    1.80
   1   5  -2   75.34    1.78
   5  -1   2   74.84    1.81
   5  -1   2   76.46    1.88
   1   5  -2   76.01    1.77
   5  -1   2   77.92    1.79
  -5   1   2   76.75    1.75
  -5   1   0   71.50    1.83
  -1   5   0   78.02    1.80
   5  -1   0   75.77    1.79
  -5  -1   0   75.47    1.86
   5  -1   0   78.00    1.79
  -1  -5   0   74.33    1.81
   5  -1   0   74.06    1.85
   5  -1  -2   78.73    1.78
  -5   1  -2   75.13    1.94
  -5  -1   2   71.79    1.89
   5  -1  -2   78.45    1.78
   5   1   2   76.24    1.84
  -1  -5   2   77.57    1.81
  -5   1  -2   77.98    1.82
   5   1   4   14.87    0.43
  -5   1  -4   15.50    0.44
  -1  -5   4   15.50    0.41
  -1   5  -4   13.90    0.42
   1  -5  -4   15.77    0.43
   5   1   4   15.00    0.48
  -5   1  -4   15.14    0.51
  -5   1  -6   41.51    1.12
  -1  -5   6   41.13    1.03
  -1  -5   6   41.37    1.02
  -1   5  -6   41.19    1.03
   5   1   6   41.14    1.09
   5   1   6   41.82    1.00
   1  -5  -6   40.60    1.04
   5  -1  -8    4.30    0.13
  -1   5  -8    4.87    0.21
  -1  -5   8    4.85    0.19
  -1   5  -8    4.13    0.14
  -1  -5   8    4.92    0.20
  -5  -1   8    3.83    0.12
   5   1   8    4.90    0.24
   5   1   8    4.91    0.15
   5   1   8    4.51    0.22
   1  -5  -8    4.55    0.23
  -5   1  -8    4.53    0.26
  -1   5 -10   13.11    0.42
  -5   1 -10   13.66    0.49
  -1  -5  10   13.48    0.42
   1  -5 -10   12.77    0.45
  -1  -5  10   13.06    0.40
   5   1  10   13.48    0.44
  -1   5 -10   12.39    0.36
  -5  -1  12    2.54    0.13
  -1   5 -12    2.74    0.15
  -1   5 -12    2.56    0.20
  -1  -5  12    2.47    0.18
   1   5  12    2.87    0.18
  -5   1 -12    2.75    0.24
  -1  -5  12    2.59    0.16
   5   1  12    2.92    0.20
   1   5  14    8.48    0.33
   5   1  14    8.29    0.35
  -1   5 -14    8.59    0.35
  -1  -5  14    8.58    0.32
  -5  -1  14    8.02    0.28
  -5   1 -14    8.22    0.40
   1   5  14    8.11    0.27
  -1   5 -14    8.39    0.30
  -1  -5  14    8.31    0.34
  -5  -1  16    9.97    0.57
  -1  -5  16   10.76    0.41
   5   1  16   10.55    0.41
  -1   5 -16   11.35    0.43
  -5  -1  16   10.60    0.35
  -1   5 -16   10.18    0.37
   1   5  16   10.24    0.39
  -5   1 -16   11.04    0.48
  -1  -5  16   10.89    0.39
   1   5  16    9.74    0.33
  -1  -5  18    0.98    0.19
   1   5  18    1.07    0.17
  -1   5 -18    1.28    0.17
   1   5  18    0.97    0.13
   5   1  18    0.66    0.19
  -1  -5  18    1.13    0.17
   5   1  18    1.05    0.14
  -5   1 -18    1.04    0.25
  -5  -1  18    1.00    0.32
  -5  -1  18    1.40    0.15
  -1   5 -18    0.91    0.20
  -5  -1  20    3.22    0.41
  -5   1 -20    2.83    0.31
  -5  -1  20    3.08    0.20
  -1   5 -20    3.32    0.29
   5   1  20    2.89    0.26
  -1  -5  20    3.29    0.25
   1   5  20    2.92    0.22
  -1   5 -20    3.09    0.24
  -1  -5  20    3.08    0.24
   1   5  20    2.80    0.17
   5   1  20    2.36    0.18
  -5  -1  20    3.26    0.19
   1   5  22    1.76    0.14
  -5  -1  22    1.53    0.36
  -5   1 -22    1.99    0.30
  -5  -1  22    1.80    0.18
  -1   5 -22    1.95    0.26
  -1  -5  22    1.74    0.20
  -1  -5  22    1.90    0.22
  -1   5 -22    1.58    0.23
   5   1  22    1.31    0.14
   5   1  22    1.53    0.23
  -5  -1  22    1.58    0.16
  -1  -5  24    0.74    0.20
  -5  -1  24    0.93    0.36
  -5   1 -24    0.90    0.30
   5   1  24    0.76    0.23
  -1   5 -24    0.59    0.24
  -5  -1  24    0.69    0.16
  -1   5 -24    0.53    0.22
   1   5  24    1.01    0.20
  -1  -5  24    1.16    0.23
  -5  -1  26    2.19    0.40
  -1  -5  26    2.68    0.24
  -5   1 -26    2.15    0.36
   1  -5 -28    0.91    0.33
  -5  -1  28    1.52    0.39
   5   1  30   -0.04    0.23
   1  -5 -30   -0.08    0.32
   5  -2  29    0.51    0.27
  -5  -2 -29   -0.03    0.36
  -2  -5 -29   -0.03    0.32
  -5  -2 -27    1.17    0.35
  -5   2  27    1.22    0.33
  -2  -5 -27    1.42    0.35
   2  -5  27    1.31    0.25
   5  -2  27    1.22    0.27
   2  -5  25    0.32    0.21
  -2   5  25    0.03    0.19
  -2  -5 -25    0.20    0.28
  -5   2  25    0.29    0.29
  -5  -2 -25    0.02    0.26
   2   5 -25    0.10    0.22
  -2  -5 -23    0.85    0.28
   2  -5  23    0.64    0.21
  -2   5  23    0.52    0.20
  -5  -2 -23    1.10    0.30
  -5   2  23    0.49    0.29
   2   5 -23    0.84    0.22
   5  -2  23    0.64    0.22
   5  -2  23    1.33    0.23
  -2   5  23    0.66    0.15
   2  -5  23    0.47    0.19
   2  -5  21    0.71    0.20
  -2  -5 -21    0.61    0.25
  -5  -2 -21    0.45    0.26
   2  -5  21    0.52    0.20
  -5   2  21    0.26    0.28
  -2   5  21    0.59    0.15
   5  -2  21    0.32    0.19
   2   5 -21    0.67    0.20
  -2   5  21    0.52    0.19
   5  -2  19    4.96    0.29
  -2  -5 -19    3.97    0.36
   2  -5  19    4.18    0.29
   2  -5  19    4.48    0.31
  -5  -2 -19    4.24    0.36
  -5   2  19    4.25    0.20
   2   5 -19    4.24    0.27
   5   2 -19    4.48    0.24
  -2   5  19    4.13    0.28
  -5   2  19    4.23    0.40
  -2   5  19    4.56    0.23
   2  -5  17    6.88    0.35
   2   5 -17    7.36    0.34
  -5   2  17    7.23    0.25
   5   2 -17    7.22    0.29
   5  -2  17    6.96    0.34
  -2   5  17    7.58    0.29
  -5   2  17    7.29    0.47
   2  -5  17    7.32    0.35
  -5  -2 -17    7.18    0.43
  -2   5  17    7.04    0.34
   2  -5  15    5.18    0.28
  -5  -2 -15    5.70    0.35
  -5   2  15    5.15    0.19
   2   5 -15    5.25    0.27
  -2   5  15    5.30    0.29
   5   2 -15    6.04    0.24
   2  -5  15    5.08    0.29
   5  -2  15    5.66    0.29
  -2   5  15    5.44    0.23
  -5   2  15    5.14    0.41
  -5   2  13    6.27    0.40
  -2   5  13    6.79    0.25
   2  -5  13    7.59    0.31
  -2   5  13    7.27    0.32
   2  -5  13    6.48    0.29
   2   5 -13    6.93    0.28
   5   2 -13    6.61    0.25
  -5  -2 -13    6.61    0.37
  -5   2  13    6.92    0.21
   5  -2  13    7.01    0.31
   2  -5  11    7.96    0.32
   5   2 -11    8.08    0.26
  -5  -2 -11    8.36    0.39
  -2   5  11    7.85    0.32
   2   5 -11    7.98    0.30
   2  -5  11    7.89    0.32
  -2   5  11    7.76    0.26
  -5   2  11    7.67    0.41
  -5   2  11    7.43    0.21
   5  -2  11    7.83    0.32
   5   2  -9    6.17    0.21
  -2   5   9    6.83    0.27
   2   5  -9    6.28    0.24
   2  -5   9    6.84    0.27
  -5   2   9    6.33    0.35
  -5  -2  -9    6.91    0.32
   2  -5   9    6.19    0.26
   2  -5   7    1.83    0.14
  -2   5   7    2.01    0.15
   5  -2   7    1.63    0.15
   5   2  -7    1.76    0.10
   2   5  -7    1.76    0.13
  -5  -2  -7    1.67    0.20
   2   5  -7    1.50    0.11
  -5   2   7    1.69    0.20
   2  -5   7    1.29    0.14
  -2  -5  -7    1.52    0.09
   2   5  -5   32.71    0.82
   2   5  -5   32.23    0.84
   2  -5   5   32.62    0.83
   5  -2   5   31.66    0.86
  -5   2   5   33.48    0.78
   2   5  -5   30.90    0.80
  -5  -2  -5   32.60    0.92
  -5  -2  -5   32.80    0.78
   5  -2   3   12.29    0.44
   5  -2   3   12.54    0.37
   5  -2   3   12.26    0.37
   2   5  -3   13.22    0.36
   5  -2   3   13.49    0.39
   2   5  -3   13.33    0.37
  -2  -5  -3   13.59    0.41
  -5  -2  -3   11.08    0.37
  -5   2   3   12.77    0.34
   5   2  -3   11.91    0.50
  -2  -5  -1    6.59    0.26
  -5   2   1    7.23    0.22
  -5   2   1    6.85    0.21
   5   2  -1    6.54    0.34
   5  -2   1    6.72    0.22
   5  -2   1    6.61    0.34
  -2   5   1    7.31    0.22
   2  -5   1    6.68    0.23
  -5  -2  -1    6.86    0.28
   5  -2   1    6.43    0.26
  -2   5   1    6.46    0.23
   2   5  -1    7.06    0.24
   5  -2   1    7.36    0.23
  -5   2  -1    6.61    0.22
  -2   5  -1    6.60    0.22
  -2  -5   1    6.50    0.25
   5  -2  -1    6.86    0.20
  -5   2  -1    7.01    0.25
   5  -2  -1    6.50    0.20
  -5   2  -3   14.53    0.50
  -5   2  -3   15.01    0.40
  -2   5  -3   13.38    0.39
   5  -2  -3   14.10    0.34
   2  -5  -3   14.02    0.41
   5  -2  -3   13.90    0.36
   5  -2  -5   34.37    0.93
   2  -5  -5   30.44    0.85
  -5   2  -5   34.54    0.92
  -2  -5   5   32.63    0.81
   5   2   5   33.21    0.89
  -2   5  -5   31.95    0.83
  -5   2  -5   31.33    0.84
  -2  -5   7    2.54    0.12
  -2  -5   7    2.14    0.15
   5   2   7    1.95    0.18
   2  -5  -7    2.43    0.19
  -5   2  -7    1.95    0.19
  -2   5  -9    5.55    0.25
   2  -5  -9    6.05    0.30
   5   2   9    5.99    0.26
  -2  -5   9    6.10    0.24
  -2   5  -9    5.58    0.20
  -5  -2   9    5.25    0.16
  -5   2  -9    6.29    0.29
  -2  -5   9    6.22    0.22
  -2  -5  11    8.57    0.30
  -5   2 -11    8.49    0.36
  -2  -5  11    7.88    0.28
  -2   5 -11    7.56    0.26
  -5  -2  11    7.33    0.22
  -5   2 -11    7.71    0.34
  -2   5 -11    7.54    0.31
   5   2  11    7.76    0.32
  -2   5 -13    6.21    0.30
  -5   2 -13    5.86    0.31
  -5  -2  13    6.12    0.23
  -5  -2  13    6.28    0.21
  -5   2 -13    6.58    0.34
   5   2  13    6.24    0.30
  -2  -5  13    6.68    0.26
   2   5  13    6.20    0.28
  -2  -5  13    6.62    0.28
  -2   5 -13    6.16    0.25
   2   5  15    4.43    0.25
  -5   2 -15    4.53    0.29
  -5  -2  15    5.27    0.19
  -2   5 -15    4.50    0.26
  -5   2 -15    5.02    0.31
  -5  -2  15    5.11    0.22
  -2  -5  15    4.83    0.23
   5   2  15    4.91    0.27
  -2   5 -15    4.41    0.23
  -2  -5  15    4.72    0.25
  -2  -5  17    7.28    0.30
   2   5  17    7.50    0.32
  -5   2 -17    7.29    0.39
  -2   5 -17    7.16    0.35
  -2   5 -17    7.19    0.31
  -2  -5  17    7.14    0.31
  -5  -2  17    7.36    0.28
   5   2  17    7.48    0.35
  -2  -5  19    4.60    0.25
  -2   5 -19    4.39    0.27
  -2  -5  19    4.44    0.27
  -5  -2  19    3.95    0.20
  -5  -2  19    4.62    0.45
   2   5  19    4.33    0.27
  -5   2 -19    4.70    0.34
   5   2  19    4.48    0.28
  -2   5 -19    4.40    0.31
  -2   5 -21    0.54    0.19
  -2  -5  21    0.88    0.17
  -5  -2  21    0.58    0.34
  -5  -2  21    0.68    0.14
  -5  -2  21    0.68    0.16
   5   2  21    0.76    0.19
  -2  -5  21    0.78    0.19
  -2   5 -21    0.83    0.23
  -5   2 -21    0.82    0.25
   2   5  21    0.91    0.18
  -2  -5  23    0.64    0.19
   2   5  23    0.53    0.18
  -2   5 -23    0.35    0.20
  -2  -5  23    0.87    0.19
  -5  -2  23    0.92    0.15
  -2   5 -23    0.67    0.26
   5   2  23    0.52    0.21
  -5   2 -23    0.54    0.28
  -5  -2  23    1.39    0.39
  -5  -2  23    0.82    0.17
  -2  -5  25    0.13    0.18
  -5   2 -25   -0.04    0.27
  -2   5 -25    0.12    0.22
  -2  -5  25    0.08    0.18
  -5  -2  25    0.06    0.36
  -5  -2  27    1.62    0.39
  -5   2 -27    1.45    0.34
  -3  -5 -30   -0.37    0.36
  -5  -3 -30    0.15    0.36
   5  -3  30    0.32    0.24
  -5  -3 -28    0.46    0.32
  -3  -5 -28    0.17    0.36
   3  -5  28    0.40    0.23
  -5   3  26    0.41    0.28
  -5  -3 -26    0.29    0.29
  -3  -5 -26    0.05    0.30
   5  -3  26    0.64    0.24
   3  -5  26    0.17    0.21
  -3  -5 -24    0.24    0.31
   3   5 -24    0.36    0.20
   3  -5  24    0.28    0.21
  -5  -3 -24    0.15    0.29
  -5   3  24    0.12    0.26
   5  -3  24    0.32    0.23
  -3   5  24    0.20    0.22
  -3  -5 -22    5.42    0.44
  -3   5  22    5.81    0.26
  -5   3  22    5.52    0.24
   5  -3  22    5.66    0.35
  -5   3  22    5.90    0.46
   5   3 -22    5.83    0.31
   3  -5  22    6.08    0.36
  -5  -3 -22    5.21    0.43
  -3   5  22    5.24    0.34
   3   5 -22    5.35    0.33
   3  -5  22    5.27    0.35
   5  -3  22    5.78    0.35
  -5   3  20    3.54    0.37
  -3   5  20    3.79    0.20
  -5   3  20    3.50    0.18
   3  -5  20    4.24    0.29
   3  -5  20    4.22    0.30
   5   3 -20    3.59    0.24
  -3   5  20    3.64    0.29
   5  -3  20    3.84    0.29
  -3  -5 -20    3.97    0.37
  -5  -3 -20    3.91    0.37
   3   5 -20    3.16    0.26
   5  -3  20    3.42    0.27
   3   5 -18   14.68    0.51
  -3   5  18   14.27    0.54
  -3  -5 -18   14.07    0.62
  -5   3  18   14.18    0.41
  -3   5  18   15.29    0.45
  -5   3  18   14.23    0.63
   3  -5  18   14.73    0.54
  -5  -3 -18   14.43    0.63
   5  -3  18   13.22    0.52
   5   3 -18   14.76    0.48
   3  -5  18   14.84    0.53
   5  -3  16    0.85    0.18
  -3   5  16    0.81    0.20
   3   5 -16    0.66    0.14
  -5   3  16    0.55    0.09
   5   3 -16    0.63    0.13
   3  -5  16    0.69    0.19
  -5   3  16    0.44    0.27
  -5  -3 -16    0.38    0.21
  -3   5  16    0.63    0.11
  -3  -5 -16    0.62    0.23
   3  -5  16    0.70    0.18
   3  -5  14   11.65    0.44
  -3  -5 -14   11.47    0.50
  -5   3  14   10.86    0.52
  -3   5  14   11.76    0.35
   3   5 -14   10.98    0.39
   5  -3  14   11.44    0.43
  -3   5  14   11.17    0.45
  -5  -3 -14   11.29    0.51
   5   3 -14   11.64    0.37
   3  -5  14   11.54    0.42
  -5   3  14   10.87    0.31
  -5   3  12   69.10    1.80
   5  -3  12   66.17    1.69
  -3   5  12   65.75    1.61
  -3  -5 -12   66.09    1.77
   3   5 -12   67.94    1.66
   5   3 -12   66.34    1.63
  -3   5  12   67.77    1.71
   3  -5  12   68.30    1.70
   3  -5  12   66.17    1.68
  -5  -3 -12   68.04    1.79
   5   3 -10   16.85    0.47
   3  -5  10   16.39    0.52
  -5  -3 -10   17.61    0.61
  -3  -5 -10   16.58    0.58
  -5   3  10   17.42    0.60
   3   5 -10   16.63    0.49
  -3   5  10   16.92    0.53
   5  -3  10   16.22    0.52
   3  -5  10   16.79    0.52
  -5  -3  -8   19.52    0.66
   5   3  -8   20.32    0.53
  -3   5   8   20.67    0.60
   5  -3   8   19.20    0.57
   3  -5   8   21.05    0.58
   3   5  -8   20.06    0.53
  -5   3   8   20.94    0.66
   5  -3   8   17.92    0.58
   3   5  -8   20.48    0.56
   3   5  -6   57.48    1.48
   5   3  -6   59.10    1.39
  -5   3   6   59.14    1.38
   5  -3   6   58.76    1.44
  -5  -3  -6   55.40    1.51
   3  -5   6   60.57    1.44
   3   5  -6   57.70    1.38
   3  -5   6   57.87    1.36
   3   5  -6   61.26    1.42
  -3   5   6   60.47    1.45
  -5   3   6   59.71    1.50
   5   3  -6   54.87    1.34
   5  -3   4   13.75    0.45
  -5  -3  -4   13.01    0.38
  -5   3   4   13.97    0.37
   5   3  -4   13.48    0.34
   5  -3   4   14.17    0.40
   3  -5   4   13.50    0.38
   3   5  -4   13.58    0.44
   5   3  -4   13.36    0.53
   3   5  -4   13.70    0.37
   5  -3   2   60.67    1.52
  -5   3   2   57.04    1.38
   5  -3   2   59.67    1.44
  -3  -5  -2   58.46    1.48
  -5   3   2   58.93    1.40
   5   3  -2   56.19    1.53
   3  -5   2   57.45    1.41
   3   5  -2   57.72    1.45
  -3   5   2   60.50    1.39
   5  -3   2   58.47    1.42
   5  -3   2   59.99    1.41
  -3   5   2   58.32    1.42
  -5  -3   0    3.18    0.25
   5  -3   0    4.28    0.17
   5   3   0    4.25    0.26
   3   5   0    4.55    0.20
  -5   3   0    4.28    0.16
   3  -5   0    4.38    0.17
   5  -3   0    4.18    0.15
  -5   3   0    4.22    0.16
  -3   5   0    4.05    0.18
  -3  -5   0    4.46    0.23
  -3   5   0    4.64    0.16
  -5   3  -2   57.56    1.43
   5  -3  -2   58.88    1.41
  -5   3  -2   58.98    1.43
   3   5   2   57.35    1.47
  -3  -5   2   60.52    1.50
  -3   5  -2   60.27    1.43
   5  -3  -2   60.15    1.39
   3  -5  -2   58.78    1.46
   3  -5  -4   14.63    0.45
  -5   3  -4   15.18    0.43
   5  -3  -4   14.91    0.50
  -3   5  -4   14.44    0.43
   3  -5  -6   60.18    1.49
  -3   5  -6   55.79    1.44
   5  -3  -6   59.88    1.54
  -3  -5   6   60.66    1.40
  -5   3  -6   61.07    1.51
   5  -3  -8   21.06    0.67
  -3   5  -8   20.49    0.53
  -3  -5   8   21.01    0.52
   3  -5  -8   21.22    0.63
  -5   3  -8   21.82    0.62
   3  -5 -10   17.95    0.60
  -3   5 -10   17.60    0.50
   5   3  10   18.52    0.55
  -3   5 -10   17.17    0.54
  -5   3 -10   18.54    0.57
  -5  -3  10   16.49    0.44
  -3  -5  10   17.25    0.51
  -3  -5  10   17.25    0.48
  -3  -5  12   69.66    1.66
   5   3  12   66.99    1.69
  -5   3 -12   64.07    1.71
  -3   5 -12   64.99    1.70
  -5  -3  12   65.97    1.59
  -5   3 -12   67.06    1.72
  -3  -5  12   68.62    1.63
  -3   5 -12   66.70    1.65
  -3  -5  14   11.31    0.39
   3   5  14   10.79    0.40
  -3   5 -14   10.25    0.42
  -3   5 -14   10.00    0.38
  -5   3 -14   11.10    0.45
  -3  -5  14   10.98    0.36
  -5   3 -14   11.39    0.44
  -5  -3  14   10.69    0.32
   5   3  14   10.46    0.41
  -3   5 -16    0.58    0.18
  -3  -5  16    0.66    0.14
   3   5  16    0.51    0.17
   5   3  16    0.72    0.17
  -5  -3  16    0.70    0.11
  -5   3 -16    0.33    0.18
  -3   5 -16    0.83    0.16
  -5  -3  16    0.52    0.13
  -3  -5  16    0.89    0.17
  -5   3 -16    0.69    0.21
  -5   3 -18   14.34    0.58
   5   3  18   14.16    0.53
  -3  -5  18   15.26    0.51
  -3  -5  18   14.01    0.47
   3   5  18   14.94    0.51
  -5  -3  18   14.52    0.46
  -5  -3  18   14.15    0.44
  -5   3 -18   14.09    0.56
  -3   5 -18   14.44    0.52
  -3   5 -18   14.73    0.56
  -3   5 -20    3.17    0.27
  -3  -5  20    3.66    0.25
  -3   5 -20    4.23    0.31
  -5  -3  20    3.59    0.22
  -3  -5  20    3.17    0.22
  -5   3 -20    3.73    0.33
   3   5  20    4.01    0.27
   5   3  20    4.00    0.27
  -3  -5  22    5.10    0.30
  -5  -3  22    5.96    0.52
  -5  -3  22    5.20    0.28
  -3  -5  22    5.71    0.29
  -5   3 -22    6.08    0.41
  -3   5 -22    5.23    0.34
  -3   5 -22    5.24    0.37
   3   5  22    5.50    0.32
  -5  -3  22    5.17    0.25
  -3  -5  24    0.23    0.17
  -5   3 -24    0.47    0.26
  -5  -3  24    0.34    0.14
  -3   5 -24    0.66    0.24
  -3  -5  24    0.23    0.17
   3   5  24    0.16    0.18
  -5  -3  24    0.06    0.36
  -5  -3  26    0.61    0.41
  -5   3 -26    0.36    0.28
  -5  -3  28    0.37    0.39
  -3  -5  28   -0.19    0.39
  -5  -4 -29    1.78    0.41
   5  -4  29    2.23    0.30
  -4  -5 -29    2.27    0.44
   4  -5  29    1.66    0.28
   4  -5  27    1.62    0.27
  -4  -5 -27    1.88    0.39
  -5  -4 -27    1.91    0.38
   5  -4  27    1.46    0.27
  -5   4  25    5.68    0.42
  -5  -4 -25    6.76    0.51
   4  -5  25    6.14    0.39
  -4  -5 -25    5.43    0.50
   5  -4  25    6.95    0.41
  -4   5  25    6.07    0.39
   4   5 -25    6.62    0.37
   4  -5  23   12.26    0.55
   4  -5  23   12.47    0.54
  -4  -5 -23   12.86    0.66
   5  -4  23   12.36    0.55
  -4   5  23   12.77    0.54
   4   5 -23   12.52    0.51
  -5   4  23   12.83    0.60
   5   4 -23   12.92    0.49
  -5  -4 -23   12.97    0.65
   5  -4  21    1.90    0.24
   4   5 -21    1.91    0.22
  -5  -4 -21    1.98    0.32
  -5   4  21    1.71    0.13
  -4  -5 -21    1.43    0.31
   5  -4  21    1.32    0.24
   4  -5  21    1.52    0.23
  -5   4  21    1.55    0.30
   5   4 -21    1.47    0.20
   4  -5  21    1.42    0.22
  -4   5  21    1.37    0.26
  -4   5  19   18.00    0.51
   4  -5  19   18.56    0.65
  -4   5  19   18.58    0.67
  -5  -4 -19   17.58    0.73
   4   5 -19   17.91    0.59
   5   4 -19   18.46    0.57
  -5   4  19   17.41    0.49
   4  -5  19   19.06    0.64
   5  -4  19   18.03    0.63
  -5   4  19   17.94    0.71
  -4  -5 -19   17.13    0.72
   5  -4  19   16.82    0.64
  -4   5  17   32.19    1.06
   5  -4  17   36.70    1.04
  -5  -4 -17   36.50    1.15
   4  -5  17   35.59    1.04
  -4   5  17   37.14    0.92
  -5   4  17   36.49    1.12
  -4  -5 -17   36.00    1.14
   4  -5  17   36.59    1.04
   4   5 -17   36.17    0.99
   5   4 -17   36.15    0.97
  -5   4  17   35.75    0.90
   5  -4  17   36.34    1.05
   4  -5  15   14.43    0.50
   5   4 -15   13.72    0.45
   5  -4  15   14.40    0.50
  -4  -5 -15   13.57    0.58
  -4   5  15   14.57    0.55
  -5   4  15   13.59    0.59
   4  -5  15   13.85    0.51
  -5  -4 -15   14.21    0.60
  -4   5  15   14.72    0.40
   5  -4  15   14.40    0.52
   4   5 -15   13.99    0.46
  -5   4  15   13.54    0.38
   4   5 -13   54.32    1.38
  -5  -4 -13   54.12    1.52
  -4   5  13   54.59    1.47
   5  -4  13   56.04    1.45
  -5   4  13   54.74    1.51
   5   4 -13   54.50    1.36
  -4   5  13   55.69    1.32
  -5   4  13   53.21    1.29
   4  -5  13   56.08    1.42
   4  -5  13   53.61    1.43
  -4  -5 -13   57.35    1.53
   5  -4  13   55.16    1.42
   4  -5  11   56.57    1.46
   5  -4  11   57.59    1.48
   5  -4  11   57.41    1.46
  -5   4  11   57.48    1.55
   4  -5  11   58.11    1.48
  -4  -5 -11   58.82    1.56
  -4   5  11   57.02    1.36
  -5  -4 -11   58.03    1.56
  -4   5  11   55.25    1.50
   5   4 -11   57.59    1.41
   4   5 -11   56.41    1.42
   4   5  -9    0.59    0.10
   5   4  -9    0.64    0.10
   5  -4   9    0.64    0.13
   4  -5   9    0.59    0.13
  -4   5   9    0.72    0.14
  -5   4   9    0.63    0.16
  -4  -5  -9    0.57    0.16
  -5  -4  -9    0.71    0.18
   5   4  -7  282.15    6.52
   4  -5   7  282.80    6.50
  -5  -4  -7  264.08    6.65
   4   5  -7  285.66    6.54
   5  -4   7  281.67    6.54
  -4   5   7  275.19    6.59
  -5   4   7  286.98    6.62
   4   5  -7  286.24    6.50
   4   5  -7  272.58    6.64
   5   4  -7  280.48    6.48
   4  -5   7  283.70    6.57
  -4   5   5  128.31    2.84
   5   4  -5  122.71    2.93
   4  -5   5  122.22    2.78
   5  -4   5  120.48    2.80
  -5   4   5  121.57    2.77
   5  -4   5  123.86    2.82
   4   5  -5  123.48    2.78
  -4   5   5  113.75    2.73
   4   5  -5  125.85    2.88
  -5   4   5  109.16    2.71
  -4   5   5  121.61    2.78
   4   5  -5  120.71    2.75
  -5  -4  -5  119.27    2.76
  -5   4   5  121.97    2.85
   5   4  -5  116.95    2.73
  -4   5   3  112.15    2.62
   5   4  -3  111.36    2.74
   5  -4   3  113.07    2.63
  -4   5   3  114.53    2.59
  -4  -5  -3  103.73    2.71
  -5   4   3  112.49    2.58
   5  -4   3  112.84    2.71
  -5   4   3  105.08    2.61
   4   5  -3  108.26    2.69
   4  -5   3  111.65    2.63
   5   4  -1  137.35    3.36
  -5   4   1  142.14    3.24
  -5   4   1  138.27    3.26
  -4  -5  -1  135.88    3.36
   5  -4   1  143.17    3.28
  -4   5   1  143.04    3.27
   4   5  -1  136.18    3.32
   5  -4   1  138.78    3.26
   4  -5   1  136.69    3.26
  -4   5   1  142.28    3.25
  -5  -4  -1  130.22    3.38
   5  -4  -1  141.42    3.27
   4  -5  -1  138.71    3.28
   4   5   1  138.01    3.33
   5   4   1  136.86    3.35
   5  -4  -1  140.16    3.25
  -4  -5   1  138.45    3.37
  -5  -4   1  138.33    3.41
  -4   5  -1  135.60    3.28
   4  -5  -1  140.94    3.25
  -5   4  -1  140.47    3.26
  -4   5  -1  142.70    3.27
  -5   4  -1  139.42    3.28
  -5   4  -3  108.31    2.55
   4   5   3  106.41    2.60
   5  -4  -3  106.98    2.49
  -5   4  -3  110.15    2.55
   4  -5  -3  105.21    2.58
  -4  -5   3  105.34    2.65
   5  -4  -3  101.00    2.60
  -4   5  -3  111.54    2.55
   5  -4  -5  123.10    2.99
   4  -5  -5  123.93    2.96
  -4   5  -5  122.79    2.91
  -5   4  -5  121.29    2.92
  -5   4  -7  287.07    6.83
   4  -5  -7  290.81    6.84
  -4  -5   7  292.75    6.71
   5  -4  -7  289.99    6.87
  -4   5  -9    0.59    0.12
  -5  -4   9    0.79    0.07
   4  -5  -9    0.78    0.20
  -5   4  -9    0.64    0.15
   5  -4  -9    0.63    0.20
  -4  -5   9    0.64    0.08
  -4  -5  11   55.92    1.37
  -4   5 -11   58.57    1.43
  -4   5 -11   54.65    1.45
   4  -5 -11   58.27    1.54
  -5   4 -11   58.68    1.48
  -5  -4  11   55.53    1.35
  -4  -5  13   53.58    1.32
  -4   5 -13   53.76    1.38
   5   4  13   52.54    1.40
  -5   4 -13   53.88    1.42
   4   5  13   54.74    1.40
  -5   4 -13   55.94    1.43
  -4   5 -13   53.29    1.41
  -5  -4  13   53.11    1.30
  -4  -5  15   14.25    0.42
   4   5  15   13.38    0.49
  -5   4 -15   14.11    0.52
  -4  -5  15   13.81    0.45
  -5   4 -15   13.79    0.51
  -4   5 -15   14.23    0.49
  -4   5 -15   13.72    0.51
  -5  -4  15   12.81    0.39
   5   4  15   13.66    0.49
  -5   4 -17   34.05    1.03
  -5   4 -17   34.41    1.03
  -4  -5  17   35.19    0.92
  -5  -4  17   34.78    0.90
   5   4  17   34.67    0.99
  -4  -5  17   35.08    0.96
   4   5  17   34.91    0.98
  -4   5 -17   33.70    0.99
  -4   5 -17   35.80    1.03
  -4   5 -19   19.19    0.65
  -4   5 -19   18.71    0.67
  -4  -5  19   18.04    0.55
  -4  -5  19   19.26    0.60
  -5  -4  19   17.68    0.53
  -5   4 -19   18.60    0.68
   5   4  19   19.03    0.63
   4   5  19   18.30    0.61
  -5   4 -19   18.32    0.67
  -4   5 -21    2.14    0.27
  -4   5 -21    1.59    0.25
   4   5  21    1.79    0.22
   5   4  21    1.97    0.25
  -4  -5  21    1.81    0.18
  -5  -4  21    1.65    0.16
  -5   4 -21    2.12    0.27
  -4  -5  21    1.48    0.21
  -4  -5  23   12.00    0.43
   5   4  23   12.02    0.50
  -5  -4  23   11.37    0.41
  -4   5 -23   11.52    0.54
  -5   4 -23   12.04    0.57
  -4  -5  25    5.62    0.29
  -5   4 -25    4.77    0.40
  -5  -4  25    5.63    0.56
  -5  -4  27    2.04    0.45
  -4  -5  27    0.91    0.43
   5  -5  30    0.49    0.26
  -5  -5 -28    3.56    0.46
  -5   5  26    4.70    0.38
  -5  -5 -26    5.48    0.51
   5  -5  26    5.61    0.38
  -5  -5 -24    1.40    0.36
   5   5 -24    1.72    0.22
   5  -5  24    1.54    0.26
  -5   5  24    1.48    0.27
  -5   5  22   29.57    0.99
   5   5 -22   30.41    0.90
  -5   5  22   29.48    0.79
  -5  -5 -22   30.49    1.11
   5  -5  22   31.89    0.98
   5  -5  22   31.37    0.96
   5  -5  20   17.26    0.62
  -5   5  20   16.58    0.67
   5   5 -20   16.29    0.56
  -5  -5 -20   17.11    0.74
   5   5 -18   13.90    0.48
  -5   5  18   13.83    0.39
  -5  -5 -18   13.85    0.64
   5  -5  18   14.06    0.53
   5  -5  18   13.45    0.53
  -5   5  18   13.01    0.57
  -5   5  16   31.69    1.00
  -5  -5 -16   33.22    1.07
  -5   5  16   32.06    0.80
   5   5 -16   31.20    0.88
   5  -5  16   32.39    0.93
   5  -5  16   32.56    0.95
  -5  -5 -14   53.39    1.50
   5   5 -14   52.52    1.33
  -5   5  14   52.89    1.46
  -5   5  14   51.04    1.25
   5  -5  14   53.66    1.39
   5  -5  14   55.43    1.41
  -5  -5 -12   27.63    0.89
  -5   5  12   26.28    0.65
  -5   5  12   26.02    0.83
   5  -5  12   27.15    0.80
   5   5 -12   27.66    0.74
   5  -5  12   27.57    0.79
   5   5 -10  106.34    2.50
   5  -5  10  112.11    2.56
  -5   5  10  108.59    2.60
  -5  -5 -10  110.97    2.66
   5  -5   8  217.29    4.80
   5   5  -8  218.66    4.76
   5   5  -8  213.89    4.81
  -5   5   8  216.13    4.90
   5  -5   8  204.42    4.86
  -5   5   6   16.73    0.47
   5   5  -6   17.07    0.44
  -5   5   6   17.05    0.54
  -5   5   6   16.51    0.41
   5   5  -6   17.79    0.48
   5  -5   6   17.18    0.49
   5  -5   6   15.33    0.49
   5   5  -6   17.24    0.61
   5  -5   4  212.02    4.74
  -5   5   4  215.88    4.68
   5   5  -4  211.12    4.80
  -5   5   4  212.10    4.74
   5   5  -4  205.21    4.65
   5  -5   4  212.92    4.70
   5   5  -2  157.23    3.81
  -5   5   2  156.95    3.72
  -5  -5  -2  152.24    3.83
   5  -5   2  150.01    3.73
   5  -5   2  163.07    3.72
  -5   5   2  165.03    3.69
   5  -5   0   14.76    0.42
   5   5   0   15.26    0.50
  -5   5   0   15.43    0.42
   5  -5   0   15.49    0.44
  -5  -5   0   15.78    0.54
  -5   5   0   15.57    0.44
   5  -5  -2  156.06    3.61
   5   5   2  153.02    3.68
   5  -5  -2  155.00    3.58
  -5  -5   2  152.87    3.75
  -5   5  -2  154.97    3.62
  -5   5  -2  150.42    3.61
  -5   5  -4  205.60    4.61
   5  -5  -4  202.24    4.67
   5  -5  -6   18.01    0.59
  -5   5  -6   17.30    0.52
  -5   5  -8  221.48    5.16
   5  -5  -8  213.99    5.21
   5  -5 -10  110.13    2.73
  -5  -5  10  106.42    2.53
  -5   5 -10  112.06    2.65
  -5   5 -12   25.56    0.77
  -5   5 -12   26.68    0.77
  -5  -5  12   25.51    0.66
  -5   5 -14   52.16    1.35
  -5  -5  14   49.35    1.22
  -5   5 -14   49.77    1.33
   5   5  14   48.86    1.32
  -5   5 -16   32.56    0.94
  -5   5 -16   31.28    0.95
   5   5  16   32.11    0.92
  -5  -5  16   31.20    0.82
   5   5  18   13.83    0.51
  -5   5 -18   12.98    0.53
  -5   5 -18   13.04    0.54
  -5  -5  18   13.49    0.42
  -5  -5  20   15.39    0.48
  -5   5 -20   15.01    0.60
  -5   5 -20   15.15    0.62
   5   5  20   16.33    0.57
  -5  -5  22   28.76    0.81
   5   5  22   30.01    0.92
  -5   5 -22   29.07    0.96
  -5   5 -22   30.49    0.98
  -5   5 -24    1.34    0.28
  -5  -5  24    1.40    0.17
  -5  -5  26    5.36    0.57
  -5  -5  28    3.58    0.51
   6   0   0  151.55    3.67
  -6   0   0  155.76    3.65
   0  -6   2   88.94    2.05
  -6   0  -2   86.80    2.20
   0   6  -2   84.74    2.05
  -6   0  -2   82.46    2.06
  -6   0   2   83.70    2.13
   6   0  -2   87.61    2.00
   0  -6   2   90.15    2.02
   6   0   2   83.56    2.05
   6   0   2   87.04    2.09
   6   0   2   83.86    2.15
   6   0   4   17.54    0.51
   6   0   4   18.70    0.58
   0  -6   4   19.28    0.50
   0   6  -4   19.33    0.50
  -6   0  -4   19.08    0.62
   6   0   4   19.16    0.52
   6   0  -4   16.92    0.43
   6   0   6  171.18    3.98
   0  -6   6  170.12    3.92
   6   0  -6  164.81    3.85
   0  -6   6  165.10    3.92
   0  -6  -6  165.52    3.90
   0   6  -6  169.37    3.91
  -6   0  -6  168.37    4.04
   6   0   6  169.13    3.91
   0  -6  -8   21.20    0.58
   6   0  -8   19.65    0.50
   0  -6   8   21.16    0.58
   0  -6   8   20.02    0.59
   0   6  -8   21.71    0.58
   6   0   8   20.51    0.54
  -6   0   8   21.41    0.73
   0   6  -8   21.81    0.59
   6   0   8   20.72    0.63
  -6   0  -8   21.22    0.69
   0  -6  10   12.02    0.39
  -6   0  10   12.29    0.54
   0   6 -10   11.26    0.39
   0  -6  10   11.55    0.37
   6   0  10   10.50    0.40
   6   0 -10   10.29    0.30
   0  -6 -10   11.17    0.39
  -6   0 -10   11.43    0.47
   0  -6  12   30.69    0.85
   6   0 -12   31.51    0.77
   6   0  12   30.37    0.88
  -6   0  12   32.26    1.04
  -6   0 -12   31.58    0.96
   0   6 -12   31.57    0.86
   0  -6  12   31.03    0.86
   0   6  14   14.22    0.46
   0  -6  14   14.46    0.49
  -6   0 -14   13.90    0.57
   6   0  14   14.64    0.50
   0  -6  14   14.88    0.48
   0   6 -14   14.31    0.49
  -6   0  14   14.26    0.66
   6   0 -14   14.45    0.41
   0  -6  16   33.09    0.93
   0   6 -16   33.10    0.94
   0   6  16   32.51    0.89
   0  -6  16   32.14    0.92
  -6   0  16   32.76    1.12
  -6   0 -16   32.44    1.03
   6   0  16   32.40    0.94
   0  -6  18   43.36    1.17
  -6   0 -18   42.93    1.29
   0  -6  18   42.45    1.16
   0   6 -18   44.06    1.20
   6   0  18   40.89    1.18
  -6   0  18   42.95    1.38
  -6   0  18   43.22    1.07
   0   6  18   44.15    1.14
   0   6 -18   40.76    1.12
   0   6  20    0.31    0.14
   0  -6  20    0.35    0.19
   0  -6  20    0.36    0.19
   0   6 -20    0.34    0.16
  -6   0  20    0.43    0.12
   6   0  20    0.31    0.20
   0   6 -20    0.37    0.20
  -6   0  20    0.42    0.31
  -6   0 -20   -0.04    0.24
   0   6 -22    5.27    0.35
  -6   0  22    5.38    0.49
   6   0  22    4.83    0.33
  -6   0 -22    5.31    0.42
   0   6 -22    5.37    0.31
   0  -6  22    5.12    0.31
   6   0  22    4.85    0.25
   0  -6  24   23.69    0.76
   0   6 -24   21.39    0.73
  -6   0  24   23.29    0.96
   0  -6  24   22.38    0.74
  -6   0 -24   23.59    0.91
   0   6 -24   22.06    0.78
  -6   0  24   21.25    0.64
   0  -6  26    6.38    0.37
  -6   0  26    6.54    0.53
   0   6 -26    6.37    0.42
  -6   0 -26    6.56    0.50
   0  -6 -26    6.41    0.50
  -6   0 -28    0.85    0.34
  -6   0  28    0.76    0.35
   0  -6 -28    1.32    0.37
   6  -1  29    1.36    0.29
  -1  -6 -29    2.08    0.43
  -6  -1 -27    5.27    0.52
   6  -1  27    5.79    0.42
  -1  -6 -27    6.22    0.54
  -6   1  27    6.37    0.53
   1  -6  25    4.08    0.32
  -6  -1 -25    4.40    0.44
  -1  -6 -25    4.60    0.43
   1   6 -25    4.82    0.35
  -6   1  25    5.38    0.48
   1  -6  23    4.33    0.33
   1   6 -23    4.05    0.33
  -6   1  23    4.91    0.46
  -1   6  23    4.63    0.26
   1   6 -23    4.16    0.29
   1  -6  23    4.48    0.30
  -6  -1 -23    3.59    0.40
   6  -1  23    4.10    0.33
  -1  -6 -23    4.60    0.42
  -1   6  21    7.79    0.34
   6  -1  21    9.38    0.43
   1   6 -21    8.40    0.42
  -6   1  21    8.64    0.56
  -6   1  21    8.67    0.30
  -1   6  21    9.43    0.36
   1  -6  21    9.29    0.43
  -6  -1 -21    8.40    0.51
   1  -6  21    9.25    0.41
  -6  -1 -19   12.81    0.59
  -1   6  19   11.87    0.43
   1   6 -19   12.86    0.48
   1  -6  19   11.63    0.47
   6  -1  19   12.04    0.49
   1  -6  19   11.87    0.47
  -6   1  19   12.26    0.37
  -1   6  19   12.60    0.43
  -6   1  19   12.75    0.64
  -6  -1 -17   10.01    0.52
   1   6 -17   10.08    0.41
   1  -6  17    9.52    0.41
   6  -1  17    9.77    0.42
   1  -6  17    9.79    0.41
  -1   6  17   10.26    0.37
  -6   1  17    9.75    0.31
   6   1 -17   10.19    0.34
  -1   6  17    9.12    0.37
  -6   1  17    9.63    0.56
  -6   1  15   28.63    0.97
  -6   1  15   26.35    0.68
   6   1 -15   27.00    0.71
  -1   6  15   26.69    0.75
  -6  -1 -15   27.31    0.90
  -1   6  15   27.07    0.74
   1   6 -15   27.31    0.79
   6  -1  15   27.01    0.80
   1  -6  15   26.11    0.78
   1  -6  15   27.74    0.80
   1   6 -13   12.43    0.44
   1  -6  13   13.30    0.45
  -1   6  13   12.72    0.41
  -1   6  13   13.21    0.42
   1  -6  13   13.02    0.45
   6  -1  13   13.13    0.46
  -6   1  13   12.09    0.58
  -6  -1 -13   13.42    0.54
   6   1 -13   12.88    0.37
   1  -6  11   17.86    0.56
   6   1 -11   19.13    0.49
  -6   1  11   18.69    0.71
   1   6 -11   18.14    0.55
   6  -1  11   19.08    0.58
   1  -6  11   17.72    0.56
  -6  -1 -11   18.81    0.66
   1  -6   9   69.18    1.68
   1  -6   9   68.77    1.67
  -1  -6  -9   67.21    1.65
   6   1  -9   66.35    1.60
   1   6  -9   69.46    1.67
   6  -1   9   68.07    1.70
  -6  -1  -9   67.56    1.78
  -6   1   9   66.84    1.82
   6   1  -7   53.91    1.24
   1   6  -7   55.11    1.31
   1  -6   7   50.30    1.31
  -6   1   7   50.62    1.22
   1   6  -7   49.14    1.26
   1  -6   7   54.44    1.31
  -1  -6  -7   53.12    1.27
   6  -1   7   52.46    1.29
  -6   1   7   51.40    1.43
   6  -1   7   53.61    1.34
  -6  -1  -7   55.05    1.43
   1   6  -7   53.63    1.29
   1   6  -5  125.96    3.00
   1   6  -5  133.81    3.04
  -6  -1  -5  134.63    3.19
   6  -1   5  134.10    3.05
  -6   1   5  129.19    2.98
   1  -6   5  133.56    3.06
   6  -1   5  132.47    3.12
   1   6  -3  315.60    7.13
  -6  -1  -3  315.71    7.17
   1   6  -3  319.43    7.16
   6  -1   3  307.71    7.26
   6  -1   3  322.10    7.20
  -6  -1  -3  306.14    7.31
   1  -6   3  293.88    7.11
   1  -6   3  318.41    7.18
   6  -1   3  312.03    7.17
  -1  -6  -1   97.60    2.31
   6  -1   1   97.58    2.29
  -6   1   1   95.32    2.35
   6  -1   1   98.35    2.28
   1   6  -1   96.96    2.29
  -6  -1  -1   93.66    2.34
   6  -1   1   95.78    2.35
   6  -1   1   97.12    2.43
  -6   1  -1   91.71    2.26
  -6  -1   1   92.22    2.31
   6  -1  -1   96.40    2.21
   6   1   1   94.74    2.30
  -1  -6   1   91.85    2.23
   6  -1  -1   90.21    2.31
   6  -1  -1   97.80    2.21
  -1   6  -1   92.72    2.23
  -6   1  -3  319.78    7.35
  -6  -1   3  294.07    7.30
   6  -1  -3  311.88    7.15
   6   1   3  318.49    7.23
  -1  -6   3  312.40    7.19
  -1   6  -3  299.36    7.19
   6   1   3  285.90    7.27
   6  -1  -3  319.79    7.15
  -6   1  -5  132.24    3.20
   6   1   5  128.83    3.08
   6   1   5  133.58    3.15
   1  -6  -5  124.68    3.08
  -1  -6   5  134.94    3.07
  -1   6  -5  130.04    3.08
   6   1   7   55.17    1.41
  -1   6  -7   54.70    1.35
  -6   1  -7   55.91    1.47
  -1  -6   7   54.37    1.36
   6   1   7   55.26    1.32
  -1  -6   7   54.63    1.34
   1  -6  -7   52.72    1.37
  -1   6  -9   66.92    1.52
  -1  -6   9   67.34    1.49
  -6   1  -9   66.78    1.62
   6   1   9   68.56    1.56
  -1  -6   9   66.69    1.51
   6   1   9   63.59    1.53
   1  -6  -9   66.75    1.54
   6   1   9   61.40    1.44
  -6  -1   9   66.32    1.69
   6   1  11   17.27    0.44
   1  -6 -11   18.97    0.57
  -6  -1  11   15.75    0.42
  -1   6 -11   18.51    0.54
  -6  -1  11   18.66    0.71
  -1  -6  11   17.92    0.51
   6   1  11   18.70    0.55
  -1  -6  11   18.29    0.53
  -6   1 -11   20.17    0.64
   6   1  13   10.49    0.31
  -1  -6  13   11.96    0.40
   6   1  13   12.48    0.43
  -6   1 -13   13.31    0.51
  -6  -1  13   12.65    0.60
  -1   6 -13   11.98    0.42
  -1   6 -13   12.32    0.36
  -6  -1  13   11.46    0.32
  -1  -6  13   12.20    0.41
   6   1  15   27.41    0.80
  -6   1 -15   28.43    0.89
  -6  -1  15   25.69    0.68
   1   6  15   27.38    0.77
  -6  -1  15   27.69    0.99
  -1   6 -15   26.57    0.73
  -1   6 -15   26.92    0.80
  -1  -6  15   27.57    0.77
  -1  -6  15   27.50    0.79
  -1   6 -17    9.48    0.35
  -6  -1  17    8.93    0.30
  -6   1 -17   10.31    0.49
  -6  -1  17    9.65    0.58
   1   6  17    9.73    0.38
  -1  -6  17    8.87    0.36
  -1  -6  17    9.64    0.40
  -1   6 -17    9.19    0.41
   6   1  17    9.63    0.42
  -6   1 -19   13.55    0.58
  -6  -1  19   12.08    0.38
  -1  -6  19   12.51    0.47
  -1  -6  19   12.22    0.45
   6   1  19   12.72    0.48
   1   6  19   13.33    0.46
  -1   6 -19   12.21    0.44
  -6  -1  19   12.75    0.66
  -1   6 -19   12.48    0.49
  -6  -1  21   10.33    0.62
   1   6  21    8.45    0.36
   6   1  21    8.60    0.41
  -6  -1  21    8.56    0.30
  -1  -6  21    9.14    0.38
  -6   1 -21    7.47    0.47
  -1   6 -21    8.20    0.36
  -1  -6  21    8.52    0.38
  -1   6 -21    8.35    0.42
  -1  -6  23    4.47    0.32
   1   6  23    4.21    0.28
  -1   6 -23    4.34    0.35
  -1   6 -23    3.89    0.29
  -6  -1  23    4.23    0.22
  -1  -6  23    4.09    0.29
  -6   1 -23    4.81    0.42
   6   1  23    4.07    0.32
  -6  -1  23    3.92    0.49
  -6  -1  25    4.39    0.49
  -1   6 -25    3.76    0.34
  -6   1 -25    3.71    0.40
  -1  -6  25    4.51    0.34
  -6  -1  27    5.82    0.54
  -6   1 -27    5.15    0.47
   1  -6 -29    2.31    0.39
   6  -2  28    1.96    0.30
   2  -6  28    2.68    0.30
  -2  -6 -28    2.37    0.43
  -6  -2 -28    1.89    0.39
  -6   2  26    3.87    0.41
  -2  -6 -26    3.79    0.43
   6  -2  26    3.86    0.36
   2  -6  26    3.28    0.31
  -6  -2 -26    3.49    0.43
   2   6 -26    3.81    0.34
   2  -6  24    5.93    0.37
  -6  -2 -24    5.37    0.48
   6  -2  24    6.72    0.41
  -2   6  24    5.39    0.31
  -6   2  24    5.61    0.47
  -2  -6 -24    5.34    0.47
   2   6 -24    5.14    0.36
  -6   2  22    6.47    0.50
  -6  -2 -22    4.94    0.43
   2  -6  22    5.85    0.37
   2   6 -22    6.10    0.36
  -2   6  22    6.23    0.28
  -2  -6 -22    6.25    0.45
  -2   6  22    5.35    0.31
   2  -6  22    5.86    0.35
  -6   2  22    5.86    0.24
  -2   6  20    1.10    0.16
  -6  -2 -20    1.22    0.29
  -2   6  20    0.86    0.18
   6  -2  20    1.13    0.21
   6   2 -20    1.24    0.17
   2   6 -20    1.36    0.21
   2  -6  20    1.22    0.21
  -2  -6 -20    1.37    0.28
  -6   2  20    1.25    0.32
   2  -6  20    1.27    0.21
  -2   6  18    8.64    0.32
  -6   2  18    8.73    0.52
   2  -6  18    8.78    0.39
  -6   2  18    8.21    0.27
  -2   6  18    8.35    0.37
   2   6 -18    8.75    0.38
  -6  -2 -18    8.36    0.48
   6  -2  18    8.48    0.39
   2  -6  18    7.81    0.38
   6   2 -18    8.83    0.32
   2  -6  16   10.85    0.44
  -6   2  16   10.62    0.32
  -2   6  16   11.84    0.38
   2   6 -16   11.73    0.43
  -2   6  16   10.61    0.42
  -6  -2 -16   12.14    0.54
   6   2 -16   11.80    0.38
  -6   2  16   11.18    0.58
   2  -6  16   12.27    0.45
   6  -2  16   11.21    0.45
  -6   2  14    3.81    0.14
   2   6 -14    4.20    0.24
   6  -2  14    3.94    0.25
  -2   6  14    4.14    0.20
  -6   2  14    3.64    0.36
  -6  -2 -14    3.83    0.32
   2  -6  14    4.40    0.25
  -2   6  14    3.59    0.23
   6   2 -14    4.38    0.19
   2  -6  14    4.39    0.26
   2   6 -12    1.97    0.18
  -6  -2 -12    1.72    0.24
   2  -6  12    2.18    0.19
  -2   6  12    2.34    0.19
  -6   2  12    2.30    0.29
   2  -6  12    2.12    0.20
   6  -2  12    1.91    0.19
   6   2 -12    2.31    0.13
  -6  -2 -10   15.20    0.58
   6   2 -10   15.35    0.42
   2   6 -10   15.40    0.47
   2  -6  10   14.73    0.48
  -2   6  10   15.66    0.48
   2  -6  10   15.57    0.49
  -6   2  10   15.13    0.60
  -2  -6 -10   14.70    0.43
  -6   2   8   61.93    1.53
   6   2  -8   64.71    1.54
  -2  -6  -8   65.34    1.55
   2   6  -8   65.35    1.60
   2  -6   8   62.52    1.60
   2   6  -8   67.08    1.57
  -6   2   8   65.89    1.73
   2  -6   8   65.65    1.61
   2   6  -8   66.51    1.62
  -6  -2  -8   66.58    1.73
   6  -2   8   66.20    1.63
  -6   2   6   33.59    1.02
  -6   2   6   35.85    0.86
   2   6  -6   36.40    0.90
   2   6  -6   36.58    0.93
   2  -6   6   35.44    0.93
  -6  -2  -6   36.32    1.04
   2   6  -6   35.55    0.91
   6  -2   6   35.68    0.97
   2   6  -4   74.03    1.95
   6  -2   4   81.43    2.03
  -2  -6  -4   83.45    2.01
  -6  -2  -4   82.62    2.09
  -6  -2  -4   83.43    1.94
   2   6  -4   80.30    1.94
   6  -2   4   84.51    1.97
   6  -2   4   77.80    1.97
   2   6  -4   82.37    1.94
   2  -6   4   84.59    1.97
  -6   2   4   82.34    1.91
   6  -2   4   82.04    1.97
   6  -2   2  151.01    3.70
  -6   2   2  161.12    3.67
   2   6  -2  158.94    3.69
   2   6  -2  159.71    3.70
  -2  -6  -2  158.44    3.74
   6  -2   2  162.26    3.70
   6   2  -2  157.32    3.86
   6  -2   2  159.87    3.82
  -2   6   2  155.73    3.71
  -6  -2  -2  161.30    3.73
   6  -2   2  154.71    3.73
   2  -6   2  155.43    3.70
  -6   2   0   99.85    2.45
   6  -2   0  100.78    2.47
  -2   6   0  102.27    2.41
   6  -2   0  103.49    2.40
   6  -2   0  105.22    2.40
  -6  -2   0  100.47    2.49
  -2  -6   0   98.21    2.44
  -6   2  -2  159.83    3.72
  -2   6  -2  157.70    3.71
  -2  -6   2  164.03    3.75
   6  -2  -2  155.46    3.68
   6  -2  -2  159.13    3.67
  -6   2  -4   84.31    2.05
  -6   2  -4   82.67    1.92
  -2  -6   4   78.64    1.94
   6  -2  -4   80.40    1.83
   2  -6  -4   81.10    1.92
   2  -6  -6   35.31    0.94
  -6   2  -6   38.49    1.04
  -6   2  -6   35.16    0.95
  -2   6  -6   36.29    0.93
   6  -2  -6   35.62    1.04
  -2  -6   6   35.63    0.90
   6   2   6   37.02    0.99
  -2  -6   8   67.03    1.54
  -6   2  -8   63.86    1.66
   2  -6  -8   65.21    1.61
   6   2   8   65.46    1.63
  -2  -6  10   15.07    0.44
   2  -6 -10   15.57    0.52
  -6   2 -10   15.39    0.54
   6   2  10   14.33    0.48
  -2   6 -10   13.29    0.39
  -2  -6  10   15.03    0.46
  -2   6 -10   15.31    0.48
  -2  -6  12    2.51    0.19
  -2  -6  12    2.13    0.15
  -6  -2  12    1.87    0.09
  -6   2 -12    1.83    0.21
  -2   6 -12    1.82    0.18
  -2   6 -12    2.16    0.13
  -6   2 -12    2.19    0.23
   6   2  12    2.16    0.19
  -2   6 -14    3.99    0.20
  -2  -6  14    4.07    0.21
  -2   6 -14    3.52    0.24
  -2  -6  14    4.12    0.24
  -6   2 -14    4.01    0.30
   6   2  14    4.39    0.26
   2   6  14    3.99    0.24
  -2  -6  16   12.09    0.43
  -6   2 -16   11.69    0.52
  -6  -2  16   11.52    0.34
  -2   6 -16   11.41    0.40
  -2   6 -16   11.19    0.46
   6   2  16   11.77    0.46
  -2  -6  16   12.15    0.42
   2   6  16   11.73    0.44
  -6  -2  18    8.43    0.29
  -6   2 -18    9.13    0.47
   2   6  18    9.09    0.38
   6   2  18    9.33    0.41
  -2  -6  18    8.46    0.37
  -2  -6  18    8.23    0.35
  -2   6 -18    8.68    0.41
  -2   6 -18    8.89    0.36
  -6  -2  18    8.79    0.58
  -6   2 -20    1.54    0.27
  -2   6 -20    0.89    0.22
  -6  -2  20    1.26    0.13
   6   2  20    1.17    0.20
  -2  -6  20    1.46    0.18
  -2   6 -20    1.34    0.19
   2   6  20    1.12    0.19
  -6  -2  20    1.59    0.38
  -2  -6  20    1.45    0.20
  -2   6 -22    6.82    0.40
   6   2  22    6.47    0.37
  -2  -6  22    6.20    0.33
  -6  -2  22    6.31    0.54
  -6   2 -22    6.67    0.45
  -2  -6  22    6.59    0.35
  -2   6 -22    5.96    0.34
  -6  -2  24    5.33    0.25
  -2   6 -24    5.47    0.35
  -2  -6  24    6.07    0.35
  -2   6 -24    6.02    0.39
  -2  -6  24    5.67    0.32
  -6  -2  24    6.19    0.56
  -6   2 -24    6.61    0.47
  -6   2 -26    3.60    0.40
  -6  -2  26    3.71    0.48
  -2  -6  26    4.10    0.29
  -6  -2  28    3.04    0.46
  -6  -3 -29    1.09    0.37
  -3  -6 -29    1.23    0.38
   3  -6  29    0.60    0.26
   6  -3  29    1.16    0.29
  -6   3  27    4.00    0.39
  -6  -3 -27    3.82    0.45
   3  -6  27    3.82    0.34
   3   6 -27    3.91    0.33
  -3  -6 -27    3.53    0.43
   6  -3  27    4.54    0.38
  -6   3  25    0.62    0.29
   3   6 -25    0.69    0.23
  -6  -3 -25    0.77    0.30
   3  -6  25    0.62    0.20
  -3  -6 -25    0.77    0.31
   6  -3  25    0.83    0.27
   3  -6  23    1.13    0.25
  -6  -3 -23    1.16    0.34
   6  -3  23    0.61    0.26
   3   6 -23    0.80    0.22
  -3  -6 -23    0.76    0.32
   3  -6  23    1.12    0.25
  -3   6  23    0.84    0.23
  -6   3  23    0.70    0.30
   6  -3  21    6.21    0.36
  -3  -6 -21    6.09    0.45
   3  -6  21    6.26    0.36
   3   6 -21    6.39    0.34
  -3   6  21    6.76    0.35
  -6  -3 -21    7.06    0.48
   6  -3  21    5.60    0.38
   6   3 -21    6.27    0.30
  -6   3  21    6.25    0.23
   3  -6  21    5.49    0.36
  -3   6  21    6.47    0.27
  -6   3  21    6.48    0.47
  -3   6  19    4.87    0.30
   6  -3  19    4.96    0.31
  -3   6  19    5.44    0.24
  -6   3  19    4.85    0.19
   3  -6  19    5.19    0.31
  -6  -3 -19    4.88    0.40
   6  -3  19    5.19    0.33
  -3  -6 -19    4.86    0.39
   3  -6  19    4.84    0.30
  -6   3  19    5.97    0.44
   6   3 -19    5.49    0.26
   3   6 -19    4.74    0.29
   3  -6  17   10.02    0.44
   3   6 -17   10.34    0.41
  -3  -6 -17   10.58    0.53
  -3   6  17   10.97    0.44
  -3   6  17   11.25    0.35
  -6   3  17    9.56    0.29
   6   3 -17   10.41    0.37
   3  -6  17   10.90    0.45
   6  -3  17   10.70    0.44
  -6  -3 -17   10.86    0.54
  -6   3  17    9.57    0.53
   6  -3  15    5.72    0.30
  -3   6  15    5.47    0.30
  -3  -6 -15    5.38    0.36
   6   3 -15    6.28    0.25
   3   6 -15    6.09    0.28
  -6  -3 -15    5.14    0.38
   3  -6  15    6.14    0.31
  -3   6  15    6.20    0.24
  -6   3  15    5.92    0.43
   3  -6  15    6.05    0.31
  -3  -6 -13    1.77    0.24
   3  -6  13    1.50    0.18
  -3   6  13    1.51    0.19
  -3   6  13    1.86    0.13
  -6   3  13    1.15    0.26
   3   6 -13    1.52    0.16
  -6  -3 -13    1.03    0.23
   6  -3  13    1.19    0.17
   6   3 -13    1.59    0.13
   3  -6  13    1.57    0.19
  -3  -6 -11    8.66    0.41
   6  -3  11    8.47    0.34
   6   3 -11    8.28    0.28
  -6   3  11    8.85    0.44
   3  -6  11    8.13    0.34
  -6  -3 -11    8.63    0.43
   3   6 -11    8.63    0.32
  -3   6  11    9.07    0.35
   3  -6  11    8.36    0.35
  -3   6   9    6.33    0.27
   3   6  -9    6.03    0.22
   6   3  -9    5.71    0.21
  -6   3   9    5.85    0.34
  -3  -6  -9    5.14    0.18
   3  -6   9    5.87    0.26
   3   6  -9    5.64    0.24
   3  -6   9    6.07    0.27
  -6  -3  -9    5.76    0.34
   6  -3   9    5.68    0.25
   3  -6   7   37.57    1.00
   3   6  -7   38.54    0.95
  -6  -3  -7   39.62    1.11
   3   6  -7   37.46    1.02
   3   6  -7   37.88    0.98
  -6   3   7   39.46    1.09
   6  -3   7   38.35    1.01
  -6   3   7   37.51    0.93
   6   3  -7   38.98    0.95
  -6   3   5   14.24    0.50
   6  -3   5   16.08    0.44
  -6  -3  -5   13.46    0.39
   3   6  -5   15.32    0.43
   3   6  -5   15.34    0.45
  -6   3   5   15.76    0.38
  -6  -3  -5   13.70    0.53
   6  -3   5   14.61    0.48
   3  -6   5   12.65    0.36
   3   6  -5   14.00    0.40
   6   3  -5   12.92    0.34
  -3  -6  -5   13.59    0.48
   3  -6   5   14.79    0.44
   6  -3   3  104.50    2.64
   3   6  -3  106.45    2.55
   6  -3   3  108.29    2.54
  -6  -3  -3  106.09    2.55
   3  -6   3  104.37    2.53
   6   3  -3  107.34    2.69
  -3   6   3  107.13    2.54
   3   6  -3   98.47    2.51
   6  -3   3  107.77    2.56
  -6   3   3  106.72    2.50
  -6   3   3  110.15    2.48
  -3   6   3  106.68    2.50
  -3  -6  -3  108.03    2.60
   6  -3   3  111.09    2.54
   3   6  -1    2.03    0.15
   6   3  -1    2.36    0.24
  -6   3   1    1.88    0.12
  -6   3   1    2.17    0.11
  -3  -6  -1    2.04    0.18
   6  -3   1    2.19    0.12
   3  -6   1    1.91    0.13
   6  -3   1    2.09    0.13
   6  -3   1    2.20    0.17
  -3   6   1    1.84    0.13
  -3   6   1    2.05    0.11
  -6   3  -1    2.27    0.13
  -3   6  -1    2.10    0.13
  -6  -3   1    2.38    0.26
   6  -3  -1    2.06    0.12
   6  -3  -1    2.31    0.10
   3   6   1    2.23    0.16
  -6   3  -1    2.18    0.13
  -3  -6   1    1.91    0.18
   6  -3  -3  105.10    2.41
   3  -6  -3  100.98    2.49
  -3  -6   3  101.60    2.53
   6  -3  -3  103.46    2.44
  -3   6  -3  104.60    2.47
  -6   3  -3  105.43    2.48
   6  -3  -5   14.16    0.52
  -6   3  -5   15.76    0.45
   3  -6  -5   14.49    0.45
  -6   3  -5   15.33    0.54
  -3  -6   7   36.50    0.90
  -6   3  -7   35.99    1.03
  -3   6  -7   36.85    0.94
   6   3   7   36.39    1.00
   6  -3  -7   36.96    1.05
   3  -6  -7   37.24    0.98
  -6   3  -9    5.85    0.32
   3  -6  -9    5.81    0.30
  -3   6  -9    5.23    0.20
  -3  -6   9    6.04    0.22
  -6  -3  11    7.34    0.21
  -3  -6  11    9.02    0.28
   6   3  11    8.53    0.35
   3  -6 -11    8.52    0.39
  -3   6 -11    7.87    0.33
  -6   3 -11    8.71    0.39
   6   3  13    1.17    0.17
  -3   6 -13    1.70    0.18
  -6   3 -13    1.69    0.20
  -3  -6  13    1.20    0.13
  -3  -6  13    1.37    0.17
  -6   3 -13    1.15    0.21
  -6  -3  13    1.24    0.08
  -3   6 -13    1.31    0.14
  -6   3 -15    6.10    0.34
   6   3  15    6.63    0.32
  -3   6 -15    5.95    0.31
  -6  -3  15    5.51    0.20
   3   6  15    5.72    0.30
  -3  -6  15    5.73    0.29
  -6   3 -15    6.02    0.36
  -3  -6  15    5.75    0.25
  -3   6 -15    5.90    0.27
   3   6  17   10.50    0.41
   6   3  17   10.71    0.44
  -3  -6  17   10.09    0.38
  -3   6 -17    9.27    0.43
  -3  -6  17   10.92    0.41
  -6   3 -17   10.98    0.50
  -3   6 -17   10.95    0.40
  -6  -3  17   10.18    0.32
  -3  -6  19    5.33    0.29
   3   6  19    5.19    0.29
  -6  -3  19    5.02    0.21
  -3  -6  19    4.52    0.25
  -3   6 -19    4.93    0.28
  -3   6 -19    5.20    0.33
  -6   3 -19    4.61    0.36
   6   3  19    5.36    0.30
  -6  -3  21    5.57    0.51
   6   3  21    6.21    0.35
  -6  -3  21    5.66    0.24
  -6   3 -21    5.77    0.42
  -3  -6  21    6.57    0.33
  -3  -6  21    6.20    0.30
  -3   6 -21    5.84    0.34
   3   6  21    6.30    0.33
  -3   6 -21    6.43    0.39
  -3  -6  23    1.03    0.19
  -6  -3  23    0.51    0.38
  -3   6 -23    0.97    0.26
  -3  -6  23    0.92    0.21
   6   3  23    0.92    0.22
  -3   6 -23    0.65    0.22
   3   6  23    0.85    0.21
  -6   3 -23    1.17    0.30
  -3  -6  25    0.55    0.18
  -6   3 -25    0.73    0.30
  -3   6 -25    1.03    0.27
  -6  -3  25    0.88    0.39
  -6  -3  27    3.73    0.50
  -6  -4 -30    1.04    0.42
  -6  -4 -28    1.11    0.38
   6  -4  28    1.20    0.31
  -4  -6 -28    1.07    0.39
   4  -6  28    1.42    0.29
  -6  -4 -26    0.77    0.32
   6  -4  26    1.51    0.28
  -4  -6 -26    1.48    0.36
   4  -6  26    1.67    0.27
  -6   4  26    1.56    0.29
   4   6 -26    1.29    0.25
  -6  -4 -24    1.25    0.33
  -4   6  24    1.60    0.26
   6   4 -24    1.31    0.21
   4  -6  24    1.31    0.24
   4   6 -24    1.53    0.24
  -4  -6 -24    1.05    0.35
   6  -4  24    1.66    0.28
   6   4 -22   21.90    0.69
   4   6 -22   21.87    0.72
  -6   4  22   22.59    0.86
   6  -4  22   22.67    0.78
  -4   6  22   21.58    0.75
  -6  -4 -22   21.91    0.90
   4  -6  22   22.11    0.77
   4  -6  22   22.41    0.77
   6  -4  22   22.11    0.77
  -4   6  22   22.59    0.62
  -4  -6 -22   21.18    0.89
  -6   4  20    4.02    0.38
   6  -4  20    4.54    0.33
   4  -6  20    4.83    0.31
   6   4 -20    4.93    0.26
  -4   6  20    4.14    0.31
  -6  -4 -20    3.72    0.38
   4  -6  20    4.45    0.30
   4   6 -20    4.28    0.28
  -4  -6 -20    3.22    0.35
   4  -6  18    4.30    0.30
   6  -4  18    4.33    0.29
  -4  -6 -18    4.31    0.36
  -4   6  18    4.09    0.19
   4  -6  18    4.56    0.30
   4   6 -18    4.36    0.27
  -6   4  18    3.90    0.15
  -4   6  18    3.85    0.29
  -6   4  18    4.28    0.37
  -6  -4 -18    4.31    0.38
   6   4 -18    4.22    0.24
   6  -4  18    4.23    0.31
   6   4 -16   12.35    0.41
  -6  -4 -16   11.15    0.56
   4  -6  16   12.12    0.48
  -4   6  16   12.64    0.37
  -6   4  16   12.42    0.57
  -4  -6 -16   11.92    0.56
   6  -4  16   12.32    0.48
   6  -4  16   12.22    0.50
  -4   6  16   11.68    0.48
   4   6 -16   11.84    0.43
   4  -6  16   12.09    0.47
   6   4 -14   31.79    0.84
  -4   6  14   31.00    0.92
  -6  -4 -14   31.16    1.02
  -4  -6 -14   31.84    1.01
  -6   4  14   32.28    1.01
  -4   6  14   30.72    0.80
   6  -4  14   31.92    0.93
   4   6 -14   30.70    0.87
   4  -6  14   32.36    0.91
   6  -4  14   32.72    0.91
   4  -6  14   31.92    0.92
   4  -6  12    6.17    0.30
   6  -4  12    6.06    0.30
   4   6 -12    6.73    0.28
  -4   6  12    6.31    0.32
  -6  -4 -12    6.15    0.37
  -6   4  12    6.54    0.38
  -4   6  12    6.47    0.22
   6  -4  12    6.62    0.33
   6   4 -12    6.47    0.25
   4  -6  12    6.37    0.31
  -4  -6 -12    7.12    0.39
   4  -6  10   25.53    0.74
   6   4 -10   25.76    0.68
   6  -4  10   24.84    0.74
   4  -6  10   25.12    0.73
  -4   6  10   26.33    0.76
  -6   4  10   25.99    0.82
   4   6 -10   26.33    0.71
  -6  -4 -10   25.79    0.84
   4  -6   8  101.02    2.34
   4   6  -8   90.85    2.26
   4   6  -8   97.05    2.30
   6  -4   8   98.05    2.31
   6   4  -8   96.72    2.28
  -4   6   8   96.66    2.35
   4   6  -8   91.88    2.39
  -6   4   8   95.19    2.27
  -6   4   8   97.96    2.41
  -6  -4  -8   95.80    2.45
   6   4  -6    8.51    0.43
   6   4  -6    7.16    0.20
   4   6  -6    8.24    0.35
   4  -6   6    6.71    0.29
   6  -4   6    8.08    0.29
   6  -4   6    7.34    0.30
  -6  -4  -6    7.47    0.22
  -6   4   6    7.50    0.34
   4  -6   6    7.44    0.23
   4   6  -6    7.75    0.27
   4   6  -6    7.04    0.24
  -6   4   6    7.30    0.25
   4   6  -4   50.72    1.35
   6  -4   4   46.78    1.30
  -6  -4  -4   54.36    1.30
  -4   6   4   54.88    1.25
   6  -4   4   54.43    1.30
   6  -4   4   50.73    1.37
   4  -6   4   52.66    1.30
   6   4  -4   53.44    1.44
   4   6  -4   50.40    1.27
  -4   6   4   53.30    1.29
  -4  -6  -4   49.78    1.38
  -6   4   4   48.51    1.27
  -6   4   4   53.73    1.23
   4  -6   4   55.16    1.32
  -4   6   2  158.70    3.72
   6  -4   2  160.74    3.79
  -6   4   2  161.67    3.71
   4  -6   2  157.75    3.75
  -6   4   2  159.77    3.74
   6  -4   2  161.91    3.75
   4   6  -2  156.43    3.79
  -4   6   2  161.40    3.75
   6  -4   2  153.27    3.87
  -4  -6  -2  158.88    3.84
   6   4  -2  160.14    3.88
   6  -4   2  164.53    3.76
   4  -6   0  147.77    3.46
   4   6   0  147.74    3.51
   6  -4   0  153.63    3.47
   6  -4   0  147.67    3.45
  -4   6   0  146.98    3.46
   4  -6   0  143.16    3.47
   6   4   0  147.38    3.57
  -6  -4   0  142.83    3.62
  -4  -6   0  146.90    3.56
  -6   4   0  149.07    3.47
  -4   6   0  148.38    3.48
  -6   4   0  147.90    3.45
   4  -6  -2  153.81    3.65
   6  -4  -2  162.66    3.61
  -4   6  -2  161.79    3.62
  -6  -4   2  154.93    3.80
  -6   4  -2  155.24    3.62
   4   6   2  156.17    3.67
   6  -4  -2  157.27    3.57
  -6   4  -2  159.56    3.62
  -4  -6   2  155.56    3.72
   4  -6  -4   48.78    1.26
   6  -4  -4   46.61    1.30
  -6   4  -4   49.46    1.23
  -4   6  -4   50.40    1.23
  -6   4  -6    7.57    0.29
  -4   6  -6    6.89    0.29
   6  -4  -6    7.58    0.36
   4  -6  -6    7.68    0.33
  -6   4  -8   96.23    2.42
   4  -6  -8   96.28    2.40
  -4  -6   8   95.55    2.27
   6  -4  -8   97.97    2.45
  -6   4 -10   26.24    0.78
   4  -6 -10   26.88    0.81
  -4  -6  10   26.01    0.66
  -6   4 -12    6.65    0.35
   4  -6 -12    6.75    0.39
  -4   6 -12    7.06    0.28
   6   4  12    6.47    0.32
  -4   6 -12    6.25    0.32
  -4  -6  12    6.65    0.25
  -4   6 -14   30.43    0.83
  -4  -6  14   29.13    0.77
  -6   4 -14   30.43    0.89
  -6   4 -14   30.01    0.91
  -6  -4  14   27.68    0.73
  -4   6 -14   30.41    0.87
   4   6  14   30.39    0.86
   6   4  14   30.53    0.86
  -4   6 -16   13.31    0.51
  -4   6 -16   13.19    0.47
  -6   4 -16   12.98    0.52
  -6   4 -16   12.62    0.53
  -6  -4  16   13.07    0.37
  -4  -6  16   13.21    0.42
   6   4  16   12.31    0.48
   4   6  16   12.47    0.48
   4   6  18    4.04    0.27
  -6   4 -18    4.01    0.31
  -6   4 -18    3.86    0.33
  -6  -4  18    3.94    0.18
  -4   6 -18    3.82    0.27
  -4   6 -18    3.96    0.29
   6   4  18    3.73    0.28
  -6  -4  20    4.50    0.21
   6   4  20    4.66    0.32
   4   6  20    4.53    0.29
  -4   6 -20    4.85    0.34
  -4  -6  20    4.66    0.25
  -4   6 -20    3.81    0.29
  -6   4 -20    5.11    0.38
  -4   6 -22   20.75    0.77
   6   4  22   21.97    0.75
  -6  -4  22   23.11    1.01
  -4  -6  22   22.50    0.67
  -4   6 -22   20.48    0.74
   4   6  22   22.64    0.73
  -6   4 -22   22.37    0.82
  -6   4 -24    1.64    0.32
   4   6  24    1.99    0.25
  -4   6 -24    2.07    0.30
  -6  -4  24    1.44    0.43
  -6  -4  26    1.66    0.45
  -6  -4  28    0.70    0.41
  -4  -6  28    0.24    0.39
  -6  -5 -29    1.52    0.40
   6  -5  29    1.43    0.30
  -5  -6 -29    1.48    0.41
   6  -5  27    6.47    0.45
   5  -6  27    7.16    0.44
  -5  -6 -27    7.62    0.60
  -6  -5 -27    7.07    0.59
   5   6 -25    5.42    0.34
  -6  -5 -25    5.42    0.50
  -5  -6 -25    5.10    0.50
  -5   6  25    4.82    0.36
   6  -5  25    5.19    0.38
  -6   5  25    4.97    0.39
   6   5 -25    4.86    0.32
  -6  -5 -23    6.80    0.52
   6   5 -23    7.45    0.37
  -5  -6 -23    7.32    0.54
   6  -5  23    7.28    0.43
  -6   5  23    7.43    0.46
   5   6 -23    6.91    0.37
  -5   6  23    6.97    0.43
   5  -6  23    8.30    0.44
  -6   5  21   14.89    0.64
  -6  -5 -21   14.24    0.71
   5   6 -21   15.41    0.54
  -5  -6 -21   16.10    0.72
   6   5 -21   15.05    0.52
   6  -5  21   15.75    0.61
  -6   5  21   13.06    0.39
   5  -6  21   15.75    0.60
  -5   6  21   14.44    0.60
  -5   6  19    9.88    0.48
   6   5 -19   10.99    0.41
   5  -6  19   10.73    0.47
   6  -5  19   11.25    0.47
  -5   6  19   10.83    0.32
   6  -5  19   11.01    0.48
  -6   5  19   10.92    0.53
   5  -6  19   10.38    0.46
  -6  -5 -19   10.93    0.59
   5   6 -19    9.60    0.40
  -5  -6 -19   10.54    0.57
   6  -5  17   26.08    0.79
  -5   6  17   26.14    0.83
   6  -5  17   26.46    0.82
   5  -6  17   25.37    0.80
  -6  -5 -17   26.41    0.93
  -6   5  17   25.67    0.87
   5  -6  17   25.86    0.82
  -5   6  17   24.16    0.64
   5   6 -17   24.69    0.74
  -5  -6 -17   24.49    0.91
   6   5 -17   24.55    0.73
   5  -6  15    0.93    0.19
   5   6 -15    0.76    0.15
   6  -5  15    1.09    0.19
  -6  -5 -15    0.59    0.25
  -5   6  15    0.70    0.20
   6   5 -15    0.78    0.14
  -5  -6 -15    0.65    0.24
   6  -5  15    0.74    0.18
  -6   5  15    1.03    0.24
   5  -6  15    1.03    0.20
   6  -5  13   28.55    0.83
  -5   6  13   27.73    0.70
  -6  -5 -13   27.61    0.94
   5   6 -13   29.66    0.79
   6  -5  13   28.66    0.85
  -5  -6 -13   28.27    0.94
   5  -6  13   28.84    0.84
   6   5 -13   29.47    0.78
  -6   5  13   27.02    0.90
  -5   6  13   27.59    0.87
   5  -6  13   29.33    0.85
  -5  -6 -11   28.14    0.90
   5   6 -11   27.83    0.75
  -6  -5 -11   27.21    0.90
  -5   6  11   26.77    0.67
  -5   6  11   27.65    0.83
   6  -5  11   29.39    0.82
   6   5 -11   27.83    0.74
  -6   5  11   26.57    0.85
   5  -6  11   27.66    0.80
  -5   6   9   21.48    0.65
   5   6  -9   19.77    0.54
   6  -5   9   19.56    0.62
   5   6  -9   21.51    0.72
  -6  -5  -9   20.33    0.72
   6  -5   9   19.87    0.58
  -6   5   9   21.34    0.68
   5  -6   9   21.56    0.63
   5   6  -9   21.15    0.59
   6   5  -9   21.10    0.58
  -6  -5  -7   98.46    2.63
  -6   5   7  120.64    2.69
   5   6  -7  122.75    2.84
   5   6  -7  119.60    2.66
   6  -5   7  116.39    2.72
  -5   6   7  117.14    2.70
  -5   6   7  123.90    2.78
   6   5  -7  119.72    2.70
   6   5  -7  120.40    2.89
   5   6  -7  121.11    2.72
  -5   6   7  102.79    2.64
  -6   5   7  117.99    2.80
   6  -5   7  114.34    2.73
   5  -6   7  118.24    2.68
   6   5  -7  119.79    2.64
  -5   6   5   98.89    2.34
  -5   6   5  101.19    2.28
  -6   5   5   98.85    2.27
   5  -6   5   94.63    2.35
   5  -6   5   97.61    2.35
   6  -5   5   96.19    2.36
   6   5  -5   97.83    2.48
   6   5  -5   97.73    2.28
  -6   5   5   96.77    2.32
   5   6  -5   97.07    2.30
   5   6  -5   97.52    2.44
   6  -5   5   91.97    2.38
  -6   5   5   95.50    2.40
   5  -6   3  177.82    4.25
   6  -5   3  185.20    4.25
  -5   6   3  185.97    4.21
   6  -5   3  176.94    4.35
  -6   5   3  182.10    4.20
  -6   5   3  176.62    4.23
   6   5  -3  179.67    4.37
   6  -5   3  179.67    4.26
  -5   6   3  181.98    4.24
  -5  -6  -3  180.93    4.37
   5   6  -3  180.93    4.32
  -5  -6  -1   86.44    2.22
   6  -5   1   89.25    2.11
  -5   6   1   87.69    2.11
  -6  -5  -1   88.76    2.25
   5  -6   1   88.15    2.09
   6  -5   1   91.32    2.09
   6   5  -1   86.19    2.20
  -6   5   1   89.06    2.07
  -6   5   1   87.74    2.10
   5   6  -1   86.43    2.16
   5  -6   1   88.23    2.11
  -5   6   1   89.42    2.08
  -6   5  -1   87.68    2.03
  -6  -5   1   85.24    2.20
  -5   6  -1   85.44    2.05
  -5  -6   1   84.74    2.16
   6  -5  -1   87.60    2.04
   6   5   1   85.11    2.13
   6  -5  -1   84.84    2.00
  -5   6  -1   86.30    2.03
   5  -6  -1   81.96    2.01
  -6   5  -1   83.50    2.04
   5   6   1   82.25    2.10
   5  -6  -1   82.99    2.04
  -6   5  -3  182.83    4.13
  -5  -6   3  175.98    4.27
  -6   5  -3  178.26    4.13
  -5   6  -3  168.62    4.13
  -5   6  -3  180.28    4.13
   5  -6  -3  167.97    4.17
   6  -5  -3  180.11    4.07
   6  -5  -3  157.90    4.18
   6   5   3  173.16    4.20
   6  -5  -3  175.98    4.11
   5   6   3  179.56    4.19
   6  -5  -5   99.30    2.47
  -5   6  -5   98.48    2.38
  -6   5  -5  100.58    2.39
   5  -6  -5   97.96    2.44
   5   6   5   98.02    2.44
  -5   6  -7  112.40    2.84
  -6   5  -7  117.52    2.84
   5  -6  -7  122.90    2.91
   6  -5  -7  122.51    2.93
  -6   5  -9   22.46    0.70
   6  -5  -9   20.05    0.74
   5  -6  -9   21.96    0.73
   5  -6 -11   27.57    0.87
  -6   5 -11   27.05    0.82
  -5   6 -11   28.23    0.78
  -5  -6  11   25.00    0.68
   6  -5 -11   26.77    0.89
  -6   5 -13   25.49    0.81
  -5  -6  13   27.87    0.71
  -6   5 -13   29.21    0.85
  -5   6 -13   27.53    0.82
  -5   6 -13   28.68    0.80
   6   5  13   28.98    0.82
  -6  -5  13   25.64    0.68
  -5  -6  15    1.13    0.13
  -6   5 -15    0.93    0.19
  -5   6 -15    1.14    0.19
   5   6  15    1.08    0.19
   6   5  15    1.23    0.21
  -6   5 -15    1.03    0.22
  -5   6 -15    1.14    0.21
  -6  -5  15    1.10    0.10
  -5   6 -17   25.62    0.81
  -6   5 -17   25.11    0.82
   6   5  17   24.82    0.78
  -5   6 -17   24.99    0.78
  -6  -5  17   24.17    0.65
  -5  -6  17   24.98    0.68
   5   6  17   25.29    0.78
  -6   5 -17   25.74    0.82
  -6   5 -19    9.97    0.50
  -6  -5  19   10.62    0.35
   6   5  19   10.93    0.46
  -6   5 -19   11.20    0.51
  -5   6 -19   11.74    0.48
  -5   6 -19   12.15    0.51
   5   6  19   12.08    0.47
  -5  -6  19   11.12    0.37
  -6  -5  21   14.04    0.44
   5   6  21   15.12    0.56
  -5   6 -21   15.08    0.61
  -5   6 -21   14.77    0.59
  -5  -6  21   14.10    0.46
  -6   5 -21   15.36    0.63
  -6   5 -21   13.20    0.61
   6   5  21   15.03    0.57
   6   5  23    7.19    0.39
  -6  -5  23    6.98    0.28
  -5  -6  23    6.67    0.30
  -5   6 -23    6.63    0.42
  -6   5 -23    6.86    0.45
  -5   6 -23    6.98    0.44
   5   6  23    7.64    0.39
  -6  -5  25    5.79    0.58
  -6  -5  27    7.80    0.67
  -5  -6  27    6.73    0.63
  -5  -6  29    1.72    0.50
  -6  -5  29    2.33    0.52
  -6  -6 -28    1.74    0.41
   6  -6  26    4.32    0.37
  -6  -6 -26    4.49    0.47
   6   6 -24    4.63    0.31
   6  -6  24    4.78    0.36
  -6  -6 -24    4.66    0.47
  -6   6  24    3.72    0.34
  -6  -6 -22   24.95    1.01
  -6   6  22   26.26    0.89
   6   6 -22   25.06    0.79
   6  -6  22   25.73    0.88
   6   6 -20    2.59    0.22
   6  -6  20    3.24    0.29
   6  -6  20    2.89    0.28
  -6  -6 -20    2.70    0.37
  -6   6  20    2.80    0.31
   6  -6  18    2.05    0.24
  -6   6  18    1.86    0.27
   6   6 -18    1.93    0.20
  -6  -6 -18    2.20    0.33
   6  -6  18    2.14    0.25
   6  -6  16   25.70    0.81
  -6   6  16   24.30    0.83
   6  -6  16   24.86    0.79
  -6  -6 -16   26.01    0.93
   6   6 -16   25.14    0.73
  -6  -6 -14    3.52    0.34
   6  -6  14    3.22    0.24
  -6   6  14    3.01    0.27
   6  -6  14    3.10    0.25
   6   6 -14    3.11    0.20
   6   6 -12    0.32    0.11
  -6   6  12    0.17    0.18
   6  -6  12    0.24    0.15
  -6   6  12    0.19    0.03
  -6  -6 -12    0.29    0.21
   6  -6  10   14.38    0.45
   6   6 -10   13.17    0.55
  -6  -6 -10   13.27    0.54
  -6   6  10   13.70    0.47
   6   6 -10   13.69    0.39
   6  -6   8  208.35    4.60
  -6   6   8  184.08    4.52
  -6   6   8  203.45    4.60
   6   6  -8  207.06    4.61
   6   6  -8  210.16    4.55
  -6   6   8  208.26    4.70
   6  -6   8  178.02    4.63
   6   6  -8  204.28    4.78
   6  -6   6   32.81    0.86
  -6   6   6   31.47    0.77
   6   6  -6   31.27    0.79
  -6   6   6   32.36    0.91
  -6   6   6   32.05    0.83
   6  -6   6   32.00    0.86
   6   6  -6   31.85    0.97
   6  -6   4   74.01    1.94
  -6  -6  -4   73.46    2.00
  -6   6   4   78.73    1.81
  -6   6   4   76.81    1.85
   6   6  -4   75.00    1.82
   6   6  -4   78.16    1.98
   6  -6   4   76.54    1.87
  -6   6   2  166.68    3.98
  -6  -6  -2  170.56    4.13
   6   6  -2  165.73    4.07
  -6   6   2  172.55    3.95
   6  -6   2  170.26    3.98
   6  -6   2  168.60    4.00
  -6  -6   0  177.55    4.27
   6  -6   0  173.92    4.08
  -6   6   0  174.31    4.11
   6   6   0  173.42    4.19
   6  -6   0  175.95    4.11
  -6   6   0  175.32    4.08
   6   6   2  164.88    3.97
   6  -6  -2  161.88    3.86
   6  -6  -2  166.98    3.90
  -6   6  -2  167.04    3.91
  -6  -6   2  168.77    4.08
  -6   6  -2  168.87    3.89
   6   6   4   79.64    1.99
  -6   6  -4   77.05    1.93
  -6   6  -4   79.69    1.92
   6  -6  -4   79.34    1.99
   6  -6  -6   30.60    0.92
  -6   6  -6   31.49    0.85
  -6   6  -8  195.54    4.67
   6  -6  -8  200.02    4.76
   6  -6 -10   13.55    0.57
  -6   6 -12    0.40    0.18
   6  -6 -12    0.24    0.27
   6   6  14    3.57    0.27
  -6   6 -14    3.19    0.25
  -6   6 -14    3.44    0.27
  -6  -6  14    3.26    0.16
   6   6  16   24.76    0.77
  -6  -6  16   24.01    0.65
  -6   6 -16   25.78    0.80
  -6   6 -16   24.87    0.80
  -6   6 -18    1.96    0.25
   6   6  18    1.85    0.22
  -6  -6  18    1.93    0.14
  -6   6 -18    1.43    0.25
  -6   6 -20    3.04    0.30
   6   6  20    2.78    0.27
  -6   6 -20    2.60    0.29
  -6  -6  20    2.72    0.17
  -6  -6  22   24.32    0.69
  -6   6 -22   24.73    0.86
   6   6  22   25.87    0.83
  -6   6 -22   25.09    0.88
  -6  -6  26    4.83    0.59
  -6  -6  28    1.80    0.49
  -7   0  -1   33.75    0.91
   0   7  -1   33.04    0.86
   7   0  -1   35.81    0.97
  -7   0   1   32.51    0.94
   7   0   1   30.09    0.99
   0  -7   1   34.71    0.85
   7   0   1   36.20    0.94
   0   7  -1   32.06    0.86
   0  -7   3  226.72    5.31
   7   0   3  226.12    5.32
  -7   0   3  216.37    5.41
   0   7  -3  229.55    5.31
  -7   0  -3  232.02    5.32
   7   0   3  216.43    5.35
  -7   0  -3  223.43    5.49
   7   0   3  232.36    5.43
   0  -7   3  227.67    5.28
   7   0  -3  232.39    5.25
   7   0   5  134.61    3.14
   7   0   5  129.51    3.14
   0   7  -5  129.39    3.12
   7   0   5  135.08    3.21
   0  -7   5  133.06    3.12
  -7   0  -5  132.73    3.28
  -7   0  -7    8.64    0.42
   0   7  -7    8.40    0.30
   7   0  -7    8.46    0.23
   0  -7   7    8.98    0.31
   0   7  -7    7.96    0.30
   0  -7  -7    8.26    0.29
   0  -7   7    8.42    0.31
   7   0   7    8.21    0.35
   7   0   7    8.99    0.30
   7   0  -9   59.93    1.46
   0   7  -9   65.65    1.57
   7   0   9   63.47    1.52
   0   7  -9   66.14    1.55
  -7   0   9   59.70    1.73
   0  -7   9   63.86    1.55
   7   0   9   64.99    1.62
  -7   0  -9   63.23    1.69
   0  -7   9   63.95    1.57
   0  -7  -9   60.88    1.56
   7   0  11    8.18    0.25
   0   7 -11    7.67    0.31
   7   0  11    8.06    0.32
   0  -7  11    7.71    0.31
   0   7 -11    6.38    0.19
   7   0 -11    6.89    0.20
   0  -7  11    8.06    0.30
  -7   0  11    7.84    0.46
   0  -7 -11    8.44    0.32
  -7   0 -11    8.03    0.40
   7   0  13    4.36    0.26
  -7   0 -13    4.09    0.33
   7   0 -13    4.10    0.15
  -7   0  13    4.73    0.40
   0   7 -13    4.35    0.25
   0  -7  13    4.38    0.24
   0  -7  13    4.09    0.25
   7   0  13    4.06    0.17
  -7   0 -15   31.31    1.02
   7   0  15   30.87    0.90
  -7   0  15   29.86    1.09
   0   7  15   31.09    0.85
   0   7 -15   30.39    0.80
   0  -7  15   29.97    0.87
   0  -7  15   32.71    0.90
   0   7 -15   31.18    0.89
   0  -7  17    0.76    0.20
   0   7 -17    0.96    0.13
   0  -7  17    0.81    0.17
   0   7  17    0.88    0.17
  -7   0  17    1.03    0.34
   0   7 -17    0.91    0.19
   7   0  17    1.04    0.20
  -7   0 -17    0.86    0.26
   0   7 -19   12.85    0.51
   0   7 -19   11.65    0.42
   7   0  19   12.83    0.50
  -7   0  19   12.27    0.37
   0  -7  19   12.67    0.47
  -7   0 -19   11.98    0.60
   0   7  19   13.06    0.45
   0  -7  19   12.76    0.49
  -7   0  19   11.77    0.65
  -7   0  21   19.40    0.86
   7   0  21   15.69    0.52
   0   7 -21   20.09    0.68
  -7   0 -21   18.09    0.77
   7   0  21   20.51    0.67
   0  -7  21   19.87    0.64
   0   7 -21   17.42    0.57
  -7   0  21   17.95    0.51
  -7   0  23    0.37    0.12
   0  -7  23    0.38    0.22
   0   7 -23    0.51    0.18
   0   7  23    0.31    0.16
   0   7 -23    0.45    0.23
   0  -7  23    0.38    0.20
  -7   0  23    0.98    0.38
  -7   0 -23    0.60    0.31
   0  -7 -25    3.30    0.43
  -7   0  25    4.15    0.47
   0   7 -25    3.09    0.32
   0  -7  25    3.60    0.30
  -7   0 -25    3.93    0.44
   0  -7 -27   14.86    0.75
  -7   0 -27   14.91    0.76
  -7   0  27   13.85    0.76
   0   7 -27   14.03    0.63
   0  -7  27   13.29    0.56
   0  -7 -29    3.07    0.47
   7   0  29    2.59    0.34
   7  -1  28    2.84    0.36
  -1  -7 -28    3.45    0.45
  -7  -1 -28    2.79    0.43
   1  -7  26    6.26    0.38
  -1  -7 -26    6.55    0.53
   7  -1  26    5.34    0.42
  -7   1  26    6.48    0.54
  -7  -1 -26    5.16    0.50
   1   7 -26    5.51    0.39
   1   7 -24    4.07    0.34
   1   7 -24    3.25    0.27
   1  -7  24    3.52    0.30
  -1  -7 -24    3.94    0.41
  -7   1  24    3.70    0.47
  -7  -1 -24    3.49    0.42
   1  -7  22    7.20    0.38
   1   7 -22    6.96    0.33
  -7  -1 -22    7.67    0.53
   7  -1  22    6.54    0.39
  -7   1  22    7.10    0.54
   1   7 -22    6.89    0.39
   1  -7  22    7.41    0.39
  -1  -7 -22    8.21    0.51
  -1   7  22    7.82    0.33
   1  -7  20    3.26    0.28
  -7   1  20    2.77    0.40
   1  -7  20    3.35    0.27
   7  -1  20    2.89    0.27
   1   7 -20    3.70    0.27
  -7  -1 -20    2.75    0.37
  -1   7  20    3.11    0.22
   1  -7  18    4.26    0.29
  -1   7  18    4.10    0.24
   7  -1  18    4.25    0.30
  -7   1  18    4.25    0.44
  -7  -1 -18    3.92    0.37
   1  -7  18    3.83    0.28
   1   7 -18    3.93    0.28
  -1   7  16   29.16    0.81
   7   1 -16   29.01    0.76
   1   7 -16   29.50    0.86
   7  -1  16   29.50    0.87
  -7   1  16   29.09    1.04
  -7  -1 -16   29.81    1.00
   1  -7  16   28.16    0.85
   1  -7  16   29.05    0.86
   1  -7  14   12.71    0.46
   1  -7  14   11.89    0.44
   7  -1  14   12.22    0.46
  -7   1  14   12.25    0.61
   7   1 -14   12.60    0.36
  -1   7  14   12.51    0.41
   1   7 -14   12.06    0.44
  -7  -1 -14   12.48    0.56
   7  -1  12    9.74    0.38
   1   7 -12    9.34    0.36
   1  -7  12    9.85    0.37
   7   1 -12    9.53    0.28
   1  -7  12    9.19    0.37
  -7   1  12    9.55    0.52
  -7  -1 -12   10.42    0.48
  -7   1  10   22.50    0.80
   7  -1  10   23.35    0.68
   7  -1  10   22.46    0.61
   1   7 -10   23.14    0.65
   1  -7  10   22.09    0.65
  -7   1  10   20.62    0.54
  -7  -1 -10   23.81    0.78
   7   1 -10   23.08    0.56
  -1  -7 -10   23.32    0.63
   1   7 -10   21.58    0.60
   1  -7  10   23.18    0.65
   7  -1   8   90.42    2.18
   7   1  -8   90.29    2.06
   1   7  -8   95.40    2.14
  -7  -1  -8   96.26    2.29
  -1  -7  -8   90.71    2.10
   1   7  -8   92.85    2.12
   1  -7   8   91.31    2.14
   7  -1   8   88.73    2.11
  -7   1   8   90.47    2.29
   1  -7   8   90.49    2.14
  -7  -1  -6  106.17    2.59
   1   7  -6   99.15    2.43
   7  -1   6   97.81    2.44
   7  -1   6  104.39    2.43
   1   7  -6   97.43    2.35
   1  -7   6  106.60    2.43
   1   7  -6  106.57    2.41
   7  -1   6  107.60    2.50
  -7   1   6   99.69    2.34
   7   1  -4  102.42    2.43
  -7  -1  -4  105.89    2.68
   7  -1   4  109.65    2.52
  -7  -1  -4  109.10    2.50
   1   7  -4  106.44    2.50
   7  -1   4  106.32    2.61
   7  -1   4  107.07    2.54
   1  -7   4  108.61    2.52
   1  -7   2  132.87    3.16
   7  -1   2  138.30    3.21
   7  -1   2  133.89    3.29
  -1  -7  -2  132.71    3.18
   1   7  -2  134.37    3.15
   7  -1   2  134.29    3.15
  -7   1   2  132.95    3.23
  -7  -1  -2  124.09    3.32
  -7  -1  -2  134.41    3.18
  -1   7   0  196.46    4.65
   7  -1   0  198.66    4.74
   7  -1   0  203.02    4.64
  -7   1   0  199.70    4.71
  -1  -7   0  205.67    4.67
   7  -1   0  189.80    4.82
   7  -1   0  197.01    4.64
  -7  -1   0  200.72    4.73
   7   1   2  128.84    3.17
  -1   7  -2  129.22    3.12
  -1  -7   2  135.54    3.11
   7  -1  -2  136.28    3.08
   7  -1  -2  133.35    3.07
  -7  -1   2  132.63    3.22
  -7   1  -2  128.79    3.13
   7   1   4  109.84    2.48
   7  -1  -4  109.90    2.38
   7  -1  -4   90.72    2.37
  -1  -7   4  102.61    2.43
  -7   1  -4  107.69    2.63
  -1   7  -4  106.96    2.45
   7   1   4  105.70    2.54
  -1  -7   4  109.74    2.44
  -7  -1   4   92.04    2.56
  -1  -7   6  103.90    2.48
  -1   7  -6  103.02    2.49
   1  -7  -6  102.02    2.49
   7   1   6  105.17    2.57
   7   1   6  106.96    2.49
  -7   1  -6  104.49    2.64
  -1   7  -8   89.82    2.20
  -1   7  -8   83.52    2.21
   7   1   8   92.44    2.17
  -1  -7   8   92.65    2.21
  -1  -7   8   92.86    2.19
   7   1   8   94.39    2.27
   1  -7  -8   91.71    2.22
  -7   1  -8   93.76    2.35
  -1   7 -10   23.38    0.68
  -1  -7  10   22.61    0.67
   7   1  10   25.36    0.72
   7   1  10   22.17    0.60
  -7   1 -10   24.53    0.79
  -7  -1  10   23.17    0.84
   1  -7 -10   23.50    0.69
   7   1  10   21.78    0.68
  -1  -7  10   22.58    0.64
  -1   7 -12    9.35    0.35
   1  -7 -12    9.05    0.38
  -1   7 -12    7.22    0.23
   7   1  12    8.88    0.35
  -7  -1  12    8.96    0.52
  -1  -7  12    8.72    0.32
  -7   1 -12    9.73    0.44
  -1  -7  12    8.37    0.34
   7   1  12    7.66    0.25
  -1   7 -14   10.62    0.32
   7   1  14   11.92    0.44
  -1  -7  14   12.34    0.43
  -7  -1  14    9.69    0.28
  -7   1 -14   11.90    0.52
  -1  -7  14   12.72    0.40
  -1   7 -14   12.25    0.42
  -7  -1  14   11.87    0.60
  -1  -7  16   29.52    0.83
  -7  -1  16   28.93    1.06
  -7  -1  16   26.52    0.69
   7   1  16   29.43    0.85
  -1  -7  16   27.62    0.80
   1   7  16   29.97    0.81
  -7   1 -16   28.39    0.94
  -1   7 -16   27.55    0.84
  -1   7 -16   27.25    0.74
  -1   7 -18    3.78    0.21
  -1  -7  18    3.56    0.24
  -7  -1  18    3.70    0.16
   7   1  18    3.91    0.28
  -1  -7  18    4.40    0.28
   1   7  18    3.92    0.25
  -7  -1  18    4.19    0.46
  -1   7 -18    3.53    0.28
  -7   1 -18    4.15    0.37
  -7  -1  20    2.39    0.43
  -1   7 -20    2.71    0.21
   1   7  20    2.78    0.23
  -7  -1  20    2.87    0.15
  -7   1 -20    3.19    0.35
  -1  -7  20    2.99    0.26
  -1   7 -20    2.87    0.27
   1   7  22    7.20    0.34
  -1  -7  22    7.60    0.39
  -1   7 -22    7.62    0.42
  -7   1 -22    7.66    0.51
   7   1  22    6.62    0.38
  -1  -7  22    7.30    0.36
  -1   7 -22    6.62    0.33
  -7  -1  22    6.05    0.56
  -1  -7  24    3.86    0.28
  -7   1 -24    3.60    0.41
  -7  -1  24    3.86    0.50
  -1  -7  24    3.61    0.33
  -1   7 -24    3.51    0.34
  -1  -7  26    6.09    0.36
  -7  -1  26    6.14    0.55
  -1   7 -26    5.56    0.42
  -7   1 -26    5.83    0.49
   1  -7 -28    2.73    0.43
  -7  -1  28    2.45    0.45
   7  -2  29    3.81    0.39
  -2  -7 -29    3.26    0.46
  -7  -2 -29    3.90    0.52
   2   7 -27    6.09    0.42
   2  -7  27    5.57    0.38
  -2  -7 -27    6.16    0.54
   7  -2  27    6.65    0.45
  -7   2  27    5.53    0.48
  -7  -2 -27    5.57    0.53
   2   7 -25    5.77    0.39
   7  -2  25    5.97    0.42
  -7  -2 -25    5.64    0.49
  -7   2  25    5.53    0.49
   2  -7  25    5.81    0.37
  -2  -7 -25    5.80    0.49
   2  -7  23    3.10    0.29
   2   7 -23    3.79    0.31
   7  -2  23    3.63    0.35
  -7  -2 -23    3.96    0.43
   2  -7  23    3.89    0.33
  -7   2  23    3.98    0.43
  -2  -7 -23    3.23    0.41
  -2  -7 -21    8.41    0.51
  -7   2  21    8.32    0.55
  -7  -2 -21    9.24    0.54
   7  -2  21    9.10    0.43
   2  -7  21    8.57    0.42
   2  -7  21    8.97    0.43
  -2   7  21    8.94    0.34
   2   7 -21    8.25    0.41
  -2   7  19    4.49    0.23
   7   2 -19    4.32    0.22
  -2  -7 -19    4.33    0.36
   2  -7  19    4.30    0.30
   7  -2  19    4.31    0.30
  -7   2  19    4.86    0.43
   2   7 -19    4.52    0.28
  -7  -2 -19    3.81    0.39
   2  -7  19    4.72    0.31
   2   7 -17   27.92    0.83
   2  -7  17   27.66    0.84
   7  -2  17   26.98    0.84
  -2   7  17   28.36    0.77
   2  -7  17   27.49    0.84
  -7   2  17   27.99    1.01
   7   2 -17   27.93    0.75
  -7  -2 -17   27.73    0.98
   7   2 -15    2.18    0.15
   2  -7  15    2.52    0.21
   2   7 -15    2.07    0.20
   2  -7  15    2.34    0.23
  -2   7  15    2.26    0.17
  -7  -2 -15    2.37    0.30
   7  -2  15    2.19    0.22
  -7   2  15    2.04    0.34
  -7  -2 -13   17.87    0.69
   7  -2  13   19.27    0.60
   2   7 -13   17.63    0.57
  -7   2  13   18.84    0.74
   2  -7  13   18.53    0.59
   7   2 -13   18.25    0.50
   2  -7  13   18.71    0.59
   2   7 -11   10.50    0.39
  -7   2  11   11.09    0.52
  -7  -2 -11   11.15    0.51
   7   2 -11   10.96    0.32
   2  -7  11   10.86    0.40
  -2  -7 -11   10.21    0.34
   2  -7  11   10.35    0.39
   7  -2   9   11.64    0.42
   2   7  -9   11.33    0.39
  -2  -7  -9   11.35    0.35
   2   7  -9   11.61    0.36
   2  -7   9   11.00    0.39
   2   7  -9   12.20    0.38
   2  -7   9   11.58    0.40
  -7   2   9   12.56    0.53
  -7  -2  -9   11.92    0.51
   7   2  -9   11.39    0.32
  -7   2   9   11.01    0.31
   7   2  -7  110.61    2.57
   2   7  -7  111.01    2.60
   7  -2   7  113.63    2.63
  -7  -2  -7  112.31    2.78
   2   7  -7  109.26    2.59
   2   7  -7  113.58    2.63
  -7   2   7  109.05    2.55
   2  -7   7  109.47    2.64
  -2  -7  -7  110.31    2.58
  -7   2   7  112.25    2.76
   7  -2   7  110.45    2.68
   2   7  -5  120.23    2.91
  -2  -7  -5  126.04    2.99
  -7   2   5  123.57    2.86
   2  -7   5  126.18    2.94
   7  -2   5  125.36    2.94
  -7  -2  -5  123.47    3.08
  -7  -2  -5  123.86    2.89
   2   7  -5  118.28    2.93
   7  -2   5  124.15    3.00
   2   7  -5  121.77    2.89
   7  -2   5  124.56    2.94
  -2  -7  -3  205.85    4.86
   2   7  -3  208.01    4.79
   7  -2   3  211.13    4.81
   2  -7   3  197.22    4.80
   7  -2   3  205.84    4.84
  -7   2   3  207.86    4.76
   2   7  -3  209.70    4.80
  -7  -2  -3  210.75    4.82
   7  -2   3  207.11    4.93
   7   2  -3  204.28    5.00
   2  -7   3  195.26    4.81
   7  -2   3  204.55    4.81
   7  -2   1  212.00    4.86
   7  -2   1  212.69    4.86
  -7  -2  -1  204.65    4.93
   7  -2   1  214.79    4.93
  -7   2   1  201.53    4.92
  -2  -7  -1  205.53    4.91
  -2   7   1  215.87    4.86
   7  -2   1  219.50    5.05
   7  -2  -1  210.56    4.89
  -2  -7   1  208.56    4.95
   7  -2  -1  215.31    4.90
  -2   7  -1  205.27    4.92
   7  -2  -1  209.75    5.01
  -7  -2   1  217.35    5.03
  -7   2  -1  212.78    4.96
  -2   7  -3  198.08    4.75
  -7  -2   3  202.03    4.87
   7  -2  -3  207.69    4.69
   7  -2  -3  201.22    4.70
  -2  -7   3  200.52    4.77
  -2   7  -5  121.44    2.72
   2  -7  -5  121.98    2.73
  -7   2  -5  126.04    2.74
  -7   2  -5  128.93    2.90
   7   2   5  120.04    2.80
  -2   7  -7  112.58    2.66
  -2  -7   7  112.06    2.64
  -7   2  -7  113.03    2.80
   7   2   7  110.78    2.73
   2  -7  -7  110.10    2.68
  -7   2  -7  107.24    2.69
  -7   2  -9   10.52    0.47
  -2  -7   9   10.77    0.35
   7   2   9   10.60    0.42
   2  -7  -9   11.08    0.41
  -2   7 -11    9.21    0.37
  -2  -7  11    9.57    0.34
   2  -7 -11    9.49    0.41
  -7   2 -11    9.86    0.46
  -2  -7  11    9.57    0.36
   7   2  11    9.86    0.38
  -2   7 -13   18.47    0.58
  -2  -7  13   19.01    0.57
  -7   2 -13   19.27    0.67
   7   2  13   18.17    0.59
  -2  -7  13   18.29    0.54
   2   7  15    2.10    0.21
  -2  -7  15    2.31    0.22
   7   2  15    2.14    0.23
  -7  -2  15    2.18    0.38
  -2   7 -15    2.41    0.22
  -2   7 -15    2.17    0.15
  -2  -7  15    1.96    0.18
  -7  -2  15    1.68    0.09
  -7   2 -15    2.43    0.28
  -2  -7  17   28.39    0.81
   7   2  17   27.30    0.83
  -2   7 -17   26.72    0.83
  -2   7 -17   26.28    0.75
  -7   2 -17   28.15    0.93
  -7  -2  17   26.86    1.04
  -2  -7  17   25.39    0.77
   2   7  17   27.74    0.80
  -2  -7  19    5.73    0.31
  -7   2 -19    5.42    0.40
  -7  -2  19    5.06    0.19
  -2   7 -19    5.89    0.35
  -7  -2  19    5.60    0.52
   7   2  19    5.26    0.32
   2   7  19    5.72    0.30
  -2  -7  19    5.46    0.29
  -2   7 -19    5.56    0.27
  -2  -7  21    9.07    0.41
  -2   7 -21    9.17    0.38
   7   2  21    8.60    0.42
  -7   2 -21    8.42    0.52
  -7  -2  21    9.50    0.64
  -2  -7  21    9.12    0.39
  -2   7 -21    8.74    0.45
   2   7  21    9.41    0.40
  -2  -7  23    3.39    0.29
   2   7  23    3.48    0.27
  -2   7 -23    2.92    0.26
  -7   2 -23    3.06    0.39
  -7  -2  23    3.31    0.49
  -2   7 -23    3.96    0.35
  -7  -2  23    2.96    0.17
  -2  -7  23    3.17    0.25
  -7  -2  25    6.74    0.58
  -7   2 -25    5.84    0.49
  -2   7 -25    6.58    0.42
  -7  -2  27    6.59    0.60
   7  -3  28    2.19    0.33
  -3  -7 -28    1.32    0.38
   3  -7  28    1.84    0.29
  -7  -3 -28    1.67    0.41
  -7  -3 -26    3.47    0.44
  -3  -7 -26    3.05    0.43
  -7   3  26    2.85    0.40
   3  -7  26    2.86    0.30
   7  -3  26    2.95    0.34
   3   7 -26    3.02    0.31
   7  -3  24    2.25    0.31
  -7  -3 -24    1.86    0.39
   3   7 -24    2.15    0.27
  -3  -7 -24    2.32    0.38
   3  -7  24    2.23    0.28
  -7   3  24    2.01    0.37
  -3   7  22    6.89    0.29
   7  -3  22    7.50    0.43
   3  -7  22    6.16    0.39
  -7   3  22    7.39    0.51
   3   7 -22    7.84    0.39
  -3   7  22    6.78    0.36
  -3  -7 -22    6.44    0.49
   3  -7  22    6.46    0.39
   7   3 -22    6.90    0.32
  -7  -3 -22    8.59    0.55
   7   3 -20    0.53    0.14
  -7  -3 -20    0.89    0.31
   3   7 -20    0.74    0.19
  -3   7  20    0.77    0.18
  -3  -7 -20    0.80    0.27
   3  -7  20    0.84    0.20
  -7   3  20    0.90    0.31
   3  -7  20    0.37    0.19
   7  -3  20    0.57    0.20
  -3   7  20    0.77    0.14
   7  -3  20    1.03    0.24
  -7  -3 -18    3.85    0.38
   3  -7  18    4.42    0.29
   3   7 -18    4.60    0.28
   3  -7  18    4.66    0.30
  -3  -7 -18    5.02    0.39
  -7   3  18    3.85    0.40
   7   3 -18    4.21    0.23
   7  -3  18    4.66    0.30
  -3   7  18    4.67    0.28
  -3   7  16    4.08    0.20
  -7  -3 -16    3.92    0.38
   3   7 -16    4.07    0.26
   7   3 -16    4.13    0.21
   7  -3  16    4.23    0.28
  -7   3  16    4.06    0.39
   3  -7  16    4.33    0.29
   3  -7  16    3.90    0.27
  -3  -7 -16    4.81    0.37
  -3   7  16    4.31    0.27
   3  -7  14    0.84    0.18
  -7   3  14    1.47    0.27
   7  -3  14    1.28    0.19
   3   7 -14    1.07    0.16
   7   3 -14    1.37    0.13
  -3   7  14    1.01    0.18
   3  -7  14    1.48    0.20
  -7  -3 -14    0.98    0.26
  -3   7  14    1.02    0.12
  -3  -7 -14    1.29    0.24
   7  -3  12   10.22    0.41
  -7   3  12   10.25    0.51
   3   7 -12   10.69    0.39
   3  -7  12   10.19    0.40
  -7  -3 -12   11.20    0.52
   3  -7  12   10.78    0.41
  -3  -7 -12   10.10    0.48
   7   3 -12   10.63    0.33
   7  -3  10    1.92    0.17
  -7   3  10    1.55    0.11
   3   7 -10    1.80    0.14
  -3  -7 -10    1.48    0.10
   7   3 -10    1.78    0.12
  -7   3  10    1.53    0.26
   3   7 -10    1.88    0.20
   3  -7  10    1.53    0.17
  -7  -3 -10    2.10    0.26
   3   7 -10    1.87    0.16
   3  -7  10    1.78    0.18
  -3  -7  -8   43.36    1.08
   3   7  -8   46.71    1.17
   3   7  -8   45.22    1.12
   7   3  -8   44.80    1.10
   7  -3   8   45.73    1.18
  -7  -3  -8   43.44    1.29
  -7   3   8   45.22    1.27
   3   7  -8   45.34    1.15
  -7   3   8   44.10    1.08
   3  -7   8   46.37    1.17
   3   7  -6    1.57    0.14
   3   7  -6    1.57    0.15
   7  -3   6    1.69    0.16
   7  -3   6    1.64    0.17
  -3  -7  -6    1.44    0.20
  -7   3   6    1.62    0.10
  -7  -3  -6    1.52    0.10
  -7   3   6    1.60    0.21
   3   7  -6    1.48    0.13
   3  -7   6    1.45    0.16
   7  -3   6    1.90    0.19
  -3  -7  -4   58.31    1.49
   7  -3   4   59.04    1.42
  -7   3   4   57.20    1.37
   7  -3   4   57.39    1.44
   3  -7   4   57.38    1.42
  -7  -3  -4   57.32    1.41
   7  -3   4   59.05    1.42
   7   3  -4   55.41    1.59
   7  -3   4   55.89    1.51
   3   7  -4   57.87    1.39
  -3   7   4   59.44    1.42
   3   7  -4   56.93    1.41
   3  -7   2   72.14    1.73
   7   3  -2   72.51    1.90
  -3  -7  -2   72.08    1.80
   7  -3   2   72.35    1.78
   3   7  -2   72.51    1.73
  -3   7   2   73.92    1.72
  -3   7   2   72.01    1.74
   7  -3   2   71.54    1.74
   7  -3   2   73.53    1.89
  -7  -3  -2   71.39    1.79
  -7   3   2   65.38    1.70
   3   7  -2   69.83    1.74
   7  -3   2   74.05    1.73
  -7   3   0   40.28    1.05
   3   7   0   39.75    1.03
  -3   7   0   41.41    1.00
   7  -3   0   41.92    1.00
  -7   3   0   40.58    0.99
  -3  -7   0   39.21    1.06
  -7  -3   0   41.22    1.10
   7   3   0   39.03    1.13
  -3   7   0   36.74    1.01
   7  -3   0   38.29    0.98
   7  -3   0   40.15    1.08
   7  -3  -2   71.76    1.71
  -3   7  -2   71.78    1.73
   7  -3  -2   71.66    1.68
  -7   3  -2   69.89    1.73
  -3  -7   2   70.91    1.79
   7  -3  -4   58.54    1.35
  -3   7  -4   54.89    1.44
  -7   3  -4   58.77    1.44
   7  -3  -4   58.19    1.39
  -3  -7   4   57.31    1.49
   3  -7  -4   57.31    1.45
   7  -3  -6    1.43    0.23
  -3   7  -6    1.34    0.14
  -7   3  -6    1.56    0.22
   7   3   6    1.29    0.18
   3  -7  -6    1.35    0.16
  -7   3  -6    1.62    0.15
   7   3   8   43.49    1.19
  -3  -7   8   42.96    1.10
  -7   3  -8   42.17    1.15
  -7   3  -8   44.47    1.26
  -3   7  -8   43.89    1.13
   3  -7  -8   45.32    1.18
   7  -3  -8   45.17    1.27
   3  -7 -10    1.91    0.22
   7   3  10    1.50    0.18
  -3  -7  10    1.64    0.13
  -7   3 -10    1.76    0.24
  -3   7 -12   11.58    0.42
  -7   3 -12   11.63    0.50
   7   3  12   11.59    0.43
  -3  -7  12   11.98    0.37
   3  -7 -12   11.45    0.48
  -3   7 -14    0.97    0.12
   7   3  14    1.02    0.17
  -7   3 -14    0.91    0.23
  -3  -7  14    0.85    0.16
  -3   7 -14    1.09    0.19
  -7   3 -14    0.95    0.19
  -3  -7  14    1.05    0.14
  -7  -3  16    3.50    0.14
  -7   3 -16    3.97    0.35
   3   7  16    4.40    0.27
  -3   7 -16    4.25    0.29
  -3   7 -16    4.11    0.21
  -3  -7  16    4.35    0.25
  -3  -7  16    4.22    0.23
   7   3  16    4.47    0.28
   3   7  18    4.13    0.27
  -7  -3  18    4.94    0.49
  -7   3 -18    4.28    0.36
  -3  -7  18    4.73    0.28
   7   3  18    4.21    0.28
  -3   7 -18    4.05    0.31
  -3  -7  18    4.36    0.24
  -7  -3  18    3.69    0.16
  -3   7 -18    4.00    0.23
  -7  -3  20    0.50    0.35
  -3   7 -20    0.64    0.17
   3   7  20    0.99    0.19
  -3   7 -20    0.71    0.22
  -3  -7  20    0.71    0.18
   7   3  20    0.65    0.20
  -3  -7  20    0.64    0.16
  -7  -3  20    0.84    0.10
  -7   3 -20    0.68    0.28
  -7  -3  22    8.54    0.61
   3   7  22    7.97    0.38
  -7   3 -22    8.15    0.50
  -7  -3  22    6.98    0.26
  -3   7 -22    7.85    0.38
   7   3  22    7.90    0.42
  -3   7 -22    7.77    0.44
  -3  -7  22    7.34    0.34
  -3  -7  22    7.92    0.39
  -7  -3  24    1.89    0.44
   3   7  24    2.29    0.25
  -3   7 -24    2.31    0.31
  -3  -7  24    2.31    0.23
  -7   3 -24    2.03    0.35
  -7  -3  26    3.10    0.48
  -3   7 -26    2.89    0.35
  -7  -3  28    2.17    0.47
   4  -7  29    0.38    0.26
  -7  -4 -29    0.03    0.35
  -7  -4 -27    4.44    0.51
   4  -7  27    4.28    0.36
   4   7 -27    4.34    0.35
  -4  -7 -27    5.74    0.56
  -7   4  25    0.02    0.27
  -7  -4 -25    0.50    0.32
  -4  -7 -25    0.57    0.32
   4   7 -25    0.37    0.21
   7  -4  25    0.16    0.26
  -7   4  23    0.95    0.31
   7  -4  23    1.33    0.27
  -4  -7 -23    1.47    0.34
  -4   7  23    1.74    0.25
   4   7 -23    1.56    0.24
   7   4 -23    1.50    0.20
   4  -7  23    1.46    0.27
  -7  -4 -23    0.90    0.34
  -4   7  21    8.19    0.42
   7  -4  21    8.59    0.46
   7   4 -21    8.21    0.36
  -4  -7 -21    8.66    0.54
   4  -7  21    9.12    0.44
   4   7 -21    8.49    0.40
  -7   4  21    8.30    0.52
   4  -7  21    9.57    0.46
   7  -4  21    9.29    0.45
  -7  -4 -21    8.18    0.53
  -7  -4 -19    2.73    0.35
  -4   7  19    2.51    0.16
  -4   7  19    2.26    0.25
   7  -4  19    2.70    0.27
   7  -4  19    2.73    0.28
   4  -7  19    2.36    0.25
   4  -7  19    2.90    0.25
   7   4 -19    2.57    0.20
   4   7 -19    2.64    0.23
  -7   4  19    3.31    0.37
  -4  -7 -19    3.30    0.35
   7  -4  17   11.23    0.47
  -7  -4 -17   11.24    0.59
  -4   7  17   10.94    0.47
   4  -7  17   11.84    0.48
   7   4 -17   11.91    0.40
  -4   7  17   12.07    0.37
   4   7 -17   11.34    0.44
   4  -7  17   12.38    0.49
  -4  -7 -17   11.94    0.58
   7  -4  17   12.22    0.50
  -7   4  17   11.55    0.57
  -7  -4 -15    2.88    0.34
   7  -4  15    3.58    0.27
   7  -4  15    3.63    0.25
  -4   7  15    3.18    0.17
   7   4 -15    3.40    0.20
  -4   7  15    3.61    0.26
   4  -7  15    3.38    0.25
  -4  -7 -15    3.28    0.31
  -7   4  15    2.85    0.33
   4  -7  15    3.54    0.26
   4   7 -15    3.01    0.22
  -4   7  13    4.51    0.19
   4  -7  13    4.40    0.26
  -4   7  13    5.14    0.28
  -7   4  13    4.86    0.37
   4   7 -13    4.32    0.25
   7  -4  13    4.50    0.27
   7  -4  13    5.06    0.30
   7   4 -13    4.57    0.21
   4  -7  13    5.08    0.29
  -4  -7 -13    5.04    0.35
  -7  -4 -13    4.55    0.36
   7   4 -11    5.14    0.22
   4   7 -11    5.17    0.33
  -7   4  11    4.98    0.21
   7  -4  11    4.74    0.28
  -4   7  11    5.57    0.29
  -7  -4 -11    4.57    0.36
   4  -7  11    5.66    0.28
   4   7 -11    5.66    0.25
  -7   4  11    4.75    0.36
   4  -7  11    4.95    0.27
   4   7  -9   31.11    0.90
   4   7  -9   30.47    0.83
   7  -4   9   32.61    0.85
   4  -7   9   31.62    0.86
   7   4  -9   32.08    0.80
   4   7  -9   32.07    0.79
  -7   4   9   32.01    0.78
  -7   4   9   32.32    0.95
  -7  -4  -9   33.18    1.00
   4  -7   7   30.73    0.75
   7  -4   7   33.74    0.86
   7   4  -7   28.33    0.73
   7  -4   7   35.23    0.89
  -7  -4  -7   31.43    0.76
  -7   4   7   30.43    0.79
   4   7  -7   34.31    0.80
   4   7  -7   35.43    0.85
  -7   4   7   35.90    0.95
   4   7  -7   34.26    0.89
   4  -7   7   34.91    0.87
   7   4  -7   32.13    1.01
  -7  -4  -7   34.11    1.00
   7  -4   5   36.98    0.99
   7   4  -5   36.66    0.89
   4   7  -5   38.70    0.97
   7   4  -5   38.54    1.15
  -4   7   5   38.22    0.97
  -7  -4  -5   37.59    0.95
  -7   4   5   37.28    0.93
   4   7  -5   37.22    0.94
   4  -7   5   37.45    0.98
  -4   7   5   38.31    0.92
   4  -7   5   36.65    0.95
   7  -4   5   38.22    0.98
   4   7  -5   36.01    1.00
  -4  -7  -5   37.55    1.06
   7  -4   5   39.08    1.05
   4   7  -3  176.27    4.18
  -4   7   3  180.18    4.17
  -7  -4  -3  177.31    4.24
   4  -7   3  180.21    4.20
  -4  -7  -3  175.83    4.29
   7   4  -3  177.83    4.36
  -4   7   3  179.56    4.20
  -7   4   3  180.58    4.15
   7  -4   3  182.39    4.33
   7  -4   3  180.57    4.20
   4   7  -3  171.89    4.23
  -7   4   3  177.42    4.17
   7  -4   3  183.00    4.21
   7  -4   3  180.65    4.24
  -7  -4  -1    1.02    0.22
  -7   4   1    1.18    0.10
   4  -7   1    1.22    0.12
   7  -4   1    1.21    0.11
   7  -4   1    1.20    0.16
   4   7  -1    1.41    0.16
  -7   4   1    1.46    0.11
   7   4  -1    1.41    0.22
  -4   7   1    1.23    0.10
  -4   7   1    1.05    0.13
  -4  -7  -1    1.33    0.17
   7  -4   1    1.27    0.11
   7   4   1    1.05    0.19
  -4   7  -1    0.92    0.12
   7  -4  -1    1.18    0.09
   4   7   1    0.82    0.14
  -7   4  -1    1.30    0.11
  -4   7  -1    1.29    0.11
  -7  -4   1    0.84    0.24
  -4  -7   1    1.00    0.18
   7  -4  -1    1.01    0.10
  -7   4  -1    0.79    0.11
   7  -4  -3  170.74    3.97
   4  -7  -3  171.36    4.06
  -4  -7   3  172.19    4.13
   7  -4  -3  170.63    4.00
  -4   7  -3  169.95    4.03
  -7   4  -3  175.10    4.03
   7  -4  -5   38.10    1.10
   4  -7  -5   38.42    1.03
  -7   4  -5   39.94    1.01
  -4   7  -5   37.19    1.00
  -7   4  -7   33.26    0.90
   4  -7  -7   33.43    0.93
  -4   7  -7   31.41    0.88
  -7   4  -7   34.78    1.00
   7   4   7   30.75    0.93
   7  -4  -7   33.44    1.00
   4  -7  -9   31.38    0.90
  -7   4  -9   31.70    0.93
  -4  -7   9   30.50    0.77
   7  -4  -9   30.60    0.96
  -4  -7  11    5.46    0.22
   4  -7 -11    5.46    0.34
  -7   4 -11    4.99    0.34
   7   4  11    5.54    0.30
  -4   7 -13    3.85    0.26
   4  -7 -13    4.54    0.35
   7   4  13    4.91    0.29
  -4   7 -13    4.12    0.22
  -7   4 -13    4.05    0.31
  -4  -7  13    4.83    0.21
  -4   7 -15    2.75    0.19
  -4   7 -15    3.02    0.25
  -7   4 -15    3.46    0.31
  -4  -7  15    2.78    0.18
  -7   4 -15    2.90    0.26
  -7  -4  15    2.48    0.11
   7   4  15    3.12    0.26
   4   7  15    3.00    0.26
  -4   7 -17   11.31    0.48
  -4   7 -17   11.37    0.42
  -7   4 -17   12.33    0.55
  -4  -7  17   10.79    0.39
   7   4  17   12.04    0.48
   4   7  17   12.03    0.46
  -7   4 -17   11.35    0.51
  -4   7 -19    2.42    0.23
  -7   4 -19    2.61    0.31
  -7  -4  19    2.24    0.12
   7   4  19    2.74    0.25
   4   7  19    2.25    0.23
  -4  -7  19    2.56    0.19
  -4   7 -19    2.65    0.27
   4   7  21    8.32    0.39
  -7  -4  21    7.42    0.26
  -7  -4  21    8.43    0.64
  -4   7 -21    8.83    0.46
  -4   7 -21    8.42    0.40
  -7   4 -21    8.62    0.50
  -4  -7  21    8.54    0.34
  -4   7 -23    1.52    0.25
  -7  -4  23    1.30    0.41
  -7   4 -23    1.70    0.33
  -4  -7  23    1.26    0.18
  -4   7 -23    1.28    0.28
  -7  -4  25    0.34    0.41
  -4   7 -25   -0.10    0.26
  -7  -4  27    5.10    0.59
  -7  -4  29    0.86    0.42
   7  -5  28    1.91    0.31
  -5  -7 -28    1.80    0.40
  -7  -5 -28    1.71    0.40
   5   7 -26    3.46    0.30
  -5  -7 -26    2.91    0.48
  -7   5  26    3.16    0.37
   5  -7  26    3.87    0.34
  -7  -5 -26    3.53    0.46
  -7   5  24    2.73    0.35
  -7  -5 -24    2.92    0.43
   7  -5  24    2.56    0.31
  -5  -7 -24    2.74    0.43
  -5   7  24    2.42    0.29
   5   7 -24    1.95    0.24
   7   5 -24    2.80    0.25
   5  -7  24    2.70    0.32
   5   7 -22   17.87    0.64
  -7  -5 -22   18.15    0.85
   7   5 -22   18.37    0.61
   5  -7  22   19.55    0.71
  -5  -7 -22   17.94    0.83
  -7   5  22   17.92    0.75
   7  -5  22   19.63    0.73
  -5   7  22   18.38    0.68
  -7   5  20    0.53    0.28
  -5   7  20    0.46    0.10
  -5   7  20    0.62    0.22
   7  -5  20    0.33    0.23
   5  -7  20    0.46    0.20
  -5  -7 -20    0.61    0.30
  -7  -5 -20    0.41    0.29
   7   5 -20    0.68    0.17
   5  -7  20    0.39    0.22
   5   7 -20    0.80    0.19
   7  -5  20    0.87    0.21
  -7   5  18    0.47    0.25
  -5   7  18    0.71    0.22
   5  -7  18    0.85    0.20
  -5  -7 -18    0.97    0.29
   5   7 -18    0.69    0.17
  -7  -5 -18    0.35    0.26
   7  -5  18    0.73    0.19
   5  -7  18    0.68    0.21
   7  -5  18    0.83    0.21
   7   5 -18    0.64    0.16
   7  -5  16   10.65    0.46
   5  -7  16   10.43    0.45
  -5   7  16   10.87    0.46
  -5   7  16    9.88    0.30
  -7   5  16   10.52    0.52
   5   7 -16   10.07    0.40
  -5  -7 -16   11.04    0.55
   5  -7  16   10.24    0.44
   7  -5  16   10.83    0.44
   7   5 -16    9.86    0.37
  -7  -5 -16    9.99    0.55
  -7   5  14    4.36    0.34
   7  -5  14    4.17    0.29
   5   7 -14    4.18    0.24
   5  -7  14    4.64    0.28
  -5   7  14    4.27    0.17
   5  -7  14    3.99    0.28
  -5  -7 -14    4.77    0.37
   7  -5  14    4.08    0.27
  -5   7  14    4.13    0.29
   7   5 -14    4.44    0.22
  -7  -5 -14    4.69    0.38
  -5  -7 -12    8.59    0.46
   5  -7  12    8.34    0.37
   7  -5  12    8.27    0.38
   5   7 -12    8.91    0.34
   5  -7  12    9.01    0.38
  -5   7  12    8.80    0.39
   5   7 -12    8.71    0.45
  -5   7  12    8.13    0.26
  -7   5  12    9.01    0.44
   7   5 -12    9.21    0.32
  -7  -5 -12    9.03    0.48
   7   5 -10    0.40    0.11
   5   7 -10    0.52    0.09
  -7  -5 -10    0.60    0.23
  -5   7  10    0.50    0.17
  -7   5  10    0.57    0.10
   5  -7  10    0.40    0.15
   5   7 -10    0.57    0.21
   5   7 -10    0.49    0.12
   7  -5  10    0.43    0.12
  -7   5  10    0.69    0.19
   5   7  -8   72.07    1.81
   5   7  -8   70.47    1.65
   7   5  -8   65.96    1.61
   7  -5   8   71.01    1.72
   7   5  -8   69.90    1.68
   7   5  -8   70.60    1.90
   5  -7   8   66.20    1.63
   5  -7   8   71.57    1.75
  -5   7   8   70.37    1.63
   5   7  -8   69.47    1.70
  -7   5   8   69.93    1.67
  -7  -5  -8   66.49    1.86
  -7   5   8   71.12    1.80
   7  -5   8   68.90    1.73
   7  -5   6    1.44    0.14
  -7   5   6    1.53    0.12
  -5   7   6    1.35    0.13
   5  -7   6    1.67    0.12
  -7   5   6    1.34    0.06
   5   7  -6    1.36    0.11
   5  -7   6    1.37    0.14
   5   7  -6    1.52    0.14
  -7  -5  -6    1.66    0.12
   7   5  -6    1.52    0.26
  -7   5   6    1.40    0.19
   7   5  -6    1.52    0.08
  -5  -7  -6    1.30    0.21
   7  -5   6    1.25    0.17
   5   7  -6    1.48    0.20
  -5   7   6    1.51    0.09
   7  -5   4    8.96    0.34
  -7   5   4    9.72    0.26
   7  -5   4    9.40    0.32
  -5   7   4    9.27    0.28
   7  -5   4    8.97    0.41
   5  -7   4    9.33    0.37
   5  -7   4    9.12    0.32
   7   5  -4    9.26    0.44
  -7   5   4    9.48    0.30
   5   7  -4    9.26    0.30
   5   7  -4    9.39    0.38
  -5   7   4    9.62    0.32
  -5  -7  -4    8.86    0.41
  -5  -7  -2  115.48    2.96
  -5   7   2  122.99    2.81
   7  -5   2  122.68    2.83
  -7   5   2  119.97    2.80
  -7   5   2  118.36    2.82
   7  -5   2  123.32    2.85
  -7  -5  -2  111.76    3.00
   7   5  -2  119.56    2.97
  -5   7   2  119.44    2.84
   7  -5   2  116.91    2.89
   5  -7   2  115.61    2.83
   5   7  -2  117.41    2.89
   5  -7   0   59.60    1.40
  -7  -5   0   56.95    1.60
   5   7   0   56.24    1.46
  -5   7   0   57.08    1.42
   7  -5   0   58.06    1.41
   5  -7   0   56.16    1.42
  -5   7   0   56.28    1.40
  -7   5   0   55.79    1.41
   7  -5   0   56.46    1.39
  -5  -7   0   58.98    1.54
   7   5   0   56.46    1.52
  -7   5   0   56.89    1.39
   5  -7  -2  116.06    2.89
  -7   5  -2  118.06    2.84
  -5   7  -2  120.42    2.84
  -5  -7   2  119.87    2.98
  -7   5  -2  118.79    2.85
   7  -5  -2  120.96    2.80
  -7  -5   2  119.35    3.05
   5   7   2  120.89    2.90
  -5   7  -2  117.02    2.86
   7  -5  -2  121.02    2.83
   7   5   2  122.70    2.95
   7  -5  -4    8.50    0.24
  -5   7  -4    8.23    0.31
  -5  -7   4    8.27    0.41
   5   7   4    9.11    0.35
   7  -5  -4    8.31    0.38
   5  -7  -4    8.94    0.35
  -7   5  -4    8.64    0.31
   7  -5  -6    1.66    0.22
   5  -7  -6    1.51    0.19
  -7   5  -6    1.63    0.15
  -5   7  -6    1.14    0.14
   7  -5  -8   68.52    1.80
   5  -7  -8   70.51    1.76
  -7   5  -8   69.58    1.70
   7  -5 -10    0.29    0.25
  -7   5 -10    0.51    0.21
   5  -7 -10    0.39    0.23
  -7   5 -12    8.96    0.43
  -5  -7  12    8.08    0.29
   5  -7 -12    8.06    0.44
   7   5  14    4.85    0.30
  -5   7 -14    4.56    0.29
  -5   7 -14    4.29    0.25
  -5  -7  14    4.44    0.21
  -7   5 -14    4.53    0.34
  -7   5 -14    3.80    0.29
  -7   5 -16   10.42    0.50
   5   7  16   11.07    0.44
  -7  -5  16    9.50    0.29
  -5   7 -16   10.28    0.41
  -5  -7  16   10.41    0.35
   7   5  16   10.36    0.43
  -5   7 -16   10.36    0.45
  -7   5 -16   10.82    0.47
   7   5  18    0.43    0.19
  -7   5 -18    0.97    0.23
   5   7  18    0.52    0.19
  -5  -7  18    0.63    0.13
  -5   7 -18    1.02    0.22
  -5   7 -18    0.50    0.19
  -7   5 -18    0.68    0.24
  -5   7 -20    0.72    0.23
  -5   7 -20    0.61    0.20
   7   5  20    0.47    0.21
  -5  -7  20    0.36    0.13
  -7   5 -20    0.64    0.27
   5   7  20    0.60    0.20
  -5  -7  22   17.08    0.55
  -5   7 -22   18.57    0.66
   5   7  22   17.66    0.64
  -7   5 -22   17.32    0.74
  -5   7 -24    2.49    0.31
  -7  -5  24    2.02    0.49
  -7   5 -24    2.05    0.35
  -7  -5  26    3.21    0.53
  -7  -5  28    1.27    0.45
  -5  -7  28    1.61    0.47
   7  -6  27    6.69    0.45
  -7  -6 -27    6.76    0.60
  -6  -7 -27    6.31    0.58
   6  -7  27    6.85    0.46
  -6  -7 -25    0.95    0.37
   7  -6  25    0.39    0.26
  -7   6  25    0.53    0.26
   6  -7  25    0.69    0.27
   6   7 -25    0.81    0.22
  -7  -6 -25    0.69    0.38
  -6   7  25    0.53    0.25
  -6  -7 -23    1.96    0.40
   6  -7  23    2.16    0.31
  -7   6  23    1.85    0.32
   7   6 -23    2.28    0.24
  -6   7  23    1.79    0.30
   7  -6  23    1.58    0.29
  -7  -6 -23    2.22    0.41
   6   7 -23    2.08    0.24
   6   7 -21   12.82    0.49
  -6   7  21   12.57    0.56
   7   6 -21   12.98    0.48
  -7  -6 -21   11.94    0.68
  -7   6  21   12.12    0.59
  -6  -7 -21   12.83    0.69
   6  -7  21   12.56    0.57
  -7   6  19    3.81    0.35
   6  -7  19    4.30    0.32
   6  -7  19    3.61    0.30
   7   6 -19    4.05    0.25
   6   7 -19    4.16    0.26
  -6   7  19    3.86    0.33
  -7  -6 -19    4.63    0.42
   7  -6  19    3.48    0.30
   7  -6  19    4.66    0.33
  -6  -7 -19    4.31    0.41
   7   6 -17    6.43    0.29
   6   7 -17    6.38    0.31
   6  -7  17    5.70    0.36
   7  -6  17    7.02    0.38
  -7   6  17    6.53    0.41
  -6   7  17    6.15    0.39
   7  -6  17    6.43    0.35
   6  -7  17    6.80    0.36
  -7  -6 -17    6.01    0.45
  -6  -7 -17    6.57    0.45
   6   7 -15    5.73    0.28
   6  -7  15    5.77    0.32
   7  -6  15    5.52    0.32
   7   6 -15    5.22    0.26
  -6  -7 -15    5.89    0.42
   6  -7  15    5.98    0.33
  -7   6  15    5.01    0.36
   7  -6  15    5.61    0.33
  -6   7  15    5.58    0.35
  -7  -6 -15    5.56    0.42
   7   6 -13   11.04    0.38
  -7  -6 -13   11.76    0.56
   7  -6  13   11.15    0.45
  -6   7  13   10.75    0.47
   6   7 -13   10.45    0.39
   6  -7  13   10.36    0.43
   6   7 -13    9.90    0.53
  -6  -7 -13   10.92    0.54
  -7   6  13   10.19    0.48
   6  -7  13   10.69    0.44
   6   7 -11    7.69    0.44
   6  -7  11    7.60    0.35
   6   7 -11    7.81    0.30
  -6   7  11    6.95    0.21
  -6  -7 -11    6.96    0.42
  -6   7  11    7.55    0.38
   7   6 -11    7.73    0.47
  -6   7  11    6.87    0.20
  -7   6  11    8.57    0.40
  -7   6  11    7.78    0.28
   7   6 -11    7.90    0.29
  -7  -6 -11    8.45    0.46
   7  -6  11    7.43    0.35
   6   7  -9   30.02    0.75
  -7   6   9   30.07    0.90
   6  -7   9   29.76    0.85
   6   7  -9   30.48    0.81
  -7   6   9   30.46    0.78
   6   7  -9   31.49    0.94
   7   6  -9   31.26    0.99
   7  -6   9   30.22    0.84
  -6   7   9   32.42    0.89
   7   6  -9   31.27    0.80
   7  -6   9   31.30    0.80
   7   6  -9   30.90    0.73
   6  -7   9   31.22    0.76
  -6   7   9   31.24    0.80
  -7  -6  -7   24.81    0.67
  -6   7   7   27.08    0.71
   6   7  -7   25.95    0.66
   6  -7   7   26.13    0.74
   7   6  -7   27.23    0.65
   7  -6   7   27.87    0.75
  -6   7   7   25.99    0.64
  -7   6   7   27.61    0.80
   6   7  -7   28.26    0.83
  -7   6   7   22.85    0.61
   6   7  -7   27.30    0.72
   7  -6   7   26.39    0.74
   7   6  -7   28.50    0.88
   6  -7   7   26.51    0.70
  -7   6   7   27.42    0.70
  -7   6   5   10.81    0.29
  -7   6   5   10.63    0.42
   7   6  -5   10.59    0.47
  -6   7   5   10.46    0.30
   6  -7   5   10.34    0.39
   7  -6   5    9.39    0.37
   7  -6   5   10.65    0.37
   7   6  -5   10.49    0.31
  -7   6   5   10.64    0.34
  -6  -7  -5    9.94    0.47
   7  -6   5   10.18    0.42
   6   7  -5   10.85    0.44
  -6   7   5   10.88    0.35
   6   7  -5   10.65    0.32
   6  -7   5   10.47    0.36
   6  -7   3  165.90    3.97
   7  -6   3  169.21    3.97
  -7  -6  -3  167.01    4.14
   7  -6   3  168.24    4.11
  -6  -7  -3  168.19    4.12
   7  -6   3  171.17    3.99
   6   7  -3  167.14    4.05
   6  -7   3  154.34    3.98
  -7   6   3  168.13    3.92
  -6   7   3  175.19    3.93
  -7   6   3  168.77    3.96
   7   6  -3  171.47    4.10
  -6   7   3  170.98    3.97
  -6   7   1    1.39    0.13
  -7   6   1    1.31    0.11
   7  -6   1    1.37    0.14
   6   7  -1    1.56    0.19
  -6   7   1    1.54    0.11
   7  -6   1    1.51    0.12
   7   6  -1    1.49    0.21
  -7  -6  -1    1.06    0.24
   7  -6   1    1.34    0.17
  -6  -7  -1    1.53    0.23
  -7   6   1    1.61    0.13
   6  -7   1    1.44    0.14
   6  -7   1    1.76    0.13
   6  -7  -1    2.12    0.15
  -6   7  -1    1.98    0.15
   6  -7  -1    2.30    0.14
   7  -6  -1    1.53    0.14
   7   6   1    1.68    0.20
   7  -6  -1    1.88    0.12
  -6   7  -1    2.03    0.13
  -7   6  -1    1.77    0.15
  -6  -7   1    1.75    0.24
  -7  -6   1    1.69    0.26
  -7   6  -1    1.89    0.13
   6   7   1    1.82    0.20
   6   7   3  172.84    4.04
   7   6   3  168.82    4.06
  -7   6  -3  173.68    3.98
   7  -6  -3  170.34    3.91
   6  -7  -3  165.88    4.03
   7  -6  -3  170.61    3.96
  -6  -7   3  171.06    4.15
  -6   7  -3  170.84    3.97
  -6   7  -3  166.06    3.98
  -7   6  -3  169.41    3.97
   6   7   5   10.74    0.41
  -6   7  -5    9.72    0.36
   7  -6  -5   10.68    0.44
   6  -7  -5   11.05    0.43
  -7   6  -5   10.38    0.37
   7   6   5    9.44    0.41
  -7   6  -7   26.26    0.76
  -6   7  -7   26.16    0.76
   7  -6  -7   27.13    0.85
   6  -7  -7   26.43    0.83
  -6   7  -9   29.31    0.84
   7  -6  -9   29.85    0.95
   6  -7  -9   29.28    0.92
  -7   6  -9   29.50    0.85
   6  -7 -11    7.87    0.45
   7  -6 -11    8.11    0.47
  -7   6 -11    7.84    0.40
  -7   6 -13   10.50    0.48
   6  -7 -13   10.84    0.56
  -7   6 -15    5.17    0.33
  -6   7 -15    5.42    0.33
   6   7  15    5.58    0.33
   7   6  15    5.29    0.32
  -6   7 -15    5.48    0.32
  -7   6 -15    5.55    0.36
  -6  -7  15    5.37    0.21
  -6   7 -17    6.73    0.37
   6   7  17    6.50    0.36
  -7   6 -17    6.96    0.38
  -7   6 -17    6.86    0.40
  -6  -7  17    6.65    0.25
   7   6  17    7.20    0.37
  -6   7 -17    6.82    0.36
  -7  -6  17    6.36    0.22
  -7   6 -19    4.13    0.33
   7   6  19    3.71    0.29
   6   7  19    4.01    0.30
  -6   7 -19    3.84    0.30
  -7   6 -19    3.57    0.34
  -6   7 -19    3.83    0.31
  -6  -7  19    4.15    0.20
  -6  -7  21   11.98    0.39
  -7   6 -21   11.81    0.57
  -6   7 -21   12.50    0.53
  -7   6 -21   12.69    0.59
  -7  -6  21   11.61    0.36
  -6   7 -21   12.34    0.57
   7   6  21   12.30    0.52
  -6   7 -23    2.01    0.32
  -7   6 -23    1.93    0.33
  -7  -6  25    1.05    0.44
  -6  -7  27    5.72    0.64
  -7  -6  27    5.75    0.61
  -6  -7  29    0.69    0.46
  -7  -6  29    0.76    0.47
  -7  -7 -28    3.07    0.51
  -7  -7 -26    3.84    0.51
   7  -7  24    4.31    0.37
   7   7 -24    4.56    0.30
  -7   7  24    3.87    0.36
  -7  -7 -24    4.01    0.50
  -7  -7 -22   22.35    0.96
   7  -7  22   21.51    0.81
   7   7 -22   22.51    0.72
  -7   7  22   22.03    0.82
   7  -7  20   12.99    0.57
  -7   7  20   13.84    0.59
  -7  -7 -20   13.19    0.71
   7   7 -20   12.91    0.48
   7  -7  18    7.00    0.39
  -7   7  18    6.00    0.40
   7   7 -18    5.76    0.31
   7  -7  18    6.79    0.37
  -7  -7 -18    6.59    0.49
   7   7 -16   37.53    1.02
  -7  -7 -16   36.01    1.24
  -7   7  16   37.61    1.14
   7  -7  16   38.33    1.11
   7  -7  16   37.13    1.09
   7  -7  14   53.34    1.43
  -7   7  14   53.58    1.47
   7   7 -14   52.90    1.35
  -7  -7 -14   53.02    1.57
   7  -7  14   48.84    1.40
   7   7 -14   52.15    1.56
  -7   7  12    9.04    0.34
   7  -7  12    9.48    0.41
  -7   7  12    9.25    0.44
   7   7 -12    9.08    0.51
   7   7 -12    9.46    0.35
  -7  -7 -12   10.01    0.52
   7  -7  10   42.42    1.07
  -7   7  10   42.72    1.20
   7  -7  10   42.59    1.16
   7   7 -10   42.69    1.10
  -7   7  10   42.21    1.09
   7   7 -10   43.46    1.28
   7   7 -10   42.96    1.03
  -7   7   8  115.33    2.76
  -7   7   8  127.68    2.85
   7   7  -8  117.38    2.79
  -7  -7  -8  116.43    2.79
   7   7  -8  125.39    2.87
   7  -7   8  123.13    2.90
   7   7  -8  125.07    3.03
   7  -7   8  118.77    2.86
  -7   7   8  126.82    2.97
  -7   7   6    1.14    0.08
   7  -7   6    1.15    0.14
   7   7  -6    1.00    0.10
   7   7  -6    1.10    0.22
   7  -7   6    1.27    0.16
  -7   7   6    1.12    0.13
  -7   7   4   26.71    0.72
  -7   7   4   26.82    0.67
  -7  -7  -4   25.06    0.87
   7  -7   4   27.75    0.83
   7   7  -4   26.30    0.83
   7  -7   4   25.14    0.72
   7  -7   4   24.86    0.75
  -7   7   2  203.81    4.83
   7  -7   2  203.99    4.83
   7   7  -2  207.11    4.94
   7  -7   2  206.70    4.90
  -7  -7  -2  205.63    5.02
   7  -7   2  210.60    4.86
  -7   7   2  205.95    4.80
  -7   7   0   39.68    1.00
   7  -7   0   40.20    1.00
  -7   7   0   39.83    1.03
  -7  -7   0   38.51    1.20
   7   7   0   37.02    1.10
   7  -7   0   39.97    1.04
  -7   7  -2  196.40    4.73
  -7   7  -2  201.97    4.71
   7  -7  -2  203.47    4.72
   7  -7  -2  200.41    4.68
  -7  -7   2  201.20    4.94
   7   7   2  203.29    4.81
   7  -7  -4   28.25    0.85
  -7   7  -4   27.76    0.78
   7   7   4   27.75    0.84
  -7   7  -4   28.09    0.77
   7   7   6    1.37    0.19
   7  -7  -6    1.17    0.21
  -7   7  -6    1.28    0.15
  -7   7  -8  125.82    3.00
   7  -7  -8  119.92    3.09
   7  -7 -10   43.02    1.26
  -7   7 -10   40.52    1.14
   7  -7 -12    8.98    0.52
   7   7  16   37.31    1.09
  -7   7 -16   36.31    1.10
  -7   7 -16   37.05    1.10
   7   7  18    6.81    0.38
  -7   7 -18    6.80    0.40
  -7   7 -18    6.91    0.40
  -7  -7  20   12.22    0.38
   7   7  20   13.06    0.54
  -7   7 -20   13.29    0.58
  -7   7 -20   13.60    0.57
  -7   7 -22   22.67    0.82
  -7   7 -22   23.38    0.86
  -7  -7  26    4.29    0.62
  -7  -7  28    2.59    0.53
  -8   0   0   14.02    0.48
   8   0   0   13.51    0.51
   8   0   2    1.03    0.18
  -8   0  -2    0.96    0.14
   0   8  -2    1.06    0.14
   8   0  -2    1.10    0.09
  -8   0  -2    0.88    0.27
  -8   0   2    0.88    0.20
   0  -8   2    1.35    0.11
   8   0  -2    1.18    0.24
   8   0   2    1.11    0.14
   0   8  -2    1.00    0.13
   8   0   2    1.09    0.22
  -8   0  -4   19.41    0.56
   8   0   4   19.55    0.66
   0  -8   4   19.48    0.56
   8   0   4   20.81    0.58
  -8   0   4   17.76    0.66
   0   8  -4   19.42    0.56
   0  -8   4   18.96    0.51
   8   0  -4   19.41    0.49
   8   0   4   19.78    0.60
  -8   0  -4   20.54    0.74
   8   0   6    4.87    0.24
   8   0   6    5.31    0.25
  -8   0  -6    5.41    0.36
   0   8  -6    5.02    0.22
   0  -8   6    4.86    0.22
   8   0   6    4.76    0.29
   8   0   8    1.89    0.21
   0   8  -8    1.51    0.17
   0  -8   8    1.45    0.16
   8   0  -8    1.14    0.07
  -8   0  -8    1.61    0.26
   8   0   8    1.27    0.14
   0   8  -8    1.64    0.15
   0  -8   8    1.64    0.16
   0  -8  -8    1.71    0.15
   8   0  10   50.45    1.30
  -8   0 -10   49.24    1.40
   0  -8 -10   49.47    1.25
   8   0  10   48.36    1.20
   0   8 -10   50.44    1.24
   0   8 -10   47.32    1.26
   0  -8  10   48.96    1.25
   0  -8  10   47.69    1.24
   8   0 -10   46.38    1.13
  -8   0  10   47.39    1.43
   0  -8 -12   13.05    0.45
   0   8 -12   12.53    0.44
  -8   0  12   12.27    0.60
   0  -8  12   13.02    0.44
   8   0  12   12.23    0.44
   8   0  12   12.32    0.36
   0  -8  12   12.64    0.42
  -8   0 -12   12.72    0.56
   8   0 -14   12.83    0.32
   8   0  14   13.13    0.46
   0   8 -14   14.07    0.46
   0  -8  14   13.62    0.45
  -8   0 -14   14.83    0.62
   0  -8  14   13.79    0.46
  -8   0  14   13.72    0.66
   0   8  16    3.56    0.24
   8   0  16    3.69    0.28
   0   8 -16    3.33    0.16
   0  -8  16    3.73    0.27
   0  -8  16    3.71    0.25
  -8   0 -16    3.73    0.39
  -8   0  16    3.31    0.39
   0   8 -16    3.41    0.26
   8   0  18    0.09    0.07
   0   8 -18    0.05    0.17
   0  -8  18    0.23    0.20
   0  -8  18    0.08    0.17
  -8   0  18    0.49    0.34
  -8   0 -18   -0.11    0.27
   8   0  18    0.19    0.19
   0   8  18    0.06    0.15
   0   8 -18    0.01    0.09
   0  -8  20    2.75    0.28
  -8   0 -20    2.77    0.36
   8   0  20    3.01    0.29
   0   8  20    2.76    0.22
  -8   0  20    3.24    0.43
   0   8 -20    2.48    0.18
   0   8 -20    3.10    0.28
   0  -8  20    2.76    0.24
   0   8 -22    2.71    0.21
   0   8 -22    2.94    0.30
   0  -8  22    3.13    0.28
  -8   0  22    2.25    0.40
  -8   0  22    2.69    0.14
   0  -8  22    2.93    0.26
  -8   0 -22    2.73    0.38
  -8   0 -24    7.46    0.55
   0   8 -24    6.48    0.41
  -8   0  24    6.95    0.57
   0  -8 -26    0.05    0.32
  -8   0 -26    0.11    0.34
  -8   0  26    1.06    0.40
   0  -8  26    0.27    0.21
   0   8 -26    0.33    0.26
   0   8 -28   -0.21    0.28
   8   0  28    0.41    0.27
  -8   0  28    0.41    0.32
   0  -8 -28    0.24    0.36
   1   8 -27    0.28    0.27
   8  -1  27    0.30    0.28
  -8   1  27    0.14    0.35
  -8  -1 -27    0.91    0.37
  -1  -8 -27    0.18    0.35
   1  -8  27    0.02    0.22
   1  -8  25    7.44    0.41
  -1  -8 -25    7.43    0.54
  -8   1  25    7.77    0.59
   1   8 -25    7.02    0.43
  -8  -1 -25    7.60    0.58
  -1  -8 -23    7.72    0.51
   1   8 -23    6.88    0.40
  -8  -1 -23    7.51    0.54
   1  -8  23    6.80    0.39
  -8   1  23    7.31    0.55
  -8   1  21    2.92    0.44
   1   8 -21    2.52    0.26
   8  -1  21    2.89    0.29
   1   8 -21    2.55    0.19
   1  -8  21    2.43    0.26
  -8  -1 -21    2.84    0.40
   1  -8  21    2.83    0.27
  -8   1  19    4.92    0.47
   8  -1  19    4.74    0.32
   1   8 -19    4.52    0.22
   1  -8  19    4.77    0.33
   1   8 -19    5.29    0.32
   1  -8  19    4.61    0.30
  -1   8  19    4.97    0.26
  -8  -1 -19    5.33    0.44
   1   8 -17   21.44    0.70
   1  -8  17   21.79    0.69
   8  -1  17   22.35    0.71
  -1   8  17   22.08    0.65
  -8  -1 -17   24.17    0.88
  -8   1  17   22.40    0.89
   1  -8  17   22.46    0.71
   8   1 -17   20.77    0.58
  -8  -1 -15   26.67    0.94
   1   8 -15   25.12    0.78
   8  -1  15   26.12    0.80
   1  -8  15   25.76    0.78
   8  -1  15   24.59    0.69
   1  -8  15   25.61    0.77
  -1   8  15   26.28    0.73
  -8   1  15   25.82    0.97
   8   1 -15   25.93    0.66
   1  -8  13   13.18    0.46
   1   8 -13   13.83    0.46
   8  -1  13   13.86    0.48
  -8  -1 -13   13.97    0.59
  -8   1  13   14.07    0.63
   8   1 -13   13.15    0.35
   8  -1  13   13.73    0.40
   1  -8  13   12.76    0.45
   1   8 -13   11.93    0.40
   8   1 -11    3.09    0.12
   8  -1  11    3.16    0.18
   8  -1  11    3.29    0.23
   1   8 -11    3.54    0.22
   1   8 -11    2.71    0.13
  -8   1  11    2.43    0.09
  -1  -8 -11    2.95    0.21
  -8   1  11    3.17    0.33
   1  -8  11    2.62    0.21
  -8  -1 -11    3.53    0.33
   1  -8  11    3.10    0.21
   1   8  -9   20.33    0.57
   8   1  -9   19.59    0.46
   8  -1   9   19.99    0.53
   8  -1   9   20.63    0.61
   1  -8   9   19.16    0.56
   1   8  -9   20.16    0.54
  -8  -1  -9   20.87    0.71
  -8   1   9   19.02    0.70
  -1  -8  -9   19.35    0.53
   1  -8   9   19.26    0.56
   1   8  -7   99.58    2.38
   8  -1   7   96.63    2.42
   1   8  -7   98.19    2.41
  -8  -1  -7   99.86    2.57
   8  -1   7   98.94    2.40
  -1  -8  -7   99.12    2.37
   1  -8   7  102.27    2.41
   8  -1   7  100.45    2.47
   8  -1   5  109.11    2.62
   8  -1   5  110.00    2.61
  -8  -1  -5  110.52    2.57
  -8  -1  -5  107.89    2.78
   1  -8   5  108.51    2.60
   8  -1   5  106.72    2.68
   1   8  -5  104.10    2.58
   8  -1   3    4.00    0.20
   1  -8   3    3.91    0.15
   8   1  -3    3.80    0.36
   8  -1   3    3.98    0.25
  -8  -1  -3    3.55    0.33
   8   1  -3    3.07    0.13
  -8   1   3    4.24    0.28
   1   8  -3    4.04    0.19
   8  -1   3    4.58    0.31
  -8  -1  -3    4.00    0.20
   1  -8   3    3.94    0.20
   1   8  -1   97.30    2.32
   8  -1   1   96.76    2.40
  -8  -1  -1   94.95    2.38
   8  -1   1   96.31    2.30
   8  -1   1   96.29    2.49
  -8   1   1   95.03    2.40
   8  -1   1   98.91    2.31
  -1  -8  -1   97.53    2.35
   8  -1  -1   99.28    2.29
   8  -1  -1   97.71    2.43
   8  -1  -1   96.62    2.30
  -8   1  -1   95.11    2.37
  -1  -8   1   95.97    2.33
  -8  -1   1   95.97    2.42
  -1   8  -1   97.64    2.33
   8  -1  -3    3.45    0.14
  -1   8  -3    3.41    0.19
   8  -1  -3    3.66    0.15
   8   1   3    3.58    0.25
  -8  -1   3    3.56    0.29
  -1   8  -3    3.44    0.18
  -8   1  -3    3.13    0.19
   8   1   3    3.74    0.28
  -1  -8   3    3.77    0.18
   8  -1  -3    3.14    0.28
  -8   1  -5  108.81    2.63
  -1  -8   5  106.52    2.42
  -1   8  -5  106.26    2.43
   8   1   5  107.12    2.45
   8   1   5  108.67    2.53
   8   1   5   99.02    2.45
   8  -1  -5  108.80    2.35
   1  -8  -7   97.65    2.10
  -1   8  -7   98.12    2.10
   8  -1  -7   83.23    1.98
   8   1   7   97.15    2.09
  -1  -8   7  100.66    2.09
   8   1   7   98.32    2.18
  -8   1  -7   99.02    2.29
  -1   8  -9   19.26    0.60
   8   1   9   20.54    0.65
  -1   8  -9   20.52    0.59
  -1  -8   9   19.43    0.59
   1  -8  -9   19.83    0.60
  -8   1  -9   20.76    0.74
  -8  -1   9   19.45    0.76
   8   1   9   19.89    0.56
  -1  -8   9   19.06    0.57
  -8   1 -11    3.13    0.31
  -1   8 -11    2.45    0.20
   1  -8 -11    2.76    0.23
   8   1  11    2.54    0.21
   8   1  11    2.74    0.15
  -1  -8  11    2.85    0.21
  -1  -8  11    2.60    0.18
  -8  -1  11    3.08    0.37
  -1  -8  13   13.63    0.45
   8   1  13   13.77    0.49
  -1   8 -13   13.72    0.48
  -1  -8  13   13.91    0.47
   1  -8 -13   14.04    0.51
  -8  -1  13   14.46    0.67
  -8   1 -13   12.98    0.59
  -8   1 -15   26.46    0.88
  -1   8 -15   25.16    0.74
  -1  -8  15   24.05    0.70
   8   1  15   26.61    0.76
  -1  -8  15   26.93    0.74
  -8  -1  15   26.43    0.97
  -1  -8  17   22.68    0.69
   8   1  17   22.08    0.70
  -1   8 -17   20.63    0.69
   1   8  17   22.58    0.66
  -8   1 -17   21.35    0.82
  -1  -8  17   21.07    0.66
  -8  -1  17   22.32    0.92
   8   1  19    4.71    0.32
  -1   8 -19    4.84    0.32
   1   8  19    4.78    0.28
  -1  -8  19    4.87    0.30
  -1  -8  19    5.16    0.29
  -8  -1  19    5.01    0.48
  -8   1 -19    5.67    0.43
  -1   8 -19    4.50    0.22
  -8   1 -21    3.07    0.38
   1   8  21    2.46    0.23
  -1  -8  21    2.24    0.24
  -1   8 -21    2.87    0.27
  -8  -1  21    3.33    0.46
   8   1  21    2.73    0.26
  -1   8 -21    2.32    0.18
  -1  -8  23    7.60    0.38
  -1  -8  23    7.32    0.39
  -8  -1  23    6.89    0.59
   1   8  23    7.63    0.36
  -8   1 -23    7.81    0.54
  -1   8 -23    7.16    0.42
  -8   1 -25    7.39    0.56
  -8  -1  25    7.31    0.59
  -1  -8  25    7.87    0.39
  -1   8 -25    7.98    0.47
   1  -8 -27   -0.17    0.32
  -1   8 -27    0.25    0.28
  -8  -1  27    0.06    0.34
  -2  -8 -28    2.05    0.43
  -8  -2 -28    2.23    0.46
   2  -8  28    2.79    0.32
   2   8 -28    2.56    0.31
  -2  -8 -26    3.62    0.47
  -8   2  26    4.47    0.49
   8  -2  26    3.14    0.36
   2   8 -26    3.86    0.34
   2  -8  26    3.65    0.32
  -8  -2 -26    3.89    0.47
   8  -2  24    0.22    0.24
   2   8 -24    0.38    0.22
  -8  -2 -24    0.37    0.34
   2  -8  24    0.39    0.22
  -8   2  24    0.50    0.35
  -2  -8 -24    0.35    0.30
   2  -8  22    2.11    0.27
  -2   8  22    2.68    0.20
   2  -8  22    2.53    0.27
   2   8 -22    2.62    0.28
  -2  -8 -22    3.09    0.37
  -8   2  22    2.82    0.41
   2   8 -22    2.05    0.19
  -8  -2 -22    2.99    0.41
  -2   8  20    8.07    0.32
   8   2 -20    7.00    0.29
   2  -8  20    7.22    0.39
   8  -2  20    8.24    0.40
   2   8 -20    6.94    0.37
  -2  -8 -20    6.81    0.46
  -8   2  20    7.21    0.54
  -8  -2 -20    8.03    0.55
   2  -8  20    8.15    0.40
  -2  -8 -18    7.43    0.46
   2   8 -18    7.76    0.37
   2  -8  18    7.60    0.37
  -8  -2 -18    7.75    0.51
  -8   2  18    8.36    0.52
   2  -8  18    6.98    0.37
   8  -2  18    7.41    0.38
   2  -8  16   28.29    0.85
   8   2 -16   28.22    0.74
   2  -8  16   27.50    0.84
  -8   2  16   27.40    1.01
  -2   8  16   28.43    0.77
   8  -2  16   28.68    0.86
  -8  -2 -16   27.33    0.99
   2   8 -16   27.84    0.84
   8   2 -14   23.67    0.62
   2  -8  14   24.12    0.73
   2   8 -14   22.49    0.70
  -8   2  14   23.96    0.89
   2  -8  14   24.42    0.73
   8  -2  14   23.94    0.73
  -8   2  14   22.02    0.59
  -8  -2 -14   25.03    0.88
  -8   2  12   34.60    1.09
   2   8 -12   32.94    0.89
   8   2 -12   32.59    0.82
  -2  -8 -12   33.47    0.87
   2  -8  12   35.15    0.93
   2  -8  12   35.44    0.94
  -8  -2 -12   32.95    1.07
   2   8 -12   34.25    0.92
  -8   2  12   30.86    0.80
  -8   2  10   40.10    1.21
   8   2 -10   40.24    0.96
   2  -8  10   39.55    1.06
  -2  -8 -10   41.00    1.00
   2  -8  10   39.75    1.06
   8  -2  10   41.72    1.09
   2   8 -10   37.88    0.99
   2   8 -10   39.59    1.02
   8  -2  10   40.16    1.02
   2   8 -10   38.46    1.05
  -8   2  10   37.11    0.94
  -8  -2 -10   40.41    1.21
   8  -2   8   74.78    1.89
   2   8  -8   76.95    1.82
  -8  -2  -8   77.81    2.02
   2  -8   8   75.10    1.85
  -8   2   8   73.57    1.74
  -8   2   8   76.40    1.99
  -2  -8  -8   75.89    1.79
   8   2  -8   74.79    1.77
   8  -2   8   76.15    1.84
   2   8  -8   75.35    1.84
   8  -2   8   70.04    1.85
   2   8  -8   71.68    1.78
  -8  -2  -6   15.46    0.45
   2   8  -6   15.69    0.49
  -8  -2  -6   15.62    0.63
  -2  -8  -6   16.80    0.56
   8  -2   6   16.95    0.50
   2   8  -6   15.78    0.43
  -8   2   6   15.58    0.41
   8  -2   6   16.41    0.50
   2   8  -6   16.47    0.47
   8  -2   6   16.00    0.56
   2  -8   6   16.25    0.50
   2  -8   4  167.34    3.86
  -2  -8  -4  169.09    3.92
  -8  -2  -4  161.26    3.85
   8   2  -4  159.97    4.06
   8  -2   4  167.55    3.86
  -8   2   4  163.44    3.79
   8  -2   4  165.22    3.89
   8  -2   4  166.69    3.97
  -8  -2  -4  166.20    4.05
   2   8  -4  160.92    3.81
   2   8  -4  169.68    3.84
   8  -2   4  167.68    3.86
   8  -2   2   72.26    1.75
  -2   8   2   66.85    1.76
   8  -2   2   72.25    1.91
   2   8  -2   73.02    1.75
  -2   8   2   72.96    1.74
  -8  -2  -2   72.23    1.80
   8   2  -2   71.93    1.95
   8  -2   2   73.45    1.82
  -8   2   2   70.79    1.83
  -2  -8  -2   72.63    1.80
   8  -2   2   73.70    1.75
   8  -2   0    4.02    0.27
   8  -2   0    4.30    0.18
  -2   8   0    4.88    0.20
  -8   2   0    4.19    0.23
  -8  -2   0    4.55    0.27
   8  -2   0    4.46    0.19
   8  -2   0    4.18    0.35
  -2  -8   0    4.29    0.22
  -8   2  -2   73.71    1.83
  -2   8  -2   74.98    1.80
   8  -2  -2   69.81    1.90
   8  -2  -2   73.83    1.76
  -8  -2   2   73.89    1.93
   8  -2  -2   76.32    1.77
  -2  -8   2   72.01    1.82
  -8  -2   4  164.58    4.10
  -2   8  -4  168.13    3.95
   8  -2  -4  167.56    3.88
  -2  -8   4  170.22    3.96
  -2   8  -4  160.66    3.94
   8  -2  -4  170.53    3.87
   8   2   4  157.27    4.04
  -2  -8   6   16.30    0.48
  -2   8  -6   16.30    0.49
   8   2   6   15.23    0.55
  -8   2  -6   16.24    0.64
   2  -8  -6   15.96    0.50
   8   2   8   76.25    1.93
  -2  -8   8   75.49    1.84
  -8   2  -8   77.20    2.02
   2  -8  -8   74.24    1.88
  -2   8  -8   74.24    1.86
   2  -8 -10   37.91    1.05
   8   2  10   37.72    1.07
  -2   8 -10   35.99    1.02
  -8   2 -10   40.52    1.17
  -8  -2  10   37.37    1.21
  -2  -8  10   37.70    0.98
   2  -8 -12   35.13    1.02
  -8   2 -12   36.16    1.10
  -2   8 -12   35.79    0.98
   8   2  12   34.15    0.99
  -8  -2  12   34.60    1.17
  -2  -8  12   35.01    0.93
  -2  -8  14   25.49    0.74
  -8  -2  14   24.60    0.97
  -2   8 -14   24.43    0.76
   8   2  14   24.02    0.76
  -8   2 -14   25.64    0.89
  -2  -8  14   24.67    0.71
   8   2  16   27.69    0.80
  -2   8 -16   27.92    0.81
  -8  -2  16   27.99    1.03
  -2  -8  16   28.39    0.78
   2   8  16   28.37    0.78
  -2  -8  16   26.44    0.74
  -8   2 -16   28.59    0.94
  -2  -8  18    7.81    0.37
   8   2  18    7.57    0.38
  -2   8 -18    7.35    0.38
  -2  -8  18    8.16    0.34
   2   8  18    7.90    0.35
  -2   8 -18    6.74    0.27
  -8   2 -18    7.05    0.48
  -8  -2  18    7.72    0.58
  -8   2 -20    9.15    0.53
  -2  -8  20    8.09    0.38
  -2   8 -20    8.12    0.41
  -8  -2  20    8.15    0.58
  -2  -8  20    8.20    0.37
  -2   8 -20    7.69    0.31
   8   2  20    8.12    0.41
   2   8  20    8.10    0.38
  -2  -8  22    3.04    0.25
  -8  -2  22    2.24    0.44
  -2   8 -22    3.31    0.30
  -8   2 -22    3.13    0.39
  -2   8 -22    2.34    0.20
  -8   2 -24   -0.15    0.32
  -8  -2  24    0.41    0.38
  -2   8 -24    0.23    0.26
  -8  -2  26    3.77    0.49
  -2   8 -26    3.86    0.37
  -8   2 -26    3.66    0.46
  -8  -2  28    2.70    0.49
  -8  -3 -29    2.06    0.46
  -8   3  27    1.16    0.33
  -3  -8 -27    1.35    0.37
   3   8 -27    0.76    0.25
   3  -8  27    0.64    0.23
  -8  -3 -27    1.23    0.41
   8  -3  27    0.87    0.30
   3   8 -25    3.76    0.32
  -3  -8 -25    3.72    0.45
   3  -8  25    3.25    0.32
   8  -3  25    3.77    0.37
  -8  -3 -25    4.41    0.49
  -8   3  25    2.69    0.39
  -8   3  23    1.74    0.37
   8  -3  23    1.51    0.28
   3   8 -23    1.53    0.23
   3  -8  23    1.82    0.27
  -8  -3 -23    1.42    0.36
  -3  -8 -23    1.54    0.34
   8   3 -21    0.97    0.15
   8  -3  21    1.23    0.22
   3   8 -21    1.03    0.22
  -3   8  21    1.13    0.15
   3  -8  21    0.84    0.22
   8  -3  21    1.32    0.26
   3  -8  21    1.31    0.24
  -8   3  21    0.99    0.34
  -3  -8 -21    0.71    0.28
  -8  -3 -21    0.84    0.32
   8   3 -19    0.05    0.12
   3  -8  19    0.08    0.19
  -8   3  19   -0.12    0.31
  -3  -8 -19    0.36    0.25
   3   8 -19    0.06    0.16
   8  -3  19    0.19    0.20
  -8  -3 -19    0.02    0.25
   3  -8  19    0.04    0.17
  -3   8  19    0.23    0.12
  -3  -8 -17   17.74    0.73
   3  -8  17   17.49    0.63
  -3   8  17   19.24    0.54
   8   3 -17   18.28    0.53
   8  -3  17   17.35    0.63
  -8  -3 -17   16.62    0.76
   3  -8  17   17.91    0.63
  -8   3  17   17.66    0.77
   8  -3  17   18.74    0.66
   3   8 -17   17.76    0.61
  -8   3  15   12.64    0.60
   3   8 -15   12.81    0.46
   8   3 -15   11.96    0.39
   8  -3  15   11.94    0.48
  -3  -8 -15   12.16    0.56
   3  -8  15   12.40    0.48
  -3   8  15   13.26    0.40
  -8  -3 -15   12.60    0.61
   3  -8  15   12.62    0.48
  -8   3  13   23.79    0.85
   3  -8  13   24.28    0.72
   3   8 -13   23.70    0.69
   3  -8  13   23.59    0.71
   8   3 -13   22.44    0.61
  -8   3  13   22.01    0.59
   8  -3  13   20.10    0.69
  -8  -3 -13   25.36    0.87
   3   8 -13   22.39    0.72
   8   3 -11    5.79    0.21
   3  -8  11    5.42    0.28
   3  -8  11    5.23    0.28
   3   8 -11    4.91    0.27
  -3  -8 -11    5.40    0.21
  -8   3  11    5.75    0.20
   8  -3  11    5.94    0.29
  -8   3  11    5.07    0.38
   3   8 -11    6.05    0.29
  -8  -3 -11    5.47    0.39
  -8  -3  -9   32.41    1.04
   3   8  -9   32.87    0.88
  -8   3   9   31.78    1.02
   3   8  -9   33.74    0.87
   3   8  -9   33.04    0.85
   3  -8   9   33.25    0.91
  -8   3   9   32.50    0.80
   8  -3   9   33.38    0.92
  -3  -8  -9   32.12    0.82
   8   3  -9   32.73    0.82
  -8  -3  -7   75.69    2.01
   8  -3   7   72.63    1.87
   3   8  -7   73.19    1.82
  -3  -8  -7   74.50    1.92
   8  -3   7   70.00    1.84
  -8   3   7   74.29    1.75
  -8   3   7   71.84    1.94
   8  -3   7   74.70    1.83
   3  -8   7   73.45    1.84
   3   8  -7   74.60    1.80
   8  -3   7   73.72    1.83
   3   8  -7   74.68    1.79
  -3  -8  -5   24.67    0.74
   3   8  -5   23.83    0.63
   3  -8   5   22.83    0.66
   3   8  -5   23.88    0.64
  -8   3   5   23.43    0.60
   8  -3   5   24.67    0.66
   3   8  -5   23.38    0.66
   8  -3   5   23.23    0.68
   8  -3   5   23.76    0.75
  -8  -3  -5   23.45    0.83
   8  -3   5   24.58    0.67
   3  -8   5   20.96    0.59
   8   3  -5   24.20    0.84
   3  -8   5   24.18    0.67
  -8  -3  -5   22.93    0.64
  -3  -8  -3   17.34    0.56
  -3   8   3   17.02    0.50
   8  -3   3   16.99    0.54
   3   8  -3   16.45    0.48
  -8   3   3   15.92    0.45
   8   3  -3   16.13    0.66
   8  -3   3   17.54    0.50
  -3   8   3   16.71    0.47
   3  -8   3   15.93    0.49
   8  -3   3   16.40    0.62
   8  -3   3   17.37    0.49
  -8  -3  -3   17.43    0.53
   3   8  -3   16.29    0.49
   8  -3   1   40.54    1.22
  -8   3   1   39.86    1.10
  -3   8   1   39.97    1.05
   8  -3   1   42.49    1.04
  -8  -3  -1   40.64    1.12
  -3   8   1   41.65    1.03
   8  -3   1   41.65    1.03
   8  -3   1   40.37    1.12
   8   3  -1   38.36    1.19
   3   8  -1   40.51    1.05
  -3  -8  -1   40.95    1.10
  -3   8  -1   41.71    1.05
   8  -3  -1   41.57    1.02
   8  -3  -1   39.10    1.14
  -8  -3   1   41.00    1.16
   8  -3  -1   41.76    1.03
  -3  -8   1   41.02    1.11
  -3   8  -3   15.91    0.47
   8  -3  -3   15.53    0.41
  -8  -3   3   15.48    0.59
  -8   3  -3   15.22    0.47
  -3  -8   3   15.98    0.52
   8  -3  -3   15.50    0.43
  -3   8  -5   24.98    0.67
  -3   8  -5   22.58    0.65
  -8   3  -5   24.05    0.67
   3  -8  -5   23.62    0.67
   8  -3  -5   22.92    0.55
   8   3   7   71.18    1.88
  -8   3  -7   74.29    1.98
   8  -3  -7   72.69    1.95
  -3   8  -7   73.49    1.81
  -8   3  -7   74.56    1.84
   3  -8  -7   71.61    1.83
  -3  -8   9   31.97    0.85
   3  -8  -9   33.76    0.94
  -8   3  -9   31.75    1.02
  -8   3  -9   30.39    0.91
   8   3   9   32.72    0.95
  -3   8  -9   33.27    0.89
  -3  -8  11    6.26    0.26
   8   3  11    6.87    0.32
   3  -8 -11    5.99    0.34
  -8   3 -11    6.17    0.39
   3  -8 -13   23.26    0.78
  -3  -8  13   22.78    0.65
  -3   8 -13   22.95    0.72
  -8   3 -13   23.99    0.82
   8   3  13   22.57    0.72
  -8   3 -15   11.78    0.54
  -3   8 -15   11.99    0.46
  -8  -3  15   12.84    0.67
   8   3  15   11.75    0.45
  -3  -8  15   11.78    0.39
  -3   8 -17   18.94    0.63
  -3   8 -17   15.78    0.49
  -8   3 -17   17.55    0.72
   8   3  17   17.61    0.60
   3   8  17   17.40    0.59
  -3  -8  17   16.87    0.54
  -8  -3  17   17.36    0.81
  -3   8 -19    0.16    0.20
  -8  -3  19    0.47    0.35
   3   8  19    0.22    0.18
  -8   3 -19    0.30    0.27
  -3   8 -19    0.33    0.13
   8   3  19    0.11    0.19
   3   8  21    0.87    0.20
  -8  -3  21    0.75    0.37
  -3   8 -21    0.84    0.15
  -8   3 -21    0.99    0.30
  -3   8 -21    0.88    0.23
   8   3  21    1.05    0.23
  -3  -8  21    1.13    0.18
  -8   3 -23    1.54    0.36
   3   8  23    1.62    0.22
  -8  -3  23    1.24    0.43
  -3   8 -23    1.82    0.28
  -3  -8  23    1.94    0.20
  -8  -3  25    3.44    0.49
  -3   8 -25    3.99    0.36
  -8   3 -25    2.88    0.40
  -3   8 -27    1.05    0.29
  -8  -3  27    0.78    0.42
  -8  -3  29    2.55    0.53
   8  -4  28    0.49    0.25
  -8  -4 -28    0.93    0.47
   4  -8  28    0.34    0.25
  -4  -8 -28    0.33    0.36
   4  -8  26    0.50    0.22
   8  -4  26    0.67    0.27
  -8  -4 -26    0.77    0.39
   4   8 -26    0.45    0.24
  -4  -8 -26    0.43    0.34
  -8   4  26    0.72    0.32
  -8   4  24    0.40    0.32
   4   8 -24    0.47    0.21
   8  -4  24    0.48    0.25
  -8  -4 -24    0.84    0.36
   4  -8  24    0.64    0.25
  -4  -8 -24    0.63    0.34
  -4  -8 -22    2.48    0.37
   4   8 -22    2.41    0.27
   4  -8  22    2.78    0.27
  -8   4  22    2.54    0.38
   8   4 -22    2.52    0.22
  -8  -4 -22    2.98    0.41
  -8   4  20    1.94    0.34
  -8  -4 -20    1.97    0.33
   8  -4  20    1.83    0.27
   4   8 -20    2.20    0.24
   8   4 -20    1.51    0.17
   4  -8  20    2.04    0.25
  -4   8  20    1.80    0.15
   4  -8  20    1.64    0.23
   8  -4  20    1.63    0.24
  -4  -8 -20    1.37    0.31
   8   4 -18    9.39    0.35
   8  -4  18    9.53    0.43
   4  -8  18    9.38    0.43
   4   8 -18    8.93    0.39
   4  -8  18    9.41    0.44
   8  -4  18    9.38    0.45
  -4  -8 -18    9.02    0.53
  -8  -4 -18    9.19    0.55
  -8   4  18    8.75    0.54
   4   8 -16    1.72    0.19
  -8   4  16    1.62    0.31
  -8  -4 -16    1.77    0.30
   8  -4  16    2.26    0.24
  -4   8  16    1.94    0.15
   8   4 -16    1.91    0.16
   8  -4  16    2.19    0.24
  -4  -8 -16    2.31    0.30
   4  -8  16    1.74    0.23
   4  -8  16    1.55    0.22
  -8  -4 -14    2.64    0.32
  -8   4  14    2.57    0.31
  -8   4  14    2.85    0.16
   8  -4  14    2.66    0.25
   4  -8  14    2.64    0.24
   4  -8  14    2.94    0.24
   8  -4  14    3.11    0.24
   4   8 -14    2.91    0.29
  -4  -8 -14    3.21    0.33
  -4   8  14    2.83    0.16
   8   4 -14    2.72    0.17
   4   8 -14    2.54    0.20
  -8   4  12   24.44    0.64
   4  -8  12   25.10    0.74
   8   4 -12   24.75    0.66
   4   8 -12   24.38    0.77
   4  -8  12   24.82    0.75
   4   8 -12   23.52    0.71
  -8  -4 -12   24.69    0.89
  -8   4  12   24.39    0.86
   4   8 -10    3.19    0.17
  -8   4  10    3.21    0.31
  -4  -8 -10    2.77    0.13
   4   8 -10    2.89    0.19
  -8  -4 -10    3.09    0.32
   4  -8  10    3.15    0.22
   8  -4  10    3.60    0.23
   4   8 -10    2.72    0.23
   8   4 -10    3.19    0.17
  -8   4  10    3.34    0.15
   8  -4   8   11.81    0.42
   4  -8   8   11.99    0.44
   8   4  -8   11.71    0.37
   4   8  -8   11.35    0.41
  -8  -4  -8   11.90    0.56
   4   8  -8   12.43    0.44
   4   8  -8   12.39    0.37
  -8   4   8   12.44    0.35
  -8   4   8   12.56    0.51
   8  -4   8   12.74    0.45
  -4   8   6    1.29    0.10
   4   8  -6    1.37    0.14
   8  -4   6    1.31    0.14
  -4   8   6    1.28    0.15
   8  -4   6    1.19    0.16
  -4  -8  -6    1.31    0.19
   8  -4   6    1.42    0.16
   4  -8   6    1.11    0.14
  -8   4   6    1.45    0.20
  -8   4   6    1.57    0.11
  -8  -4  -6    1.33    0.11
   8   4  -6    1.80    0.30
   4  -8   6    0.88    0.15
   4  -8   6    1.04    0.08
   8   4  -6    1.09    0.05
  -8  -4  -6    1.19    0.25
   8  -4   6    1.55    0.20
   4   8  -6    1.46    0.13
   4   8  -6    1.14    0.15
  -4  -8  -4    5.43    0.31
   4   8  -4    6.18    0.23
  -8  -4  -4    5.35    0.26
   8   4  -4    5.80    0.38
   8  -4   4    5.75    0.24
   4   8  -4    5.86    0.26
  -4   8   4    5.96    0.21
   8  -4   4    6.01    0.25
  -8   4   4    5.85    0.21
   8  -4   4    5.46    0.34
   4  -8   4    5.71    0.24
  -4   8   4    5.67    0.25
   8  -4   4    6.12    0.28
  -8   4   2   38.65    0.95
   8  -4   2   39.43    0.98
   8  -4   2   36.96    1.04
  -8  -4  -2   37.63    1.05
  -4   8   2   37.83    0.99
   4  -8   2   37.44    0.98
   4   8  -2   38.00    1.01
   8  -4   2   39.61    1.00
   8   4  -2   38.10    1.14
   8  -4   2   39.70    1.16
  -4  -8  -2   37.66    1.07
  -4   8   2   38.03    0.97
  -8   4   2   37.79    0.96
   8  -4   0    6.93    0.33
  -4   8   0    6.62    0.27
   8  -4   0    6.82    0.23
  -4   8   0    6.81    0.25
  -4  -8   0    7.01    0.33
  -8  -4   0    5.80    0.41
   4  -8   0    5.11    0.26
   4   8   0    6.61    0.28
   8   4   0    6.51    0.37
  -8   4   0    6.52    0.24
   8  -4   0    6.83    0.25
  -8   4   0    6.83    0.25
   8  -4  -2   39.06    0.96
  -4   8  -2   39.43    1.01
   8  -4  -2   39.11    0.99
  -4  -8   2   38.98    1.10
  -8   4  -2   38.76    1.01
  -4   8  -4    6.11    0.25
  -4  -8   4    5.61    0.31
   4  -8  -4    5.40    0.27
  -8   4  -4    5.80    0.25
   8  -4  -4    5.75    0.21
   8  -4  -4    5.60    0.17
  -8   4  -6    1.53    0.17
  -4   8  -6    1.37    0.15
  -4   8  -6    1.01    0.14
   8  -4  -6    1.68    0.25
   4  -8  -6    1.22    0.18
  -8   4  -8   11.08    0.43
   4  -8  -8   12.15    0.46
  -4   8  -8   12.04    0.41
   8   4   8   11.79    0.47
  -8   4  -8   10.99    0.52
   8  -4  -8   11.10    0.53
  -8   4 -10    2.85    0.23
  -8   4 -10    3.28    0.32
  -4  -8  10    3.34    0.18
   4  -8 -10    2.72    0.28
  -8   4 -12   26.52    0.88
   8   4  12   26.64    0.79
   4  -8 -12   24.42    0.84
  -4  -8  12   25.18    0.70
  -8   4 -14    3.11    0.32
  -4  -8  14    2.99    0.19
  -4   8 -14    3.04    0.25
   8   4  14    3.17    0.26
   4  -8 -14    2.79    0.32
  -4   8 -16    1.63    0.15
  -4   8 -16    1.90    0.22
  -4  -8  16    1.89    0.17
  -8   4 -16    1.84    0.25
   8   4  16    1.80    0.22
  -8   4 -16    1.97    0.31
   4   8  16    2.24    0.24
  -4   8 -18    9.29    0.44
  -4   8 -18    8.20    0.33
  -8   4 -18    8.52    0.51
  -4  -8  18    8.13    0.33
   4   8  18    8.80    0.40
  -8  -4  20    1.97    0.40
  -4   8 -20    2.17    0.26
  -4   8 -20    1.43    0.18
   4   8  20    1.87    0.23
  -8   4 -20    1.22    0.30
  -4  -8  22    2.28    0.22
  -8  -4  22    2.12    0.46
  -4   8 -22    1.96    0.30
  -8   4 -22    2.81    0.36
  -8  -4  24    0.72    0.43
  -4   8 -24    0.52    0.27
  -8   4 -24    0.26    0.31
   4   8  24    0.60    0.24
  -4   8 -26    0.59    0.29
  -8  -4  26    0.60    0.42
  -8  -4  28    0.50    0.42
   5  -8  29    0.19    0.24
   8  -5  27    1.14    0.29
   5  -8  27    0.98    0.29
  -8  -5 -27    1.03    0.41
  -5  -8 -27    0.59    0.36
  -5  -8 -25    0.58    0.36
   5   8 -25    0.24    0.20
   8  -5  25    0.23    0.27
   5  -8  25    0.21    0.22
  -8   5  25    0.33    0.29
  -8  -5 -25    0.77    0.34
   8  -5  23    1.06    0.26
   5  -8  23    0.91    0.25
   5   8 -23    0.62    0.22
   8   5 -23    0.77    0.19
  -5  -8 -23    0.29    0.34
  -8   5  23    0.67    0.32
  -8  -5 -23    0.30    0.33
   8   5 -21    0.32    0.17
  -8  -5 -21    0.56    0.33
   8  -5  21    0.53    0.27
  -8   5  21    0.17    0.30
  -5  -8 -21    0.03    0.29
   5  -8  21    0.41    0.22
   5   8 -21    0.05    0.19
   8  -5  19    0.27    0.20
   5   8 -19    0.22    0.17
  -8   5  19   -0.02    0.26
  -5   8  19    0.23    0.09
   8   5 -19    0.15    0.13
  -8  -5 -19    0.21    0.28
   8  -5  19    0.25    0.19
  -5   8  19    0.19    0.20
  -5  -8 -19   -0.15    0.28
  -5  -8 -17   16.59    0.73
  -5   8  17   15.92    0.60
  -8  -5 -17   15.24    0.73
   5  -8  17   16.48    0.60
   8   5 -17   16.49    0.52
  -8   5  17   16.65    0.70
   8  -5  17   16.20    0.62
   8  -5  17   17.14    0.60
   5   8 -17   15.48    0.55
   5  -8  17   17.12    0.62
  -5   8  17   16.42    0.45
  -5   8  15    3.37    0.16
   5   8 -15    3.75    0.24
   8  -5  15    3.42    0.26
  -8   5  15    3.87    0.35
  -8  -5 -15    3.92    0.38
   5  -8  15    3.79    0.28
   5   8 -15    3.68    0.34
  -5  -8 -15    3.52    0.36
   5  -8  15    3.42    0.28
   8   5 -15    3.74    0.21
  -8   5  15    3.85    0.20
   8  -5  15    3.50    0.29
  -5  -8 -13   17.44    0.71
   5   8 -13   18.15    0.57
   8  -5  13   17.60    0.62
   5  -8  13   17.78    0.59
   8   5 -13   18.05    0.52
   5  -8  13   17.59    0.61
   5   8 -13   17.64    0.66
  -5   8  13   16.59    0.48
  -8   5  13   17.40    0.68
  -8   5  13   17.87    0.51
  -8  -5 -13   19.33    0.77
  -8   5  11    6.86    0.25
   5  -8  11    6.83    0.33
   8   5 -11    6.74    0.26
   8  -5  11    7.42    0.30
  -8   5  11    6.89    0.40
   5   8 -11    6.17    0.29
   5   8 -11    6.33    0.36
  -8  -5 -11    7.88    0.47
   8   5  -9    2.58    0.16
   8  -5   9    2.76    0.21
   5   8  -9    2.64    0.19
   5   8  -9    2.74    0.16
   8   5  -9    2.28    0.33
   5  -8   9    2.63    0.22
  -5  -8  -9    2.50    0.11
   5   8  -9    3.05    0.25
  -8   5   9    2.76    0.16
  -8   5   9    2.96    0.27
  -8  -5  -9    3.01    0.32
   8  -5   9    3.09    0.21
   5   8  -7   24.91    0.68
   5  -8   7   23.90    0.61
   5  -8   7   22.68    0.70
   5  -8   7   23.98    0.69
  -5  -8  -7   22.40    0.78
   5   8  -7   24.57    0.73
  -5   8   7   24.28    0.67
   8  -5   7   25.54    0.70
  -5   8   7   24.54    0.61
   8   5  -7   22.21    0.57
  -8   5   7   23.56    0.76
   8   5  -7   24.33    0.86
  -8  -5  -7   23.22    0.61
   5   8  -7   24.31    0.63
  -8   5   7   24.30    0.63
   8  -5   7   23.64    0.72
   8  -5   5    0.59    0.18
   8  -5   5    0.49    0.12
   8  -5   5    0.23    0.14
   5  -8   5    0.65    0.12
  -5   8   5    0.51    0.08
   5  -8   5    0.67    0.14
   8  -5   5    0.32    0.12
   5   8  -5    0.52    0.10
  -8   5   5    0.46    0.09
   8   5  -5    0.48    0.24
  -5  -8  -5    0.83    0.19
   5   8  -5    0.50    0.14
  -5   8   5    0.45    0.12
  -8  -5  -5    0.48    0.12
   8  -5   3    4.69    0.34
   8   5  -3    4.89    0.33
   8  -5   3    4.79    0.21
   5   8  -3    4.82    0.21
   5  -8   3    4.95    0.22
  -5   8   3    4.60    0.19
  -8   5   3    4.87    0.20
   8  -5   3    4.44    0.26
  -8   5   3    4.92    0.18
  -8  -5  -3    4.93    0.26
  -5   8   3    4.90    0.23
  -5  -8  -3    4.87    0.31
   8  -5   3    5.22    0.23
   5   8  -3    4.99    0.26
  -8   5   1   15.38    0.43
   8  -5   1   15.45    0.44
   5  -8   1   14.97    0.44
   8  -5   1   14.65    0.51
  -5   8   1   14.71    0.46
   5   8  -1   14.79    0.49
   8   5  -1   14.78    0.57
  -8  -5  -1   14.62    0.63
  -5   8   1   14.76    0.43
   8  -5   1   14.78    0.45
   5  -8   1   14.47    0.47
  -5  -8  -1   14.38    0.54
  -8   5   1   14.42    0.44
  -8  -5   1   14.64    0.65
   5   8   1   14.87    0.51
  -5   8  -1   15.07    0.46
   5  -8  -1   14.87    0.47
  -5  -8   1   15.47    0.57
  -8   5  -1   15.76    0.45
  -5   8  -1   15.32    0.47
   8   5   1   14.95    0.57
   8  -5  -1   15.73    0.43
   8  -5  -1   15.59    0.46
  -8   5  -1   15.53    0.46
  -8   5  -3    5.21    0.23
   5  -8  -3    5.15    0.27
   8  -5  -3    5.43    0.18
  -5   8  -3    5.24    0.23
  -5  -8   3    5.35    0.34
   5   8   3    5.50    0.28
   8  -5  -3    5.23    0.22
   8   5   3    4.38    0.29
  -8   5  -5    0.68    0.13
   8  -5  -5    0.67    0.20
  -5   8  -5    0.71    0.12
   5  -8  -5    0.81    0.16
   8  -5  -7   23.60    0.80
  -5   8  -7   23.93    0.69
  -8   5  -7   23.30    0.70
   5  -8  -7   23.01    0.74
   8   5   9    2.96    0.25
  -8   5  -9    2.17    0.21
   8  -5  -9    2.41    0.31
   5  -8  -9    2.88    0.27
   5  -8 -11    6.73    0.39
  -8   5 -11    6.97    0.42
   8  -5 -11    6.93    0.45
  -8   5 -13   18.37    0.70
   8   5  13   18.19    0.62
  -5  -8  13   17.89    0.52
   5  -8 -13   18.84    0.71
  -5   8 -15    3.42    0.28
  -5  -8  15    3.94    0.20
  -8   5 -15    4.14    0.36
   8   5  15    3.96    0.29
  -5  -8  17   15.90    0.49
   8   5  17   16.13    0.59
  -5   8 -17   15.95    0.60
  -8   5 -17   15.68    0.63
  -5   8 -17   14.14    0.50
  -8   5 -17   17.25    0.68
   5   8  17   17.41    0.59
  -5   8 -19   -0.06    0.21
   8   5  19    0.45    0.19
  -5  -8  19    0.22    0.13
  -5   8 -19    0.08    0.14
   5   8  19    0.22    0.19
  -8   5 -19    0.04    0.25
  -5   8 -21    0.44    0.25
  -8  -5  21    0.26    0.40
  -5  -8  21    0.36    0.15
   5   8  21    0.13    0.21
  -5   8 -21    0.11    0.17
  -8   5 -21    0.55    0.30
  -5   8 -23    0.71    0.28
  -5  -8  23    0.98    0.18
   5   8  23    0.89    0.23
  -8  -5  23    0.49    0.43
  -8   5 -23    1.00    0.33
  -5   8 -25    0.49    0.27
  -8  -5  25    0.22    0.46
  -8  -5  27    1.26    0.50
  -8  -5  29    0.33    0.43
  -5  -8  29   -0.23    0.46
   6  -8  28    1.08    0.27
  -8  -6 -28    1.21    0.44
  -6  -8 -26    1.58    0.42
  -8   6  26    1.88    0.33
   6  -8  26    1.58    0.28
   8  -6  26    1.39    0.29
  -8  -6 -26    1.27    0.39
   6   8 -24    0.08    0.19
   8   6 -24    0.02    0.18
  -6  -8 -24    0.03    0.35
   6  -8  24    0.13    0.24
  -8  -6 -24   -0.23    0.35
  -8   6  24    0.14    0.28
  -6   8  22    5.42    0.37
   8   6 -22    6.05    0.31
   6   8 -22    5.16    0.33
   8  -6  22    5.77    0.40
   6  -8  22    5.80    0.39
  -6  -8 -22    5.06    0.50
  -8   6  22    4.84    0.41
  -8  -6 -22    5.04    0.50
  -6   8  20    2.65    0.31
   8  -6  20    2.71    0.31
  -8   6  20    2.52    0.34
   6   8 -20    3.02    0.25
  -8  -6 -20    2.31    0.39
  -6  -8 -20    2.67    0.37
   6  -8  20    3.06    0.30
   8   6 -20    2.96    0.24
   8   6 -18    6.40    0.29
   6   8 -18    5.62    0.31
  -6  -8 -18    5.68    0.47
  -6   8  18    5.10    0.36
  -8  -6 -18    5.75    0.47
   8  -6  18    5.95    0.36
   6  -8  18    6.28    0.37
  -8   6  18    6.06    0.41
   8  -6  18    6.45    0.38
   6  -8  18    5.94    0.35
   6   8 -16    7.42    0.34
  -6   8  16    7.39    0.41
   6  -8  16    7.58    0.39
   8   6 -16    6.89    0.30
   8  -6  16    7.70    0.40
   6  -8  16    7.18    0.37
   6   8 -16    7.16    0.46
   8  -6  16    6.84    0.37
  -8   6  16    6.83    0.44
  -8  -6 -16    6.14    0.46
  -6  -8 -16    6.28    0.45
  -6   8  14   11.01    0.46
   6  -8  14    9.78    0.43
   6   8 -14    9.69    0.52
  -6  -8 -14    9.82    0.53
   6   8 -14   10.60    0.39
  -8   6  14   10.37    0.35
  -6   8  14    9.37    0.28
   8  -6  14    9.67    0.44
   8   6 -14   10.16    0.36
  -8   6  14   10.36    0.50
   6  -8  14    9.99    0.44
  -8  -6 -14   10.04    0.56
   6   8 -12   32.34    0.88
   6   8 -12   31.54    1.02
   8   6 -12   34.04    0.87
  -8   6  12   32.44    0.85
   8   6 -12   29.55    1.08
   6  -8  12   31.85    0.94
  -8   6  12   31.70    1.00
  -6   8  12   30.71    0.78
  -6   8  12   32.00    0.78
   8  -6  12   32.17    0.95
  -8  -6 -12   33.93    1.11
  -8   6  10   12.54    0.51
   6   8 -10   11.55    0.52
   8  -6  10   12.28    0.42
   6  -8  10   12.57    0.47
   8   6 -10   12.33    0.40
   8  -6  10   12.53    0.45
   8   6 -10   11.26    0.59
   6   8 -10   12.44    0.37
   6   8 -10   11.78    0.42
  -6   8  10   11.84    0.33
  -8   6  10   12.41    0.39
  -6   8  10   12.24    0.42
  -8  -6 -10   12.17    0.59
   6   8  -8   22.42    0.66
  -6   8   8   23.24    0.66
   6  -8   8   22.75    0.68
   8   6  -8   23.46    0.84
   8  -6   8   23.56    0.69
   6   8  -8   24.00    0.61
  -8   6   8   23.78    0.75
   6  -8   8   21.59    0.70
  -6   8   8   24.25    0.59
   8   6  -8   22.10    0.57
   8   6  -8   23.35    0.65
   6   8  -8   23.64    0.76
   8  -6   8   23.15    0.69
   6  -8   8   23.41    0.61
  -8  -6  -8   21.21    0.58
  -8   6   8   23.20    0.63
  -6   8   6    9.27    0.34
  -8  -6  -6    9.84    0.33
   8  -6   6    9.99    0.41
   8   6  -6    8.59    0.49
   6   8  -6    9.52    0.41
   8  -6   6    8.19    0.35
   8  -6   6    9.40    0.36
   6   8  -6    9.16    0.30
  -8   6   6   10.51    0.42
  -6   8   6    9.54    0.28
  -8   6   6    9.51    0.32
   6  -8   6    9.11    0.34
  -8   6   6    8.62    0.25
   6  -8   6    9.12    0.35
  -6  -8  -6   10.16    0.48
   8   6  -6    9.61    0.27
   6  -8   4    6.21    0.33
   6   8  -4    6.86    0.25
   8  -6   4    6.39    0.28
  -8   6   4    7.39    0.22
  -6   8   4    7.14    0.24
   6   8  -4    7.49    0.34
   6  -8   4    6.93    0.28
  -8   6   4    6.89    0.26
   8  -6   4    6.77    0.37
   8  -6   4    7.31    0.33
  -6  -8  -4    7.08    0.38
   8   6  -4    6.24    0.39
  -6   8   4    6.84    0.28
   8  -6   4    6.62    0.29
   8  -6   2   75.72    1.81
   8   6  -2   74.53    1.96
  -6   8   2   74.79    1.79
  -6   8   2   74.44    1.82
   8  -6   2   72.38    1.88
   6  -8   2   75.90    1.82
  -8   6   2   71.62    1.81
   8  -6   2   75.68    1.84
  -8  -6  -2   74.68    2.03
  -6  -8  -2   73.93    1.97
  -8   6   2   73.72    1.78
   6  -8   2   72.42    1.84
   6   8  -2   74.18    1.88
   6  -8   0    0.38    0.12
   6   8   0    0.60    0.16
  -6   8   0    0.29    0.12
  -8   6   0    0.42    0.12
   6  -8   0    0.51    0.11
  -8  -6   0    0.41    0.25
  -6   8   0    0.25    0.09
  -8   6   0    0.47    0.10
  -6  -8   0    0.39    0.18
   8  -6   0    0.33    0.16
   8  -6   0    0.29    0.08
   8  -6   0    0.30    0.11
   8   6   0    0.19    0.19
   8  -6  -2   72.35    1.76
  -6   8  -2   70.59    1.76
   6  -8  -2   70.73    1.82
  -8  -6   2   71.92    2.01
  -8   6  -2   72.28    1.76
  -6   8  -2   71.27    1.78
   8  -6  -2   72.92    1.72
  -6  -8   2   69.93    1.92
  -8   6  -2   72.55    1.77
   8   6   2   70.57    1.87
   6   8   2   71.71    1.83
   8   6   4    6.52    0.35
   8  -6  -4    6.46    0.35
   6   8   4    6.86    0.33
  -6   8  -4    7.03    0.28
  -6   8  -4    6.01    0.29
   8  -6  -4    7.00    0.21
   6  -8  -4    6.74    0.33
  -6  -8   4    7.12    0.40
  -8   6  -4    6.91    0.28
   6  -8  -6    8.97    0.41
  -8   6  -6    9.34    0.36
   8  -6  -6    9.70    0.46
  -6   8  -6    8.97    0.35
  -8   6  -8   23.71    0.71
   8  -6  -8   22.20    0.79
  -6   8  -8   23.44    0.70
   6  -8  -8   23.06    0.78
  -8   6 -10   10.92    0.44
   8  -6 -10   12.11    0.56
   6  -8 -10   12.24    0.52
  -8   6 -12   32.31    1.00
   8  -6 -12   30.84    1.04
   6  -8 -12   29.65    1.00
   6  -8 -14   10.45    0.53
  -8   6 -14   10.57    0.51
   8   6  14    9.31    0.43
   6   8  16    6.76    0.38
   8   6  16    7.00    0.38
  -8   6 -16    7.27    0.44
  -6  -8  16    6.89    0.26
  -8   6 -16    6.54    0.38
  -6   8 -16    7.03    0.38
  -8   6 -18    6.00    0.38
  -6  -8  18    5.88    0.25
   8   6  18    7.24    0.38
  -8   6 -18    6.52    0.43
   6   8  18    6.04    0.36
  -6   8 -18    6.03    0.32
  -6   8 -18    5.89    0.38
  -6   8 -20    2.67    0.30
   8   6  20    2.94    0.28
  -8   6 -20    2.37    0.30
  -6   8 -20    2.45    0.24
   6   8  20    2.90    0.28
  -8   6 -20    2.97    0.35
  -6  -8  20    2.84    0.19
   6   8  22    5.56    0.36
  -6  -8  22    5.18    0.25
  -6   8 -22    5.48    0.42
  -8   6 -22    5.00    0.42
  -8  -6  24    0.29    0.44
  -6   8 -24   -0.16    0.28
  -8  -6  26    0.92    0.44
  -6  -8  28    1.10    0.47
  -8  -6  28    2.14    0.50
  -7  -8 -27    1.54    0.44
   7  -8  27    2.48    0.35
  -8  -7 -27    2.71    0.49
  -7  -8 -25    4.88    0.55
   7  -8  25    3.78    0.37
   7   8 -25    3.59    0.30
  -8   7  25    3.75    0.37
   8  -7  25    4.20    0.39
  -8  -7 -25    3.36    0.48
   8   7 -23   10.24    0.43
   7   8 -23    9.77    0.44
   7  -8  23   10.33    0.52
  -7   8  23    9.81    0.51
  -8   7  23   10.36    0.54
  -8  -7 -23    8.76    0.64
  -7  -8 -23    9.53    0.67
  -8  -7 -21    0.93    0.34
   7  -8  21    1.01    0.27
  -7  -8 -21    1.62    0.36
   7   8 -21    1.38    0.22
  -7   8  21    1.25    0.28
   8   7 -21    1.03    0.21
  -8   7  21    1.22    0.31
   8  -7  21    1.29    0.27
   8   7 -19   34.37    0.97
  -7  -8 -19   34.49    1.23
   7   8 -19   33.26    1.18
   7   8 -19   34.02    0.98
   8  -7  19   35.05    1.06
  -7   8  19   36.61    1.10
  -8   7  19   32.94    1.10
   7  -8  19   35.12    1.08
   8  -7  19   34.00    1.08
   7  -8  19   34.29    1.05
  -8  -7 -19   34.67    1.25
   7   8 -17   27.28    1.03
   8   7 -17   29.07    0.82
  -8   7  17   28.42    0.97
  -7   8  17   27.76    0.93
   8  -7  17   29.95    0.94
   8  -7  17   29.15    0.90
  -8  -7 -17   30.27    1.11
   7   8 -17   27.66    0.83
  -7  -8 -17   28.69    1.06
   7  -8  17   29.85    0.91
   7  -8  17   27.89    0.91
   8  -7  15    1.79    0.22
   7  -8  15    1.95    0.24
   7   8 -15    2.11    0.20
   7   8 -15    1.70    0.32
  -7  -8 -15    1.85    0.32
  -8   7  15    1.68    0.28
   8   7 -15    2.15    0.19
  -8  -7 -15    1.39    0.32
   8   7 -15    1.91    0.36
   8  -7  15    2.00    0.24
   7  -8  15    2.03    0.23
  -7   8  15    1.83    0.26
  -8   7  15    1.84    0.18
   7  -8  13   72.93    1.85
  -8   7  13   72.24    1.90
   7   8 -13   71.74    1.77
   8   7 -13   68.35    1.75
  -7   8  13   71.77    1.87
   7   8 -13   69.59    1.94
   8   7 -13   67.32    1.98
  -7   8  13   67.41    1.74
  -8   7  13   69.43    1.73
  -8  -7 -13   68.57    2.00
   8  -7  13   71.92    1.85
  -7  -8 -13   70.89    2.00
  -8   7  11  114.03    2.58
   8  -7  11  115.03    2.59
   8  -7  11  108.75    2.66
  -8   7  11  116.37    2.75
   7   8 -11  113.67    2.78
   7   8 -11  110.12    2.61
  -7   8  11  113.38    2.60
   8  -7  11   98.46    2.66
   8   7 -11  111.94    2.60
   7  -8  11  113.85    2.68
  -7   8  11   99.62    2.48
  -8  -7 -11  110.94    2.86
   8   7 -11  112.64    2.84
  -7   8   9    0.52    0.14
  -7  -8  -9    0.35    0.07
  -7   8   9    0.57    0.06
   8  -7   9    0.35    0.15
   7   8  -9    0.31    0.14
   8   7  -9    0.37    0.11
  -8   7   9    0.50    0.18
   7  -8   9    0.34    0.15
   8   7  -9    0.87    0.29
   7  -8   9    0.61    0.11
   7   8  -9    0.19    0.22
   8  -7   9    0.40    0.13
   7   8  -9    0.48    0.09
   8   7  -9    0.52    0.07
  -8   7   9    0.46    0.12
  -8   7   7  105.58    2.74
  -8  -7  -7  121.70    2.82
   7  -8   7  123.36    2.87
  -7   8   7  127.40    2.76
   8  -7   7  120.32    2.87
   7   8  -7  123.34    2.97
   7   8  -7  121.12    2.85
   8   7  -7  117.19    2.76
   7  -8   7  111.97    2.84
   7   8  -7  119.37    2.78
  -8   7   7  121.96    2.82
  -7  -8  -7  109.49    3.01
   8  -7   7  122.03    2.88
  -7   8   7  123.37    2.84
   8   7  -7  125.83    3.03
   8   7  -5   76.43    1.83
   7  -8   5   77.36    1.96
  -7   8   5   78.47    1.82
   8  -7   5   77.65    1.90
   7  -8   5   74.34    1.89
   7   8  -5   76.48    1.84
   7   8  -5   77.06    1.99
   8  -7   5   74.53    1.92
  -8   7   5   77.48    1.81
   8   7  -5   76.03    2.03
  -7   8   5   78.63    1.88
   8  -7   5   76.02    1.98
  -8   7   5   75.74    1.87
  -8  -7  -5   68.35    2.07
  -7  -8  -5   74.37    2.06
  -7   8   3   40.90    1.01
   8  -7   3   42.07    1.13
   7  -8   3   39.72    1.05
   7  -8   3   40.75    1.08
   8  -7   3   41.22    1.21
  -8   7   3   40.00    1.05
   8  -7   3   40.53    1.08
  -8  -7  -3   39.83    1.26
  -7   8   3   40.60    1.06
  -7  -8  -3   39.20    1.22
   8   7  -3   39.86    1.18
   7   8  -3   40.03    1.14
   8  -7   3   40.85    1.06
  -8   7   3   40.70    1.01
  -8   7   1   98.97    2.42
  -8  -7  -1  100.50    2.67
  -8   7   1  102.72    2.45
   7  -8   1  101.62    2.44
   8  -7   1   96.25    2.51
   8  -7   1  102.88    2.43
   7  -8   1  103.44    2.48
   8  -7   1  101.15    2.47
  -7   8   1  101.85    2.43
  -7   8   1  103.92    2.46
   7   8  -1  101.49    2.54
  -7  -8  -1  104.89    2.65
   8   7  -1  100.71    2.57
  -8   7  -1  101.10    2.40
   7   8   1  100.24    2.50
  -7   8  -1   98.57    2.40
  -7  -8   1   98.56    2.61
   7  -8  -1  101.71    2.43
   8  -7  -1  100.74    2.42
   7  -8  -1  100.18    2.38
  -8   7  -1   98.68    2.42
  -8  -7   1   99.86    2.65
  -7   8  -1  100.58    2.43
   8  -7  -1   99.04    2.38
   8   7   1   98.79    2.52
  -7   8  -3   41.30    1.06
   7   8   3   41.38    1.13
   8  -7  -3   40.26    1.04
  -8   7  -3   40.71    1.05
  -8   7  -3   42.11    1.07
   8   7   3   40.69    1.15
  -7  -8   3   40.93    1.25
   8  -7  -3   40.56    0.99
  -8  -7   3   39.35    1.27
  -7   8  -3   39.70    1.07
   7  -8  -3   39.82    1.12
  -7   8  -5   72.58    1.86
   8   7   5   75.49    1.94
   7  -8  -5   72.77    1.93
  -8   7  -5   76.17    1.86
   8  -7  -5   75.37    1.96
  -7   8  -5   73.10    1.86
   7   8   5   76.32    1.93
   8  -7  -7  116.61    3.01
  -8   7  -7  118.74    2.91
   7  -8  -7  121.25    3.00
  -7   8  -7  121.21    2.91
  -8   7  -9    0.32    0.16
   7  -8  -9    0.71    0.26
   8  -7  -9    0.28    0.25
  -7   8  -9    0.47    0.16
   7  -8 -11  109.59    2.77
  -8   7 -11  108.84    2.67
  -7   8 -11  101.34    2.65
   8  -7 -11  110.05    2.80
   7  -8 -13   69.42    1.96
   8  -7 -13   71.87    1.99
   8   7  15    2.17    0.25
   7   8  17   28.55    0.90
  -8   7 -17   29.52    0.96
  -8   7 -17   27.80    0.93
   8   7  17   29.27    0.91
  -7   8 -17   27.40    0.92
   7   8  19   35.55    1.06
   8   7  19   34.88    1.05
  -7   8 -19   34.35    1.09
  -8   7 -19   34.93    1.11
  -8   7 -19   34.19    1.10
  -7   8 -21    0.81    0.25
   7   8  21    1.09    0.25
  -7   8 -21    0.88    0.23
  -8   7 -21    1.16    0.30
  -8   7 -21    0.97    0.26
  -7   8 -23   10.14    0.55
  -8  -7  25    3.20    0.55
  -8  -7  27    2.28    0.53
  -7  -8  27    0.60    0.48
   8  -8  26    3.87    0.37
  -8  -8 -26    3.56    0.54
  -8  -8 -24    0.17    0.39
   8   8 -24    0.33    0.20
  -8   8  24    0.42    0.27
  -8   8  22   20.67    0.81
   8   8 -22   21.19    0.69
   8  -8  22   21.14    0.80
  -8  -8 -22   21.38    0.97
  -8   8  20   23.84    0.86
   8  -8  20   23.64    0.85
   8   8 -20   23.32    0.97
   8   8 -20   24.21    0.74
  -8  -8 -20   21.82    0.97
   8  -8  18    7.55    0.44
  -8   8  18    7.66    0.33
  -8   8  18    7.96    0.46
   8   8 -18    7.86    0.35
   8  -8  18    8.53    0.43
   8   8 -18    8.08    0.54
  -8  -8 -18    7.05    0.54
   8   8 -16   33.80    1.18
   8  -8  16   33.78    1.03
  -8   8  16   34.37    1.09
   8   8 -16   35.42    0.97
  -8   8  16   34.05    0.95
   8  -8  16   35.64    1.06
  -8  -8 -16   34.47    1.23
  -8   8  14   84.52    2.10
   8  -8  14   86.99    2.21
   8   8 -14   86.54    2.12
  -8   8  14   84.60    2.24
   8   8 -14   82.95    2.33
  -8  -8 -14   83.75    2.38
  -8   8  12   21.28    0.62
   8  -8  12   21.31    0.71
   8  -8  12   18.60    0.66
  -8   8  12   21.34    0.74
   8   8 -12   20.20    0.80
  -8  -8 -12   19.24    0.83
   8   8 -12   20.41    0.62
   8  -8  10  131.01    3.08
   8   8 -10  126.41    3.28
   8  -8  10  130.31    3.16
   8   8 -10  129.26    3.12
   8   8 -10  129.38    3.03
  -8   8  10  127.63    3.09
   8   8  -8  154.06    3.62
  -8   8   8  154.60    3.43
   8  -8   8  152.26    3.48
   8  -8   8  152.54    3.45
   8   8  -8  145.22    3.44
  -8  -8  -8  147.66    3.39
   8   8  -8  154.52    3.37
  -8   8   6    1.59    0.10
   8  -8   6    1.63    0.18
   8   8  -6    1.26    0.25
   8   8  -6    1.55    0.13
   8  -8   6    1.70    0.21
  -8   8   6    1.55    0.16
  -8  -8  -6    1.76    0.28
   8  -8   4   80.85    2.04
   8   8  -4   82.78    2.13
   8  -8   4   80.78    2.01
  -8   8   4   80.86    2.00
   8  -8   4   85.52    2.15
  -8   8   4   81.29    1.95
  -8  -8  -4   79.59    2.22
  -8   8   2  247.99    5.82
   8  -8   2  255.70    5.94
   8  -8   2  251.11    5.85
  -8   8   2  249.10    5.86
   8  -8   2  249.30    5.88
  -8  -8  -2  249.24    6.09
   8   8  -2  250.03    5.97
   8  -8   0    8.61    0.33
  -8   8   0    7.64    0.32
  -8  -8   0    9.59    0.51
   8  -8   0    8.14    0.30
   8   8   0    7.90    0.40
  -8   8   0    8.87    0.31
   8  -8  -2  249.99    5.80
  -8   8  -2  242.56    5.79
  -8  -8   2  248.30    6.05
   8  -8  -2  250.11    5.75
   8   8   2  243.05    5.89
  -8   8  -2  247.70    5.81
   8  -8  -4   79.52    2.08
  -8   8  -4   79.41    1.99
   8   8   4   81.81    2.07
  -8   8  -4   79.99    1.99
   8   8   6    1.27    0.21
  -8   8  -6    1.21    0.17
   8  -8  -6    1.00    0.23
  -8   8  -8  148.97    3.61
   8  -8  -8  149.85    3.72
   8  -8 -10  125.57    3.22
  -8   8 -10  126.73    3.10
  -8   8 -12   18.43    0.66
   8  -8 -12   20.08    0.78
   8   8  16   35.72    1.07
  -8   8 -18    8.18    0.45
   8   8  18    8.47    0.44
  -8   8 -20   23.10    0.86
   8   8  20   24.89    0.83
  -8   8 -22   22.33    0.84
  -8  -8  26    4.00    0.58
  -9   0  -1    1.50    0.17
   0  -9   1    1.66    0.13
   9   0   1    1.53    0.14
   9   0  -1    1.42    0.23
   9   0  -1    1.59    0.11
   9   0   1    1.63    0.22
  -9   0   1    1.86    0.21
   0   9  -1    1.55    0.14
   9   0   1    1.88    0.26
   0   9  -1    1.53    0.14
   9   0   3   25.92    0.85
   0  -9   3   26.54    0.68
   9   0   3   27.37    0.79
  -9   0   3   25.42    0.83
   9   0  -3   27.18    0.65
  -9   0  -3   26.68    0.94
   9   0   3   27.16    0.73
   0   9  -3   25.67    0.71
  -9   0  -3   26.71    0.73
   9   0   5    1.83    0.20
   0   9  -5    1.39    0.15
  -9   0   5    1.22    0.24
   0  -9   5    1.92    0.16
   0  -9   5    1.51    0.10
  -9   0  -5    1.69    0.29
   9   0   5    1.64    0.17
   9   0   5    1.82    0.22
   9   0  -5    1.64    0.08
  -9   0  -7   66.72    1.88
   9   0   7   68.62    1.70
   0  -9  -7   66.89    1.67
   0  -9   7   67.98    1.68
   0   9  -7   66.72    1.67
   9   0   7   68.30    1.71
   9   0   7   67.30    1.77
   9   0   9   74.65    1.87
   0   9  -9   73.25    1.78
   0   9  -9   72.41    1.81
   0  -9   9   72.93    1.80
  -9   0  -9   76.62    2.00
   9   0  -9   70.77    1.67
   0  -9   9   71.80    1.79
   0  -9  -9   72.63    1.78
   9   0   9   72.99    1.78
   9   0 -11    0.69    0.05
   0   9 -11    0.91    0.16
   9   0  11    0.73    0.18
   0   9 -11    0.88    0.16
   9   0  11    0.69    0.14
   0  -9  11    0.92    0.17
  -9   0  11    0.21    0.28
  -9   0 -11    0.48    0.24
   0  -9 -11    0.79    0.18
   0  -9  11    0.73    0.15
   9   0 -13    4.89    0.15
   0  -9  13    5.71    0.30
   0   9 -13    5.23    0.29
   0  -9 -13    5.72    0.31
  -9   0 -13    5.74    0.42
  -9   0  13    5.85    0.47
   9   0  13    5.39    0.31
   0  -9  13    6.09    0.29
   9   0  13    5.10    0.23
   0   9 -15   92.54    2.31
  -9   0 -15   95.78    2.52
  -9   0  15   91.88    2.54
   0  -9  15   97.76    2.32
   0  -9  15   95.52    2.30
   9   0  15   94.36    2.32
   0   9 -17    9.66    0.40
  -9   0  17   10.20    0.61
   9   0  17   10.27    0.42
   0  -9  17   10.12    0.41
   0  -9  17    9.30    0.38
  -9   0 -17   10.66    0.57
   0  -9  19    0.02    0.18
   0   9  19   -0.04    0.16
   0  -9  19    0.44    0.21
  -9   0  19   -0.06    0.34
   9   0  19    0.09    0.21
   0   9 -19    0.35    0.22
  -9   0 -19    0.25    0.30
   0   9 -19    0.14    0.07
  -9   0  21    2.22    0.41
   0   9 -21    2.47    0.28
  -9   0 -21    1.41    0.36
   0   9 -21    1.43    0.13
   0  -9  21    2.15    0.26
   0   9  21    2.02    0.20
  -9   0  23    0.83    0.38
  -9   0 -23    1.04    0.34
   0  -9  23    0.89    0.21
   0   9 -23    0.83    0.23
   0   9 -25    0.81    0.28
   0  -9 -25    0.71    0.36
   0  -9  25    1.12    0.23
  -9   0 -25    1.13    0.37
  -9   0  25    0.12    0.35
   0  -9 -27    0.21    0.31
  -9   0 -27   -0.28    0.37
  -9   0  27    0.03    0.36
   0   9 -27    0.07    0.26
   0   9 -29    1.45    0.32
  -9   1  28    2.63    0.43
   9  -1  28    2.26    0.36
   1   9 -28    2.02    0.35
  -1  -9 -26    3.85    0.45
   1   9 -26    4.49    0.40
  -9  -1 -26    4.38    0.50
   1  -9  26    4.15    0.34
  -9   1  26    3.95    0.48
  -1  -9 -24    1.05    0.33
   1  -9  24    1.30    0.25
   1   9 -24    1.16    0.26
  -9   1  24    0.64    0.37
  -9  -1 -24    1.19    0.38
  -1  -9 -22    1.86    0.33
  -1   9  22    1.88    0.20
   1  -9  22    1.65    0.24
   1   9 -22    1.38    0.24
  -9   1  22    1.78    0.41
  -9  -1 -22    1.75    0.38
   1   9 -20   19.48    0.66
   9  -1  20   20.61    0.68
   1  -9  20   21.37    0.69
  -1   9  20   20.72    0.59
   1   9 -20   18.01    0.51
  -9   1  20   19.64    0.86
   1  -9  20   20.50    0.66
  -9  -1 -20   18.94    0.83
   1   9 -18   26.77    0.79
   1  -9  18   27.41    0.81
   9  -1  18   27.95    0.82
  -9   1  18   29.15    1.03
   1  -9  18   28.34    0.80
  -9  -1 -18   27.06    0.98
   9  -1  16   27.29    0.75
  -1   9  16   26.73    0.68
   1  -9  16   26.00    0.74
   1   9 -16   26.81    0.73
   9  -1  16   23.11    0.61
   1   9 -16   22.01    0.56
   9   1 -16   25.82    0.57
   1  -9  16   26.38    0.73
  -9  -1 -16   27.21    0.93
  -9   1  16   25.43    0.93
   9  -1  14   66.67    1.56
   1  -9  14   64.90    1.54
   1  -9  14   68.59    1.54
   1   9 -14   67.58    1.54
  -9   1  14   66.83    1.77
   9  -1  14   61.34    1.44
   9   1 -14   63.58    1.38
  -9  -1 -14   67.72    1.75
  -9  -1 -12   55.79    1.58
   1   9 -12   52.51    1.38
   1  -9  12   50.96    1.38
   9  -1  12   52.43    1.33
  -9   1  12   53.24    1.58
   1  -9  12   53.46    1.38
   9   1 -12   51.65    1.25
  -1  -9 -12   53.44    1.36
   9  -1  12   53.84    1.42
   1  -9  10  105.68    2.61
   1   9 -10  105.47    2.60
   1   9 -10  106.43    2.57
   9   1 -10  106.75    2.49
  -9  -1 -10  103.14    2.79
  -9   1  10  105.72    2.79
   9  -1  10  106.63    2.65
  -1  -9 -10  109.00    2.57
   9  -1  10  107.14    2.57
   1  -9  10  105.38    2.59
   9  -1   8   29.07    0.81
   1   9  -8   28.28    0.80
  -1  -9  -8   29.99    0.77
   1   9  -8   28.13    0.77
   9   1  -8   28.00    0.70
   1  -9   8   25.51    0.79
  -9  -1  -8   29.67    0.99
   1  -9   8   28.43    0.79
   9  -1   8   29.31    0.80
   9  -1   8   27.76    0.85
   9  -1   6   23.35    0.68
   9  -1   6   23.08    0.75
   9  -1   6   23.88    0.70
   1  -9   6   22.95    0.67
   1   9  -6   23.35    0.65
  -9  -1  -6   23.44    0.86
   1   9  -4  128.26    2.97
   9  -1   4  132.03    2.98
   9   1  -4  118.89    3.19
   1  -9   4  128.41    2.98
   9  -1   4  132.81    3.03
  -9  -1  -4  129.36    2.97
  -9  -1  -4  129.01    3.21
   9  -1   4  131.16    3.11
  -9   1   4  125.90    3.09
   1  -9   4  127.14    2.90
   1   9  -2   28.25    0.76
  -1  -9  -2   28.09    0.78
   1  -9   2   27.95    0.72
   9  -1   2   28.10    0.75
   9  -1   2   26.85    0.74
   9  -1   2   27.07    0.90
   9  -1   2   27.94    0.83
  -9   1   2   27.92    0.84
  -9  -1  -2   26.23    0.97
  -9  -1  -2   26.49    0.79
   9  -1   0   21.47    0.73
   9  -1   0   22.50    0.61
   1   9   0   22.79    0.65
  -1  -9   0   24.16    0.66
  -9  -1   0   23.16    0.72
   9  -1   0   22.88    0.62
  -9   1   0   22.88    0.70
   9  -1   0   22.88    0.83
  -1   9   0   23.32    0.64
   9  -1  -2   26.28    0.85
   9  -1  -2   26.89    0.68
  -1   9  -2   27.49    0.73
  -9   1  -2   26.79    0.75
  -1  -9   2   27.19    0.73
   9   1   2   26.59    0.81
   9  -1  -2   26.54    0.69
   9   1   2   25.75    0.86
  -9  -1   2   26.11    0.83
  -1   9  -2   24.97    0.72
   9  -1  -4  135.38    3.07
   9  -1  -4  133.66    3.06
  -9  -1   4  126.84    3.27
  -1   9  -4  120.72    3.13
   9   1   4  130.04    3.19
  -9   1  -4  134.03    3.37
  -1   9  -4  131.10    3.13
  -1  -9   4  131.77    3.11
   9   1   4  129.96    3.25
   9   1   4  130.42    3.15
   9   1   6   23.77    0.69
  -1   9  -6   23.78    0.67
  -9   1  -6   23.61    0.86
   9   1   6   23.88    0.70
   9  -1  -6   23.81    0.59
   1  -9  -6   24.13    0.68
  -1  -9   6   23.57    0.67
   9   1   6   23.15    0.76
  -9   1  -8   27.65    0.93
   9   1   8   27.46    0.83
  -1   9  -8   27.77    0.75
   9   1   8   26.99    0.75
   1  -9  -8   26.43    0.75
  -1  -9   8   26.58    0.74
   9   1  10  105.29    2.61
   1  -9 -10  106.84    2.56
  -1   9 -10  103.37    2.55
  -1   9 -10  102.80    2.53
   9   1  10  101.08    2.49
  -9   1 -10  109.95    2.74
  -9  -1  10  102.58    2.75
  -1  -9  10  104.42    2.52
   9   1  12   44.01    1.28
   9   1  12   44.92    1.19
  -1  -9  12   49.34    1.28
  -9  -1  12   50.19    1.51
  -1  -9  12   49.89    1.26
  -9   1 -12   50.86    1.47
  -1   9 -12   50.78    1.29
   1  -9 -12   51.08    1.31
  -1  -9  14   63.01    1.68
  -1   9 -14   67.09    1.73
  -9  -1  14   67.51    1.96
   9   1  14   67.74    1.73
  -1  -9  14   67.21    1.72
   1  -9 -14   68.49    1.75
  -9   1 -14   65.56    1.89
  -9  -1  16   24.21    1.01
   9   1  16   25.48    0.81
  -1   9 -16   25.93    0.81
  -1  -9  16   27.33    0.80
  -1  -9  16   25.67    0.77
  -9   1 -16   25.78    0.96
   1   9  18   27.74    0.81
  -1   9 -18   26.07    0.86
  -9  -1  18   26.68    1.08
  -1  -9  18   26.96    0.83
  -9   1 -18   27.54    1.01
   9   1  20   19.04    0.67
  -9  -1  20   20.10    0.91
  -1   9 -20   20.51    0.70
  -9   1 -20   21.27    0.85
  -1  -9  20   20.47    0.67
   1   9  20   20.58    0.62
  -9   1 -22    2.15    0.39
  -1   9 -22    1.95    0.26
   1   9  22    2.22    0.22
  -1  -9  22    1.97    0.26
  -9  -1  22    1.77    0.42
  -1   9 -24    1.22    0.27
  -9  -1  24    0.91    0.41
  -9   1 -24    1.71    0.38
  -1   9 -26    4.34    0.38
  -9   1 -26    3.74    0.48
  -9  -1  26    4.39    0.54
  -1   9 -28    1.71    0.32
  -9  -1  28    3.27    0.50
   2   9 -27    0.18    0.25
  -9   2  27    0.22    0.35
   9  -2  27   -0.06    0.29
  -2  -9 -27   -0.09    0.33
   2  -9  27    0.31    0.23
  -9  -2 -27    0.20    0.38
  -9   2  25    4.84    0.48
   9  -2  25    3.77    0.38
   2  -9  25    3.27    0.32
  -9  -2 -25    3.83    0.50
  -2  -9 -25    3.59    0.45
   2   9 -25    3.90    0.33
  -2  -9 -23    7.14    0.52
   2   9 -23    6.72    0.40
   9  -2  23    6.70    0.43
   2  -9  23    6.27    0.39
  -9   2  23    7.10    0.54
  -9  -2 -23    7.10    0.56
  -9   2  21    3.74    0.42
  -2  -9 -21    4.28    0.39
   2  -9  21    4.11    0.33
   2   9 -21    4.00    0.29
   2   9 -21    3.62    0.20
  -2   9  21    3.97    0.23
   2  -9  21    4.44    0.32
  -9  -2 -21    3.44    0.43
   2   9 -19    1.72    0.23
   9  -2  19    1.18    0.15
  -2   9  19    1.73    0.17
  -2  -9 -19    1.04    0.28
  -9   2  19    1.40    0.10
   2   9 -19    1.72    0.23
   9  -2  19    1.97    0.25
   2  -9  19    1.59    0.24
  -9   2  19    1.60    0.37
   9   2 -19    1.71    0.14
  -9  -2 -19    1.14    0.31
   9   2 -17   21.85    0.58
   2   9 -17   22.34    0.70
   9  -2  17   22.36    0.72
   2  -9  17   22.25    0.71
   9  -2  17   19.28    0.60
  -9   2  17   22.99    0.90
  -2  -9 -17   21.00    0.81
   2  -9  17   22.29    0.71
  -9   2  17   20.07    0.54
  -2   9  17   21.75    0.63
  -9  -2 -17   21.72    0.87
  -2  -9 -15   33.84    1.17
   2  -9  15   41.46    1.09
  -9  -2 -15   39.28    1.27
   2   9 -15   38.22    1.06
   9  -2  15   36.09    0.99
   2  -9  15   41.19    1.09
  -9   2  15   40.64    1.28
   2   9 -15   37.72    1.01
   9   2 -15   40.83    0.95
  -9   2  15   35.10    0.91
   9  -2  15   40.53    1.10
   9   2 -13   21.34    0.56
   2   9 -13   22.87    0.67
   9  -2  13   21.53    0.62
  -9   2  13   23.58    0.86
  -9  -2 -13   22.97    0.85
   2  -9  13   22.50    0.68
   2  -9  13   22.69    0.69
  -2  -9 -13   21.87    0.61
   9  -2  11   12.25    0.45
  -9   2  11   11.65    0.55
   2   9 -11   11.53    0.41
   2   9 -11    9.92    0.31
   2  -9  11   11.17    0.42
   2  -9  11   11.37    0.42
   9  -2  11   10.96    0.38
   9   2 -11   11.59    0.32
  -9   2  11    9.83    0.28
   2   9 -11   11.44    0.38
  -9  -2 -11   11.58    0.56
  -2  -9 -11   10.26    0.37
  -9   2   9   43.98    1.14
   9   2  -9   50.40    1.17
   2  -9   9   43.05    1.25
  -2  -9  -9   47.06    1.20
  -2  -9  -9   50.69    1.36
  -9   2   9   54.73    1.45
   2   9  -9   48.26    1.16
   2   9  -9   49.08    1.26
   9  -2   9   49.60    1.28
   2   9  -9   50.63    1.23
   9  -2   9   49.79    1.30
  -9  -2  -9   49.57    1.45
   9  -2   9   51.89    1.25
   2  -9   9   50.36    1.27
  -2  -9  -7  114.50    2.78
   2   9  -7  111.04    2.60
   9  -2   7  113.51    2.70
   9  -2   7  112.90    2.77
   2   9  -7  110.99    2.66
   2   9  -7  112.62    2.69
  -9  -2  -7  114.13    2.90
   9  -2   7  113.02    2.70
  -9   2   7  107.05    2.59
   2  -9   7  114.82    2.70
   2  -9   5  110.87    2.64
   9  -2   5  108.69    2.64
   9   2  -5  104.73    2.85
   2   9  -5  107.43    2.61
  -2  -9  -5  108.22    2.70
  -9  -2  -5  111.01    2.85
   9  -2   5  110.32    2.64
  -9  -2  -5  108.40    2.61
   9  -2   5  107.59    2.74
   9  -2   5  112.34    2.67
   2  -9   3    9.69    0.35
  -2   9   3    9.41    0.35
   9   2  -3    9.27    0.52
  -2  -9  -3    9.80    0.39
   9  -2   3    9.71    0.40
  -9  -2  -3    9.81    0.36
   2   9  -3    9.62    0.34
  -9  -2  -3    8.93    0.52
   9  -2   3    9.74    0.34
   9  -2   3   10.08    0.47
  -9   2   3    9.03    0.42
   9  -2   3   10.20    0.34
  -9   2   1   74.87    1.95
   9  -2   1   77.77    1.87
   9  -2   1   79.61    1.88
   9  -2   1   77.83    2.09
  -2   9   1   78.03    1.88
  -2  -9  -1   75.91    1.93
   9  -2   1   75.18    1.98
  -9  -2  -1   75.60    1.96
   2   9  -1   78.43    1.89
   9  -2  -1   78.91    1.84
  -9   2  -1   73.74    1.91
   9  -2  -1   75.00    1.83
  -2  -9   1   78.39    1.90
  -9  -2   1   74.23    1.97
  -2   9  -1   76.86    1.87
   9  -2  -1   74.70    1.97
   9  -2  -3    9.61    0.45
  -2   9  -3    9.64    0.34
  -2   9  -3    7.90    0.33
   9  -2  -3    9.46    0.28
  -2  -9   3    9.98    0.36
   9  -2  -3    9.90    0.29
  -9  -2   3    9.32    0.46
   9   2   5  108.65    2.71
  -2   9  -5  101.75    2.61
  -2  -9   5  109.13    2.62
  -9  -2   5  107.86    2.79
  -9   2  -5  110.70    2.84
  -2   9  -5  107.69    2.61
   9  -2  -5  110.22    2.53
   9   2   7  109.36    2.68
  -2  -9   7  113.25    2.64
   9   2   7  109.71    2.74
   2  -9  -7  107.62    2.66
  -9   2  -7  112.35    2.88
  -2   9  -7  107.65    2.65
   9   2   9   53.68    1.44
  -2  -9   9   52.02    1.33
  -2   9  -9   52.45    1.35
  -9   2  -9   53.10    1.54
   2  -9  -9   52.20    1.38
   9   2  11   11.89    0.49
  -9  -2  11   12.01    0.62
  -2   9 -11   11.90    0.45
  -9   2 -11   12.55    0.58
   2  -9 -11   12.03    0.48
  -2  -9  11   12.81    0.42
  -2  -9  13   22.14    0.66
   9   2  13   21.96    0.71
   2  -9 -13   22.40    0.74
  -2   9 -13   21.70    0.70
  -9   2 -13   21.62    0.83
  -9  -2  13   21.37    0.89
   9   2  15   39.96    1.13
  -2   9 -15   39.42    1.12
  -9   2 -15   42.81    1.29
  -2  -9  15   38.03    1.07
  -9  -2  15   39.89    1.36
  -2   9 -17   23.41    0.76
  -9   2 -17   21.86    0.88
  -9  -2  17   22.43    0.97
  -2  -9  17   22.69    0.69
   2   9  17   22.37    0.71
   9   2  17   22.45    0.74
  -2  -9  17   22.49    0.72
  -2   9 -19    1.52    0.24
   9   2  19    1.67    0.24
   2   9  19    1.67    0.21
  -2  -9  19    2.00    0.25
  -9  -2  19    1.74    0.40
  -9   2 -19    2.26    0.37
  -2  -9  19    1.70    0.20
  -2  -9  21    3.75    0.29
  -9  -2  21    3.46    0.47
  -2   9 -21    3.31    0.29
  -2  -9  21    3.66    0.25
  -9   2 -21    3.97    0.42
  -2  -9  23    6.75    0.36
   2   9  23    6.60    0.35
  -9   2 -23    7.87    0.55
  -2   9 -23    6.99    0.42
  -9  -2  23    7.45    0.61
  -2  -9  25    3.69    0.28
  -9   2 -25    3.26    0.48
  -9  -2  25    4.27    0.52
  -2   9 -25    3.90    0.36
  -9  -2  27    0.30    0.43
  -2   9 -27    0.34    0.27
  -9  -3 -28    0.39    0.39
   3  -9  28    0.58    0.26
  -3  -9 -26    1.29    0.40
   3  -9  26    0.83    0.25
  -9   3  26    0.13    0.34
   3   9 -26    0.83    0.25
   9  -3  26    0.95    0.28
  -9  -3 -26    0.76    0.38
  -9   3  24    0.74    0.33
   9  -3  24    0.56    0.25
  -9  -3 -24    0.44    0.32
   3   9 -24    0.21    0.22
   3  -9  24    0.45    0.23
  -3  -9 -24    0.74    0.32
   9  -3  22   -0.05    0.24
  -3  -9 -22   -0.40    0.30
   3   9 -22   -0.10    0.21
  -9   3  22    0.31    0.31
   3  -9  22   -0.02    0.19
  -9  -3 -22   -0.03    0.33
  -3   9  20    6.61    0.28
  -9   3  20    5.63    0.23
  -9   3  20    6.61    0.49
   9   3 -20    6.55    0.27
   3   9 -20    6.74    0.36
   9  -3  20    5.99    0.36
   3   9 -20    6.14    0.38
   9  -3  20    6.56    0.40
   3  -9  20    5.99    0.37
   3  -9  20    6.66    0.38
  -3  -9 -20    5.68    0.46
  -9  -3 -20    6.41    0.52
   3   9 -18   13.09    0.49
  -3   9  18   13.14    0.41
  -9   3  18   12.81    0.66
  -9   3  18   11.72    0.36
   9  -3  18   11.78    0.53
   3   9 -18   12.61    0.51
   3  -9  18   12.22    0.50
   9   3 -18   11.85    0.39
  -3  -9 -18   13.03    0.62
   3  -9  18   11.70    0.49
   9  -3  18   12.17    0.50
  -9  -3 -18   10.88    0.63
  -3  -9 -16    1.10    0.26
   9  -3  16    0.99    0.19
   3   9 -16    0.90    0.18
  -9   3  16    1.07    0.30
   3  -9  16    1.20    0.21
   3   9 -16    0.91    0.20
  -3   9  16    0.98    0.14
   9  -3  16    1.19    0.22
   3  -9  16    0.98    0.21
   9   3 -16    1.02    0.12
  -9   3  16    0.94    0.10
  -9  -3 -16    1.17    0.31
   9   3 -14    8.25    0.27
   3   9 -14    8.16    0.35
  -9  -3 -14    8.23    0.52
  -9   3  14    7.64    0.49
   3   9 -14    7.57    0.34
   3  -9  14    7.98    0.37
   3  -9  14    7.93    0.37
   9  -3  14    6.96    0.39
  -9   3  14    7.14    0.24
  -9   3  12   53.47    1.56
   3  -9  12   54.42    1.41
   3   9 -12   53.92    1.35
   9  -3  12   53.72    1.41
   9  -3  12   52.82    1.37
  -9   3  12   51.09    1.27
  -9  -3 -12   55.81    1.60
   3   9 -12   52.91    1.39
   3  -9  12   53.45    1.41
   9   3 -12   53.98    1.30
   3   9 -10   23.65    0.65
   3   9 -10   23.99    0.70
   9  -3  10   23.78    0.73
  -9   3  10   23.08    0.60
   3   9 -10   24.00    0.67
   9   3 -10   24.21    0.63
   9  -3  10   24.55    0.70
  -9   3  10   23.07    0.83
   3  -9  10   24.68    0.72
  -9  -3 -10   24.15    0.89
  -3  -9 -10   24.39    0.64
   9  -3  10   21.80    0.71
   9  -3   8    1.02    0.18
   9  -3   8    1.28    0.16
  -3  -9  -8    1.04    0.21
  -9   3   8    1.30    0.09
   3   9  -8    1.01    0.14
   3   9  -8    1.33    0.14
  -9   3   8    1.14    0.24
   9  -3   8    1.14    0.16
  -9  -3  -8    1.20    0.27
   3  -9   8    1.04    0.16
   9  -3   8    1.23    0.16
   3   9  -8    1.23    0.12
   9  -3   6   16.80    0.53
   9  -3   6   18.02    0.54
  -9   3   6   16.84    0.45
   3   9  -6   17.01    0.53
  -3  -9  -6   18.19    0.61
   9   3  -6   15.24    0.70
   3   9  -6   17.06    0.50
  -9  -3  -6   17.73    0.71
   9  -3   6   17.60    0.56
   3  -9   6   15.09    0.52
   9  -3   6   17.10    0.61
   3   9  -6   17.12    0.49
  -9  -3  -6   17.57    0.49
   3  -9   6   17.68    0.54
   9  -3   4   34.34    0.91
   3  -9   4   32.71    0.92
   9  -3   4   35.16    0.91
  -9   3   4   33.72    0.86
  -3   9   4   34.96    0.92
  -9  -3  -4   35.07    0.92
  -3   9   4   34.53    0.88
   3  -9   4   33.20    0.91
   3   9  -4   31.66    0.88
   9   3  -4   33.34    1.10
   9  -3   4   35.14    1.04
   9  -3   4   34.61    0.96
   3   9  -4   34.76    0.89
  -3  -9  -4   35.81    0.99
   9  -3   2    6.44    0.25
   3   9  -2    6.56    0.26
   9  -3   2    6.30    0.25
  -3   9   2    5.68    0.23
  -9   3   2    5.19    0.30
   9  -3   2    5.67    0.38
   9   3  -2    5.81    0.40
  -9  -3  -2    6.23    0.31
  -3  -9  -2    5.99    0.30
   9  -3   2    6.69    0.33
  -3   9   2    5.84    0.26
  -9  -3   0   20.92    0.70
   9  -3   0   20.85    0.70
  -3   9   0   21.65    0.60
   9  -3   0   21.87    0.58
   9  -3   0   21.85    0.59
   9  -3   0   19.68    0.78
  -9   3   0   22.11    0.66
  -3  -9   0   21.88    0.67
   9   3   0   18.65    0.74
   9  -3  -2    6.92    0.36
   9  -3  -2    6.72    0.22
  -3   9  -2    6.46    0.26
   9  -3  -2    6.33    0.23
  -3  -9   2    6.61    0.31
  -9  -3   2    6.37    0.37
  -9  -3   4   34.55    1.08
  -3   9  -4   35.57    0.94
  -3  -9   4   34.25    0.98
   9  -3  -4   35.08    0.85
   9  -3  -4   34.65    0.87
  -3   9  -6   16.69    0.52
   9   3   6   15.59    0.59
   3  -9  -6   15.46    0.52
  -3   9  -6   16.72    0.52
  -9  -3   6   17.86    0.69
  -3   9  -8    1.40    0.16
   9   3   8    1.32    0.20
   9  -3  -8    1.70    0.30
  -9   3  -8    1.31    0.28
   3  -9  -8    1.50    0.20
   9   3  10   21.56    0.73
  -3  -9  10   22.33    0.63
   3  -9 -10   22.99    0.73
  -9   3 -10   21.81    0.82
  -3  -9  12   52.18    1.33
  -3   9 -12   51.42    1.39
   9   3  12   53.01    1.41
  -9   3 -12   54.35    1.54
  -9  -3  12   51.20    1.61
   3  -9 -12   52.85    1.45
   9   3  14    8.04    0.38
   3  -9 -14    8.59    0.44
  -3   9 -14    8.34    0.38
  -9   3 -14    7.93    0.48
  -9  -3  14    9.26    0.59
  -3  -9  14    7.39    0.32
  -9  -3  16    1.13    0.36
  -3  -9  16    0.75    0.16
   9   3  16    1.18    0.21
  -3   9 -16    1.02    0.22
  -9   3 -16    1.01    0.30
  -9  -3  18   12.62    0.72
  -3  -9  18   11.75    0.43
   9   3  18   10.86    0.48
  -9   3 -18   12.10    0.62
  -3   9 -18   11.35    0.50
  -9  -3  20    6.53    0.58
   3   9  20    6.23    0.34
   9   3  20    6.66    0.37
  -9   3 -20    6.09    0.49
  -3   9 -20    5.95    0.37
   3   9  22    0.06    0.20
  -9  -3  22   -0.03    0.41
  -9   3 -22    0.33    0.31
  -3   9 -22   -0.20    0.22
  -3  -9  22    0.04    0.16
  -9  -3  24    0.24    0.43
  -3  -9  24    0.24    0.18
  -9   3 -24    0.56    0.33
  -3   9 -24    0.20    0.25
  -3   9 -26    0.69    0.29
  -9  -3  26    0.35    0.42
  -3   9 -28    0.49    0.29
  -9  -3  28    0.32    0.41
  -9  -4 -29   -0.04    0.39
  -4  -9 -27    0.03    0.35
   4   9 -27    0.45    0.23
   9  -4  27    0.56    0.29
   4  -9  27    0.14    0.24
  -9   4  27   -0.15    0.30
  -9  -4 -27    0.70    0.38
  -4  -9 -25    0.80    0.36
   4   9 -25    0.90    0.24
   9  -4  25    0.46    0.26
   4  -9  25    0.57    0.25
  -9   4  25    0.25    0.31
  -9  -4 -25    0.26    0.35
  -9   4  23    1.16    0.33
  -4  -9 -23    0.54    0.35
   4   9 -23    1.36    0.24
   9  -4  23    1.20    0.27
   4  -9  23    1.12    0.25
  -9  -4 -23    1.40    0.38
   9   4 -21    1.60    0.18
  -4  -9 -21    2.33    0.37
   9  -4  21    2.01    0.29
   4   9 -21    1.80    0.24
   4  -9  21    1.91    0.27
  -9   4  21    2.02    0.38
  -9  -4 -21    1.32    0.35
  -4  -9 -19    5.22    0.44
  -9   4  19    5.51    0.45
   4  -9  19    5.13    0.34
   4   9 -19    4.71    0.30
   9   4 -19    4.67    0.24
  -9   4  19    4.87    0.21
   4  -9  19    4.60    0.32
   4   9 -19    4.61    0.36
   9  -4  19    4.98    0.36
   9  -4  19    4.40    0.32
  -9  -4 -19    4.42    0.44
  -9   4  17   14.61    0.43
   9  -4  17   14.63    0.59
  -4  -9 -17   13.48    0.66
  -4   9  17   14.94    0.44
   9  -4  17   14.56    0.56
   4  -9  17   13.85    0.55
   4  -9  17   15.13    0.57
   4   9 -17   13.71    0.57
   9   4 -17   14.37    0.45
   4   9 -17   13.68    0.51
  -9  -4 -17   15.24    0.72
  -9   4  17   15.07    0.69
   4   9 -15    5.86    0.31
  -4  -9 -15    5.74    0.42
   9  -4  15    5.83    0.32
   4  -9  15    5.98    0.33
   9  -4  15    6.07    0.36
  -4   9  15    6.12    0.24
  -9   4  15    5.92    0.22
   4  -9  15    5.61    0.33
  -9  -4 -15    6.25    0.46
   9   4 -15    5.74    0.24
  -9   4  15    6.00    0.44
   4  -9  13   20.07    0.66
   4  -9  13   19.47    0.65
  -9   4  13   20.59    0.79
   4   9 -13   19.84    0.63
  -9   4  13   19.72    0.54
  -9  -4 -13   20.67    0.82
   9   4 -13   20.31    0.57
   4   9 -13   20.35    0.65
   4   9 -11   18.08    0.57
  -9  -4 -11   18.39    0.76
   9   4 -11   17.98    0.51
  -9   4  11   18.24    0.49
  -4  -9 -11   16.73    0.48
   4   9 -11   19.17    0.54
   9  -4  11   18.79    0.60
   4   9 -11   16.94    0.57
   4  -9  11   18.06    0.60
  -9   4  11   19.66    0.73
  -4  -9  -9   22.77    0.59
   9  -4   9   22.91    0.69
   4   9  -9   23.04    0.63
   4   9  -9   22.31    0.67
  -4  -9  -9   21.76    0.78
   9   4  -9   22.20    0.61
  -9   4   9   22.65    0.59
   4  -9   9   22.67    0.69
  -9   4   9   23.57    0.80
  -9  -4  -9   22.35    0.85
   4   9  -9   21.34    0.66
   9  -4   9   22.87    0.69
   9  -4   9   21.95    0.70
  -4  -9  -7   14.90    0.59
   4  -9   7   13.97    0.49
  -9  -4  -7   15.01    0.43
   9  -4   7   16.30    0.51
   9  -4   7   15.95    0.52
   4   9  -7   15.83    0.50
  -9   4   7   15.61    0.43
   4  -9   7   14.80    0.51
   4   9  -7   15.54    0.46
   9   4  -7   14.42    0.66
   9  -4   7   15.05    0.51
  -9   4   7   14.47    0.58
  -9  -4  -7   15.29    0.67
   9  -4   7   15.40    0.55
   4   9  -7   15.28    0.48
   4  -9   5    3.88    0.22
   9  -4   5    3.99    0.22
   4   9  -5    4.12    0.22
   9  -4   5    4.40    0.30
  -4  -9  -5    3.98    0.28
  -9   4   5    4.12    0.18
  -4   9   5    4.21    0.22
   4   9  -5    4.25    0.21
  -4   9   5    4.46    0.19
   9  -4   5    4.03    0.25
   4  -9   5    4.03    0.19
   9   4  -5    4.05    0.37
   9  -4   5    4.31    0.22
  -9  -4  -5    4.04    0.21
   4   9  -5    4.28    0.20
   4  -9   5    3.33    0.23
  -4  -9  -3    0.76    0.17
   4   9  -3    0.48    0.12
   9  -4   3    0.75    0.17
   9   4  -3    0.83    0.25
  -9   4   3    0.80    0.10
   4   9  -3    0.63    0.12
  -4   9   3    0.65    0.10
   4  -9   3    0.79    0.13
  -9  -4  -3    0.82    0.17
   9  -4   3    0.67    0.22
  -4   9   3    0.64    0.13
   9  -4   3    0.95    0.12
   9  -4   3    0.59    0.12
   9  -4   1   16.65    0.58
  -9   4   1   15.79    0.55
   9  -4   1   16.72    0.49
  -9  -4  -1   16.47    0.59
   9  -4   1   16.54    0.48
  -4   9   1   16.35    0.48
   4   9  -1   16.47    0.51
   9  -4   1   17.32    0.68
   9   4  -1   15.93    0.64
  -4   9   1   16.63    0.51
  -4  -9  -1   16.66    0.58
  -4  -9   1   16.09    0.57
   9  -4  -1   17.15    0.46
   9  -4  -1   16.61    0.59
  -4   9  -1   16.09    0.48
  -9  -4   1   16.30    0.61
  -4   9  -1   13.75    0.49
   9  -4  -1   17.52    0.48
   9   4   1   14.96    0.60
  -9   4  -1   16.43    0.49
   9  -4  -3    1.11    0.08
   9  -4  -3    1.04    0.10
  -9   4  -3    0.89    0.12
  -4   9  -3    0.95    0.12
  -4  -9   3    0.91    0.18
  -9   4  -5    3.65    0.21
   9  -4  -5    3.58    0.12
   4  -9  -5    3.62    0.23
  -4   9  -5    3.57    0.21
   9   4   7   15.75    0.58
  -9   4  -7   15.48    0.52
  -4   9  -7   15.46    0.50
   9  -4  -7   15.04    0.63
   4  -9  -7   16.11    0.54
  -4   9  -7   15.17    0.51
   9   4   9   21.77    0.73
  -4   9  -9   22.22    0.67
  -9   4  -9   22.32    0.83
   4  -9  -9   22.06    0.72
   9  -4  -9   20.93    0.81
  -9   4  -9   21.68    0.69
  -4  -9  11   17.48    0.52
  -9   4 -11   17.44    0.61
  -9   4 -11   18.84    0.73
   9   4  11   17.38    0.60
   4  -9 -11   17.62    0.65
  -4   9 -13   18.89    0.64
  -4  -9  13   19.05    0.57
   4  -9 -13   20.39    0.73
   9   4  13   19.77    0.66
  -9   4 -13   19.73    0.77
  -4   9 -15    4.86    0.31
  -4  -9  15    4.91    0.25
   9   4  15    5.42    0.32
  -9   4 -15    5.39    0.42
   9   4  17   13.59    0.54
   4   9  17   13.96    0.54
  -9  -4  17   13.97    0.77
  -4   9 -17   13.72    0.55
  -4  -9  17   13.83    0.46
  -9   4 -17   14.78    0.67
   9   4  19    4.89    0.33
   4   9  19    5.00    0.31
  -9  -4  19    4.49    0.50
  -9   4 -19    4.33    0.42
  -4   9 -19    4.70    0.33
  -4  -9  19    5.03    0.26
  -9  -4  21    1.45    0.43
  -9   4 -21    1.22    0.34
  -4   9 -21    1.61    0.28
   4   9  23    1.51    0.23
  -4   9 -23    1.08    0.26
  -9  -4  23    1.61    0.46
  -9   4 -23    1.24    0.36
  -4   9 -25    0.34    0.26
  -9  -4  25    0.72    0.41
  -4   9 -27    0.09    0.27
  -9  -4  27    0.69    0.41
  -9  -4  29    0.18    0.43
   5  -9  28    1.10    0.29
  -9  -5 -28    1.78    0.45
  -5  -9 -26    1.16    0.41
   5   9 -26    1.58    0.25
   5  -9  26    1.05    0.28
  -9   5  26    1.52    0.33
  -9  -5 -26    1.30    0.41
   5   9 -24    0.36    0.21
   9  -5  24    0.33    0.27
  -5  -9 -24   -0.25    0.35
   5  -9  24    0.19    0.26
  -9   5  24    0.40    0.30
  -9  -5 -24   -0.30    0.38
   9  -5  22    1.81    0.28
   5   9 -22    2.00    0.25
   9   5 -22    2.13    0.21
  -5  -9 -22    1.90    0.37
  -9   5  22    2.16    0.38
  -9  -5 -22    1.90    0.39
   5   9 -20    5.47    0.32
  -9   5  20    5.49    0.25
   9   5 -20    5.17    0.27
  -9  -5 -20    6.77    0.56
   5   9 -20    5.64    0.41
   5  -9  20    5.77    0.38
  -5  -9 -20    5.60    0.49
  -9   5  20    6.14    0.47
   9  -5  20    6.13    0.39
   5  -9  18    6.19    0.38
  -9   5  18    6.22    0.25
   5   9 -18    5.76    0.33
   9  -5  18    6.82    0.39
   9  -5  18    5.97    0.36
   5  -9  18    5.94    0.37
   9   5 -18    6.05    0.27
   5   9 -18    5.76    0.41
  -5  -9 -18    5.59    0.45
  -9   5  18    6.32    0.45
  -9  -5 -18    5.31    0.50
  -5   9  16    9.06    0.28
   9   5 -16    8.56    0.32
   5   9 -16    8.51    0.37
   9  -5  16    7.83    0.40
   5  -9  16    8.10    0.40
   9  -5  16    7.83    0.42
   5   9 -16    8.53    0.45
   5  -9  16    8.52    0.42
  -5  -9 -16    9.61    0.54
  -9   5  16    7.78    0.50
  -9  -5 -16    8.23    0.54
  -9   5  16    8.35    0.30
  -9   5  14    7.70    0.46
   5   9 -14    8.43    0.35
   5  -9  14    9.10    0.41
  -9  -5 -14    8.51    0.53
   9  -5  14    8.24    0.41
   5  -9  14    7.44    0.37
  -9   5  14    8.11    0.28
   5   9 -14    8.28    0.42
  -5  -9 -14    6.81    0.46
   9   5 -14    7.62    0.30
  -5   9  14    8.38    0.28
  -9   5  12   40.80    1.25
   9  -5  12   41.72    1.12
   9   5 -12   40.72    1.06
   5  -9  12   41.57    1.16
   5   9 -12   41.41    1.16
   5   9 -12   41.00    1.11
  -9   5  12   41.06    1.04
  -9  -5 -12   41.23    1.34
  -9   5  10   18.16    0.67
   9  -5  10   17.27    0.57
   5   9 -10   18.52    0.51
   5   9 -10   17.05    0.55
   9   5 -10   17.92    0.51
   9   5 -10   17.45    0.76
   5  -9  10   18.21    0.59
  -5  -9 -10   15.47    0.45
   5   9 -10   18.46    0.60
  -9   5  10   17.75    0.49
  -9  -5 -10   17.68    0.74
   9  -5  10   18.04    0.57
   5  -9   8   14.77    0.50
   5   9  -8   15.11    0.45
   9  -5   8   15.40    0.50
   5   9  -8   15.12    0.50
   9  -5   8   16.35    0.52
  -5   9   8   14.86    0.49
  -9  -5  -8   13.22    0.40
  -5  -9  -8   15.90    0.62
  -5   9   8   15.30    0.42
  -9   5   8   14.71    0.58
  -9   5   8   16.00    0.44
   9  -5   8   13.84    0.51
   5  -9   8   15.28    0.52
  -9  -5  -8   16.37    0.68
   5   9  -8   15.30    0.52
   9   5  -8   15.27    0.68
   9  -5   8   16.38    0.54
  -5   9   6   42.97    1.05
   5  -9   6   42.51    1.11
   9   5  -6   40.92    1.00
   9  -5   6   44.02    1.15
   9  -5   6   41.74    1.11
   9  -5   6   43.39    1.13
  -9   5   6   42.16    1.05
  -9  -5  -6   43.11    1.08
   5  -9   6   40.24    1.05
   9   5  -6   44.78    1.31
   9  -5   6   43.00    1.19
   5   9  -6   41.78    1.07
   5   9  -6   43.42    1.11
   5   9  -6   42.87    1.13
  -5   9   6   42.37    1.10
  -5  -9  -6   43.23    1.24
  -9  -5  -4   27.85    0.79
   9  -5   4   27.83    0.75
   5   9  -4   26.62    0.73
   9  -5   4   27.40    0.88
   5  -9   4   27.26    0.76
   9  -5   4   27.02    0.77
   5   9  -4   27.63    0.78
  -9   5   4   26.17    0.72
   9  -5   4   27.01    0.81
   9   5  -4   27.01    0.93
  -5   9   4   27.30    0.72
  -5  -9  -4   27.51    0.87
  -5   9   4   27.88    0.76
  -9   5   2   22.64    0.60
   9   5  -2   23.05    0.79
   9  -5   2   22.43    0.62
  -9  -5  -2   22.36    0.72
  -9   5   2   21.95    0.61
  -5   9   2   22.77    0.61
   5   9  -2   22.77    0.67
   9  -5   2   22.47    0.64
   5  -9   2   22.09    0.63
   9  -5   2   21.41    0.70
  -5   9   2   22.23    0.65
  -5  -9  -2   22.75    0.75
   9  -5   2   23.23    0.82
  -9   5   0   61.47    1.52
   5  -9   0   59.99    1.54
  -5   9   0   60.19    1.51
   9  -5   0   61.16    1.50
   9  -5   0   63.07    1.53
   9  -5   0   61.92    1.62
  -9  -5   0   58.41    1.77
  -5  -9   0   61.46    1.65
  -5   9   0   61.69    1.54
   9   5   0   61.00    1.67
  -9   5   0   62.18    1.51
   5   9   0   60.49    1.57
  -9   5  -2   21.95    0.63
  -5  -9   2   21.42    0.74
  -5   9  -2   22.43    0.63
   9  -5  -2   21.92    0.58
  -5   9  -2   21.39    0.64
   5   9   2   22.00    0.67
   5  -9  -2   22.24    0.67
   9   5   2   21.33    0.74
   9  -5  -2   21.95    0.61
  -9   5  -4   27.57    0.77
  -5   9  -4   26.85    0.76
   9  -5  -4   27.16    0.67
   5  -9  -4   27.66    0.80
  -5  -9   4   27.54    0.88
   9  -5  -4   26.64    0.72
  -5   9  -6   41.30    1.09
  -9   5  -6   41.44    1.11
   5  -9  -6   39.74    1.13
   9  -5  -6   40.55    1.22
  -5   9  -8   12.81    0.46
  -5   9  -8   13.40    0.46
   9   5   8   13.64    0.53
   5  -9  -8   13.24    0.53
  -9   5  -8   13.75    0.49
   9  -5  -8   12.93    0.59
   9   5  10   17.08    0.61
   9  -5 -10   15.62    0.69
  -9   5 -10   16.03    0.57
   5  -9 -10   16.36    0.62
   5  -9 -12   41.09    1.19
   9   5  12   39.83    1.11
  -9   5 -12   42.06    1.24
   5  -9 -14    8.46    0.47
  -5  -9  14    8.17    0.31
   9   5  14    7.84    0.39
  -9   5 -14    8.62    0.50
  -5   9 -14    7.30    0.38
   9   5  16    8.60    0.42
  -5  -9  16    7.96    0.32
  -9   5 -16    8.21    0.49
  -5   9 -16    8.75    0.42
  -5   9 -18    5.70    0.36
  -5  -9  18    5.65    0.27
  -9   5 -18    5.17    0.45
   9   5  18    5.32    0.35
   5   9  18    5.55    0.35
   5   9  20    5.65    0.35
  -9   5 -20    5.43    0.45
  -5  -9  20    4.88    0.26
   9   5  20    5.68    0.36
  -5   9 -20    5.94    0.38
  -9  -5  20    5.64    0.56
  -5   9 -22    2.09    0.30
  -9  -5  22    1.98    0.51
  -9   5 -22    2.57    0.40
  -5  -9  22    2.19    0.20
  -9  -5  24    0.41    0.44
  -5   9 -24    0.20    0.25
  -5   9 -26    1.04    0.30
  -9  -5  26    1.18    0.46
  -9  -5  28    1.57    0.48
   6  -9  27    1.53    0.31
   9  -6  27    1.55    0.33
  -9  -6 -27    2.46    0.45
  -6  -9 -27    1.60    0.46
  -6  -9 -25    0.83    0.38
   9  -6  25    1.13    0.30
   6   9 -25    0.70    0.23
   6  -9  25    1.11    0.27
  -9   6  25    0.58    0.29
  -9  -6 -25    1.02    0.41
  -6  -9 -23    0.87    0.38
   6   9 -23    0.59    0.21
   9   6 -23    0.52    0.18
   9  -6  23    0.90    0.27
   6  -9  23    0.65    0.27
  -9   6  23    0.75    0.31
  -9  -6 -23    0.17    0.37
  -6  -9 -21   -0.03    0.32
   9   6 -21    0.18    0.16
   6   9 -21    0.12    0.18
   6  -9  21    0.24    0.24
  -9   6  21   -0.02    0.26
  -9  -6 -21   -0.03    0.34
   9  -6  19    0.64    0.22
  -6  -9 -19    0.65    0.31
   6   9 -19    0.68    0.19
  -9   6  19    0.82    0.15
   6  -9  19    0.71    0.21
   6   9 -19    0.63    0.28
   9   6 -19    0.77    0.16
  -9   6  19    1.09    0.30
   6  -9  19    0.73    0.23
  -9  -6 -19    0.59    0.31
  -6   9  17   14.10    0.40
   9  -6  17   15.76    0.62
   9   6 -17   14.88    0.49
   9  -6  17   15.61    0.59
   6  -9  17   14.43    0.58
   6   9 -17   14.68    0.53
  -9   6  17   16.02    0.48
  -6  -9 -17   14.98    0.71
   6  -9  17   16.43    0.61
   6   9 -17   15.95    0.67
  -9   6  17   14.55    0.65
  -9  -6 -17   17.60    0.79
  -6   9  15    3.30    0.14
   9   6 -15    3.50    0.21
   6   9 -15    3.52    0.23
   6  -9  15    3.17    0.26
   6  -9  15    3.43    0.28
  -6  -9 -15    3.34    0.36
   9  -6  15    3.19    0.28
   6   9 -15    3.50    0.33
  -9   6  15    3.41    0.19
  -9   6  15    2.94    0.33
  -9  -6 -15    3.15    0.38
   9   6 -13   13.18    0.43
   6   9 -13   13.87    0.57
   6   9 -13   13.50    0.47
   9  -6  13   13.89    0.53
  -9   6  13   13.84    0.59
  -9  -6 -13   14.15    0.68
   9   6 -13   13.54    0.69
   6  -9  13   13.20    0.52
  -6   9  13   11.80    0.35
  -9   6  13   13.34    0.41
  -6   9  11   15.12    0.42
   6   9 -11   15.33    0.52
   9  -6  11   15.73    0.55
  -9  -6 -11   15.35    0.71
  -9   6  11   15.19    0.46
   9   6 -11   14.97    0.71
  -6   9  11   14.96    0.51
   6  -9  11   15.67    0.57
   6   9 -11   15.99    0.60
  -9   6  11   15.68    0.62
   9  -6  11   16.24    0.52
   9   6 -11   15.76    0.49
   6   9 -11   15.73    0.46
   9   6  -9   12.42    0.40
   6   9  -9   12.27    0.43
  -6   9   9   12.10    0.42
   6   9  -9   11.90    0.37
   9  -6   9   13.12    0.45
   6  -9   9   11.66    0.44
  -6   9   9   11.35    0.34
   9   6  -9   12.03    0.60
  -9   6   9   12.68    0.52
   6  -9   9   12.47    0.47
   6   9  -9   11.85    0.48
  -9   6   9   12.18    0.38
  -9  -6  -9   12.46    0.61
   9  -6   9   11.54    0.44
  -6  -9  -9   10.25    0.54
  -6   9   7   24.22    0.69
  -9   6   7   25.20    0.66
  -9   6   7   23.92    0.79
   9  -6   7   23.75    0.71
   9  -6   7   25.08    0.75
  -6   9   7   24.61    0.63
   6  -9   7   23.60    0.71
   9  -6   7   24.56    0.73
   6   9  -7   23.49    0.70
   9   6  -7   23.75    0.87
  -9  -6  -7   24.70    0.66
   6   9  -7   23.83    0.65
   9   6  -7   23.26    0.60
   9  -6   7   25.11    0.76
   6  -9   7   23.51    0.65
   6   9  -7   24.57    0.75
  -6  -9  -7   23.10    0.84
  -6   9   5    1.03    0.15
   9  -6   5    1.06    0.15
  -6   9   5    0.69    0.11
  -9   6   5    0.79    0.08
  -9  -6  -5    1.01    0.16
   6  -9   5    0.88    0.15
   9  -6   5    1.06    0.19
   6  -9   5    1.01    0.17
  -9   6   5    0.83    0.13
   9  -6   5    1.05    0.16
   9  -6   5    0.89    0.24
   9   6  -5    0.89    0.26
   6   9  -5    0.89    0.12
   6   9  -5    0.90    0.18
  -6  -9  -5    1.02    0.24
   6   9  -3    0.83    0.16
  -9   6   3    0.73    0.10
   9  -6   3    0.81    0.25
  -6   9   3    0.64    0.10
  -9  -6  -3    0.94    0.28
   9   6  -3    0.88    0.24
   6  -9   3    0.75    0.14
  -9   6   3    0.92    0.12
   9  -6   3    0.75    0.14
   9  -6   3    0.85    0.18
  -6   9   3    0.70    0.13
  -6  -9  -3    0.57    0.20
  -9  -6  -3    0.98    0.18
   9  -6   3    0.63    0.12
  -9   6   1   29.96    0.79
  -6   9   1   29.89    0.80
   9  -6   1   30.12    0.80
  -9   6   1   30.13    0.81
   6  -9   1   30.13    0.81
  -9  -6  -1   30.07    1.05
   6   9  -1   29.85    0.87
  -6   9   1   29.57    0.83
   9  -6   1   31.11    0.90
   6  -9   1   29.17    0.84
  -6  -9  -1   30.67    0.97
   9   6  -1   29.80    0.95
   9  -6   1   30.44    0.83
  -6   9  -1   29.07    0.79
  -9   6  -1   29.87    0.81
   9  -6  -1   29.68    0.76
   6   9   1   29.57    0.86
  -9  -6   1   30.61    1.06
  -6   9  -1   28.50    0.81
  -9   6  -1   30.28    0.80
  -6  -9   1   29.51    0.95
   9   6   1   30.54    0.93
   9  -6  -1   29.11    0.80
   6  -9  -1   27.73    0.86
   9   6   3    1.02    0.20
  -9   6  -3    0.98    0.13
   6   9   3    0.81    0.16
  -6   9  -3    0.86    0.13
   9  -6  -3    0.98    0.12
   9  -6  -3    0.70    0.09
  -6  -9   3    0.52    0.22
  -6   9  -3    0.62    0.14
   6  -9  -3    0.60    0.16
  -9   6  -5    1.00    0.16
  -6   9  -5    0.86    0.14
   6  -9  -5    0.72    0.18
   9  -6  -5    1.06    0.25
  -6   9  -7   22.44    0.68
   6  -9  -7   22.88    0.75
   9  -6  -7   22.61    0.81
  -9   6  -7   22.29    0.69
  -9   6  -9   10.81    0.44
   9   6   9    9.93    0.47
  -6   9  -9   11.59    0.43
   9  -6  -9   11.65    0.56
   6  -9  -9   11.27    0.50
   9  -6 -11   14.89    0.69
   6  -9 -11   14.90    0.63
  -9   6 -11   15.44    0.56
   6  -9 -13   12.28    0.60
  -9   6 -13   13.54    0.61
  -6   9 -15    3.08    0.28
  -9   6 -15    3.65    0.37
   9   6  15    3.26    0.28
   6  -9 -15    2.88    0.37
  -6   9 -17   14.51    0.60
  -9   6 -17   13.58    0.61
  -9   6 -17   15.49    0.68
   6   9  17   16.43    0.60
   6   9  19    1.03    0.22
   9   6  19    0.76    0.22
  -9   6 -19    0.73    0.31
  -9   6 -19    0.79    0.24
  -6   9 -19    0.88    0.24
  -6  -9  19    0.91    0.14
  -6  -9  21    0.01    0.13
  -9   6 -21    0.09    0.31
  -6   9 -21    0.04    0.23
  -6   9 -23    0.25    0.26
  -9  -6  23    0.37    0.46
  -9  -6  25    0.31    0.45
  -6   9 -25    0.64    0.29
  -9  -6  27    1.27    0.47
  -7  -9 -26    1.69    0.45
   7  -9  26    1.66    0.30
   9  -7  26    2.27    0.35
  -9  -7 -26    1.27    0.42
  -7  -9 -24   -0.07    0.38
   9  -7  24    0.02    0.25
  -9   7  24    0.41    0.30
   7  -9  24    0.08    0.25
   7   9 -24    0.19    0.19
  -9  -7 -24    0.35    0.38
  -7  -9 -22    6.63    0.57
   7  -9  22    6.59    0.43
   9  -7  22    6.74    0.45
  -9   7  22    6.90    0.47
   7   9 -22    6.64    0.36
   9   7 -22    6.95    0.35
  -9  -7 -22    6.99    0.61
   9   7 -20    8.94    0.37
  -9   7  20    9.51    0.53
   7  -9  20    8.19    0.46
  -7  -9 -20    9.02    0.61
   9  -7  20    8.14    0.46
   7   9 -20    8.64    0.39
   7   9 -20    7.94    0.53
  -9  -7 -20    7.56    0.59
   7   9 -18    1.86    0.35
   9   7 -18    1.79    0.20
   9  -7  18    1.76    0.26
   9  -7  18    2.42    0.29
   7  -9  18    1.64    0.25
  -7  -9 -18    1.74    0.35
   7  -9  18    1.82    0.25
   7   9 -18    1.86    0.22
  -9   7  18    1.98    0.33
  -9   7  18    1.86    0.18
  -9  -7 -18    1.72    0.39
  -9   7  16    9.64    0.52
   7   9 -16    8.85    0.39
   9   7 -16    9.97    0.38
   9   7 -16    8.73    0.59
  -9   7  16    9.84    0.35
   7  -9  16    9.41    0.44
   9  -7  16    9.52    0.46
  -7  -9 -16   10.20    0.59
   7   9 -16    9.79    0.53
   7  -9  16    9.78    0.46
  -9  -7 -16    9.31    0.60
   7   9 -14   25.14    0.83
   9   7 -14   21.88    0.89
  -7   9  14   23.41    0.66
   7   9 -14   24.28    0.68
  -9   7  14   23.06    0.63
   9  -7  14   23.48    0.75
  -9   7  14   25.17    0.83
   7  -9  14   24.59    0.75
  -9  -7 -14   25.15    0.93
   9   7 -14   24.49    0.65
  -7  -9 -14   22.39    0.88
   9  -7  12   24.55    0.67
   7  -9  12   23.96    0.75
   9  -7  12   23.24    0.72
  -7   9  12   20.00    0.55
   7   9 -12   22.89    0.68
  -9   7  12   24.28    0.81
   9   7 -12   21.62    0.66
   7   9 -12   23.50    0.81
   9   7 -12   22.26    0.89
  -9  -7 -12   23.34    0.92
  -9   7  12   23.50    0.64
  -7   9  12   22.68    0.67
  -9   7  10   39.63    1.03
  -7   9  10   39.68    0.96
   9  -7  10   38.82    1.10
  -7   9  10   39.81    1.06
   7   9 -10   39.15    1.07
   7   9 -10   40.00    1.00
   9   7 -10   39.89    1.05
   7  -9  10   41.05    1.11
   9   7 -10   40.98    1.28
   7  -9  10   40.69    1.12
  -9   7  10   41.25    1.19
   7   9 -10   39.87    1.17
  -9  -7 -10   34.29    1.27
   7  -9  10   38.65    0.98
   9  -7  10   39.16    1.07
   9   7  -8   41.18    1.00
  -9  -7  -8   40.28    1.03
  -7  -9  -8   37.29    1.27
  -7   9   8   42.38    1.01
   9  -7   8   40.93    1.13
  -9   7   8   41.78    1.21
   7  -9   8   40.42    1.12
   7   9  -8   41.86    1.11
   9   7  -8   40.57    1.28
   7   9  -8   42.25    1.04
  -9   7   8   41.16    1.07
   9  -7   8   41.84    1.13
   7  -9   8   41.38    1.05
   7   9  -8   42.25    1.20
  -7   9   8   41.84    1.09
  -7   9   6    6.13    0.29
  -9   7   6    6.74    0.21
   9  -7   6    7.50    0.35
  -7   9   6    6.86    0.24
   9  -7   6    6.72    0.30
   9   7  -6    6.75    0.23
   7  -9   6    7.27    0.32
   7   9  -6    7.19    0.37
  -9   7   6    7.07    0.28
   9  -7   6    6.67    0.32
   7  -9   6    6.41    0.31
   9   7  -6    7.05    0.44
   9  -7   6    7.02    0.37
  -7  -9  -6    7.17    0.43
   7   9  -6    6.69    0.26
  -9  -7  -6    7.48    0.31
   9  -7   4   22.26    0.69
  -7   9   4   22.08    0.58
   9  -7   4   20.96    0.62
   7  -9   4   21.12    0.63
   7   9  -4   20.69    0.59
  -9   7   4   20.80    0.61
   7  -9   4   21.78    0.72
   9  -7   4   21.49    0.76
  -7   9   4   21.17    0.63
   9  -7   4   20.76    0.65
  -9   7   4   22.32    0.56
  -9  -7  -4   21.03    0.83
   9   7  -4   21.27    0.77
  -7  -9  -4   19.07    0.76
   7  -9   4   18.40    0.64
   7   9  -4   21.46    0.70
  -9   7   2   62.58    1.50
   9  -7   2   61.54    1.53
  -7   9   2   60.78    1.51
  -9  -7  -2   59.69    1.77
   9  -7   2   62.00    1.56
  -7  -9  -2   60.72    1.72
  -9   7   2   60.50    1.53
   7  -9   2   61.82    1.53
   9  -7   2   59.75    1.61
  -7   9   2   61.73    1.55
   9   7  -2   59.25    1.67
   7   9  -2   60.85    1.61
   7  -9   2   60.78    1.57
  -9   7   0    5.29    0.23
  -9   7   0    5.30    0.25
  -7  -9   0    4.91    0.37
   9  -7   0    4.88    0.22
   7  -9   0    4.57    0.25
   7  -9   0    4.50    0.22
  -7   9   0    4.76    0.25
  -9  -7   0    4.57    0.42
   9  -7   0    4.31    0.30
   7   9   0    4.50    0.30
   9  -7   0    5.19    0.26
   9   7   0    5.06    0.34
  -7   9   0    4.84    0.23
   9  -7  -2   61.39    1.50
   7   9   2   61.54    1.63
   7  -9  -2   61.74    1.62
  -9   7  -2   61.98    1.56
  -7   9  -2   60.09    1.56
   9  -7  -2   60.93    1.55
  -9  -7   2   62.79    1.83
  -7  -9   2   62.81    1.76
  -9   7  -2   61.58    1.55
  -7   9  -2   63.14    1.55
   9   7   2   62.00    1.67
   9   7   4   20.46    0.71
  -7  -9   4   22.03    0.81
   9  -7  -4   18.89    0.71
   7  -9  -4   20.11    0.69
   7   9   4   20.76    0.69
  -9   7  -4   21.83    0.63
  -7   9  -4   21.43    0.63
  -7   9  -4   20.69    0.63
  -9   7  -6    6.21    0.30
   9   7   6    5.98    0.35
   7  -9  -6    5.76    0.35
  -7   9  -6    6.08    0.29
   9  -7  -6    6.43    0.40
  -7   9  -8   42.40    1.15
   7  -9  -8   42.06    1.24
  -9   7  -8   42.11    1.15
   9  -7  -8   41.19    1.27
  -9   7 -10   40.33    1.14
   7  -9 -10   40.72    1.23
   9  -7 -10   40.82    1.28
  -7   9 -10   40.36    1.13
  -9   7 -12   20.70    0.73
   9  -7 -12   23.11    0.87
   7  -9 -12   22.33    0.82
   7  -9 -14   22.27    0.85
  -7   9 -16    8.83    0.44
   9   7  16    9.61    0.45
   7   9  18    2.13    0.26
  -9   7 -18    2.76    0.35
   9   7  18    2.16    0.28
  -7   9 -18    1.66    0.26
  -9   7 -18    1.73    0.28
  -7   9 -20    7.43    0.45
   7   9  20    9.06    0.44
  -9   7 -20    8.34    0.51
  -9   7 -20    8.46    0.47
  -7   9 -22    7.04    0.45
  -9  -7  24   -0.23    0.48
  -7   9 -24    0.19    0.26
  -9  -7  26    2.28    0.51
   9  -8  25    3.07    0.35
  -9   8  25    3.10    0.35
  -9  -8 -25    3.67    0.53
  -8  -9 -25    3.45    0.51
  -9   8  23    4.87    0.41
   8   9 -23    4.53    0.31
   9   8 -23    4.69    0.31
   8  -9  23    4.95    0.41
  -9  -8 -23    5.07    0.58
  -8  -9 -23    4.96    0.54
   9  -8  23    4.63    0.39
  -9   8  21    0.45    0.27
   8   9 -21    0.47    0.19
  -8  -9 -21    0.49    0.35
   9   8 -21    0.24    0.18
   9  -8  21    0.62    0.25
   8  -9  21    0.57    0.25
  -9  -8 -21    0.40    0.38
  -9   8  19   18.50    0.58
   9   8 -19   17.76    0.59
  -9   8  19   18.33    0.75
   8  -9  19   18.37    0.70
   9   8 -19   16.38    0.81
  -8   9  19   17.21    0.59
   8   9 -19   17.44    0.78
   8   9 -19   19.42    0.62
  -9  -8 -19   18.94    0.90
  -8  -9 -19   17.72    0.87
  -9   8  17   14.77    0.49
   9   8 -17   15.42    0.51
   9  -8  17   14.86    0.62
  -8   9  17   14.64    0.50
   8   9 -17   14.27    0.52
   9  -8  17   15.23    0.59
   8  -9  17   14.78    0.58
  -9   8  17   15.44    0.66
   8  -9  17   13.62    0.59
   9   8 -17   13.75    0.71
   8   9 -17   14.19    0.69
  -9  -8 -17   14.55    0.76
  -8  -9 -17   13.91    0.74
  -9   8  15    8.61    0.34
  -8   9  15    8.35    0.35
   9   8 -15    7.79    0.34
   8   9 -15    8.27    0.36
  -9   8  15    7.84    0.46
   9  -8  15    8.62    0.43
   8  -9  15    8.53    0.43
   8   9 -15    7.63    0.50
  -9  -8 -15    8.57    0.57
  -8  -9 -15    7.60    0.53
   8   9 -13   36.66    1.00
   9  -8  13   33.42    1.03
   9   8 -13   36.60    0.98
   9  -8  13   36.00    1.07
   8   9 -13   34.66    1.14
   8  -9  13   35.97    1.07
   9   8 -13   36.69    1.21
  -8   9  13   34.57    0.97
  -9  -8 -13   37.24    1.27
  -9   8  13   36.61    1.12
  -9   8  13   36.49    0.97
  -9   8  11   49.96    1.34
   8  -9  11   50.24    1.26
   9   8 -11   50.95    1.21
   8   9 -11   51.65    1.37
   8   9 -11   52.42    1.13
   9  -8  11   49.88    1.26
   8  -9  11   48.19    1.28
   9   8 -11   49.94    1.42
  -8   9  11   50.15    1.20
   8   9 -11   49.57    1.21
  -9   8  11   49.40    1.18
   9  -8   9    5.65    0.31
   9   8  -9    5.58    0.20
  -9  -8  -9    4.91    0.19
   8   9  -9    6.23    0.30
   9   8  -9    6.58    0.44
   8   9  -9    5.64    0.39
  -9   8   9    5.84    0.26
   8   9  -9    5.72    0.22
  -8   9   9    6.03    0.28
  -8   9   9    5.92    0.18
   9  -8   9    5.75    0.29
   8  -9   9    5.92    0.31
  -8  -9  -9    5.44    0.22
   8  -9   9    5.83    0.26
   9   8  -9    6.26    0.29
  -8   9   7   56.61    1.36
   9  -8   7   55.53    1.47
   9   8  -7   56.89    1.37
   9  -8   7   52.12    1.48
  -9   8   7   56.81    1.43
   9   8  -7   55.15    1.60
   8  -9   7   55.90    1.46
   9  -8   7   57.02    1.50
   8   9  -7   58.60    1.57
   8   9  -7   56.21    1.39
  -9   8   7   56.77    1.34
  -9  -8  -7   56.10    1.44
   8  -9   7   58.66    1.47
  -8   9   7   56.14    1.43
  -8  -9  -7   54.45    1.65
   8   9  -5   49.33    1.26
  -9  -8  -5   49.57    1.54
  -8  -9  -5   48.38    1.50
   9  -8   5   50.81    1.34
   9   8  -5   50.75    1.25
   9  -8   5   49.84    1.31
  -8   9   5   52.88    1.24
   8  -9   5   49.22    1.31
   9  -8   5   50.64    1.38
   8  -9   5   52.02    1.40
  -9   8   5   50.08    1.29
   9  -8   5   51.06    1.42
  -8   9   5   49.66    1.30
   8  -9   5   47.73    1.34
   9   8  -5   52.71    1.46
   8   9  -5   49.20    1.41
  -9   8   5   50.85    1.23
   9  -8   3    3.33    0.34
   9  -8   3    3.68    0.21
  -8   9   3    3.52    0.17
   9  -8   3    3.63    0.27
   8  -9   3    3.80    0.22
   9  -8   3    3.62    0.23
   9   8  -3    3.17    0.30
  -8   9   3    3.91    0.22
  -9   8   3    4.05    0.22
  -9  -8  -3    3.67    0.37
  -8  -9  -3    3.65    0.35
   8  -9   3    3.61    0.24
   8   9  -3    3.61    0.29
  -9   8   3    3.39    0.17
   8  -9   1   78.20    1.91
  -8   9   1   74.54    1.86
   9  -8   1   76.88    1.86
   8  -9   1   77.14    1.87
   9   8  -1   76.33    2.01
  -9   8   1   75.73    1.85
  -9  -8  -1   74.29    2.14
  -8   9   1   77.96    1.90
  -8  -9  -1   75.84    2.11
   9  -8   1   73.03    1.90
   9  -8   1   74.23    1.96
   8   9  -1   77.19    1.98
  -9   8   1   75.69    1.89
   9  -8  -1   78.93    1.92
  -9   8  -1   77.09    1.89
  -8   9  -1   74.81    1.91
   8  -9  -1   77.24    1.87
  -9   8  -1   77.63    1.91
   9  -8  -1   78.17    1.86
  -9  -8   1   75.12    2.17
  -8  -9   1   75.93    2.13
   8  -9  -1   74.47    1.92
   8   9   1   76.13    1.99
  -8   9  -1   76.52    1.89
   9   8   1   76.63    2.02
   9   8   3    4.10    0.30
  -9   8  -3    3.99    0.23
  -8   9  -3    3.70    0.23
   9  -8  -3    4.09    0.18
  -8  -9   3    3.77    0.39
  -8   9  -3    3.77    0.22
   8   9   3    4.08    0.29
  -9   8  -3    3.92    0.24
   8  -9  -3    3.76    0.28
  -8   9  -5   47.57    1.29
   9   8   5   50.67    1.38
  -8   9  -5   49.69    1.29
   8   9   5   49.51    1.36
  -9   8  -5   47.82    1.29
   9  -8  -5   49.50    1.40
   8  -9  -5   49.91    1.39
   8  -9  -7   54.63    1.54
   9   8   7   53.44    1.50
  -8   9  -7   57.06    1.44
  -9   8  -7   54.37    1.43
   9  -8  -7   51.16    1.54
  -9   8  -9    5.52    0.31
  -8   9  -9    5.71    0.31
   8  -9  -9    5.93    0.41
   9  -8  -9    5.66    0.41
  -8   9 -11   48.10    1.33
  -9   8 -11   46.73    1.33
   9  -8 -11   47.07    1.46
   8  -9 -11   50.11    1.45
   9  -8 -13   33.58    1.15
  -9   8 -13   34.93    1.02
   8  -9 -13   35.89    1.14
   9   8  17   15.41    0.61
   8   9  17   15.33    0.62
  -9   8 -19   18.15    0.73
   8   9  19   19.55    0.70
  -8   9 -19   18.66    0.73
  -8   9 -21    0.10    0.25
  -9   8 -21    0.48    0.25
  -8   9 -23    4.55    0.40
  -9  -8  25    3.74    0.58
   9  -9  24    5.52    0.43
  -9  -9 -24    6.00    0.59
   9   9 -22    7.03    0.37
   9  -9  22    7.38    0.48
  -9  -9 -22    7.77    0.64
   9  -9  20    3.54    0.35
   9   9 -20    3.65    0.27
  -9  -9 -20    4.26    0.47
   9  -9  18    1.98    0.28
   9   9 -18    1.57    0.36
  -9   9  18    1.98    0.19
  -9  -9 -18    2.16    0.40
   9   9 -18    1.71    0.21
  -9   9  16    1.83    0.19
   9  -9  16    2.14    0.27
   9   9 -16    1.80    0.20
   9   9 -16    1.75    0.33
  -9  -9 -16    1.97    0.37
   9   9 -14   17.98    0.58
   9   9 -14   17.70    0.75
  -9  -9 -14   17.32    0.81
  -9   9  14   17.62    0.56
  -9   9  12    6.72    0.30
   9  -9  12    6.47    0.35
   9   9 -12    6.86    0.31
   9  -9  12    6.89    0.37
  -9   9  10   27.66    0.79
   9   9 -10   28.04    0.97
   9  -9  10   27.87    0.85
   9   9 -10   28.84    0.73
   9   9 -10   28.12    0.82
   9  -9  10   27.81    0.78
  -9  -9  -8   31.66    0.86
  -9   9   8   31.69    0.78
   9   9  -8   32.27    0.90
  -9   9   8   32.07    0.88
   9  -9   8   32.08    0.92
   9   9  -8   32.11    0.82
   9   9  -8   33.17    1.04
   9  -9   8   31.39    0.90
  -9   9   6    0.35    0.14
   9  -9   6    0.18    0.15
   9  -9   6    0.37    0.19
  -9   9   6    0.39    0.08
   9  -9   6    0.09    0.16
  -9  -9  -6    0.26    0.26
   9   9  -6    0.41    0.11
   9   9  -6    0.46    0.24
   9  -9   4   10.24    0.46
   9  -9   4   10.78    0.39
   9  -9   4   10.51    0.52
  -9   9   4   10.52    0.39
  -9  -9  -4    9.85    0.56
   9   9  -4   10.27    0.49
   9  -9   4   10.65    0.42
  -9   9   4   10.33    0.33
  -9   9   2   22.35    0.62
   9  -9   2   22.30    0.65
   9  -9   2   22.32    0.74
   9  -9   2   22.34    0.69
  -9  -9  -2   21.47    0.87
   9   9  -2   22.66    0.77
  -9   9   2   21.57    0.66
  -9   9   0   65.43    1.62
   9   9   0   63.39    1.74
   9  -9   0   65.10    1.61
   9  -9   0   66.09    1.66
  -9  -9   0   65.06    1.90
  -9   9   0   64.25    1.65
   9   9   2   20.89    0.72
   9  -9  -2   20.90    0.65
  -9   9  -2   21.53    0.65
  -9   9  -2   21.95    0.64
   9  -9  -2   20.74    0.59
  -9  -9   2   19.71    0.86
  -9   9  -4    9.12    0.38
   9   9   4    9.84    0.45
   9  -9  -4    9.94    0.46
  -9   9  -4    9.59    0.38
   9   9   6   -0.01    0.18
   9  -9  -6    0.17    0.23
  -9   9  -6    0.34    0.15
  -9   9  -8   30.80    0.90
   9  -9  -8   29.82    1.01
  -9   9 -10   25.99    0.82
   9  -9 -10   26.21    0.94
  -9   9 -12    6.48    0.36
   9  -9 -12    6.51    0.48
  -9   9 -14   16.71    0.64
   9  -9 -14   18.70    0.79
  -9   9 -20    3.22    0.34
  -9   9 -22    6.71    0.47
  -9  -9  26    0.04    0.43
   0  10   0   12.39    0.43
  10   0   0   13.35    0.39
  10   0   0   13.91    0.54
   0 -10   0   13.63    0.43
  10   0   0   13.66    0.42
 -10   0   0   13.48    0.50
 -10   0   2    1.51    0.21
  10   0   2    1.47    0.15
  10   0  -2    1.62    0.10
  10   0   2    1.51    0.23
   0 -10   2    1.51    0.13
   0  10  -2    1.58    0.15
   0  10  -2    1.47    0.15
  10   0   2    1.54    0.26
 -10   0  -2    1.53    0.17
  10   0  -4  123.87    2.81
  10   0   4  121.78    2.91
 -10   0   4  117.94    3.04
 -10   0  -4  118.45    3.16
   0  10  -4  118.33    2.89
 -10   0  -4  121.70    2.90
  10   0   4  117.67    3.03
   0 -10   4  118.14    2.85
  10   0   4  118.49    2.97
 -10   0  -6   42.40    1.34
  10   0   6   41.27    1.12
   0  10  -6   42.06    1.10
   0 -10   6   41.82    1.10
  10   0   6   42.07    1.14
  10   0   6   41.54    1.21
  10   0   8    0.08    0.18
   0 -10   8    0.22    0.14
  10   0   8    0.24    0.17
   0  10  -8    0.18    0.13
  10   0  -8    0.11    0.05
  10   0   8    0.18    0.15
   0 -10  -8    0.18    0.13
 -10   0  -8    0.18    0.27
  10   0  10   93.65    2.24
   0  10 -10   92.51    2.19
   0 -10 -10   97.70    2.17
   0  10 -10   92.43    2.15
  10   0  10   93.05    2.15
 -10   0 -10   97.80    2.43
 -10   0  10   88.76    2.38
   0 -10  10   91.27    2.17
  10   0  12   25.04    0.80
   0  10 -12   25.51    0.76
 -10   0 -12   25.37    0.94
   0 -10  12   23.82    0.74
  10   0  12   23.62    0.69
   0 -10  12   24.74    0.73
 -10   0  12   24.59    0.95
   0 -10 -12   25.36    0.75
   0  10 -14   59.47    1.58
  10   0  14   57.45    1.59
   0 -10  14   60.63    1.58
   0 -10 -14   60.38    1.58
 -10   0 -14   63.73    1.82
   0 -10  14   60.14    1.56
 -10   0  14   61.33    1.81
   0  10 -16   18.05    0.62
  10   0  16   18.75    0.63
   0 -10  16   19.04    0.63
 -10   0 -16   17.75    0.79
   0 -10  16   18.53    0.61
 -10   0  16   18.86    0.84
   0  10  18   15.28    0.52
  10   0  18   15.13    0.58
   0  10 -18   14.96    0.57
 -10   0  18   14.81    0.77
   0 -10  18   15.50    0.57
 -10   0 -18   14.90    0.75
   0 -10  18   14.24    0.54
   0  10  20   17.21    0.58
   0 -10  20   17.42    0.64
   0  10 -20   16.45    0.64
   0 -10  20   17.16    0.61
 -10   0  20   17.28    0.85
 -10   0 -20   16.46    0.82
   0  10 -22    0.08    0.21
 -10   0  22    0.34    0.35
 -10   0 -22   -0.12    0.34
   0 -10  22    0.28    0.20
   0 -10 -24    0.80    0.33
   0  10 -24    0.46    0.24
 -10   0 -24    0.66    0.37
 -10   0  24    0.72    0.37
   0 -10  24    0.54    0.20
 -10   0 -26    3.54    0.49
 -10   0  26    4.16    0.54
   0 -10 -26    3.53    0.44
   0  10 -26    3.91    0.37
   0 -10  26    3.19    0.29
   0  10 -28    1.23    0.31
 -10   0  28    1.09    0.41
  -1 -10 -27    2.52    0.42
 -10   1  27    2.87    0.47
 -10  -1 -27    2.83    0.48
   1  10 -27    2.60    0.34
  -1 -10 -25    3.06    0.42
   1 -10  25    2.84    0.31
 -10   1  25    3.44    0.47
   1  10 -25    2.56    0.33
 -10  -1 -25    2.32    0.43
  -1 -10 -23    4.91    0.46
   1  10 -23    4.03    0.35
 -10   1  23    4.10    0.49
   1 -10  23    4.26    0.31
 -10  -1 -23    4.63    0.49
   1  10 -21    6.52    0.38
  -1 -10 -21    7.44    0.50
   1 -10  21    6.14    0.37
 -10  -1 -21    6.84    0.57
 -10   1  21    6.66    0.54
  -1  10  21    7.15    0.32
  -1  10  19    5.50    0.28
  10  -1  19    5.42    0.36
  10  -1  19    4.18    0.21
   1 -10  19    5.74    0.37
 -10   1  19    6.62    0.53
   1 -10  19    5.43    0.34
   1  10 -19    5.57    0.34
 -10  -1 -19    4.94    0.46
  -1  10  17   19.90    0.61
   1  10 -17   18.40    0.66
 -10   1  17   20.93    0.88
   1 -10  17   19.16    0.66
   1 -10  17   19.13    0.65
 -10  -1 -17   19.76    0.86
  10  -1  17   18.51    0.66
   1 -10  15  106.22    2.56
   1 -10  15  110.36    2.58
   1  10 -15  105.96    2.57
  10  -1  15  107.46    2.58
 -10   1  15  110.24    2.82
 -10  -1 -15  107.46    2.81
  10  -1  15  100.89    2.47
  10   1 -15   97.65    2.39
   1  10 -13   17.01    0.59
  10   1 -13   16.46    0.44
   1 -10  13   17.91    0.59
 -10   1  13   17.58    0.77
 -10  -1 -13   18.50    0.79
   1 -10  13   16.40    0.57
  10  -1  13   17.42    0.53
  -1 -10 -13   18.19    0.57
   1  10 -11   21.66    0.63
 -10  -1 -11   22.37    0.85
   1  10 -11   20.47    0.65
  10   1 -11   19.85    0.52
  10  -1  11   20.80    0.69
 -10   1  11   21.66    0.83
   1 -10  11   20.29    0.65
   1 -10  11   21.02    0.65
  10  -1  11   20.97    0.63
  -1 -10 -11   20.55    0.63
   1  10  -9   93.66    2.28
  10  -1   9   93.46    2.29
  10  -1   9   90.26    2.34
   1  10  -9   91.22    2.24
  10  -1   9   94.25    2.27
  10   1  -9   92.43    2.16
  -1 -10  -9   92.17    2.24
   1 -10   9   90.77    2.27
 -10  -1  -9   95.15    2.51
   1 -10   9   92.62    2.28
   1 -10   7   45.99    1.22
  10  -1   7   46.48    1.23
  10  -1   7   47.96    1.25
   1  10  -7   46.73    1.20
 -10  -1  -7   45.97    1.44
  10  -1   7   44.94    1.30
 -10  -1  -5   32.04    0.82
   1 -10   5   32.77    0.85
  10  -1   5   32.22    0.96
  10  -1   5   32.29    0.85
 -10   1   5   27.96    0.94
 -10  -1  -5   32.82    1.08
  10  -1   5   32.04    0.89
   1  10  -5   31.54    0.83
  10   1  -5   29.30    0.72
   1 -10   5   27.58    0.74
  10  -1   3   44.43    1.14
 -10   1   3   45.57    1.26
   1 -10   3   42.87    1.09
  -1 -10  -3   43.75    1.18
 -10  -1  -3   43.56    1.40
  10  -1   3   43.94    1.30
 -10  -1  -3   44.07    1.16
  10  -1   3   44.70    1.22
  10   1  -3   44.52    1.07
   1  10  -3   42.91    1.14
  -1 -10  -1   20.06    0.60
   1  10  -1   19.03    0.58
  10  -1   1   19.49    0.67
  10  -1   1   19.10    0.55
 -10  -1  -1   19.73    0.64
  -1  10   1   19.58    0.57
  10  -1   1   21.11    0.77
  10  -1   1   19.76    0.57
 -10   1   1   19.84    0.65
  -1 -10   1   21.89    0.61
  10  -1  -1   21.02    0.57
 -10   1  -1   21.11    0.64
   1  10   1   21.22    0.61
 -10  -1   1   21.35    0.70
  10  -1  -1   18.68    0.78
  10  -1  -1   21.00    0.56
  -1  10  -1   21.43    0.61
  10  -1  -1   20.25    0.72
  -1  10  -1   17.58    0.60
  10  -1  -3   40.70    1.22
  10   1   3   43.93    1.18
  10  -1  -3   40.54    1.03
 -10   1  -3   41.62    1.11
  10  -1  -3   41.78    1.02
 -10  -1   3   42.27    1.22
  -1  10  -3   41.41    1.09
  10   1   3   41.07    1.23
  -1  10  -3   40.13    1.08
  -1 -10   3   41.40    1.07
  10  -1  -5   33.62    0.82
  -1  10  -5   32.03    0.89
  10   1   5   34.81    0.92
  10   1   5   33.36    0.95
  10  -1  -5   32.52    0.81
 -10   1  -5   33.00    1.13
  -1 -10   5   32.52    0.87
  10   1   5   32.22    1.01
 -10  -1   5   33.95    1.05
  10   1   7   47.19    1.22
  10  -1  -7   44.67    1.08
  -1 -10   7   44.79    1.18
  -1  10  -7   45.35    1.18
 -10   1  -7   48.59    1.44
   1 -10  -7   45.59    1.19
  10   1   7   46.79    1.22
  10   1   7   44.17    1.28
  -1 -10   9   91.61    2.27
   1 -10  -9   94.98    2.29
  -1  10  -9   92.02    2.27
  10   1   9   88.33    2.30
  10   1   9   92.86    2.27
 -10   1  -9   94.22    2.51
  10   1   9   94.95    2.37
  -1  10 -11   20.18    0.64
 -10  -1  11   19.80    0.83
   1 -10 -11   20.61    0.66
  -1  10 -11   20.79    0.63
  10   1  11   19.38    0.59
  10   1  11   20.98    0.70
  -1 -10  11   19.33    0.62
 -10   1 -11   20.77    0.83
 -10  -1  13   19.06    0.82
  -1  10 -13   18.50    0.61
 -10   1 -13   19.04    0.78
   1 -10 -13   17.79    0.62
  -1 -10  13   18.57    0.58
 -10  -1  15  106.08    2.95
  -1  10 -15  107.71    2.70
  10   1  15  105.71    2.71
  -1 -10  15  107.95    2.69
 -10   1 -15  111.70    2.93
  -1 -10  15  106.48    2.66
   1 -10 -15  114.40    2.73
  10   1  17   20.44    0.69
 -10  -1  17   20.23    0.90
  -1 -10  17   20.12    0.68
  -1  10 -17   19.54    0.68
 -10   1 -17   20.40    0.86
  -1 -10  17   19.49    0.65
   1  10  19    5.28    0.31
  10   1  19    5.56    0.35
  -1 -10  19    5.48    0.32
  -1 -10  19    5.55    0.34
 -10  -1  19    5.61    0.54
 -10   1 -19    5.69    0.50
  -1  10 -19    6.11    0.37
 -10  -1  21    5.81    0.57
  -1  10 -21    6.56    0.40
   1  10  21    6.64    0.34
 -10   1 -21    7.22    0.55
  -1 -10  21    6.47    0.37
  -1 -10  21    6.28    0.35
 -10  -1  23    4.50    0.52
  -1  10 -23    4.79    0.37
 -10   1 -23    4.83    0.50
 -10  -1  25    4.05    0.51
 -10   1 -25    3.38    0.46
  -1  10 -25    3.18    0.34
  -1 -10  25    3.04    0.28
   1 -10 -27    3.00    0.44
  -1  10 -27    2.13    0.33
 -10  -1  27    2.51    0.46
   2  10 -28    0.78    0.32
  -2 -10 -26    0.87    0.36
 -10   2  26    1.02    0.38
   2 -10  26    0.49    0.24
   2  10 -26    0.38    0.24
  10  -2  26    0.64    0.30
 -10  -2 -26   -0.17    0.36
 -10  -2 -24    1.52    0.42
  10  -2  24    0.74    0.29
  -2 -10 -24    1.18    0.36
 -10   2  24    0.84    0.37
   2  10 -24    1.27    0.26
   2 -10  24    1.17    0.25
  -2 -10 -22    2.08    0.35
   2  10 -22    2.07    0.26
 -10   2  22    2.93    0.44
 -10  -2 -22    1.79    0.41
  10  -2  22    2.18    0.31
  10  -2  20    7.19    0.28
  -2  10  20    8.50    0.32
  -2 -10 -20    8.78    0.53
   2  10 -20    7.06    0.23
   2 -10  20    9.10    0.42
   2 -10  20    9.11    0.41
 -10   2  20    8.81    0.60
 -10  -2 -20    8.64    0.59
   2  10 -20    8.96    0.40
  -2  10  18    5.28    0.26
  10   2 -18    4.88    0.18
   2  10 -18    5.14    0.31
  10  -2  18    4.89    0.32
   2  10 -18    3.96    0.15
   2 -10  18    4.83    0.32
  10  -2  18    4.32    0.22
 -10   2  18    4.82    0.47
   2 -10  18    5.32    0.32
 -10  -2 -18    4.44    0.44
  -2 -10 -18    5.21    0.41
  10   2 -16    6.83    0.21
 -10   2  16    6.11    0.50
 -10  -2 -16    6.71    0.49
  10  -2  16    7.26    0.36
   2 -10  16    6.74    0.36
   2  10 -16    6.68    0.34
   2 -10  16    7.66    0.36
  10  -2  16    6.01    0.26
   2  10 -14   20.86    0.60
  10   2 -14   19.82    0.45
 -10   2  14   19.12    0.77
   2 -10  14   20.35    0.60
  10  -2  14   19.49    0.53
   2 -10  14   20.97    0.61
 -10  -2 -14   19.90    0.79
   2 -10  12   29.84    0.80
  10  -2  12   30.21    0.83
   2  10 -12   30.43    0.75
 -10  -2 -12   28.34    1.00
 -10   2  12   30.06    0.98
  10   2 -12   30.27    0.66
   2  10 -12   29.95    0.79
  -2 -10 -12   30.89    0.75
   2 -10  12   30.20    0.80
  10  -2  12   28.24    0.75
  10  -2  10   57.79    1.52
  10  -2  10   55.67    1.46
  -2 -10 -10   56.03    1.57
   2  10 -10   56.40    1.47
  10   2 -10   56.28    1.36
   2  10 -10   55.66    1.43
 -10   2  10   57.80    1.65
 -10  -2 -10   56.00    1.69
   2 -10  10   55.83    1.47
  10  -2  10   57.45    1.49
  -2 -10 -10   56.54    1.42
   2 -10  10   58.59    1.48
   2 -10   8    1.73    0.19
  10  -2   8    1.72    0.18
  -2 -10  -8    1.76    0.22
   2  10  -8    1.75    0.18
   2  10  -8    1.48    0.15
  10  -2   8    1.65    0.23
 -10  -2  -8    1.48    0.31
  10  -2   8    1.55    0.19
  -2 -10  -6   14.35    0.52
  10  -2   6   14.49    0.51
  10  -2   6   13.09    0.46
  10  -2   6   13.74    0.47
   2  10  -6   13.83    0.44
  10   2  -6   13.11    0.64
   2 -10   6   13.53    0.47
 -10  -2  -6   13.99    0.43
   2  10  -6   12.04    0.45
 -10  -2  -6   14.14    0.66
  10  -2   6   14.50    0.56
  10  -2   4   62.46    1.54
  -2 -10  -4   62.87    1.60
 -10  -2  -4   60.53    1.78
  -2  10   4   61.47    1.54
  10   2  -4   63.02    1.44
  10  -2   4   60.78    1.53
  10  -2   4   63.37    1.61
   2 -10   4   55.39    1.45
  10   2  -4   60.74    1.77
   2 -10   4   61.90    1.55
 -10  -2  -4   61.95    1.54
   2  10  -4   62.13    1.53
 -10   2   4   57.83    1.64
  10  -2   4   61.81    1.68
  -2 -10  -2   26.26    0.77
  10  -2   2   26.34    0.90
 -10   2   2   26.80    0.81
 -10  -2  -2   26.23    0.77
   2  10  -2   26.33    0.72
  10   2  -2   23.14    0.89
  -2  10   2   26.22    0.71
  10  -2   2   26.61    0.71
  10  -2   2   26.45    0.71
  10  -2   2   26.67    0.82
 -10  -2   0    8.30    0.38
  10  -2   0    8.63    0.30
  10  -2   0    8.92    0.50
  10  -2   0    8.35    0.30
  -2  10   0    8.56    0.31
 -10   2   0    8.31    0.37
  10  -2   0    8.42    0.42
   2  10   0    8.74    0.33
  -2 -10   0    8.57    0.35
  10  -2  -2   27.16    0.69
  10  -2  -2   25.77    0.86
 -10   2  -2   26.26    0.76
  -2  10  -2   26.12    0.73
  10  -2  -2   25.23    0.68
  -2 -10   2   25.74    0.76
 -10  -2   2   26.05    0.85
  10  -2  -4   64.58    1.53
  -2  10  -4   63.35    1.62
 -10  -2   4   65.40    1.77
  -2 -10   4   65.67    1.63
  10   2   4   62.71    1.73
  10  -2  -4   65.89    1.54
  -2  10  -4   63.48    1.61
 -10   2  -6   15.47    0.68
   2 -10  -6   15.64    0.49
 -10  -2   6   15.38    0.64
  10  -2  -6   14.41    0.37
  10   2   6   14.62    0.50
  -2  10  -6   14.68    0.47
  10   2   6   15.10    0.57
  10   2   8    1.31    0.21
  -2 -10   8    1.63    0.16
 -10   2  -8    1.49    0.31
   2 -10  -8    1.56    0.19
  -2  10  -8    1.90    0.18
  10   2   8    1.80    0.20
   2 -10 -10   56.79    1.49
  10   2  10   54.95    1.53
  -2  10 -10   56.79    1.45
  -2 -10  10   55.89    1.44
 -10   2 -10   57.07    1.68
  -2  10 -12   29.39    0.89
  10   2  12   30.82    0.94
  -2 -10  12   29.48    0.84
 -10  -2  12   29.65    1.10
   2 -10 -12   30.62    0.92
 -10   2 -12   31.44    1.09
  10   2  14   22.23    0.71
  -2  10 -14   21.04    0.70
   2 -10 -14   21.24    0.74
 -10  -2  14   20.71    0.90
 -10   2 -14   22.61    0.87
  -2 -10  14   20.69    0.65
  -2  10 -16    6.42    0.36
  10   2  16    6.47    0.36
 -10   2 -16    6.31    0.49
 -10  -2  16    5.68    0.53
  -2 -10  16    6.68    0.32
  10   2  18    5.57    0.34
   2  10  18    5.42    0.31
  -2  10 -18    5.54    0.34
 -10  -2  18    4.99    0.51
 -10   2 -18    5.04    0.46
  -2 -10  18    5.29    0.30
  -2  10 -20    8.99    0.46
 -10  -2  20    8.68    0.64
   2  10  20    9.75    0.42
  -2 -10  20    9.34    0.40
   2  10  22    2.65    0.25
  -2  10 -22    2.61    0.31
  -2 -10  22    2.62    0.24
 -10  -2  22    2.73    0.48
 -10   2 -22    2.72    0.43
  -2 -10  24    0.88    0.21
 -10  -2  24    0.61    0.42
  -2  10 -24    1.03    0.29
 -10   2 -24    1.26    0.40
 -10  -2  26    0.45    0.41
  -2  10 -26    1.20    0.30
  -2  10 -28    0.72    0.30
 -10  -2  28    1.01    0.44
   3  10 -27    0.02    0.24
  10  -3  27    0.04    0.30
 -10   3  27    0.11    0.33
   3 -10  27   -0.02    0.25
 -10  -3 -27    0.04    0.41
   3  10 -25    0.52    0.25
  10  -3  25    0.56    0.27
  -3 -10 -25    1.14    0.38
 -10  -3 -25    1.10    0.41
 -10   3  25    0.64    0.35
   3  10 -23    0.45    0.22
  -3 -10 -23    0.35    0.31
 -10   3  23    0.41    0.33
  10  -3  23    0.84    0.27
   3 -10  23    0.50    0.23
 -10  -3 -23    0.55    0.34
 -10   3  21    3.61    0.43
  -3 -10 -21    3.62    0.39
   3  10 -21    3.69    0.30
  10   3 -21    3.42    0.19
 -10  -3 -21    3.32    0.45
   3 -10  21    3.61    0.30
  -3  10  19    1.02    0.15
   3  10 -19    1.18    0.21
  10  -3  19    0.92    0.24
 -10   3  19    1.13    0.33
  10  -3  19    1.46    0.22
   3 -10  19    0.85    0.23
 -10  -3 -19    0.87    0.35
  -3 -10 -19    0.89    0.28
  10   3 -19    1.28    0.14
 -10   3  19    0.84    0.08
  10  -3  17    3.99    0.32
  10   3 -17    4.20    0.19
  -3 -10 -17    4.13    0.38
 -10   3  17    4.24    0.44
   3 -10  17    3.85    0.30
  -3  10  17    4.26    0.23
   3  10 -17    4.17    0.27
   3  10 -17    3.34    0.22
  10  -3  17    4.33    0.29
   3 -10  17    3.81    0.29
 -10   3  17    3.41    0.14
 -10  -3 -17    3.67    0.45
 -10   3  15   13.92    0.67
  10   3 -15   13.35    0.39
   3 -10  15   13.81    0.51
 -10   3  15   12.05    0.34
   3 -10  15   13.77    0.52
 -10  -3 -15   13.29    0.68
  10  -3  15   12.67    0.44
   3  10 -15   13.44    0.49
 -10   3  13    3.17    0.13
   3  10 -13    3.95    0.26
  10   3 -13    3.84    0.18
  -3 -10 -13    3.16    0.18
 -10   3  13    3.61    0.39
   3 -10  13    3.44    0.25
  10  -3  13    3.67    0.23
   3 -10  13    4.18    0.27
 -10  -3 -13    3.33    0.39
  10  -3  13    3.65    0.27
   3  10 -11    1.41    0.17
  10  -3  11    1.49    0.22
 -10   3  11    1.46    0.31
  -3 -10 -11    1.30    0.24
   3  10 -11    1.35    0.18
  -3 -10 -11    1.34    0.14
  10   3 -11    1.38    0.12
  10  -3  11    1.40    0.20
   3 -10  11    1.64    0.21
 -10   3  11    1.37    0.09
  10  -3  11    1.15    0.18
 -10  -3 -11    1.61    0.34
   3 -10  11    1.63    0.21
   3  10 -11    1.30    0.11
  10  -3   9   33.59    0.95
 -10   3   9   35.47    1.10
 -10   3   9   32.69    0.83
   3  10  -9   34.41    0.95
  -3 -10  -9   35.07    0.88
   3  10  -9   34.00    0.91
  10  -3   9   34.22    0.95
  10   3  -9   34.47    0.86
 -10  -3  -9   35.52    1.17
   3  10  -9   32.96    0.86
   3 -10   9   34.88    0.96
  10  -3   9   33.13    0.97
  -3 -10  -9   35.14    1.06
  10  -3   9   33.52    0.99
 -10   3   7   11.58    0.34
  -3 -10  -7   11.14    0.49
  10  -3   7   11.30    0.42
   3  10  -7   12.03    0.36
  10  -3   7   11.66    0.43
 -10  -3  -7   12.07    0.37
   3  10  -7   11.63    0.42
   3  10  -7   11.89    0.39
 -10  -3  -7   12.61    0.62
   3 -10   7   12.31    0.44
  10  -3   7   12.13    0.45
  10  -3   7   12.06    0.49
  10   3  -7   11.69    0.61
  -3 -10  -5   18.09    0.62
   3  10  -5   16.38    0.50
   3 -10   5   16.52    0.44
  10  -3   5   17.16    0.55
   3  10  -5   16.51    0.55
   3 -10   5   17.97    0.56
  10   3  -5   18.70    0.76
 -10  -3  -5   17.57    0.76
  10  -3   5   18.36    0.55
  -3  10   5   18.83    0.56
  10  -3   5   18.30    0.66
 -10  -3  -5   18.75    0.54
   3  10  -5   18.34    0.53
  10  -3   5   18.59    0.61
   3 -10   5   17.30    0.54
   3  10  -3    7.85    0.31
  -3  10   3    8.63    0.33
 -10  -3  -3    8.09    0.35
  10  -3   3    7.94    0.31
   3 -10   3    6.87    0.32
  10  -3   3    7.95    0.30
  10   3  -3    8.54    0.48
 -10   3   3    8.30    0.39
  10  -3   3    7.64    0.45
  10  -3   3    6.93    0.36
  -3  10   3    8.11    0.29
  -3 -10  -3    8.15    0.37
 -10   3   1    6.40    0.32
  10  -3   1    5.66    0.34
   3  10  -1    6.14    0.27
 -10  -3  -1    6.32    0.33
  10  -3   1    5.97    0.24
  -3  10   1    6.49    0.26
  10  -3   1    6.41    0.26
  10  -3   1    5.45    0.41
  10   3  -1    5.70    0.39
  -3  10   1    6.08    0.27
  -3 -10  -1    6.52    0.31
 -10   3  -1    6.23    0.30
  -3  10  -1    6.77    0.27
  10  -3  -1    6.28    0.25
  10  -3  -1    5.52    0.35
  10  -3  -1    6.53    0.24
  -3 -10   1    6.54    0.31
 -10  -3   1    6.72    0.37
  10  -3  -3    7.21    0.24
  10  -3  -3    6.95    0.41
 -10  -3   3    7.95    0.43
  -3 -10   3    7.71    0.35
  10  -3  -3    7.14    0.26
  -3  10  -3    7.86    0.31
  -3  10  -5   16.90    0.56
  10  -3  -5   18.15    0.46
  10  -3  -5   18.82    0.49
  -3 -10   5   18.34    0.61
   3 -10  -5   18.49    0.58
  -3  10  -5   17.85    0.56
  10   3   5   17.88    0.66
 -10  -3   5   19.05    0.74
  -3  10  -7   10.72    0.41
  -3  10  -7   11.60    0.41
   3 -10  -7   11.17    0.43
 -10  -3   7   11.56    0.58
  10   3   7   12.13    0.49
  10   3   9   34.19    1.04
  -3  10  -9   34.06    0.96
 -10   3  -9   37.45    1.18
   3 -10  -9   34.85    1.00
  -3 -10  11    1.40    0.17
 -10   3 -11    1.68    0.36
  10   3  11    1.05    0.23
   3 -10 -11    1.42    0.24
  -3  10 -13    3.76    0.28
 -10  -3  13    3.50    0.44
  10   3  13    3.94    0.29
 -10   3 -13    3.31    0.38
   3 -10 -13    3.88    0.34
  -3 -10  13    3.76    0.23
  10   3  15   14.11    0.54
   3 -10 -15   14.61    0.59
 -10  -3  15   12.61    0.72
  -3 -10  15   12.54    0.46
 -10   3 -15   14.95    0.70
  -3  10 -15   13.69    0.53
  -3 -10  17    4.03    0.26
 -10  -3  17    4.86    0.49
 -10   3 -17    4.18    0.42
  10   3  17    4.39    0.31
  -3  10 -17    4.08    0.30
   3  10  19    1.30    0.22
 -10   3 -19    1.26    0.37
  -3 -10  19    0.90    0.18
  -3  10 -19    0.78    0.21
 -10  -3  19    1.36    0.44
  10   3  19    1.00    0.23
  -3  10 -21    3.34    0.33
   3  10  21    3.41    0.28
  -3 -10  21    3.07    0.25
 -10  -3  21    3.73    0.51
 -10   3 -21    2.92    0.41
 -10  -3  23    1.18    0.46
  -3  10 -23    0.56    0.25
   3  10  23    0.51    0.21
 -10   3 -23    0.34    0.35
  -3 -10  23    0.64    0.19
 -10  -3  25    0.89    0.44
  -3  10 -25    0.53    0.28
  -3  10 -27   -0.13    0.28
 -10  -3  27   -0.40    0.43
 -10  -4 -28    1.03    0.45
   4 -10  28    0.84    0.30
   4  10 -26    3.24    0.32
  -4 -10 -26    2.48    0.44
 -10   4  26    3.17    0.41
   4 -10  26    3.57    0.34
 -10  -4 -26    2.53    0.47
 -10   4  24    0.18    0.30
   4  10 -24   -0.05    0.21
  -4 -10 -24    0.56    0.36
  10  -4  24   -0.12    0.25
   4 -10  24    0.21    0.22
 -10  -4 -24   -0.27    0.39
   4  10 -22    3.85    0.31
  -4 -10 -22    3.72    0.42
  10  -4  22    3.99    0.36
 -10   4  22    4.35    0.44
   4 -10  22    3.75    0.33
 -10  -4 -22    3.41    0.48
  10   4 -20   14.23    0.45
  -4 -10 -20   13.01    0.70
   4  10 -20   13.49    0.54
  10  -4  20   14.66    0.61
   4 -10  20   14.47    0.59
  -4  10  20   14.67    0.44
 -10  -4 -20   14.74    0.77
 -10   4  20   14.21    0.70
  -4  10  18    2.07    0.16
  -4 -10 -18    1.76    0.32
 -10   4  18    2.51    0.38
  10  -4  18    1.71    0.25
  10  -4  18    1.56    0.18
   4 -10  18    1.96    0.24
  10  -4  18    2.05    0.24
  10   4 -18    1.84    0.16
   4 -10  18    2.06    0.26
   4  10 -18    2.03    0.23
 -10  -4 -18    1.94    0.39
 -10   4  18    1.81    0.13
  -4 -10 -16    8.86    0.53
  10  -4  16    9.87    0.46
  10  -4  16    8.07    0.36
 -10   4  16    9.00    0.54
   4 -10  16    9.41    0.43
   4 -10  16    9.90    0.45
   4  10 -16    8.56    0.38
   4  10 -16    8.87    0.40
 -10  -4 -16    8.89    0.58
 -10   4  16    8.98    0.28
  -4  10  16    9.06    0.33
  10   4 -16    9.09    0.32
   4  10 -14   27.50    0.80
  10   4 -14   28.86    0.75
   4 -10  14   29.24    0.87
 -10   4  14   27.33    0.71
  10  -4  14   26.39    0.80
   4 -10  14   28.57    0.86
 -10  -4 -14   28.31    1.05
 -10   4  14   28.50    1.00
   4  10 -14   29.02    0.84
 -10   4  12   18.62    0.50
  10  -4  12   18.69    0.62
   4 -10  12   18.28    0.63
  10   4 -12   18.89    0.52
   4 -10  12   17.45    0.61
   4  10 -12   19.09    0.56
  10  -4  12   18.48    0.60
  10  -4  12   17.51    0.61
   4  10 -12   18.62    0.60
 -10  -4 -12   18.16    0.80
   4  10 -12   18.35    0.57
 -10   4  12   19.56    0.77
  10  -4  10   41.18    1.15
  -4 -10 -10   40.54    1.24
  -4 -10 -10   41.15    1.02
  10  -4  10   36.35    1.12
  10  -4  10   41.14    1.13
  10   4 -10   41.50    1.04
 -10   4  10   40.23    1.01
  10  -4  10   42.29    1.12
   4 -10  10   40.72    1.13
   4  10 -10   42.03    1.11
 -10  -4 -10   41.20    1.34
 -10   4  10   42.84    1.26
   4  10 -10   39.00    1.06
   4  10 -10   41.88    1.06
  10  -4   8   50.70    1.29
  -4 -10  -8   49.13    1.39
   4  10  -8   49.53    1.27
 -10   4   8   47.63    1.18
  10  -4   8   48.46    1.29
   4  10  -8   49.43    1.22
  10   4  -8   46.77    1.48
 -10  -4  -8   51.30    1.51
 -10   4   8   47.85    1.38
   4 -10   8   49.55    1.29
  10  -4   8   49.82    1.27
  10  -4   8   48.82    1.33
   4  10  -8   45.81    1.22
  -4 -10  -6    1.97    0.25
   4  10  -6    2.48    0.17
  10  -4   6    2.38    0.26
  -4  10   6    2.29    0.19
  10   4  -6    2.05    0.08
 -10   4   6    2.41    0.14
 -10  -4  -6    2.19    0.17
  10  -4   6    2.35    0.19
   4  10  -6    2.41    0.20
  -4  10   6    2.37    0.16
   4 -10   6    2.29    0.19
   4 -10   6    1.96    0.20
   4  10  -6    2.59    0.17
  10   4  -6    1.84    0.31
  10  -4   6    2.80    0.19
  10  -4   6    3.08    0.24
 -10  -4  -6    2.71    0.35
   4  10  -4   68.36    1.68
  10  -4   4   67.45    1.69
 -10   4   4   65.90    1.64
 -10  -4  -4   67.27    1.72
  10  -4   4   68.36    1.70
  -4  10   4   68.55    1.66
   4 -10   4   67.55    1.69
  10   4  -4   67.19    1.90
  10  -4   4   67.62    1.85
  -4  10   4   67.66    1.70
  10  -4   4   68.65    1.76
  -4 -10  -4   68.91    1.80
   4  10  -4   67.21    1.67
  10  -4   2   65.74    1.74
  10  -4   2   65.29    1.63
   4  10  -2   64.94    1.65
  -4  10   2   66.44    1.63
 -10   4   2   64.79    1.72
  10  -4   2   67.62    1.65
  10  -4   2   66.05    1.85
   4  10  -2   67.85    1.64
  10   4  -2   65.09    1.83
  -4  10   2   65.28    1.66
  -4 -10  -2   65.97    1.74
 -10  -4  -2   66.38    1.72
  10  -4   0    3.48    0.19
  10  -4   0    3.12    0.17
 -10  -4   0    2.52    0.36
  10  -4   0    3.66    0.28
  -4  10   0    3.18    0.18
  10   4   0    3.02    0.30
  10  -4   0    3.51    0.35
  -4 -10   0    3.39    0.27
  -4  10   0    2.95    0.21
 -10  -4   0    2.84    0.27
 -10  -4   2   63.55    1.77
  10  -4  -2   65.24    1.59
  10  -4  -2   65.20    1.56
  -4  10  -2   64.90    1.62
  10  -4  -2   63.79    1.74
  -4 -10   2   62.79    1.70
   4 -10  -4   64.42    1.70
  -4 -10   4   65.31    1.75
  -4  10  -4   68.25    1.67
  10  -4  -4   67.07    1.61
 -10   4  -4   63.93    1.67
  10  -4  -4   66.43    1.57
 -10  -4   4   67.94    1.85
  10   4   6    2.95    0.27
  -4  10  -6    2.56    0.20
 -10   4  -6    2.33    0.21
  10  -4  -6    2.32    0.08
   4 -10  -6    2.79    0.23
  -4  10  -6    2.72    0.20
 -10  -4   6    2.98    0.36
  10   4   8   45.93    1.32
  -4  10  -8   46.29    1.24
  -4  10  -8   47.17    1.24
  10  -4  -8   46.56    1.41
   4 -10  -8   47.41    1.29
 -10   4  -8   47.72    1.27
   4 -10 -10   41.59    1.19
  -4  10 -10   40.64    1.12
 -10   4 -10   41.56    1.32
  10   4  10   40.41    1.19
 -10   4 -12   21.64    0.85
   4 -10 -12   20.54    0.73
  10   4  12   21.29    0.69
  10   4  14   28.02    0.88
  -4  10 -14   28.12    0.87
   4 -10 -14   29.96    0.96
 -10  -4  14   29.26    1.11
  -4 -10  14   28.00    0.79
 -10   4 -14   25.54    1.00
  -4 -10  16    8.14    0.35
  -4  10 -16    8.57    0.41
  10   4  16    8.25    0.42
 -10   4 -16    8.13    0.53
 -10  -4  16    8.46    0.61
   4  10  18    2.64    0.27
  10   4  18    1.97    0.25
  -4  10 -18    2.54    0.26
 -10  -4  18    3.18    0.47
  -4 -10  18    2.63    0.21
 -10   4 -18    2.32    0.37
  -4 -10  20   14.04    0.49
  -4  10 -20   14.77    0.60
 -10   4 -20   14.67    0.73
 -10  -4  20   13.86    0.81
   4  10  22    4.22    0.32
  -4 -10  22    4.34    0.28
  -4  10 -22    3.98    0.36
 -10  -4  22    4.59    0.55
 -10   4 -22    4.26    0.47
  -4  10 -24   -0.02    0.26
 -10  -4  24    0.55    0.42
  -4  10 -26    3.19    0.37
 -10  -4  26    3.85    0.53
 -10  -4  28    0.75    0.47
   5 -10  27    0.02    0.23
 -10  -5 -27    0.88    0.44
  -5 -10 -25    2.36    0.44
   5  10 -25    2.98    0.30
  10  -5  25    3.40    0.36
   5 -10  25    3.10    0.34
 -10   5  25    3.39    0.41
 -10  -5 -25    3.09    0.50
   5  10 -23    4.67    0.33
 -10   5  23    4.20    0.44
   5 -10  23    4.45    0.37
  -5 -10 -23    3.99    0.46
  10  -5  23    5.01    0.40
 -10  -5 -23    3.66    0.48
  10   5 -21    3.05    0.22
  -5 -10 -21    2.86    0.40
  10  -5  21    3.56    0.34
   5 -10  21    3.53    0.33
   5  10 -21    3.29    0.29
 -10  -5 -21    2.83    0.47
 -10   5  21    2.63    0.38
  10  -5  19   10.41    0.51
  -5 -10 -19   11.20    0.64
  10   5 -19   10.18    0.38
   5 -10  19   11.33    0.51
 -10  -5 -19   10.98    0.67
 -10   5  19   10.20    0.60
   5  10 -19   10.11    0.44
  -5  10  19   10.36    0.33
 -10   5  19   10.70    0.35
  10  -5  17   19.94    0.72
   5  10 -17   20.36    0.69
  10  -5  17   18.95    0.69
   5  10 -17   18.65    0.64
  10   5 -17   19.52    0.58
   5 -10  17   19.06    0.69
   5 -10  17   21.03    0.72
 -10   5  17   21.33    0.83
 -10  -5 -17   19.84    0.89
 -10   5  17   19.41    0.55
  -5 -10 -17   18.55    0.82
 -10   5  15    4.87    0.40
   5  10 -15    5.23    0.31
  10   5 -15    4.59    0.23
   5 -10  15    5.08    0.32
   5  10 -15    4.87    0.28
 -10  -5 -15    5.21    0.46
   5 -10  15    5.13    0.32
  10  -5  15    5.05    0.34
 -10   5  15    4.87    0.21
  -5  10  15    4.68    0.21
   5  10 -13   39.09    1.08
 -10  -5 -13   39.03    1.32
  10   5 -13   38.86    1.01
   5  10 -13   40.16    1.09
 -10   5  13   38.56    1.22
 -10   5  13   38.54    0.98
  10  -5  13   39.75    1.08
   5 -10  13   41.17    1.13
  10  -5  11   48.53    1.28
  10   5 -11   48.18    1.20
   5  10 -11   48.60    1.20
  10  -5  11   45.91    1.27
   5 -10  11   48.67    1.30
  10  -5  11   46.63    1.28
  10   5 -11   44.86    1.49
  -5 -10 -11   43.12    1.14
 -10   5  11   48.51    1.17
   5  10 -11   47.69    1.26
 -10   5  11   47.40    1.40
   5  10 -11   50.04    1.27
 -10  -5 -11   50.53    1.53
  -5  10   9   35.98    0.98
  10  -5   9   34.74    1.01
  10  -5   9   35.70    1.01
   5  10  -9   36.58    0.99
   5 -10   9   32.44    0.99
  10  -5   9   36.25    1.01
   5  10  -9   35.84    0.94
 -10   5   9   35.58    0.91
  -5 -10  -9   35.60    1.13
  10   5  -9   33.27    1.19
 -10   5   9   36.52    1.10
  10   5  -9   34.94    0.93
 -10  -5  -9   36.12    1.22
   5 -10   9   35.33    1.01
   5  10  -9   36.71    0.98
  -5  10   9   36.04    0.91
  10  -5   9   36.22    1.03
  -5 -10  -7   50.39    1.39
  10   5  -7   49.42    1.48
   5  10  -7   51.39    1.26
  10  -5   7   49.79    1.26
   5 -10   7   50.79    1.26
 -10  -5  -7   50.45    1.19
  10  -5   7   51.92    1.28
  -5  10   7   50.61    1.18
 -10   5   7   50.51    1.18
  10  -5   7   51.56    1.30
 -10   5   7   49.16    1.36
  -5  10   7   50.07    1.25
 -10  -5  -7   45.68    1.47
   5  10  -7   50.59    1.21
  10  -5   7   50.08    1.33
   5 -10   7   49.83    1.28
   5  10  -7   48.12    1.24
  10  -5   5   80.40    1.96
   5  10  -5   78.95    1.96
  -5  10   5   78.27    1.91
   5 -10   5   77.65    1.96
 -10   5   5   77.66    1.91
  -5  10   5   79.38    1.96
 -10  -5  -5   82.84    1.97
   5 -10   5   80.04    1.96
  10  -5   5   79.63    2.02
  10   5  -5   76.94    2.16
  10  -5   5   80.26    2.09
  10  -5   5   78.12    1.98
   5  10  -5   79.02    1.93
  -5 -10  -5   76.67    2.09
   5  10  -3    7.17    0.31
   5  10  -3    7.79    0.30
  10  -5   3    7.59    0.30
  10  -5   3    7.54    0.46
  -5  10   3    7.50    0.28
   5 -10   3    7.80    0.31
  10  -5   3    7.39    0.31
 -10   5   3    7.62    0.28
  -5  10   3    7.09    0.31
  10   5  -3    7.53    0.45
 -10  -5  -3    7.22    0.35
  10  -5   3    7.87    0.38
  -5 -10  -3    7.74    0.40
 -10   5   1   74.45    1.86
  10  -5   1   77.87    1.85
  -5  10   1   76.08    1.86
 -10   5   1   75.26    1.84
 -10  -5  -1   68.07    2.14
  10  -5   1   77.09    1.88
   5  10  -1   75.03    1.90
  10  -5   1   75.31    2.09
  -5  10   1   76.03    1.89
  10   5  -1   75.21    2.05
  -5 -10  -1   77.21    2.01
  10  -5   1   78.81    1.99
 -10  -5  -1   76.78    1.99
 -10  -5   1   80.56    2.09
  10  -5  -1   79.28    2.06
  10  -5  -1   78.37    1.89
 -10   5  -1   77.08    1.92
  -5  10  -1   77.36    1.93
  -5 -10   1   78.37    2.06
  -5  10  -1   78.52    1.95
  10  -5  -1   80.46    1.92
  10   5   1   77.54    2.09
  -5  10  -3    7.75    0.31
  10  -5  -3    7.43    0.28
  10  -5  -3    7.06    0.24
  -5 -10   3    7.73    0.41
   5 -10  -3    7.91    0.35
 -10   5  -3    8.07    0.32
  -5  10  -5   75.15    1.90
  10  -5  -5   75.97    1.78
 -10   5  -5   77.26    1.91
   5 -10  -5   73.96    1.93
  -5 -10   5   76.03    2.01
 -10   5  -7   48.33    1.30
  -5  10  -7   47.41    1.28
  10  -5  -7   48.57    1.44
  -5  10  -7   50.15    1.29
   5 -10  -7   48.49    1.33
   5 -10  -9   37.33    1.10
  10   5   9   37.64    1.11
  10  -5  -9   36.38    1.19
  -5  10  -9   36.16    1.03
  -5  10  -9   37.05    1.03
 -10   5  -9   36.47    1.05
 -10   5 -11   45.94    1.30
   5 -10 -11   47.44    1.36
   5 -10 -13   39.82    1.21
  10   5  13   40.80    1.15
 -10   5 -13   39.61    1.29
 -10   5 -13   37.41    1.15
  10   5  15    5.13    0.33
 -10   5 -15    5.80    0.45
  -5  10 -15    5.14    0.33
 -10   5 -17   20.99    0.85
  10   5  17   20.19    0.71
 -10  -5  17   19.77    0.95
  -5 -10  17   19.49    0.60
  -5  10 -17   19.80    0.71
 -10   5 -19    9.60    0.60
   5  10  19   10.46    0.47
  10   5  19   10.59    0.49
  -5  10 -19    9.49    0.49
  -5 -10  19   10.39    0.39
 -10  -5  19   11.21    0.72
  -5  10 -21    3.25    0.33
  -5 -10  21    3.40    0.23
   5  10  21    4.06    0.31
 -10  -5  21    3.20    0.51
 -10   5 -21    3.92    0.46
 -10  -5  23    3.90    0.58
  -5  10 -23    5.31    0.41
  -5  10 -25    3.34    0.38
 -10  -5  25    3.28    0.55
 -10  -5  27    0.78    0.48
  -6 -10 -26    1.71    0.44
  10  -6  26    1.36    0.31
 -10   6  26    0.78    0.30
 -10  -6 -26    0.96    0.42
  -6 -10 -24    0.53    0.37
   6  10 -24    0.96    0.23
  10  -6  24    0.88    0.30
 -10   6  24    1.32    0.32
   6 -10  24    0.81    0.28
 -10  -6 -24    0.51    0.40
  -6 -10 -22    2.66    0.40
   6  10 -22    2.88    0.27
  10  -6  22    2.91    0.35
 -10   6  22    2.82    0.38
 -10  -6 -22    2.81    0.46
  10   6 -22    2.54    0.23
  10   6 -20    6.84    0.32
  10  -6  20    6.66    0.42
   6  10 -20    6.97    0.37
 -10   6  20    6.97    0.49
   6 -10  20    6.88    0.42
  -6 -10 -20    7.15    0.55
 -10  -6 -20    6.72    0.58
  -6 -10 -18    3.09    0.41
  10   6 -18    3.89    0.23
   6  10 -18    4.11    0.29
  10  -6  18    4.01    0.32
  10  -6  18    4.04    0.34
   6 -10  18    4.27    0.33
   6 -10  18    3.77    0.32
 -10   6  18    3.86    0.39
 -10  -6 -18    4.07    0.46
 -10   6  18    3.86    0.21
  10   6 -16    6.58    0.30
 -10  -6 -16    7.35    0.55
  10  -6  16    7.26    0.41
 -10   6  16    7.07    0.47
   6 -10  16    7.43    0.40
   6  10 -16    6.95    0.34
   6  10 -16    7.35    0.41
  -6 -10 -16    5.90    0.48
 -10   6  16    7.09    0.28
   6 -10  16    6.14    0.37
   6  10 -14    8.79    0.42
   6 -10  14    8.96    0.43
  10   6 -14    8.39    0.32
   6  10 -14    8.08    0.36
  10  -6  14    7.40    0.40
  -6  10  14    7.66    0.25
  10   6 -14    7.48    0.57
 -10   6  14    8.35    0.30
 -10   6  14    7.40    0.47
 -10  -6 -14    7.53    0.54
  10  -6  12   26.80    0.84
  -6  10  12   27.24    0.70
   6  10 -12   29.16    0.76
   6  10 -12   24.98    0.80
  10   6 -12   28.28    1.06
 -10   6  12   29.18    0.95
  10  -6  12   27.71    0.81
  10   6 -12   27.45    0.76
   6 -10  12   26.63    0.85
  -6  10  12   26.64    0.80
   6  10 -12   28.69    0.86
 -10   6  12   27.36    0.74
 -10  -6 -12   29.23    1.06
  -6 -10 -10   19.43    0.76
   6  10 -10   19.11    0.61
  10  -6  10   20.23    0.64
  -6  10  10   20.12    0.61
  10  -6  10   19.63    0.63
  10  -6  10   18.75    0.64
   6 -10  10   18.44    0.63
   6  10 -10   18.95    0.55
  10   6 -10   19.31    0.57
 -10   6  10   18.25    0.71
  10   6 -10   18.07    0.81
 -10   6  10   19.78    0.55
   6 -10  10   19.95    0.66
  -6 -10 -10   18.00    0.50
 -10  -6 -10   19.03    0.83
   6  10 -10   19.79    0.65
  -6  10  10   19.83    0.52
  10  -6   8   20.13    0.62
  -6  10   8   20.01    0.60
  10   6  -8   17.41    0.47
  10  -6   8   20.22    0.65
  -6  10   8   20.91    0.54
   6 -10   8   20.33    0.63
  10  -6   8   20.49    0.65
 -10   6   8   20.67    0.71
   6  10  -8   19.92    0.61
   6 -10   8   18.54    0.50
   6  10  -8   21.03    0.57
  10   6  -8   18.40    0.78
 -10  -6  -8   20.09    0.53
   6 -10   8   18.74    0.64
  10  -6   8   20.21    0.67
   6  10  -8   21.02    0.65
 -10   6   8   21.38    0.56
  -6 -10  -8   21.45    0.77
  10  -6   6    6.63    0.31
  10   6  -6    6.68    0.21
 -10   6   6    6.41    0.37
   6 -10   6    6.39    0.31
  10  -6   6    6.77    0.36
 -10   6   6    7.01    0.27
 -10  -6  -6    6.84    0.30
   6  10  -6    6.44    0.27
  10   6  -6    6.79    0.46
  10  -6   6    7.43    0.40
   6  10  -6    7.07    0.32
   6 -10   6    6.94    0.29
  -6  10   6    6.87    0.25
  -6 -10  -6    6.76    0.42
   6  10  -6    6.96    0.34
  -6  10   6    6.82    0.32
  10  -6   6    7.44    0.34
   6  10  -4   44.69    1.22
   6 -10   4   45.47    1.19
  10  -6   4   44.25    1.19
 -10  -6  -4   47.99    1.25
  -6  10   4   45.60    1.15
   6  10  -4   46.17    1.17
 -10   6   4   44.25    1.16
  10  -6   4   44.61    1.26
  10  -6   4   46.49    1.22
  10  -6   4   46.54    1.35
  -6 -10  -4   44.59    1.34
  10   6  -4   45.19    1.37
  -6  10   4   46.76    1.20
 -10   6   2   33.09    0.85
  -6  10   2   32.78    0.87
  10  -6   2   33.17    0.88
 -10   6   2   32.58    0.87
   6 -10   2   29.54    0.91
   6 -10   2   32.35    0.89
 -10  -6  -2   32.70    0.99
  10  -6   2   34.03    1.10
 -10  -6  -2   33.01    1.15
  10  -6   2   34.67    0.91
   6  10  -2   33.02    0.93
  -6  10   2   32.79    0.90
  10  -6   2   34.04    0.98
  10   6  -2   32.38    1.05
  -6 -10  -2   33.38    1.04
 -10   6   0   23.01    0.64
  10  -6   0   22.87    0.62
   6 -10   0   20.81    0.67
  -6  10   0   22.79    0.64
  -6  10   0   22.31    0.67
  10   6   0   22.16    0.79
   6  10   0   22.57    0.70
 -10  -6   0   21.21    0.91
  -6 -10   0   21.45    0.78
  10  -6   0   22.47    0.65
 -10   6   0   22.38    0.65
  10  -6   0   22.42    0.75
 -10   6  -2   32.36    0.88
  -6  10  -2   32.93    0.88
  10  -6  -2   32.66    0.83
   6 -10  -2   32.56    0.95
  -6  10  -2   31.95    0.90
  -6 -10   2   31.15    1.03
   6  10   2   32.92    0.95
  10   6   2   31.92    1.01
  10  -6  -2   32.21    0.87
 -10   6  -4   42.07    1.13
  10  -6  -4   40.85    1.03
  10  -6  -4   44.19    1.09
   6 -10  -4   42.31    1.18
  -6 -10   4   43.65    1.29
  10   6   4   42.04    1.23
  -6  10  -4   43.79    1.13
 -10   6  -6    6.23    0.32
  -6  10  -6    6.71    0.31
   6 -10  -6    5.84    0.35
  10  -6  -6    6.22    0.41
 -10   6  -8   19.15    0.63
  -6  10  -8   19.63    0.62
   6 -10  -8   19.80    0.69
  10  -6  -8   18.55    0.75
  -6  10  -8   17.53    0.60
  10   6  10   18.74    0.69
  10  -6 -10   18.91    0.79
   6 -10 -10   18.22    0.69
  -6  10 -10   18.77    0.63
 -10   6 -10   19.37    0.65
 -10   6 -12   26.85    0.85
   6 -10 -12   26.30    0.91
  10   6  14    9.10    0.43
 -10   6 -14    8.24    0.42
   6 -10 -14    8.99    0.51
  10   6  16    7.35    0.40
  -6  10 -16    7.03    0.40
 -10   6 -16    7.48    0.52
  10   6  18    3.90    0.32
  -6  10 -18    3.82    0.33
 -10   6 -18    3.92    0.43
   6  10  18    4.55    0.33
  -6  10 -20    6.14    0.42
 -10  -6  20    7.83    0.65
   6  10  20    7.24    0.39
 -10   6 -20    6.77    0.52
 -10  -6  22    2.34    0.50
  -6  10 -22    2.61    0.32
  -6  10 -24    1.16    0.31
 -10  -6  24    0.79    0.48
  -6  10 -26    1.45    0.34
 -10  -6  26    1.86    0.54
  -7 -10 -25    1.23    0.44
 -10   7  25    1.01    0.31
   7  10 -25    0.96    0.23
   7 -10  25    0.44    0.27
 -10  -7 -25    1.15    0.46
  -7 -10 -23    1.02    0.40
 -10   7  23    0.55    0.29
   7  10 -23    0.44    0.21
   7 -10  23    0.46    0.29
 -10  -7 -23   -0.18    0.42
  10   7 -21    0.29    0.17
  -7 -10 -21   -0.35    0.33
 -10   7  21    0.18    0.25
   7 -10  21    0.40    0.24
   7  10 -21    0.30    0.19
 -10  -7 -21   -0.03    0.38
  10  -7  21   -0.04    0.23
  -7 -10 -19    0.93    0.35
  10   7 -19    0.31    0.33
  10   7 -19    0.82    0.17
   7  10 -19    0.87    0.20
  10  -7  19    0.90    0.24
 -10   7  19    0.54    0.29
   7  10 -19    0.56    0.28
   7 -10  19    0.88    0.26
 -10  -7 -19    0.62    0.36
  -7 -10 -17    4.58    0.45
   7  10 -17    4.76    0.29
  10   7 -17    4.99    0.27
 -10   7  17    4.34    0.40
  10  -7  17    4.88    0.36
   7  10 -17    5.43    0.40
  10   7 -17    4.38    0.48
   7 -10  17    4.59    0.34
   7 -10  17    5.30    0.37
 -10  -7 -17    5.48    0.52
 -10   7  17    4.62    0.24
  10   7 -15    5.88    0.49
  -7 -10 -15    5.26    0.45
   7  10 -15    6.40    0.39
  10   7 -15    5.87    0.27
   7  10 -15    5.57    0.30
  10  -7  15    6.08    0.37
 -10   7  15    5.87    0.41
   7 -10  15    6.62    0.37
  -7  10  15    4.67    0.16
  -7  10  15    6.17    0.30
 -10   7  15    5.60    0.25
 -10  -7 -15    5.53    0.48
 -10   7  13    8.95    0.49
  -7  10  13    8.49    0.37
  10  -7  13    8.26    0.40
   7  10 -13    8.95    0.38
  10   7 -13    8.53    0.34
   7  10 -13    9.36    0.46
  10   7 -13    7.94    0.58
   7 -10  13    8.98    0.44
  -7  10  13    8.21    0.25
 -10   7  13    8.89    0.32
 -10  -7 -13    9.20    0.59
  -7  10  11    4.55    0.27
  10  -7  11    4.64    0.27
  10  -7  11    4.36    0.28
   7  10 -11    4.81    0.22
   7  10 -11    4.23    0.27
 -10   7  11    4.36    0.34
  10   7 -11    4.03    0.24
 -10   7  11    4.62    0.23
   7 -10  11    4.43    0.31
  10   7 -11    5.28    0.45
  -7  10  11    4.76    0.17
   7 -10  11    4.39    0.29
   7  10 -11    4.68    0.33
 -10  -7 -11    4.21    0.43
   7  10  -9   14.24    0.48
  -7  10   9   13.56    0.46
  10   7  -9   12.54    0.33
  -7  10   9   14.06    0.37
 -10   7   9   12.93    0.55
   7 -10   9   13.35    0.49
   7 -10   9   13.32    0.50
  10   7  -9   13.81    0.44
 -10  -7  -9   10.82    0.35
  10  -7   9   11.31    0.48
  10  -7   9   13.51    0.48
   7  10  -9   12.59    0.40
 -10   7   9   12.97    0.42
  10   7  -9   13.53    0.65
  10  -7   9   12.84    0.50
   7  10  -9   12.91    0.53
  10  -7   9   12.12    0.48
  -7 -10  -9   14.20    0.64
  10  -7   7   18.97    0.60
  -7  10   7   18.87    0.51
 -10   7   7   19.79    0.69
  10  -7   7   18.60    0.64
 -10  -7  -7   18.66    0.56
  10  -7   7   18.04    0.61
 -10   7   7   19.46    0.55
  10   7  -7   18.19    0.75
   7 -10   7   18.63    0.60
   7 -10   7   18.28    0.55
   7  10  -7   18.30    0.54
  10   7  -7   17.84    0.48
   7  10  -7   19.23    0.60
   7  10  -7   19.06    0.65
  -7 -10  -7   19.34    0.76
  -7  10   7   18.02    0.59
  10  -7   7   19.26    0.66
  -7  10   5    7.11    0.26
  10   7  -5    7.59    0.45
  10  -7   5    7.32    0.32
   7 -10   5    6.91    0.31
  10  -7   5    7.17    0.37
 -10   7   5    7.08    0.29
   7 -10   5    7.23    0.36
 -10  -7  -5    6.82    0.34
   7  10  -5    7.43    0.29
 -10   7   5    7.08    0.23
  10  -7   5    6.76    0.33
  -7  10   5    6.68    0.31
  -7 -10  -5    6.83    0.44
   7  10  -5    6.88    0.35
  10  -7   5    6.36    0.41
  -7  10   3    2.50    0.19
 -10   7   3    2.07    0.14
   7  10  -3    1.80    0.21
   7 -10   3    2.14    0.21
  -7  10   3    1.99    0.15
  10  -7   3    1.95    0.18
 -10   7   3    2.16    0.17
   7 -10   3    1.84    0.17
  10  -7   3    1.63    0.29
 -10  -7  -3    2.55    0.35
  10  -7   3    2.13    0.24
  10  -7   3    2.17    0.20
  10   7  -3    2.45    0.29
  -7 -10  -3    2.24    0.30
 -10   7   1    1.92    0.15
   7  10  -1    1.55    0.22
   7 -10   1    1.70    0.20
  -7  10   1    1.77    0.16
 -10   7   1    1.49    0.17
   7 -10   1    1.88    0.18
  -7 -10  -1    1.37    0.29
  -7  10   1    1.58    0.18
  10  -7   1    2.09    0.16
  10  -7   1    2.00    0.19
  10   7  -1    2.44    0.29
 -10  -7  -1    2.15    0.35
  10  -7   1    2.43    0.27
  10  -7  -1    2.05    0.18
   7  10   1    1.83    0.23
 -10   7  -1    1.99    0.19
  10  -7  -1    1.79    0.14
   7 -10  -1    1.98    0.23
 -10   7  -1    1.75    0.16
 -10  -7   1    1.84    0.36
  -7  10  -1    1.76    0.19
  -7 -10   1    1.59    0.30
  -7  10  -1    1.73    0.17
  10   7   1    1.55    0.24
  10  -7  -1    1.61    0.25
   7  10   3    1.85    0.23
  -7  10  -3    1.79    0.17
  10  -7  -3    1.87    0.18
 -10   7  -3    2.08    0.18
  10  -7  -3    2.02    0.13
  -7  10  -3    1.75    0.18
  -7 -10   3    2.14    0.32
   7 -10  -3    1.92    0.22
  10   7   3    1.76    0.25
  10   7   5    6.79    0.38
  -7  10  -5    5.99    0.30
  -7  10  -5    6.75    0.31
   7 -10  -5    6.85    0.37
  10  -7  -5    6.93    0.42
 -10   7  -5    6.51    0.31
   7 -10  -7   17.14    0.65
 -10   7  -7   18.27    0.59
  10  -7  -7   17.27    0.71
  -7  10  -7   17.25    0.58
  -7  10  -9   13.40    0.50
  10  -7  -9   14.45    0.65
   7 -10  -9   13.97    0.60
 -10   7  -9   13.32    0.51
 -10   7 -11    4.33    0.31
  -7  10 -11    4.24    0.30
   7 -10 -11    5.06    0.39
  10  -7 -11    4.36    0.43
 -10   7 -13    9.15    0.44
   7 -10 -13    9.08    0.53
   7 -10 -15    6.17    0.46
  10   7  15    5.67    0.36
  -7  10 -17    4.34    0.34
  10   7  17    5.11    0.35
 -10   7 -19    0.90    0.27
   7  10  19    0.79    0.25
  -7  10 -19    0.90    0.24
  -7  10 -21   -0.08    0.25
 -10  -7  23    0.60    0.43
  -7  10 -23    0.37    0.29
 -10  -7  25    1.32    0.47
  -7  10 -25    0.69    0.28
   8 -10  26    0.83    0.28
 -10   8  24    0.92    0.31
  -8 -10 -24    0.48    0.38
  10  -8  24    0.62    0.27
   8  10 -24    0.55    0.21
   8 -10  24    0.63    0.29
 -10  -8 -24    0.69    0.42
  -8 -10 -22    3.06    0.47
 -10   8  22    2.91    0.37
  10   8 -22    2.67    0.24
   8  10 -22    2.91    0.27
  10  -8  22    3.14    0.36
   8 -10  22    2.49    0.32
 -10  -8 -22    2.64    0.47
  10   8 -20    4.52    0.48
  -8  10  20    4.01    0.27
  10   8 -20    3.74    0.26
  -8 -10 -20    4.02    0.46
 -10   8  20    4.15    0.40
  10  -8  20    3.91    0.36
   8 -10  20    3.75    0.35
   8  10 -20    3.54    0.28
 -10  -8 -20    3.47    0.48
  -8 -10 -18    4.84    0.49
   8  10 -18    4.64    0.30
  -8  10  18    4.96    0.29
  10   8 -18    4.94    0.28
 -10   8  18    5.24    0.41
   8 -10  18    4.80    0.37
 -10  -8 -18    5.62    0.53
 -10   8  18    4.51    0.25
  10   8 -16    0.51    0.16
  -8 -10 -16    0.15    0.28
   8 -10  16    0.81    0.22
 -10   8  16    0.53    0.15
  -8  10  16    0.65    0.17
  10  -8  16    0.65    0.22
  10   8 -16    0.69    0.32
   8  10 -16    0.49    0.27
   8  10 -16    0.64    0.18
 -10  -8 -16    0.66    0.33
 -10   8  16    0.58    0.27
  10   8 -14    6.67    0.32
  -8  10  14    7.63    0.34
  10  -8  14    6.81    0.37
  10  -8  14    6.82    0.40
   8  10 -14    7.16    0.34
  10   8 -14    6.90    0.51
   8 -10  14    7.65    0.40
   8  10 -14    8.46    0.46
 -10   8  14    7.30    0.45
 -10  -8 -14    7.58    0.56
 -10   8  14    7.55    0.31
 -10   8  12   10.36    0.51
  10  -8  12    9.21    0.42
   8 -10  12    9.65    0.45
   8 -10  12    9.66    0.42
   8  10 -12   10.10    0.40
   8  10 -12    9.89    0.32
  10   8 -12   10.06    0.38
   8  10 -12   10.60    0.50
 -10   8  12    9.64    0.35
 -10  -8 -12   11.35    0.64
  10  -8  12   10.23    0.37
  -8  10  12   10.38    0.39
   8 -10  10   15.35    0.44
 -10   8  10   15.38    0.63
  10  -8  10   15.70    0.55
  -8  10  10   14.88    0.40
  10   8 -10   15.56    0.40
   8 -10  10   15.85    0.55
   8  10 -10   15.46    0.45
   8  10 -10   15.69    0.53
  10   8 -10   15.03    0.50
  10   8 -10   16.15    0.71
  -8 -10 -10   12.65    0.68
   8 -10  10   13.74    0.56
  -8 -10 -10   13.79    0.41
 -10   8  10   15.60    0.49
   8  10 -10   15.05    0.61
  -8  10  10   15.44    0.51
  10  -8  10   15.21    0.52
  10  -8   8   14.18    0.50
  10   8  -8   14.54    0.65
  -8  10   8   13.71    0.39
   8 -10   8   13.81    0.50
   8  10  -8   13.53    0.49
 -10  -8  -8   14.06    0.43
   8  10  -8   14.53    0.57
  10  -8   8   13.79    0.52
  10   8  -8   12.51    0.38
 -10   8   8   14.84    0.46
   8  10  -8   13.60    0.42
  10  -8   8   13.41    0.51
   8 -10   8   13.33    0.44
  -8  10   8   14.17    0.48
  -8 -10  -8   13.15    0.64
   8  10  -6    0.43    0.12
 -10   8   6    0.48    0.08
   8 -10   6    0.11    0.15
  10   8  -6    0.52    0.11
  -8  10   6    0.37    0.10
  10  -8   6    0.59    0.18
 -10  -8  -6    0.46    0.17
  10  -8   6    0.27    0.20
  10  -8   6    0.33    0.23
 -10   8   6    0.29    0.14
  10  -8   6    0.33    0.17
   8 -10   6    0.27    0.18
 -10  -8  -6    0.13    0.28
  10   8  -6    0.42    0.25
  -8  10   6    0.49    0.16
  -8 -10  -6    0.22    0.27
   8  10  -6    0.40    0.19
 -10   8   4   11.03    0.34
  -8  10   4   10.56    0.34
  10  -8   4   10.08    0.41
  10  -8   4   10.29    0.39
  10  -8   4   10.77    0.46
 -10   8   4   10.33    0.37
   8 -10   4   10.72    0.50
  10  -8   4   11.04    0.53
  -8  10   4   11.45    0.40
 -10  -8  -4   10.84    0.61
  -8 -10  -4   10.32    0.55
  10   8  -4   10.02    0.51
   8 -10   4   10.50    0.40
   8  10  -4   10.89    0.37
   8 -10   4   10.04    0.42
   8  10  -4   10.80    0.47
 -10   8   2    5.03    0.22
  -8  10   2    5.04    0.23
   8  10  -2    3.97    0.30
   8 -10   2    4.85    0.28
 -10   8   2    4.93    0.24
   8 -10   2    4.79    0.25
  10  -8   2    5.02    0.25
  10  -8   2    5.17    0.33
  -8  10   2    5.05    0.26
 -10  -8  -2    5.01    0.45
  -8 -10  -2    5.63    0.42
  10  -8   2    4.50    0.27
  10   8  -2    4.87    0.37
   8  10   0   12.88    0.51
 -10   8   0   12.79    0.44
   8 -10   0   13.09    0.47
 -10   8   0   13.09    0.42
 -10  -8   0   13.54    0.69
   8 -10   0   12.57    0.42
  -8 -10   0   11.59    0.61
  -8  10   0   12.91    0.43
  10  -8   0   12.01    0.52
  10  -8   0   13.41    0.41
  10   8   0   12.55    0.55
  -8  10   0   12.85    0.45
  10  -8   0   12.52    0.46
 -10   8  -2    5.19    0.25
 -10   8  -2    4.81    0.27
   8 -10  -2    5.00    0.31
  -8 -10   2    4.34    0.42
  10   8   2    4.98    0.34
   8  10   2    5.12    0.32
  -8  10  -2    4.57    0.27
  10  -8  -2    4.89    0.21
 -10  -8   2    5.52    0.50
  10  -8  -2    4.71    0.26
  -8  10  -2    4.79    0.24
  -8  10  -4   10.30    0.40
  10  -8  -4    8.96    0.47
   8  10   4   10.27    0.45
  10   8   4   10.52    0.48
 -10   8  -4    9.55    0.39
  -8 -10   4   10.57    0.59
  -8  10  -4   10.22    0.39
   8 -10  -4   10.26    0.46
   8 -10  -6    0.17    0.21
  -8  10  -6    0.52    0.16
  10   8   6    0.68    0.21
 -10   8  -6    0.56    0.16
  -8  10  -6    0.52    0.17
  10  -8  -6    0.26    0.26
 -10   8  -8   13.87    0.51
   8 -10  -8   13.26    0.59
  10  -8  -8   13.37    0.62
  -8  10  -8   12.90    0.49
  -8  10 -10   14.33    0.54
  10  -8 -10   14.60    0.68
 -10   8 -10   14.28    0.55
   8 -10 -10   14.52    0.64
  10  -8 -12    8.74    0.56
  -8  10 -12    8.68    0.43
   8 -10 -12   10.00    0.55
 -10   8 -12    9.30    0.44
 -10   8 -14    6.79    0.39
   8 -10 -14    7.22    0.50
  10   8  16    0.76    0.24
  -8  10 -18    4.70    0.38
   8  10  18    4.96    0.38
 -10   8 -20    3.92    0.36
  -8  10 -20    3.39    0.35
  -8  10 -22    2.04    0.31
  -8  10 -24    0.51    0.27
 -10  -8  24    0.62    0.49
 -10  -8  26    0.39    0.47
   9 -10  25    3.10    0.39
  10  -9  25    4.04    0.43
 -10  -9 -25    3.32    0.57
  -9 -10 -25    3.22    0.55
   9  10 -23    1.17    0.23
   9 -10  23    1.18    0.29
  10  -9  23    1.93    0.32
 -10  -9 -23    2.10    0.46
  -9 -10 -23    1.59    0.43
   9  10 -21    1.37    0.22
 -10  -9 -21    1.44    0.45
  10   9 -21    0.94    0.20
  10  -9  21    1.00    0.27
  -9 -10 -21    1.93    0.42
  -9  10  19    1.36    0.19
  10   9 -19    1.55    0.20
   9  10 -19    1.95    0.23
  10  -9  19    2.35    0.32
  10   9 -19    1.57    0.36
   9 -10  19    1.56    0.28
 -10  -9 -19    2.14    0.45
  -9 -10 -19    2.14    0.40
  -9  10  17    3.08    0.23
   9  10 -17    3.03    0.25
  10  -9  17    3.29    0.31
  10   9 -17    2.73    0.38
   9  10 -17    3.95    0.38
  10   9 -17    2.78    0.23
   9 -10  17    2.96    0.31
 -10  -9 -17    3.31    0.44
 -10   9  17    2.93    0.21
  -9 -10 -17    3.09    0.43
  -9  10  15    7.13    0.33
   9  10 -15    7.13    0.34
  10  -9  15    6.73    0.39
  10   9 -15    6.56    0.49
  10   9 -15    6.66    0.33
  10  -9  15    6.78    0.40
   9 -10  15    6.80    0.40
   9  10 -15    7.03    0.47
 -10  -9 -15    7.67    0.59
 -10   9  15    6.72    0.31
  -9 -10 -15    7.44    0.56
  -9  10  13    0.75    0.16
  10  -9  13    0.72    0.20
   9 -10  13    0.74    0.20
   9  10 -13    0.49    0.17
  10   9 -13    0.55    0.16
  10  -9  13    0.51    0.20
  10   9 -13    0.59    0.28
   9 -10  13    0.89    0.23
   9  10 -13    0.90    0.28
 -10  -9 -13    0.92    0.33
 -10   9  13    0.53    0.15
  10  -9  11   12.14    0.40
   9  10 -11   11.70    0.42
   9  10 -11   12.42    0.34
  10  -9  11   11.62    0.45
   9 -10  11   12.52    0.47
  10   9 -11   11.29    0.41
  10   9 -11   11.75    0.59
   9  10 -11   12.68    0.56
 -10   9  11   11.45    0.39
  -9  10  11   12.18    0.41
   9 -10   9    0.96    0.15
  -9 -10  -9    0.60    0.32
  10   9  -9    0.86    0.10
  10  -9   9    0.58    0.17
   9 -10   9    1.02    0.20
   9  10  -9    0.60    0.17
  10   9  -9    0.89    0.17
  10  -9   9    1.00    0.19
  -9 -10  -9    0.91    0.13
   9  10  -9    1.07    0.12
  10   9  -9    0.67    0.27
 -10   9   9    0.90    0.16
  -9  10   9    0.85    0.08
   9  10  -9    0.62    0.24
 -10  -9  -9    0.73    0.11
  -9  10   9    0.78    0.16
 -10   9   7   14.08    0.39
   9 -10   7   14.28    0.52
  10  -9   7   14.10    0.53
  -9  10   7   13.15    0.47
   9  10  -7   15.59    0.61
 -10   9   7   14.40    0.47
  10  -9   7   13.86    0.54
 -10  -9  -7   12.72    0.69
  -9 -10  -7   14.62    0.70
  10   9  -7   14.43    0.63
   9  10  -7   13.93    0.43
  10   9  -7   14.11    0.41
  10  -9   7   13.86    0.50
 -10  -9  -7   14.30    0.49
   9 -10   7   13.88    0.51
  -9  10   7   13.96    0.40
 -10   9   5   22.42    0.60
  -9  10   5   22.34    0.61
  10   9  -5   22.32    0.62
  10  -9   5   21.71    0.68
  10  -9   5   23.76    0.77
   9 -10   5   21.81    0.68
  10  -9   5   23.78    0.81
  10   9  -5   20.61    0.79
 -10   9   5   22.24    0.66
   9  10  -5   22.60    0.63
   9 -10   5   22.41    0.77
  -9  10   5   21.78    0.67
 -10  -9  -5   21.77    0.91
  10  -9   5   22.40    0.72
  -9 -10  -5   21.30    0.88
   9 -10   5   22.25    0.72
   9  10  -5   22.08    0.77
 -10   9   3   16.04    0.46
 -10  -9  -3   15.84    0.74
   9 -10   3   14.53    0.58
  10  -9   3   14.30    0.48
   9 -10   3   13.70    0.49
  10  -9   3   14.81    0.58
 -10   9   3   14.26    0.49
  10  -9   3   14.92    0.67
  -9  10   3   15.14    0.51
  -9  10   3   15.59    0.46
  -9 -10  -3   15.18    0.71
  10  -9   3   14.31    0.52
  10   9  -3   15.46    0.63
   9 -10   3   14.94    0.53
   9  10  -3   15.05    0.59
  10  -9   1   22.68    0.78
 -10   9   1   24.81    0.67
  -9  10   1   22.72    0.66
   9  10  -1   22.88    0.79
 -10   9   1   22.59    0.70
  10  -9   1   24.10    0.68
  -9  10   1   23.83    0.71
   9 -10   1   24.08    0.72
   9 -10   1   22.91    0.67
 -10  -9  -1   23.00    0.94
  -9 -10  -1   22.06    0.90
  10   9  -1   23.73    0.81
  10  -9   1   22.70    0.71
 -10   9  -1   24.55    0.70
   9  10   1   24.03    0.79
  -9  10  -1   23.90    0.69
  10   9   1   22.73    0.80
 -10   9  -1   23.99    0.71
  10  -9  -1   23.13    0.72
  -9  10  -1   24.12    0.72
  10  -9  -1   23.48    0.66
   9 -10  -1   23.24    0.67
 -10  -9   1   22.93    0.95
  -9 -10   1   25.61    0.96
   9 -10  -1   24.85    0.73
 -10   9  -3   14.44    0.49
  -9  10  -3   14.26    0.50
  10   9   3   14.11    0.58
  -9 -10   3   14.11    0.72
 -10   9  -3   13.64    0.49
   9 -10  -3   14.31    0.57
  -9  10  -3   14.40    0.49
   9  10   3   14.62    0.57
   9  10   5   21.55    0.74
  -9  10  -5   21.53    0.66
  10  -9  -5   20.40    0.77
  -9  10  -5   20.66    0.67
  10   9   5   22.69    0.76
 -10   9  -5   20.61    0.66
   9 -10  -5   21.58    0.76
   9 -10  -7   13.09    0.60
  -9  10  -7   13.56    0.51
  10   9   7   13.76    0.56
 -10   9  -7   14.21    0.51
  10  -9  -7   14.01    0.62
  10  -9  -9    0.60    0.29
 -10   9  -9    0.65    0.18
   9 -10  -9    1.04    0.28
  -9  10  -9    0.67    0.18
 -10   9 -11   10.87    0.48
  -9  10 -11   12.14    0.49
  10  -9 -11   10.98    0.59
   9 -10 -11   11.66    0.60
   9 -10 -13    0.92    0.32
 -10   9 -13    0.73    0.20
  -9  10 -13    0.65    0.21
  10  -9 -13    0.71    0.35
 -10   9 -15    6.76    0.40
  -9  10 -15    6.06    0.39
   9 -10 -15    7.10    0.53
  10   9  17    3.49    0.34
  -9  10 -19    1.90    0.29
 -10   9 -21    1.62    0.31
  -9  10 -21    0.72    0.27
  -9  10 -23    1.29    0.32
 -10  -9  25    3.53    0.58
 -10 -10 -24    4.38    0.62
  10  10 -22    8.35    0.39
 -10 -10 -22    7.04    0.66
  10  10 -20    4.27    0.29
  10 -10  20    4.30    0.38
 -10 -10 -20    3.87    0.51
 -10  10  18    1.50    0.20
  10  10 -18    0.59    0.32
  10  10 -18    1.13    0.19
  10 -10  18    1.33    0.27
 -10 -10 -18    1.28    0.39
  10  10 -16   15.14    0.54
  10 -10  16   15.69    0.63
  10  10 -16   14.88    0.69
 -10 -10 -16   14.60    0.81
 -10  10  16   14.79    0.51
  10 -10  14   18.66    0.70
  10 -10  14   19.39    0.69
  10  10 -14   18.27    0.62
  10  10 -14   19.76    0.79
 -10 -10 -14   17.23    0.87
 -10  10  14   19.62    0.60
  10 -10  12    0.56    0.19
  10 -10  12    0.72    0.13
  10  10 -12    0.65    0.18
  10  10 -12    0.67    0.28
 -10  10  12    0.48    0.15
  10 -10  10   50.62    1.34
  10  10 -10   53.10    1.20
  10  10 -10   51.22    1.31
 -10  10  10   49.98    1.28
  10  10 -10   52.23    1.47
  10 -10  10   50.62    1.27
 -10  10   8   39.67    0.96
  10 -10   8   38.17    1.09
  10  10  -8   39.35    1.22
  10  10  -8   40.51    1.09
  10  10  -8   38.94    0.99
  10 -10   8   36.16    1.12
 -10 -10  -8   40.61    1.36
 -10  10   8   39.18    1.06
  10 -10   8   38.50    1.09
 -10 -10  -8   38.26    1.05
 -10  10   6    6.56    0.24
  10 -10   6    6.51    0.32
 -10  10   6    6.56    0.31
  10 -10   6    7.00    0.40
  10 -10   6    6.37    0.38
 -10 -10  -6    6.88    0.51
  10 -10   6    5.95    0.34
  10  10  -6    6.25    0.42
  10  10  -6    6.64    0.27
 -10  10   4   49.02    1.21
  10 -10   4   49.06    1.45
  10 -10   4   48.71    1.37
  10  10  -4   47.56    1.40
  10 -10   4   47.06    1.27
 -10  10   4   47.55    1.27
 -10 -10  -4   46.41    1.54
  10 -10   4   48.17    1.31
 -10  10   2   60.46    1.57
  10 -10   2   60.25    1.55
  10 -10   2   60.40    1.66
 -10 -10  -2   60.12    1.85
 -10  10   2   61.68    1.52
  10  10  -2   60.48    1.68
  10 -10   2   61.76    1.60
  10  10   0  159.88    4.03
  10 -10   0  167.73    3.95
 -10  10   0  165.13    3.90
  10 -10   0  162.70    3.88
 -10 -10   0  163.58    4.24
 -10  10   0  162.56    3.93
  10  10   2   64.28    1.71
 -10  10  -2   60.69    1.58
  10 -10  -2   61.23    1.59
 -10  10  -2   61.67    1.60
 -10 -10   2   62.62    1.90
 -10  10  -4   48.84    1.27
  10  10   4   44.72    1.35
 -10  10  -4   47.48    1.28
  10 -10  -4   46.99    1.39
  10  10   6    6.22    0.38
 -10  10  -6    6.52    0.33
  10 -10  -6    6.32    0.42
 -10  10  -8   40.54    1.13
  10 -10  -8   37.75    1.24
 -10  10 -10   47.30    1.34
  10 -10 -10   49.24    1.49
  10 -10 -12    0.34    0.30
 -10  10 -12    0.41    0.18
 -10  10 -14   17.05    0.66
  10 -10 -14   18.12    0.82
 -10  10 -16   13.25    0.59
 -10  10 -20    3.44    0.36
 -10  10 -22    8.96    0.53
   0  11  -1   18.12    0.56
 -11   0  -1   17.91    0.60
   0 -11  -1   18.04    0.57
  11   0  -1   18.28    0.51
  11   0   1   18.24    0.73
 -11   0   1   18.58    0.65
   0 -11   1   17.87    0.55
  11   0   1   18.40    0.55
  11   0   1   18.41    0.68
  11   0  -1   18.33    0.54
   0  11  -1   17.89    0.56
  11   0   3    4.56    0.24
   0  11  -3    4.12    0.23
 -11   0   3    4.48    0.33
   0  11  -3    4.23    0.24
  11   0  -3    4.50    0.17
 -11   0  -3    4.91    0.26
  11   0   3    5.13    0.37
  11   0   3    4.42    0.32
   0 -11   3    4.27    0.21
  11   0   5   34.67    0.99
 -11   0   5   36.66    1.08
   0  11  -5   34.55    0.91
 -11   0  -5   33.67    1.18
  11   0   5   33.47    1.04
  11   0  -5   34.68    0.81
  11   0   5   35.61    0.93
   0 -11   7   27.33    0.81
  11   0   7   28.68    0.85
   0  11  -7   28.92    0.80
  11   0   7   28.57    0.83
 -11   0  -7   29.18    1.06
  11   0   7   28.80    0.91
  11   0   9   35.12    1.03
   0  11  -9   32.80    0.95
   0  11  -9   34.60    0.93
  11   0  -9   31.87    0.81
   0 -11   9   34.91    0.95
   0 -11  -9   36.25    0.94
 -11   0  -9   34.70    1.19
  11   0   9   35.32    0.96
  11   0   9   36.26    0.97
  11   0  11   11.66    0.48
   0 -11  11   11.68    0.42
  11   0  11   11.33    0.44
   0  11 -11   12.04    0.44
   0 -11 -11   12.08    0.43
 -11   0 -11   11.82    0.63
 -11   0  11   10.41    0.58
  11   0  11   11.54    0.40
   0  11 -11   12.43    0.42
  11   0  13    4.36    0.32
   0  11 -13    5.06    0.30
 -11   0  13    4.84    0.45
   0 -11  13    4.92    0.29
  11   0  13    4.96    0.26
   0 -11 -13    4.90    0.31
 -11   0 -13    5.88    0.49
   0  11 -15   39.80    1.08
   0 -11 -15   38.91    1.08
   0 -11  15   37.68    1.07
 -11   0  15   36.85    1.29
 -11   0 -15   39.03    1.31
  11   0  15   35.92    1.08
   0 -11  15   39.65    1.06
  11   0  17    0.50    0.19
 -11   0  17    0.66    0.32
   0 -11  17    0.61    0.19
 -11   0 -17    0.43    0.34
   0 -11  17    0.63    0.21
   0  11 -17    0.53    0.20
   0  11  19    5.09    0.28
   0 -11  19    4.73    0.35
   0  11 -19    4.69    0.34
 -11   0  19    4.47    0.49
 -11   0 -19    5.37    0.52
   0 -11  19    4.98    0.32
   0  11 -21    0.46    0.23
 -11   0 -21    0.41    0.37
   0 -11  21    0.29    0.19
 -11   0  21    0.44    0.37
   0 -11 -23    0.60    0.31
   0  11 -23    0.41    0.24
 -11   0 -23    0.20    0.37
 -11   0  23    0.52    0.40
   0  11 -25    4.92    0.39
   0 -11 -25    5.93    0.51
 -11   0  25    5.43    0.56
 -11   0 -25    5.16    0.56
   0 -11  25    5.43    0.35
   0  11 -27    0.29    0.26
 -11   0  27    0.99    0.44
   1  11 -28    0.87    0.30
 -11   1  28    0.70    0.42
  -1 -11 -26    1.04    0.35
  11  -1  26    1.21    0.32
 -11   1  26    0.95    0.42
 -11  -1 -26    1.56    0.42
   1  11 -26    1.17    0.29
  11  -1  24    3.31    0.37
  -1 -11 -24    3.85    0.45
 -11   1  24    2.87    0.49
   1  11 -24    3.84    0.35
 -11  -1 -24    2.88    0.49
   1 -11  24    3.20    0.31
   1  11 -22    7.05    0.42
  -1 -11 -22    7.08    0.51
 -11   1  22    7.64    0.59
   1 -11  22    6.63    0.39
  -1  11  20   10.92    0.43
   1  11 -20   11.35    0.49
  -1 -11 -20    9.68    0.58
 -11   1  20   11.48    0.69
 -11  -1 -20   11.53    0.72
   1 -11  20   12.03    0.50
  11  -1  18    1.01    0.21
   1  11 -18    1.16    0.22
  -1  11  18    1.23    0.18
   1 -11  18    1.48    0.25
 -11  -1 -18    1.24    0.36
 -11   1  18    1.53    0.38
   1 -11  18    1.09    0.21
   1  11 -16    5.58    0.33
  11  -1  16    4.84    0.25
  11  -1  16    5.64    0.33
   1 -11  16    4.83    0.32
 -11  -1 -16    5.66    0.50
 -11   1  16    5.50    0.48
  11  -1  14   21.83    0.65
   1  11 -14   24.36    0.72
  -1 -11 -14   24.75    0.69
 -11   1  14   25.98    0.94
   1 -11  14   24.09    0.72
 -11  -1 -14   23.78    0.94
   1 -11  14   24.56    0.72
  -1 -11 -12    6.10    0.30
  11  -1  12    5.95    0.36
  11   1 -12    5.02    0.17
   1  11 -12    5.97    0.29
   1  11 -12    5.56    0.31
 -11  -1 -12    5.82    0.48
 -11   1  12    6.18    0.47
  11  -1  12    5.21    0.29
   1 -11  12    5.65    0.31
   1 -11  12    6.29    0.32
   1 -11  10   44.99    1.19
   1  11 -10   43.14    1.15
  11  -1  10   44.38    1.20
  11  -1  10   42.49    1.24
   1  11 -10   44.76    1.19
  11  -1  10   43.57    1.18
 -11  -1 -10   45.54    1.45
  11   1 -10   42.64    1.05
  -1 -11 -10   45.35    1.16
 -11   1  10   42.62    1.37
  11  -1   8    4.70    0.27
   1  11  -8    4.12    0.26
 -11  -1  -8    5.13    0.45
  11  -1   8    4.84    0.29
   1  11  -8    4.77    0.25
   1 -11   8    4.45    0.26
  -1 -11  -8    4.76    0.24
  11  -1   8    4.46    0.32
  -1 -11  -6    1.89    0.23
  11  -1   6    2.11    0.24
 -11  -1  -6    1.89    0.36
  11  -1   6    2.09    0.20
   1  11  -6    2.22    0.19
   1 -11   6    2.38    0.20
  11  -1   6    2.40    0.28
  11   1  -4   38.75    1.33
 -11   1   4   43.15    1.25
  -1 -11  -4   42.86    1.18
  11  -1   4   42.47    1.12
  11   1  -4   42.90    1.03
 -11  -1  -4   41.10    1.13
 -11  -1  -4   42.89    1.41
  11  -1   4   42.73    1.28
   1  11  -4   41.00    1.12
  11  -1   4   43.12    1.21
   1 -11   4   43.33    1.06
  11  -1   2   31.03    0.86
   1 -11   2   32.24    0.84
  11   1  -2   32.72    0.81
  11  -1   2   30.83    0.85
  -1 -11  -2   30.94    0.90
   1  11  -2   30.86    0.87
  11  -1   2   31.95    1.05
 -11  -1  -2   31.61    0.91
  11  -1   2   32.05    0.97
 -11   1   2   31.53    0.96
   1  11  -2   30.58    0.87
   1  11   0   59.02    1.49
  11  -1   0   57.96    1.46
  -1 -11   0   60.31    1.50
  -1  11   0   57.32    1.48
 -11  -1   0   59.33    1.57
  11  -1   0   57.29    1.45
  11  -1   0   58.59    1.71
  11  -1   0   61.13    1.63
 -11   1   0   57.39    1.54
  11  -1  -2   32.24    0.82
 -11   1  -2   31.37    0.89
  11  -1  -2   31.68    0.81
  11  -1  -2   30.22    1.00
  11   1   2   30.59    1.03
 -11  -1   2   30.84    0.97
  -1  11  -2   30.91    0.87
  -1  11  -2   30.50    0.86
  -1 -11   2   32.22    0.86
  11   1   4   43.86    1.21
  11  -1  -4   41.99    1.06
  11   1   4   42.50    1.14
  -1  11  -4   42.63    1.14
 -11  -1   4   41.45    1.27
  -1  11  -4   42.12    1.13
  -1 -11   4   44.00    1.11
  11  -1  -4   42.99    1.05
  11   1   4   42.06    1.27
  11   1   6    2.37    0.21
 -11  -1   6    2.48    0.33
  11  -1  -6    2.98    0.13
  -1  11  -6    3.05    0.21
  11   1   6    2.75    0.27
 -11   1  -6    3.09    0.39
  11   1   6    3.03    0.28
  11   1   8    4.41    0.27
  11  -1  -8    3.53    0.12
  11   1   8    4.08    0.26
  -1 -11   8    4.01    0.24
  -1  11  -8    3.94    0.23
   1 -11  -8    4.23    0.24
  11   1   8    4.22    0.30
  11  -1  -8    3.19    0.11
 -11   1  -8    3.97    0.43
  -1 -11  10   44.03    1.18
  11   1  10   46.47    1.28
  -1  11 -10   44.92    1.18
  11   1  10   44.57    1.22
 -11   1 -10   45.04    1.43
   1 -11 -10   46.92    1.21
  11   1  10   43.04    1.17
  -1 -11  12    5.38    0.29
  11   1  12    5.41    0.35
   1 -11 -12    5.83    0.34
  -1  11 -12    5.45    0.31
 -11   1 -12    4.89    0.47
 -11  -1  12    5.72    0.47
  11   1  12    4.45    0.25
  -1  11 -14   24.49    0.76
   1 -11 -14   25.97    0.80
 -11   1 -14   25.45    0.99
 -11  -1  14   23.42    0.97
  -1 -11  14   25.37    0.74
  11   1  16    5.30    0.34
  -1  11 -16    5.73    0.33
 -11   1 -16    4.68    0.48
  -1 -11  16    5.11    0.30
 -11  -1  16    4.81    0.48
   1  11  18    0.93    0.20
  11   1  18    1.65    0.25
 -11  -1  18    1.03    0.39
  -1 -11  18    1.08    0.21
 -11   1 -18    1.23    0.37
  -1  11 -18    1.38    0.22
  -1  11 -20   10.06    0.49
   1  11  20   11.46    0.45
 -11   1 -20   10.52    0.67
 -11  -1  20   11.16    0.70
  -1 -11  20   10.80    0.46
  -1  11 -22    7.02    0.41
 -11  -1  22    6.75    0.60
 -11   1 -22    6.82    0.59
  -1 -11  22    6.69    0.36
  -1  11 -24    3.85    0.37
 -11   1 -24    3.68    0.48
 -11  -1  24    3.27    0.52
  -1 -11  24    3.82    0.30
  -1  11 -26    0.93    0.28
   1 -11 -26    0.97    0.36
 -11  -1  26    0.86    0.40
 -11  -1  28    0.45    0.39
   2  11 -27    1.68    0.31
 -11   2  27    2.21    0.43
 -11  -2 -27    1.96    0.51
  11  -2  25    4.28    0.42
  -2 -11 -25    5.35    0.52
 -11   2  25    4.56    0.52
   2  11 -25    4.36    0.36
 -11  -2 -25    4.42    0.55
   2 -11  25    4.32    0.35
  -2 -11 -23    0.64    0.33
  11  -2  23    1.00    0.28
   2  11 -23    0.79    0.25
 -11  -2 -23    0.34    0.36
 -11   2  23    1.07    0.40
   2 -11  23    1.08    0.24
 -11   2  21    1.31    0.35
   2  11 -21    1.71    0.26
  -2 -11 -21    1.58    0.32
  11  -2  21    1.24    0.28
 -11  -2 -21    1.88    0.40
   2 -11  21    1.75    0.26
   2  11 -19   10.50    0.46
  -2 -11 -19    9.85    0.57
  -2  11  19   10.51    0.39
 -11   2  19    9.71    0.63
   2 -11  19   10.07    0.47
   2 -11  19    9.46    0.46
 -11  -2 -19   10.50    0.68
  11  -2  17    1.02    0.16
  11  -2  17    1.19    0.22
   2  11 -17    0.93    0.20
  11   2 -17    1.05    0.09
 -11   2  17    1.12    0.36
 -11  -2 -17    1.04    0.36
   2 -11  17    1.10    0.23
   2 -11  17    1.16    0.21
  11   2 -15    8.05    0.25
   2  11 -15    7.93    0.38
 -11   2  15    8.09    0.54
   2 -11  15    8.16    0.40
 -11  -2 -15    9.33    0.60
  11  -2  15    7.91    0.34
   2 -11  15    9.14    0.41
  11  -2  13    7.65    0.39
 -11   2  13    7.50    0.51
   2  11 -13    8.37    0.38
   2 -11  13    7.53    0.37
  11   2 -13    7.69    0.24
  -2 -11 -13    7.07    0.44
 -11  -2 -13    8.55    0.56
  -2 -11 -13    8.24    0.33
  11  -2  13    7.56    0.34
  11  -2  11   40.21    1.12
 -11  -2 -11   38.50    1.33
  -2 -11 -11   40.31    1.21
  11  -2  11   38.65    1.14
   2  11 -11   39.06    1.10
   2  11 -11   38.46    1.06
  11   2 -11   39.95    0.98
   2 -11  11   38.95    1.10
 -11   2  11   40.50    1.28
  -2 -11 -11   40.37    1.05
   2 -11  11   40.95    1.11
  11  -2  11   38.69    1.09
  11  -2   9    4.15    0.28
  11  -2   9    3.84    0.26
  11   2  -9    4.07    0.17
  -2 -11  -9    4.60    0.33
   2  11  -9    4.08    0.26
   2  11  -9    4.20    0.24
  -2 -11  -9    4.31    0.23
 -11  -2  -9    4.20    0.44
  11  -2   9    3.99    0.30
   2 -11   9    4.51    0.27
  11  -2   7    2.14    0.24
 -11  -2  -7    1.30    0.33
  11  -2   7    2.11    0.21
  11  -2   7    1.87    0.19
   2 -11   7    2.10    0.20
  -2 -11  -7    1.89    0.23
  11   2  -7    1.59    0.34
   2  11  -7    2.09    0.18
   2  11  -7    1.78    0.19
  11  -2   7    2.10    0.26
  11   2  -5   52.98    1.35
   2 -11   5   59.85    1.49
  11  -2   5   58.98    1.48
  -2 -11  -5   63.06    1.56
  11  -2   5   60.38    1.48
  -2  11   5   59.99    1.48
  11  -2   5   59.33    1.54
 -11  -2  -5   59.58    1.46
  11   2  -5   56.18    1.71
 -11  -2  -5   60.33    1.78
   2  11  -5   58.67    1.46
  11  -2   5   63.27    1.63
   2 -11   5   55.96    1.37
 -11   2   5   54.90    1.59
  11  -2   3    8.93    0.49
  -2  11   3    8.92    0.33
 -11  -2  -3    9.31    0.58
   2 -11   3    8.51    0.29
  -2  11   3    9.20    0.37
  11  -2   3    9.43    0.34
  11  -2   3    9.03    0.34
  11   2  -3    9.34    0.54
  11  -2   3    8.73    0.43
  -2 -11  -3    9.24    0.40
 -11   2   3    9.18    0.44
 -11  -2  -3    9.24    0.39
   2  11  -3    8.84    0.35
  11  -2   1   24.50    0.69
 -11  -2  -1   25.03    0.79
  11  -2   1   24.72    0.69
  -2  11   1   24.13    0.70
 -11   2   1   23.77    0.77
  11  -2   1   25.49    0.91
  -2 -11  -1   24.65    0.75
  11  -2   1   24.32    0.82
   2  11  -1   25.62    0.72
  11  -2  -1   24.82    0.86
  11  -2  -1   24.34    0.93
  11  -2  -1   25.63    0.69
  -2  11  -1   25.76    0.73
 -11   2  -1   26.39    0.78
  11  -2  -1   26.10    0.69
 -11  -2   1   26.21    0.84
  -2 -11   1   25.38    0.76
  11  -2  -3    9.35    0.30
  -2  11  -3    8.87    0.36
  -2  11  -3    8.96    0.36
  11  -2  -3   10.08    0.31
  -2 -11   3    9.24    0.38
  11   2   3    9.01    0.47
 -11  -2   3    9.35    0.48
  11  -2  -3    8.83    0.48
 -11  -2   5   59.80    1.69
  11  -2  -5   58.97    1.41
  -2  11  -5   58.57    1.52
  11  -2  -5   60.57    1.42
  -2  11  -5   57.10    1.51
  -2 -11   5   58.18    1.52
  11   2   5   59.50    1.64
  11   2   7    1.47    0.19
 -11  -2   7    1.93    0.31
 -11   2  -7    1.36    0.30
   2 -11  -7    2.07    0.20
  -2  11  -7    1.62    0.18
  11   2   7    1.73    0.23
  11   2   9    3.78    0.26
  11   2   9    4.09    0.31
  -2  11  -9    3.73    0.24
 -11   2  -9    3.60    0.42
   2 -11  -9    4.13    0.27
  -2 -11  11   38.79    1.10
   2 -11 -11   41.76    1.17
  11   2  11   42.47    1.21
 -11   2 -11   42.05    1.38
  -2  11 -11   40.68    1.11
  -2 -11  13    7.54    0.34
 -11   2 -13    8.92    0.57
  -2  11 -13    8.10    0.38
   2 -11 -13    7.70    0.42
 -11  -2  13    8.08    0.55
  -2 -11  15    8.75    0.37
  11   2  15    8.76    0.41
  -2  11 -15    8.40    0.40
 -11  -2  15    8.08    0.58
 -11   2 -15    8.70    0.58
   2 -11 -15    8.57    0.45
  -2 -11  17    1.30    0.19
 -11  -2  17    0.95    0.40
  11   2  17    1.12    0.22
 -11   2 -17    1.19    0.36
  -2  11 -17    1.15    0.22
   2  11  19   10.52    0.44
 -11  -2  19    9.12    0.66
 -11   2 -19    9.93    0.64
  -2  11 -19    9.62    0.47
  -2 -11  19    9.83    0.42
   2  11  21    1.56    0.22
  -2 -11  21    1.55    0.22
  -2  11 -21    1.71    0.26
 -11   2 -21    2.15    0.42
 -11  -2  23    1.17    0.44
  -2  11 -23    0.79    0.25
 -11   2 -23    0.97    0.40
 -11  -2  25    5.05    0.58
  -2  11 -25    4.43    0.39
  -2  11 -27    1.45    0.31
 -11  -2  27    2.26    0.48
 -11  -3 -28    0.64    0.49
 -11   3  26    3.49    0.45
  -3 -11 -26    2.49    0.45
   3  11 -26    2.59    0.32
  11  -3  26    2.13    0.35
 -11  -3 -26    3.02    0.54
   3 -11  26    2.52    0.32
   3  11 -24    7.33    0.44
   3 -11  24    7.37    0.43
  11  -3  24    8.68    0.53
  -3 -11 -24    7.28    0.58
 -11  -3 -24    8.11    0.65
 -11   3  24    8.15    0.60
 -11  -3 -22    2.01    0.45
 -11   3  22    1.87    0.41
   3  11 -22    1.24    0.24
  -3 -11 -22    0.98    0.34
  11  -3  22    1.56    0.29
   3 -11  22    1.46    0.26
  11  -3  20    1.13    0.26
  -3 -11 -20    0.78    0.31
 -11   3  20    0.82    0.34
  11   3 -20    0.99    0.12
   3  11 -20    1.05    0.22
   3 -11  20    0.82    0.22
 -11  -3 -20    1.30    0.38
  -3  11  18    6.12    0.26
 -11   3  18    6.63    0.50
  11   3 -18    6.18    0.21
   3 -11  18    6.14    0.36
   3  11 -18    5.49    0.33
  -3 -11 -18    5.33    0.43
  11  -3  18    5.86    0.38
   3 -11  18    6.25    0.35
 -11  -3 -18    5.69    0.51
  11  -3  18    5.50    0.34
 -11   3  16    3.30    0.39
  11   3 -16    2.87    0.15
   3  11 -16    2.72    0.24
   3 -11  16    3.23    0.28
  11  -3  16    2.66    0.21
 -11  -3 -16    2.96    0.39
   3 -11  16    3.04    0.28
 -11   3  14    1.36    0.07
   3  11 -14    2.04    0.22
 -11   3  14    1.93    0.34
   3 -11  14    1.80    0.23
  11   3 -14    1.88    0.13
 -11  -3 -14    2.38    0.37
  11  -3  14    1.59    0.18
   3 -11  14    1.56    0.22
 -11   3  12   14.75    0.66
  11  -3  12   13.64    0.51
  -3 -11 -12   13.79    0.44
  -3 -11 -12   13.37    0.61
 -11   3  12   12.46    0.35
   3  11 -12   14.17    0.50
  11   3 -12   13.86    0.39
   3  11 -12   14.39    0.47
  11  -3  12   13.49    0.53
   3 -11  12   13.65    0.51
  11  -3  12   13.35    0.49
 -11  -3 -12   13.17    0.70
   3 -11  12   14.07    0.52
  11  -3  10   17.37    0.64
  -3 -11 -10   18.56    0.71
  11  -3  10   17.92    0.62
   3  11 -10   19.04    0.57
  11   3 -10   18.13    0.50
   3  11 -10   18.18    0.60
  11  -3  10   17.55    0.60
 -11  -3 -10   18.52    0.81
 -11   3  10   17.21    0.46
  -3 -11 -10   18.02    0.53
  11  -3  10   18.72    0.61
 -11   3  10   18.51    0.76
   3 -11  10   18.81    0.61
  -3 -11  -8   13.25    0.55
   3  11  -8   12.32    0.37
  11  -3   8   13.26    0.48
  11  -3   8   12.77    0.47
   3  11  -8   12.46    0.46
  11   3  -8   12.21    0.65
 -11  -3  -8   12.85    0.66
   3  11  -8   13.13    0.43
  11  -3   8   13.35    0.50
  11  -3   8   12.81    0.53
   3 -11   8   13.23    0.47
  -3  11   6   24.26    0.73
  11  -3   6   25.58    0.79
   3 -11   6   23.89    0.74
  -3 -11  -6   24.44    0.81
  11  -3   6   25.07    0.73
  11  -3   6   24.92    0.74
 -11  -3  -6   26.08    0.99
   3  11  -6   25.11    0.74
 -11  -3  -6   25.15    0.70
  11   3  -6   23.57    0.94
   3  11  -6   24.69    0.71
  11  -3   6   24.78    0.83
  -3 -11  -4   34.14    0.99
  -3  11   4   33.38    0.92
   3 -11   4   33.03    0.93
  -3  11   4   33.02    0.88
  11  -3   4   31.69    0.98
  11  -3   4   32.74    0.91
  11  -3   4   32.94    0.90
  11   3  -4   31.99    1.11
 -11   3   4   32.48    1.00
  11  -3   4   35.27    1.08
 -11  -3  -4   31.29    1.16
   3  11  -4   32.24    0.89
 -11  -3  -4   33.58    0.93
   3  11  -2   26.42    0.73
  11  -3   2   25.48    0.71
  -3  11   2   25.77    0.71
  11  -3   2   25.02    0.83
 -11   3   2   24.20    0.80
  11  -3   2   23.99    0.71
  11  -3   2   27.66    0.93
 -11  -3  -2   26.57    0.80
  11   3  -2   24.00    0.91
  -3  11   2   24.86    0.74
  -3 -11  -2   25.12    0.79
  11  -3   0   51.48    1.29
 -11   3   0   52.37    1.39
  11  -3   0   51.97    1.30
  11  -3   0   49.78    1.55
 -11  -3   0   52.02    1.44
  11  -3   0   51.11    1.45
  -3  11   0   51.90    1.32
  -3 -11   0   52.09    1.40
 -11  -3   2   24.11    0.83
  11  -3  -2   23.90    0.85
  11  -3  -2   24.29    0.65
  -3  11  -2   24.10    0.71
  11  -3  -2   25.65    0.67
  -3 -11   2   24.53    0.76
  11  -3  -4   32.62    0.80
  -3  11  -4   31.72    0.89
  -3  11  -4   30.95    0.89
  -3 -11   4   31.99    0.93
 -11  -3   4   31.50    1.05
  11   3   4   27.79    0.99
  11  -3  -4   29.17    1.03
  11  -3  -4   33.87    0.83
  -3  11  -6   24.98    0.74
  11  -3  -6   25.38    0.62
   3 -11  -6   25.68    0.77
 -11  -3   6   25.03    0.93
  -3  11  -6   26.22    0.76
  11   3   6   26.43    0.85
  11   3   8   13.25    0.54
  -3  11  -8   12.78    0.45
   3 -11  -8   12.94    0.48
 -11  -3   8   11.87    0.63
  11   3   8   12.81    0.48
   3 -11 -10   19.26    0.66
  11   3  10   18.32    0.68
 -11   3 -10   17.21    0.82
  -3  11 -10   17.99    0.60
  -3 -11  12   13.32    0.47
  11   3  12   14.84    0.59
   3 -11 -12   13.77    0.56
 -11   3 -12   14.85    0.73
  11   3  14    2.39    0.25
  -3  11 -14    2.38    0.24
  -3 -11  14    2.10    0.19
 -11  -3  14    1.64    0.39
 -11   3 -14    2.50    0.38
   3 -11 -14    1.71    0.27
  11   3  16    2.96    0.29
  -3 -11  16    3.15    0.23
 -11  -3  16    3.48    0.47
   3 -11 -16    3.22    0.33
 -11   3 -16    3.29    0.42
  -3  11 -16    3.10    0.27
  -3 -11  18    6.01    0.31
  11   3  18    6.48    0.38
  -3  11 -18    6.51    0.39
 -11  -3  18    6.75    0.58
 -11   3 -18    5.88    0.52
  -3 -11  20    1.23    0.20
 -11  -3  20    0.51    0.36
  -3  11 -20    1.49    0.27
 -11   3 -20    1.07    0.37
   3  11  20    1.24    0.21
  -3  11 -22    1.74    0.29
   3  11  22    1.59    0.23
  -3 -11  22    1.20    0.20
 -11   3 -22    1.36    0.40
 -11  -3  22    1.62    0.45
 -11  -3  24    8.21    0.70
 -11   3 -24    7.89    0.62
  -3  11 -24    8.48    0.49
 -11  -3  26    2.43    0.50
  -3  11 -26    2.95    0.38
   4  11 -27    3.15    0.34
 -11  -4 -27    3.42    0.52
 -11   4  27    3.83    0.45
   4  11 -25    3.75    0.34
  -4 -11 -25    3.98    0.48
  11  -4  25    4.57    0.43
 -11  -4 -25    4.59    0.57
 -11   4  25    4.86    0.48
 -11   4  23    2.38    0.41
  11  -4  23    2.28    0.36
  -4 -11 -23    2.23    0.39
 -11  -4 -23    2.16    0.48
   4  11 -23    2.27    0.28
   4 -11  23    2.86    0.31
 -11   4  21    0.66    0.35
  -4 -11 -21    0.35    0.31
   4  11 -21    0.55    0.23
  11  -4  21    0.61    0.25
   4 -11  21    0.59    0.26
 -11  -4 -21    0.81    0.41
  -4  11  19   12.54    0.40
  11   4 -19   11.76    0.39
   4  11 -19   10.35    0.48
  -4 -11 -19   12.05    0.65
   4 -11  19   11.31    0.52
  11  -4  19   12.10    0.55
 -11  -4 -19   11.74    0.72
 -11   4  19   11.46    0.66
  11  -4  17    8.07    0.42
   4  11 -17    8.41    0.40
   4 -11  17    9.12    0.44
 -11   4  17    8.12    0.26
  -4  11  17    9.59    0.33
  11  -4  17    9.27    0.47
   4 -11  17    9.18    0.45
 -11  -4 -17   10.08    0.66
 -11   4  17    9.44    0.57
  11   4 -17    9.10    0.31
   4 -11  15    1.99    0.24
  11   4 -15    2.01    0.15
 -11   4  15    2.12    0.35
 -11   4  15    1.87    0.11
  11  -4  15    1.64    0.19
   4  11 -15    2.01    0.23
 -11  -4 -15    2.17    0.39
   4 -11  15    1.90    0.23
 -11   4  13   27.84    0.75
  11  -4  13   31.02    0.91
  11  -4  13   29.91    0.91
  11   4 -13   30.97    0.79
   4 -11  13   30.89    0.91
  11  -4  13   30.16    0.88
   4 -11  13   31.53    0.92
 -11  -4 -13   32.26    1.15
 -11   4  13   31.57    1.07
   4  11 -13   30.07    0.80
   4  11 -13   30.92    0.90
  -4 -11 -11   24.57    0.88
  11  -4  11   23.79    0.78
   4  11 -11   25.51    0.76
   4  11 -11   24.89    0.71
  11   4 -11   25.05    0.67
 -11   4  11   22.74    0.63
 -11  -4 -11   25.86    1.00
  -4 -11 -11   23.45    0.67
  11  -4  11   24.97    0.79
   4 -11  11   26.27    0.78
 -11   4  11   24.83    0.90
  11  -4  11   25.32    0.77
  11  -4  11   25.93    0.78
   4  11 -11   25.56    0.67
  -4 -11  -9    1.42    0.26
  11  -4   9    1.50    0.23
  11  -4   9    1.12    0.19
  11  -4   9    0.97    0.20
 -11   4   9    1.12    0.11
   4 -11   9    0.99    0.20
   4  11  -9    1.23    0.14
   4  11  -9    1.31    0.16
  11   4  -9    1.59    0.38
 -11   4   9    1.15    0.29
  11   4  -9    1.21    0.13
   4  11  -9    1.40    0.19
 -11  -4  -9    1.53    0.36
  11  -4   9    1.11    0.22
  -4  11   7   63.17    1.58
 -11   4   7   59.77    1.49
 -11  -4  -7   60.66    1.52
   4 -11   7   61.36    1.58
  -4  11   7   62.50    1.52
  11  -4   7   62.64    1.63
  11   4  -7   58.57    1.81
  11  -4   7   61.49    1.60
   4  11  -7   63.28    1.53
  11  -4   7   60.73    1.58
   4  11  -7   62.78    1.55
 -11  -4  -7   58.45    1.84
   4  11  -7   62.07    1.59
  -4 -11  -7   62.26    1.71
  11  -4   7   61.30    1.68
   4 -11   7   61.73    1.60
  -4 -11  -5   84.71    2.21
  -4  11   5   83.66    2.11
   4  11  -5   85.59    2.07
  11  -4   5   87.35    2.12
   4  11  -5   83.77    2.11
   4 -11   5   81.96    2.12
   4 -11   5   84.15    2.10
  11   4  -5   82.58    2.33
  11  -4   5   85.91    2.26
  11  -4   5   84.71    2.10
  -4  11   5   87.14    2.06
   4  11  -5   85.51    2.08
  11  -4   5   84.92    2.18
 -11  -4  -5   88.89    2.11
   4  11  -3   22.57    0.66
  11  -4   3   22.02    0.65
  -4  11   3   22.58    0.63
 -11  -4  -3   22.88    0.72
  11  -4   3   21.79    0.66
  11  -4   3   23.26    0.76
  11  -4   3   22.60    0.84
  11   4  -3   21.63    0.84
  -4 -11  -3   21.95    0.74
  -4  11   3   21.44    0.67
 -11   4   3   21.50    0.73
  11  -4   1   70.43    1.73
  11  -4   1   71.81    1.88
   4  11  -1   71.60    1.76
  -4  11   1   70.41    1.74
  11  -4   1   70.35    1.74
  11  -4   1   70.88    2.00
  11   4  -1   67.91    1.94
  -4  11   1   67.65    1.76
  -4 -11  -1   69.48    1.85
 -11  -4  -1   70.44    1.85
 -11   4   1   69.89    1.83
 -11  -4   1   69.87    1.90
  11  -4  -1   70.40    1.71
  -4  11  -1   72.26    1.76
  11  -4  -1   71.18    1.90
  11  -4  -1   73.39    1.74
  -4 -11   1   69.44    1.85
  -4  11  -3   21.28    0.67
  11  -4  -3   22.79    0.60
 -11  -4   3   22.24    0.83
  -4 -11   3   23.50    0.76
  11  -4  -3   22.68    0.63
  11  -4  -3   23.09    0.81
 -11  -4   5   84.53    2.29
  11  -4  -5   84.54    2.01
  -4  11  -5   84.61    2.09
  11  -4  -5   84.48    1.97
   4 -11  -5   82.62    2.12
  -4  11  -5   79.70    2.08
  -4 -11   5   83.45    2.16
  -4  11  -7   57.03    1.47
 -11  -4   7   55.14    1.67
  -4  11  -7   58.13    1.47
   4 -11  -7   56.32    1.50
  11   4   7   57.53    1.57
  11   4   9    1.10    0.24
   4 -11  -9    1.06    0.23
  -4  11  -9    1.45    0.20
  -4  11  -9    0.97    0.19
 -11  -4   9    0.60    0.32
  11   4  11   24.01    0.83
   4 -11 -11   24.24    0.82
 -11   4 -11   26.39    0.99
  11   4  13   28.82    0.91
 -11  -4  13   28.95    1.13
 -11   4 -13   31.85    1.12
   4 -11 -13   31.01    0.99
 -11  -4  15    2.02    0.42
  11   4  15    1.75    0.23
  -4  11 -15    2.24    0.24
  -4 -11  15    1.92    0.19
 -11   4 -15    2.15    0.38
   4 -11 -15    1.83    0.31
 -11   4 -17    9.77    0.62
  -4  11 -17    9.83    0.46
  -4 -11  17    9.48    0.39
  11   4  17   10.38    0.48
 -11  -4  17    9.62    0.67
  -4  11 -19   10.34    0.50
  -4 -11  19   11.13    0.43
 -11   4 -19   10.61    0.64
 -11  -4  19   10.48    0.73
   4  11  21    0.27    0.22
  -4  11 -21    0.69    0.26
 -11   4 -21    0.43    0.37
 -11  -4  21    0.04    0.42
  -4  11 -23    2.74    0.33
 -11  -4  23    2.19    0.52
 -11   4 -23    2.52    0.46
  -4  11 -25    4.23    0.40
 -11  -4  25    3.38    0.56
 -11  -4  27    3.00    0.55
   5  11 -26    3.22    0.32
 -11   5  26    3.51    0.44
   5 -11  26    4.22    0.37
 -11  -5 -26    4.35    0.58
  -5 -11 -24    0.17    0.36
   5  11 -24    0.53    0.23
  11  -5  24    0.81    0.31
   5 -11  24    0.54    0.26
 -11   5  24    0.70    0.35
 -11  -5 -24    0.60    0.44
  -5 -11 -22    8.60    0.61
   5  11 -22    8.88    0.45
 -11   5  22    9.17    0.57
   5 -11  22    8.86    0.49
 -11  -5 -22    7.43    0.63
  -5 -11 -20   16.47    0.80
  11   5 -20   16.34    0.52
   5  11 -20   15.62    0.61
  11  -5  20   16.63    0.69
   5 -11  20   17.40    0.67
 -11   5  20   17.37    0.78
 -11  -5 -20   16.44    0.87
   5  11 -18    0.33    0.20
  11  -5  18    0.23    0.23
  11  -5  18    0.25    0.16
   5 -11  18    0.43    0.21
 -11   5  18    0.11    0.09
 -11  -5 -18    0.23    0.36
  11   5 -18    0.14    0.13
 -11   5  18   -0.10    0.29
  -5 -11 -18    0.30    0.29
  11   5 -16   22.80    0.65
   5  11 -16   23.62    0.74
   5 -11  16   23.00    0.77
  -5  11  16   24.11    0.64
  11  -5  16   23.01    0.80
 -11  -5 -16   21.93    0.97
 -11   5  16   22.84    0.61
   5 -11  16   23.55    0.79
 -11   5  16   23.53    0.90
  11  -5  14   23.31    0.78
   5  11 -14   24.96    0.77
  11   5 -14   24.58    0.68
   5 -11  14   24.30    0.79
 -11   5  14   25.02    0.65
  11  -5  14   23.52    0.75
 -11   5  14   25.86    0.92
 -11  -5 -14   25.99    1.02
   5 -11  14   23.70    0.79
  -5 -11 -12    7.95    0.50
  11  -5  12    7.53    0.38
   5  11 -12    7.98    0.32
   5  11 -12    8.04    0.37
  11   5 -12    7.69    0.30
  11  -5  12    7.87    0.38
 -11   5  12    8.08    0.27
  11   5 -12    7.40    0.55
  11  -5  12    8.51    0.39
 -11   5  12    7.72    0.46
 -11  -5 -12    7.47    0.56
   5 -11  12    8.05    0.40
   5  11 -12    7.57    0.33
  -5 -11 -10   53.22    1.55
  -5  11  10   53.13    1.38
   5  11 -10   52.87    1.33
  11  -5  10   50.80    1.40
  -5 -11 -10   51.83    1.29
   5  11 -10   53.05    1.40
  11   5 -10   53.34    1.32
 -11   5  10   52.57    1.29
  -5  11  10   51.45    1.30
  11  -5  10   50.81    1.40
  11   5 -10   51.39    1.64
 -11   5  10   51.24    1.51
 -11  -5 -10   51.24    1.65
   5 -11  10   52.25    1.42
   5  11 -10   53.52    1.35
  11  -5  10   52.08    1.42
   5  11  -8   52.62    1.34
  -5 -11  -8   51.87    1.51
  -5  11   8   53.92    1.37
  11   5  -8   50.24    1.61
 -11   5   8   51.38    1.29
  11  -5   8   52.58    1.40
 -11  -5  -8   52.60    1.29
   5  11  -8   52.78    1.38
   5 -11   8   53.12    1.39
  -5  11   8   52.18    1.30
  11  -5   8   51.78    1.38
 -11   5   8   49.31    1.48
  11  -5   8   51.97    1.42
   5  11  -8   53.23    1.33
 -11  -5  -8   52.05    1.64
  11  -5   8   51.93    1.45
   5 -11   8   51.30    1.40
  -5  11   6    4.60    0.27
  -5  11   6    4.62    0.21
  11  -5   6    4.43    0.26
   5 -11   6    4.36    0.25
   5  11  -6    4.60    0.27
   5  11  -6    4.49    0.25
  11   5  -6    3.83    0.14
  11  -5   6    3.96    0.25
  11   5  -6    3.97    0.42
  11  -5   6    4.81    0.32
  11  -5   6    4.40    0.34
   5  11  -6    4.57    0.24
 -11   5   6    4.09    0.20
 -11  -5  -6    4.31    0.24
  -5 -11  -6    4.96    0.37
   5 -11   6    4.40    0.28
   5  11  -4  107.57    2.54
  11  -5   4  106.21    2.54
 -11   5   4  101.45    2.50
  -5  11   4  105.63    2.51
   5 -11   4  100.45    2.55
 -11  -5  -4  106.80    2.60
  11  -5   4  108.43    2.74
  11   5  -4  104.55    2.77
  11  -5   4  102.72    2.56
   5  11  -4  104.45    2.55
  11  -5   4  105.61    2.64
  -5 -11  -4  105.78    2.69
  -5  11   4  103.55    2.56
  11  -5   2  100.12    2.58
   5  11  -2  102.20    2.49
   5  11  -2  102.94    2.47
  11  -5   2  100.25    2.45
 -11   5   2  102.84    2.56
 -11  -5  -2   98.75    2.56
  11  -5   2  102.98    2.71
  11  -5   2  103.44    2.48
  11   5  -2   98.90    2.67
  -5  11   2  101.24    2.45
  -5  11   2   98.49    2.48
  -5 -11  -2  102.71    2.61
  11  -5   0    1.22    0.14
 -11  -5   0    1.57    0.28
  -5  11   0    1.11    0.15
  11  -5   0    1.57    0.33
 -11  -5   0    1.98    0.37
  11  -5   0    1.43    0.25
  -5  11   0    1.35    0.18
  11  -5   0    1.30    0.16
  -5 -11   0    1.62    0.26
  11   5   0    1.41    0.27
  11  -5  -2  102.27    2.38
  11  -5  -2   99.56    2.55
 -11  -5   2   99.71    2.57
  -5  11  -2   98.91    2.40
  -5 -11   2  104.46    2.54
  11   5   2   96.79    2.55
  11  -5  -2  102.95    2.33
  11  -5  -4  104.68    2.46
  -5 -11   4  104.24    2.64
  -5  11  -4  108.26    2.51
  11  -5  -4   96.45    2.40
   5 -11  -4  102.16    2.55
 -11  -5   4  102.96    2.70
 -11   5  -4  107.36    2.52
  -5  11  -6    4.87    0.27
   5 -11  -6    4.18    0.30
 -11  -5   6    4.68    0.42
 -11   5  -6    4.62    0.28
  11   5   8   50.62    1.44
  -5  11  -8   51.36    1.35
  -5  11  -8   49.76    1.34
   5 -11  -8   50.07    1.40
 -11   5  -8   50.85    1.37
  11  -5  -8   49.94    1.52
  11   5  10   51.50    1.44
 -11   5 -10   51.02    1.39
   5 -11 -10   52.58    1.44
  11  -5 -10   51.51    1.55
  -5  11 -10   50.06    1.35
  -5  11 -10   47.38    1.35
   5 -11 -12    8.22    0.47
  11   5  14   25.97    0.83
   5 -11 -14   26.43    0.91
 -11   5 -14   25.59    0.99
 -11  -5  14   22.96    1.03
  -5  11 -16   21.97    0.77
  11   5  16   22.23    0.77
 -11   5 -16   23.30    0.94
   5 -11 -16   23.98    0.87
 -11  -5  16   20.73    0.98
  11   5  18    0.22    0.22
 -11  -5  18   -0.07    0.35
 -11   5 -18    0.27    0.37
  -5  11 -18    0.06    0.21
   5  11  20   17.73    0.64
 -11  -5  20   16.99    0.91
  -5  11 -20   15.02    0.66
 -11   5 -20   15.94    0.81
  -5  11 -22    9.13    0.52
 -11   5 -22    8.99    0.64
 -11  -5  22   10.07    0.74
  -5  11 -24    1.35    0.32
 -11  -5  24    0.82    0.46
  -5  11 -26    4.44    0.43
 -11  -5  26    3.49    0.55
   6  11 -25    0.85    0.28
  -6 -11 -25    1.32    0.44
 -11   6  25    1.11    0.34
 -11  -6 -25    0.99    0.44
  -6 -11 -23    4.04    0.50
   6  11 -23    3.91    0.32
  11  -6  23    3.75    0.36
 -11   6  23    3.23    0.41
   6 -11  23    3.56    0.34
 -11  -6 -23    3.68    0.53
  -6 -11 -21    0.38    0.34
  11   6 -21    0.45    0.16
   6  11 -21    0.82    0.21
 -11   6  21    0.56    0.30
   6 -11  21    0.65    0.26
 -11  -6 -21    0.18    0.38
  -6 -11 -19   10.77    0.64
   6  11 -19   10.56    0.46
  11  -6  19    8.69    0.39
  -6  11  19    9.12    0.29
  11  -6  19   10.50    0.52
  11   6 -19   10.56    0.38
 -11   6  19   10.92    0.59
   6 -11  19   11.32    0.52
 -11  -6 -19   10.86    0.72
  -6 -11 -17    9.13    0.59
  11   6 -17   10.17    0.38
   6  11 -17   10.38    0.45
  -6  11  17   10.30    0.31
  11  -6  17    8.38    0.39
  11  -6  17   11.54    0.52
   6 -11  17    9.74    0.47
  -6  11  17    9.45    0.30
  11   6 -17    9.18    0.64
 -11   6  17   11.81    0.61
   6 -11  17   10.16    0.50
   6  11 -17   10.68    0.45
 -11   6  17   10.58    0.34
 -11  -6 -17   10.13    0.68
  11   6 -15    2.25    0.19
   6  11 -15    2.43    0.24
   6 -11  15    2.28    0.25
  11  -6  15    2.09    0.23
  -6  11  15    2.42    0.14
  11   6 -15    2.18    0.42
 -11   6  15    2.57    0.16
   6 -11  15    2.43    0.27
 -11   6  15    2.54    0.35
   6  11 -15    1.92    0.24
 -11  -6 -15    2.06    0.40
  -6  11  15    2.41    0.15
  11  -6  13   23.12    0.75
  11  -6  13   23.27    0.77
  11  -6  13   24.79    0.75
   6 -11  13   24.63    0.80
  11   6 -13   24.00    0.69
  -6  11  13   23.50    0.63
   6  11 -13   24.26    0.76
  11   6 -13   22.15    0.97
 -11   6  13   23.67    0.88
 -11   6  13   24.66    0.66
  -6  11  13   23.93    0.74
 -11  -6 -13   24.06    1.01
   6  11 -13   24.79    0.76
  11  -6  11   36.17    0.99
  -6  11  11   33.45    0.95
  11  -6  11   34.16    0.98
   6  11 -11   34.29    0.90
  11  -6  11   34.65    0.99
   6 -11  11   30.62    0.97
  11   6 -11   33.02    0.90
  -6  11  11   33.93    0.86
 -11   6  11   33.69    1.09
 -11   6  11   34.24    0.88
  11   6 -11   32.48    1.18
  -6 -11 -11   31.32    0.83
  -6 -11 -11   34.24    1.15
   6  11 -11   33.86    0.97
 -11  -6 -11   33.12    1.22
   6 -11  11   34.60    1.01
   6  11 -11   36.23    0.97
  -6  11   9    8.46    0.36
  11  -6   9    8.43    0.38
 -11   6   9    8.27    0.30
  11   6  -9    7.87    0.32
  11  -6   9    7.94    0.41
  -6  11   9    8.50    0.29
   6  11  -9    8.29    0.37
   6 -11   9    8.84    0.38
  11  -6   9    8.24    0.39
  11  -6   9    8.65    0.41
   6  11  -9    8.33    0.32
 -11   6   9    8.43    0.46
  11   6  -9    8.25    0.56
 -11  -6  -9    7.90    0.56
   6 -11   9    8.28    0.39
   6  11  -9    8.29    0.37
  -6 -11  -9    8.38    0.49
  -6  11   7   36.14    0.97
  11  -6   7   36.60    0.97
  11   6  -7   34.22    1.17
  -6  11   7   35.29    0.89
 -11   6   7   32.58    1.05
   6  11  -7   35.46    0.98
  11  -6   7   35.71    0.99
 -11   6   7   34.86    0.90
  11  -6   7   34.37    1.02
   6 -11   7   34.76    0.97
   6  11  -7   34.56    0.92
  11  -6   7   37.15    1.07
  11   6  -7   31.94    0.82
   6 -11   7   31.54    0.98
 -11  -6  -7   35.64    0.92
  -6 -11  -7   36.13    1.12
   6  11  -7   35.10    0.97
  11   6  -5   40.65    1.30
  11  -6   5   39.48    1.08
  -6  11   5   41.06    1.04
   6 -11   5   40.24    1.10
   6  11  -5   40.30    1.10
   6 -11   5   40.33    1.11
  11  -6   5   40.88    1.11
 -11  -6  -5   39.88    1.11
  11  -6   5   39.97    1.16
  11  -6   5   41.08    1.24
  -6 -11  -5   40.28    1.24
  -6  11   5   40.09    1.10
 -11   6   5   40.49    1.04
   6  11  -5   41.14    1.06
  11  -6   3    0.70    0.23
   6  11  -3    0.28    0.16
  -6  11   3    0.33    0.11
  11  -6   3    0.47    0.14
 -11  -6  -3    0.16    0.22
   6 -11   3    0.36    0.16
 -11   6   3    0.40    0.12
  11  -6   3    0.54    0.29
 -11  -6  -3    0.68    0.30
  11  -6   3    0.54    0.14
   6  11  -3    0.53    0.15
  11   6  -3    0.18    0.24
  -6  11   3    0.41    0.16
  -6 -11  -3    0.45    0.24
 -11  -6  -1   33.72    1.04
  11  -6   1   33.56    0.93
   6 -11   1   32.77    0.94
  11  -6   1   33.35    0.89
 -11   6   1   33.08    0.90
  11  -6   1   33.36    1.15
 -11  -6  -1   31.26    1.20
  -6  11   1   33.59    0.94
  -6 -11  -1   32.60    1.07
  11   6  -1   34.15    1.09
   6  11  -1   33.76    0.96
  -6  11   1   33.68    0.90
  11  -6   1   34.93    1.05
 -11   6   1   33.68    0.89
  11  -6  -1   33.84    1.06
  -6  11  -1   34.79    0.94
 -11   6  -1   32.72    0.93
  11  -6  -1   34.98    0.89
  -6  11  -1   34.40    0.96
  -6 -11   1   33.92    1.08
 -11  -6   1   34.20    1.08
  11   6   1   34.99    1.09
  11  -6  -1   35.28    0.94
  11  -6  -3    0.37    0.14
  -6  11  -3    0.24    0.14
  11   6   3    0.15    0.21
  11  -6  -3    0.38    0.09
   6 -11  -3    0.44    0.18
  -6  11  -3    0.28    0.15
  -6 -11   3    0.42    0.23
 -11   6  -3    0.29    0.13
 -11   6  -5   39.93    1.10
  -6  11  -5   41.99    1.09
  11  -6  -5   39.64    0.97
   6 -11  -5   39.20    1.14
 -11   6  -7   31.90    0.94
  -6  11  -7   33.65    0.94
  11  -6  -7   31.56    1.08
   6 -11  -7   31.80    0.99
 -11   6  -9    7.02    0.36
   6 -11  -9    7.57    0.42
  11   6   9    7.18    0.41
  -6  11  -9    7.73    0.36
  -6  11  -9    7.21    0.35
  11  -6  -9    6.77    0.49
 -11   6 -11   31.35    0.98
   6 -11 -11   34.21    1.07
  -6  11 -11   32.51    0.97
  11  -6 -11   31.85    1.13
   6 -11 -13   22.43    0.87
  11   6  13   25.06    0.81
 -11   6 -13   23.62    0.80
 -11   6 -15    1.50    0.25
  11   6  15    2.13    0.25
   6 -11 -15    2.21    0.36
  11   6  17   11.03    0.50
 -11  -6  17   10.53    0.72
 -11   6 -17   11.20    0.63
  -6  11 -17   10.82    0.51
  -6  11 -19   10.41    0.52
 -11   6 -19   11.56    0.68
 -11  -6  19   10.61    0.73
   6  11  19   11.91    0.52
 -11  -6  21    0.31    0.46
 -11   6 -21    0.73    0.36
  -6  11 -21    0.53    0.26
  -6  11 -23    3.20    0.36
 -11  -6  23    4.20    0.60
 -11  -6  25    0.82    0.51
  -6  11 -25    0.87    0.31
   7 -11  26    0.42    0.29
 -11  -7 -26    0.42    0.46
   7  11 -24    0.43    0.22
  -7 -11 -24    0.36    0.38
 -11   7  24    0.56    0.31
  11  -7  24    0.82    0.29
 -11  -7 -24    0.44    0.40
 -11   7  22    1.73    0.33
   7  11 -22    2.10    0.25
  11  -7  22    2.51    0.32
 -11  -7 -22    2.11    0.45
  -7 -11 -22    2.64    0.45
  -7 -11 -20    2.24    0.41
  11   7 -20    1.95    0.20
  11   7 -20    2.50    0.43
   7  11 -20    2.17    0.25
  11  -7  20    1.82    0.29
 -11   7  20    1.94    0.36
   7 -11  20    2.34    0.30
 -11  -7 -20    1.36    0.40
  -7 -11 -18    2.51    0.39
  11   7 -18    2.49    0.22
   7  11 -18    2.26    0.24
  -7  11  18    1.91    0.23
  11   7 -18    2.48    0.44
 -11   7  18    2.72    0.36
   7 -11  18    2.29    0.32
   7  11 -18    2.38    0.29
 -11  -7 -18    2.84    0.46
 -11   7  18    2.07    0.17
   7  11 -16    0.61    0.19
  -7  11  16    0.53    0.06
   7 -11  16    0.87    0.21
  11   7 -16    0.68    0.16
  11  -7  16    0.79    0.24
  11   7 -16    0.86    0.38
 -11   7  16    0.97    0.29
  -7  11  16    0.52    0.17
   7 -11  16    0.71    0.22
   7  11 -16    0.82    0.24
 -11   7  16    0.60    0.13
 -11  -7 -16    1.01    0.36
  11  -7  14    2.90    0.28
  11   7 -14    3.08    0.21
   7  11 -14    3.03    0.25
  -7  11  14    2.63    0.13
  11   7 -14    2.92    0.43
 -11   7  14    3.28    0.35
 -11   7  14    2.79    0.18
  -7  11  14    3.27    0.25
   7 -11  14    2.74    0.28
   7  11 -14    2.80    0.29
 -11  -7 -14    3.60    0.46
  11  -7  12    7.70    0.36
  -7  11  12    7.37    0.34
  11  -7  12    7.86    0.39
   7  11 -12    7.17    0.29
   7 -11  12    7.27    0.40
  11  -7  12    7.17    0.37
   7  11 -12    7.03    0.35
  11   7 -12    7.50    0.32
   7 -11  12    6.95    0.38
 -11   7  12    7.07    0.44
  11   7 -12    7.43    0.53
 -11   7  12    8.08    0.30
  -7  11  12    7.28    0.24
 -11  -7 -12    7.08    0.55
   7  11 -12    7.59    0.39
  11   7 -10   10.00    0.39
  -7  11  10   11.00    0.42
  11  -7  10   10.60    0.45
   7 -11  10   10.47    0.45
  -7  11  10   10.84    0.33
  11  -7  10   11.29    0.47
   7  11 -10   10.50    0.37
 -11   7  10   11.07    0.52
   7  11 -10   11.44    0.43
  11  -7  10    9.96    0.45
 -11   7  10   11.13    0.37
 -11  -7 -10   11.02    0.65
   7 -11  10   11.30    0.47
  11   7 -10   10.43    0.59
   7  11 -10   11.37    0.47
  -7 -11 -10   10.89    0.58
  11  -7  10   10.86    0.45
  11   7  -8    3.44    0.39
   7  11  -8    3.64    0.20
  11  -7   8    3.91    0.27
  -7  11   8    3.58    0.18
   7 -11   8    3.78    0.27
  11  -7   8    4.11    0.30
   7  11  -8    3.18    0.24
 -11   7   8    3.96    0.32
 -11   7   8    3.46    0.21
  11  -7   8    3.51    0.27
  11   7  -8    3.37    0.12
 -11  -7  -8    3.23    0.19
  11  -7   8    3.73    0.31
  -7  11   8    3.40    0.25
   7  11  -8    3.35    0.28
  -7 -11  -8    2.95    0.36
   7  11  -6    0.30    0.14
 -11  -7  -6    0.34    0.17
  11   7  -6    0.22    0.09
  11  -7   6    0.43    0.17
   7 -11   6    0.22    0.16
   7  11  -6    0.15    0.18
 -11   7   6    0.30    0.13
   7 -11   6    0.31    0.17
  11  -7   6    0.50    0.21
  11   7  -6    0.41    0.28
  11  -7   6    0.02    0.24
  11  -7   6    0.29    0.18
  -7 -11  -6    0.21    0.26
  -7  11   6    0.46    0.17
  -7  11   6    0.39    0.11
   7  11  -4    1.36    0.21
 -11   7   4    1.27    0.15
   7 -11   4    1.57    0.19
   7  11  -4    1.30    0.17
  -7  11   4    1.57    0.15
  11  -7   4    1.26    0.29
  11  -7   4    1.14    0.17
 -11  -7  -4    1.25    0.36
 -11  -7  -4    1.37    0.24
  11  -7   4    1.28    0.18
  11   7  -4    1.74    0.32
  11  -7   4    1.31    0.23
  -7  11   4    1.15    0.17
  -7 -11  -4    1.35    0.27
   7  11  -2    7.52    0.36
  -7  11   2    7.41    0.30
  11  -7   2    7.69    0.31
 -11   7   2    7.46    0.28
   7 -11   2    7.22    0.31
  11  -7   2    8.06    0.52
 -11  -7  -2    7.29    0.41
 -11  -7  -2    7.03    0.54
  -7  11   2    7.86    0.34
  11  -7   2    7.84    0.34
  -7 -11  -2    7.42    0.46
  11  -7   2    7.55    0.40
  11   7  -2    8.11    0.45
 -11   7   2    7.54    0.31
   7 -11   2    7.40    0.35
  11  -7   0    3.77    0.21
   7  11   0    3.80    0.28
  11  -7   0    3.90    0.33
  -7  11   0    3.97    0.22
 -11   7   0    3.90    0.22
   7 -11   0    3.80    0.26
  -7  11   0    4.05    0.25
 -11  -7   0    3.90    0.46
  -7 -11   0    3.51    0.36
 -11   7   0    3.86    0.23
  11  -7   0    3.91    0.24
  11   7   0    3.33    0.32
  11  -7  -2    7.44    0.31
   7  11   2    7.46    0.37
 -11   7  -2    7.03    0.31
  11  -7  -2    7.76    0.27
   7 -11  -2    7.16    0.37
  -7 -11   2    7.44    0.47
  -7  11  -2    7.24    0.32
  -7  11  -2    6.95    0.33
  11   7   2    7.18    0.42
 -11   7  -4    1.28    0.18
  11   7   4    1.60    0.26
  11  -7  -4    1.68    0.17
  11  -7  -4    1.66    0.12
  -7  11  -4    1.39    0.18
  -7  11  -4    1.79    0.18
  -7 -11   4    1.94    0.32
   7 -11  -4    1.32    0.22
   7 -11  -6    0.41    0.23
  11  -7  -6    0.06    0.28
  -7  11  -6    0.35    0.16
 -11   7  -6    0.30    0.17
  11  -7  -8    3.98    0.39
 -11   7  -8    3.42    0.27
   7 -11  -8    4.33    0.35
  -7  11  -8    3.76    0.26
  -7  11 -10   10.05    0.43
 -11   7 -10    9.99    0.44
  11   7  10    9.36    0.48
   7 -11 -10    9.71    0.50
  11  -7 -10   10.22    0.59
  -7  11 -12    6.89    0.38
 -11   7 -12    7.76    0.40
   7 -11 -12    6.94    0.44
  11  -7 -12    7.50    0.54
 -11   7 -14    3.39    0.30
   7 -11 -14    3.21    0.38
  11   7  14    3.03    0.30
  11   7  16    0.38    0.21
  -7  11 -18    2.01    0.28
  -7  11 -20    2.29    0.30
 -11  -7  20    1.57    0.48
  -7  11 -22    1.99    0.32
 -11  -7  22    1.53    0.51
  -7  11 -24    0.44    0.28
 -11  -7  24    0.92    0.51
 -11   8  25    2.43    0.37
   8 -11  25    1.60    0.31
 -11  -8 -25    1.89    0.49
   8 -11  23    1.41    0.31
 -11   8  23    0.86    0.31
   8  11 -23    1.55    0.25
  11  -8  23    1.34    0.30
  -8 -11 -23    1.45    0.45
 -11  -8 -23    0.92    0.45
  -8 -11 -21    0.88    0.41
  11   8 -21    1.42    0.20
   8  11 -21    1.71    0.23
 -11   8  21    1.65    0.34
  11  -8  21    1.61    0.31
   8 -11  21    1.17    0.28
 -11  -8 -21    1.86    0.45
   8  11 -19    4.44    0.31
  -8  11  19    4.66    0.29
  11   8 -19    5.15    0.28
  11  -8  19    4.65    0.39
 -11   8  19    4.68    0.43
  11   8 -19    4.85    0.51
  -8 -11 -19    4.85    0.50
   8 -11  19    4.53    0.37
 -11  -8 -19    4.32    0.53
 -11   8  17    4.29    0.38
  -8 -11 -17    3.72    0.45
  -8  11  17    3.65    0.26
   8  11 -17    3.59    0.27
  11  -8  17    3.29    0.32
  11   8 -17    3.31    0.44
  11   8 -17    3.78    0.24
   8 -11  17    3.12    0.32
   8  11 -17    3.94    0.34
 -11   8  17    3.62    0.22
  -8  11  15    6.02    0.31
  11  -8  15    6.12    0.37
   8  11 -15    6.39    0.33
 -11   8  15    6.40    0.44
  11  -8  15    6.03    0.39
  11   8 -15    6.00    0.31
   8 -11  15    6.86    0.41
   8  11 -15    6.74    0.42
 -11   8  15    6.25    0.28
  11   8 -15    5.88    0.49
 -11  -8 -15    6.02    0.55
   8  11 -13    0.82    0.24
  11  -8  13    0.52    0.17
  -8  11  13    0.30    0.06
 -11   8  13    0.45    0.25
   8  11 -13    0.31    0.17
  11   8 -13    0.40    0.16
  -8  11  13    0.52    0.17
   8 -11  13    0.37    0.19
  11   8 -13    0.15    0.31
  11  -8  13    0.22    0.19
   8 -11  13    0.35    0.21
 -11  -8 -13    0.19    0.31
 -11   8  13    0.39    0.14
  11  -8  11    4.37    0.28
   8 -11  11    5.07    0.31
   8  11 -11    4.70    0.22
  11  -8  11    4.16    0.29
  11  -8  11    4.14    0.30
 -11   8  11    4.22    0.35
  11   8 -11    4.61    0.25
   8  11 -11    4.41    0.29
  -8  11  11    4.56    0.17
 -11   8  11    4.31    0.23
  11   8 -11    4.52    0.43
   8 -11  11    4.41    0.32
   8  11 -11    4.91    0.34
  -8  11  11    4.02    0.27
  -8 -11 -11    4.27    0.42
   8 -11   9    1.50    0.12
  -8  11   9    1.71    0.12
  11  -8   9    1.41    0.22
   8 -11   9    1.29    0.21
  11   8  -9    1.67    0.09
   8  11  -9    1.63    0.22
  -8  11   9    1.78    0.20
  11  -8   9    1.27    0.24
  11   8  -9    1.45    0.19
  11  -8   9    1.48    0.22
   8  11  -9    1.47    0.16
 -11   8   9    1.56    0.17
 -11  -8  -9    1.43    0.11
  11   8  -9    1.68    0.35
   8  11  -9    1.99    0.26
  -8 -11  -9    1.81    0.33
  11  -8   9    1.86    0.24
  11  -8   7    6.15    0.32
  -8  11   7    6.62    0.24
   8 -11   7    6.47    0.33
  11  -8   7    5.76    0.37
 -11   8   7    6.59    0.28
   8  11  -7    6.02    0.32
  11  -8   7    6.66    0.35
 -11  -8  -7    6.14    0.30
  11   8  -7    6.55    0.46
   8 -11   7    5.88    0.30
  11  -8   7    5.91    0.38
   8  11  -7    5.96    0.27
  -8  11   7    5.83    0.30
  -8 -11  -7    6.08    0.46
  11   8  -7    6.17    0.22
   8  11  -7    6.43    0.37
 -11   8   5   25.16    0.65
  -8  11   5   25.37    0.68
  11  -8   5   24.19    0.73
   8 -11   5   24.98    0.74
 -11   8   5   24.68    0.71
  11  -8   5   24.83    0.82
   8 -11   5   24.70    0.81
  11  -8   5   24.90    0.88
 -11  -8  -5   25.43    0.79
  11  -8   5   24.20    0.77
 -11  -8  -5   24.08    1.00
  -8  11   5   24.73    0.74
   8  11  -5   24.30    0.70
  11   8  -5   25.09    0.90
  -8 -11  -5   25.31    0.93
   8 -11   5   21.85    0.76
   8  11  -5   25.05    0.80
   8  11  -3   24.57    0.80
 -11   8   3   24.78    0.67
  -8  11   3   24.77    0.69
   8 -11   3   24.31    0.76
   8 -11   3   25.25    0.73
  11  -8   3   25.05    0.92
  11  -8   3   24.13    0.82
 -11  -8  -3   25.00    1.01
  -8  11   3   24.36    0.74
  -8 -11  -3   24.12    0.92
  11  -8   3   24.65    0.75
 -11  -8  -3   24.14    0.81
  11   8  -3   25.11    0.89
  11  -8   3   23.42    0.71
 -11   8   3   25.03    0.71
   8  11  -1   16.77    0.60
   8 -11   1   17.24    0.57
 -11   8   1   15.73    0.53
  11  -8   1   16.67    0.51
   8 -11   1   16.27    0.52
  -8  11   1   16.52    0.55
 -11  -8  -1   15.63    0.79
  -8  11   1   16.39    0.51
  -8 -11  -1   16.62    0.72
  11  -8   1   16.27    0.63
  11  -8   1   15.76    0.54
 -11   8   1   16.49    0.50
  11   8  -1   16.61    0.67
  11  -8  -1   15.29    0.51
 -11   8  -1   16.40    0.51
 -11   8  -1   15.19    0.52
   8  11   1   15.26    0.58
  -8  11  -1   15.08    0.50
  -8  11  -1   15.52    0.53
   8 -11  -1   15.55    0.59
 -11  -8   1   15.41    0.78
  -8 -11   1   14.14    0.70
  11  -8  -1   15.90    0.47
  11  -8  -1   14.72    0.62
  11   8   1   15.37    0.63
  11   8   3   22.52    0.81
 -11   8  -3   23.63    0.71
  -8  11  -3   23.97    0.71
  11  -8  -3   22.90    0.70
  -8  11  -3   24.04    0.73
  11  -8  -3   24.47    0.64
  -8 -11   3   24.11    0.93
   8 -11  -3   22.65    0.78
   8  11   3   23.78    0.78
  11   8   5   25.66    0.87
  -8  11  -5   26.85    0.78
  -8  11  -5   26.18    0.79
  11  -8  -5   24.92    0.90
   8 -11  -5   25.09    0.85
 -11   8  -5   26.27    0.78
 -11   8  -7    7.06    0.35
  -8  11  -7    6.49    0.33
  11   8   7    6.33    0.39
  11  -8  -7    6.75    0.45
   8 -11  -7    6.30    0.41
   8 -11  -9    1.71    0.32
 -11   8  -9    1.90    0.23
  11  -8  -9    1.22    0.30
  -8  11  -9    2.05    0.22
 -11   8 -11    4.46    0.31
  -8  11 -11    4.29    0.30
   8 -11 -11    4.01    0.39
  11  -8 -11    4.51    0.44
 -11   8 -13    0.39    0.22
  -8  11 -13    0.38    0.20
   8 -11 -13    0.51    0.30
  11  -8 -13    0.64    0.35
  11   8  15    6.44    0.40
 -11   8 -15    6.00    0.39
   8 -11 -15    5.86    0.48
  -8  11 -19    5.08    0.38
 -11  -8  21    1.37    0.51
  -8  11 -21    1.74    0.31
  -8  11 -23    0.96    0.30
 -11  -8  23    1.14    0.52
 -11  -8  25    1.89    0.52
  11  -9  24    4.36    0.43
   9 -11  24    4.91    0.44
 -11  -9 -24    3.93    0.59
  -9 -11 -24    3.64    0.54
   9  11 -22    6.53    0.38
  11  -9  22    6.03    0.47
   9 -11  22    7.67    0.50
 -11  -9 -22    6.75    0.65
  -9 -11 -22    6.28    0.62
  11   9 -20    3.93    0.27
   9  11 -20    3.79    0.29
  11  -9  20    4.58    0.39
   9 -11  20    4.33    0.38
  -9 -11 -20    3.69    0.49
  -9  11  18    0.98    0.19
   9  11 -18    0.79    0.21
  11   9 -18    0.66    0.18
  11  -9  18    0.76    0.26
  11   9 -18    0.59    0.33
   9 -11  18    0.95    0.28
 -11  -9 -18    0.36    0.36
  -9 -11 -18    0.65    0.36
  -9  11  16    2.85    0.24
   9  11 -16    2.99    0.24
  11   9 -16    2.97    0.23
  11  -9  16    2.26    0.30
  11   9 -16    2.72    0.39
   9 -11  16    2.57    0.30
 -11   9  16    2.70    0.20
 -11  -9 -16    3.08    0.46
  -9 -11 -16    2.40    0.41
   9  11 -14    9.98    0.41
  11   9 -14    8.72    0.38
   9 -11  14    9.32    0.44
  11   9 -14    8.63    0.56
   9 -11  14    8.40    0.45
 -11   9  14    9.17    0.36
 -11  -9 -14    8.87    0.63
  -9  11  14    9.32    0.39
   9  11 -12    3.22    0.24
  -9  11  12    2.35    0.09
   9  11 -12    2.87    0.17
  11  -9  12    2.88    0.22
  11   9 -12    3.12    0.23
   9 -11  12    3.09    0.26
  11  -9  12    3.28    0.27
 -11   9  12    2.79    0.20
  11   9 -12    2.76    0.36
   9 -11  12    2.88    0.29
   9  11 -12    3.31    0.33
  -9  11  12    2.95    0.22
  11   9 -10   20.30    0.50
  11  -9  10   17.27    0.67
  11  -9  10   20.94    0.68
  11  -9  10   20.80    0.71
   9 -11  10   20.32    0.67
   9  11 -10   21.16    0.66
 -11  -9 -10   17.02    0.48
   9  11 -10   20.41    0.56
  11   9 -10   21.09    0.63
  -9  11  10   19.53    0.51
 -11   9  10   20.49    0.60
  -9 -11 -10   18.42    0.54
  11   9 -10   19.62    0.82
   9  11 -10   20.77    0.73
  -9  11  10   20.01    0.62
  -9 -11 -10   18.30    0.85
  11   9  -8   23.50    0.61
  -9  11   8   22.84    0.61
  11  -9   8   23.09    0.73
  11  -9   8   22.79    0.78
   9  11  -8   23.64    0.73
 -11   9   8   22.69    0.68
   9 -11   8   22.88    0.74
  11  -9   8   22.65    0.76
   9  11  -8   23.41    0.65
  11   9  -8   24.37    0.89
 -11  -9  -8   22.82    0.67
  -9  11   8   23.33    0.70
  11  -9   8   22.32    0.75
   9 -11   8   23.19    0.69
  -9 -11  -8   22.17    0.92
   9  11  -8   23.52    0.80
 -11   9   6   18.52    0.50
  11   9  -6   18.22    0.52
   9 -11   6   18.27    0.65
  -9  11   6   19.16    0.52
  11  -9   6   18.29    0.60
  11  -9   6   18.84    0.68
 -11  -9  -6   18.53    0.85
  -9 -11  -6   17.77    0.80
 -11   9   6   17.54    0.57
   9 -11   6   18.49    0.61
  11  -9   6   17.97    0.70
  -9  11   6   18.54    0.60
  11  -9   6   17.53    0.63
 -11  -9  -6   18.79    0.63
  11   9  -6   18.06    0.74
   9 -11   6   17.70    0.63
   9  11  -6   17.55    0.67
   9  11  -6   18.26    0.55
   9 -11   4    0.79    0.20
  -9  11   4    1.07    0.13
   9  11  -4    1.01    0.16
  11  -9   4    0.91    0.17
   9 -11   4    1.11    0.17
 -11   9   4    0.94    0.13
 -11   9   4    0.77    0.17
   9 -11   4    1.30    0.29
  11  -9   4    1.10    0.30
  11  -9   4    0.81    0.23
  -9  11   4    1.01    0.17
 -11  -9  -4    1.37    0.35
  -9 -11  -4    0.93    0.29
   9  11  -4    0.99    0.23
  11  -9   4    0.91    0.19
  11   9  -4    1.11    0.28
   9  11  -2   21.22    0.74
 -11   9   2   21.79    0.62
   9 -11   2   20.49    0.68
  -9  11   2   21.76    0.62
   9 -11   2   19.66    0.72
 -11   9   2   21.16    0.65
  11  -9   2   22.13    0.64
   9 -11   2   20.82    0.65
  11  -9   2   19.44    0.83
  -9  11   2   20.77    0.66
 -11  -9  -2   21.75    0.93
  11  -9   2   21.77    0.76
  -9 -11  -2   19.93    0.86
  11  -9   2   21.87    0.69
  11   9  -2   23.14    0.81
 -11   9   0   96.41    2.37
   9  11   0   96.71    2.48
  -9  11   0   99.26    2.37
   9 -11   0   97.15    2.42
 -11   9   0   95.29    2.39
  11  -9   0   98.10    2.35
  -9  11   0   97.89    2.41
   9 -11   0   94.33    2.36
  -9 -11   0   96.85    2.67
  11  -9   0   94.01    2.51
  11  -9   0   99.71    2.42
 -11  -9   0  100.51    2.76
  11   9   0   95.76    2.53
  11   9   2   23.18    0.81
 -11   9  -2   21.85    0.68
  -9  11  -2   23.25    0.69
  11  -9  -2   22.96    0.70
   9  11   2   21.59    0.76
  -9  11  -2   22.41    0.71
 -11   9  -2   22.91    0.70
  11  -9  -2   23.10    0.64
 -11  -9   2   24.30    1.02
  -9 -11   2   22.48    0.93
   9 -11  -2   22.44    0.78
   9 -11  -4    1.16    0.26
 -11   9  -4    1.47    0.19
   9  11   4    1.60    0.25
  11   9   4    0.94    0.24
  -9  11  -4    1.03    0.19
  11  -9  -4    1.42    0.29
  -9  11  -4    1.16    0.18
   9 -11  -6   17.17    0.68
 -11   9  -6   17.92    0.59
  -9  11  -6   16.32    0.58
  -9  11  -6   17.29    0.60
  11  -9  -6   17.25    0.72
  11   9   6   17.26    0.67
  -9  11  -8   22.45    0.74
 -11   9  -8   23.50    0.76
   9 -11  -8   24.63    0.87
  11   9   8   23.97    0.82
  11  -9  -8   22.78    0.88
  -9  11 -10   20.73    0.69
 -11   9 -10   19.39    0.68
  11  -9 -10   18.97    0.82
   9 -11 -10   19.96    0.80
 -11   9 -12    2.72    0.28
  -9  11 -12    3.28    0.28
  11  -9 -12    3.64    0.44
   9 -11 -12    3.16    0.38
 -11   9 -14    8.40    0.45
  -9  11 -14    8.69    0.44
  11  -9 -14    9.78    0.60
 -11   9 -16    3.13    0.32
   9 -11 -16    2.70    0.42
  -9  11 -20    3.67    0.37
  -9  11 -22    5.61    0.45
  -9  11 -24    4.28    0.42
 -11  -9  24    4.85    0.67
  10 -11  23    5.79    0.45
  11 -10  23    5.80    0.45
 -11 -10 -23    5.15    0.63
 -10 -11 -23    4.08    0.58
  11  10 -21    0.53    0.19
  10  11 -21    0.28    0.20
  11 -10  21    0.68    0.28
  10 -11  21    0.59    0.27
 -11 -10 -21    0.85    0.45
 -10 -11 -21    1.03    0.40
  10  11 -19   17.38    0.64
  11 -10  19   19.02    0.76
  10 -11  19   17.91    0.74
  11  10 -19   19.08    0.63
 -11 -10 -19   19.78    0.99
 -10 -11 -19   18.18    0.95
  10  11 -17   17.78    0.62
  11  10 -17   18.31    0.62
  11 -10  17   18.53    0.72
  10 -11  17   17.32    0.72
  11  10 -17   18.44    0.82
  10  11 -17   18.07    0.76
 -11 -10 -17   18.21    0.93
 -10 -11 -17   17.41    0.91
 -10  11  17   17.59    0.60
  11  10 -15   13.21    0.49
  10  11 -15   12.77    0.50
  11 -10  15   13.80    0.59
  10 -11  15   13.15    0.58
  11  10 -15   13.60    0.68
  10  11 -15   12.86    0.63
 -11  10  15   12.73    0.46
 -11 -10 -15   12.52    0.77
 -10  11  15   12.91    0.48
  11 -10  13   21.78    0.73
  10 -11  13   20.86    0.72
  10  11 -13   20.78    0.67
  11  10 -13   19.90    0.66
  10 -11  13   20.00    0.74
  11  10 -13   20.82    0.84
 -11  10  13   20.47    0.63
 -10  11  13   20.31    0.65
  10 -11  11   37.89    0.97
  11 -10  11   37.88    1.10
  11  10 -11   36.72    0.92
  10  11 -11   38.45    0.96
  10 -11  11   36.73    1.09
  11 -10  11   38.11    1.02
  10  11 -11   36.15    1.06
  11  10 -11   36.86    1.05
 -11  10  11   37.63    1.02
  11  10 -11   38.91    1.24
 -10  11  11   37.06    1.03
  11  10  -9    0.24    0.10
 -10 -11  -9    0.35    0.15
  11 -10   9    0.57    0.18
  11 -10   9    0.52    0.22
  10  11  -9    0.42    0.19
  11  10  -9    0.24    0.17
 -10  11   9    0.35    0.07
  10  11  -9    0.41    0.12
 -11  10   9    0.41    0.16
  10 -11   9    0.27    0.19
  11 -10   9    0.32    0.20
 -10  11   9    0.30    0.16
 -11 -10  -9    0.03    0.34
  11  10  -9    0.63    0.29
 -10 -11  -9   -0.24    0.33
 -11 -10  -9    0.34    0.12
  10  11  -9    0.38    0.25
  11 -10   9    0.54    0.19
  10 -11   9    0.42    0.16
 -11  10   7   39.98    1.00
 -11 -10  -7   38.52    1.40
  11 -10   7   39.49    1.16
  11 -10   7   40.83    1.21
  10 -11   7   40.20    1.14
 -10  11   7   40.59    1.01
 -10  11   7   41.20    1.11
  11 -10   7   40.18    1.13
  10 -11   7   40.18    1.15
  11 -10   7   39.30    1.18
 -10 -11  -7   40.72    1.39
 -11 -10  -7   39.06    1.12
  11  10  -7   39.00    1.25
  10 -11   7   39.64    1.17
  10  11  -7   41.26    1.05
  11  10  -7   42.79    1.03
  10  11  -7   41.50    1.24
 -11  10   7   39.20    1.09
 -11  10   5   91.33    2.17
  10  11  -5   88.76    2.19
 -10  11   5   94.08    2.18
  11  10  -5   88.50    2.18
  10 -11   5   93.38    2.36
  11 -10   5   89.60    2.25
  10 -11   5   87.89    2.25
  11 -10   5   89.56    2.35
 -11  10   5   90.47    2.24
 -10  11   5   88.82    2.24
  10 -11   5   90.24    2.37
  11 -10   5   94.18    2.41
 -11 -10  -5   88.67    2.57
 -10 -11  -5   89.14    2.54
  11 -10   5   88.15    2.29
  11  10  -5   90.91    2.40
  10 -11   5   88.37    2.29
  10  11  -5   88.23    2.36
  10 -11   3   17.07    0.64
  11 -10   3   15.66    0.53
 -11  10   3   15.75    0.54
  10 -11   3   16.64    0.54
 -10  11   3   16.14    0.55
  11 -10   3   15.92    0.63
  11 -10   3   15.46    0.71
 -11  10   3   15.99    0.49
 -11 -10  -3   15.49    0.79
 -10 -11  -3   16.24    0.78
 -10  11   3   15.42    0.49
  11 -10   3   16.33    0.58
  11  10  -3   16.09    0.66
  10  11  -3   15.57    0.63
  10 -11   3   15.91    0.57
 -11  10   1   77.14    1.90
  10 -11   1   76.79    1.96
 -10  11   1   77.33    1.90
 -11  10   1   75.96    1.93
  11 -10   1   75.68    1.90
 -10  11   1   77.11    1.94
  10 -11   1   75.06    1.91
 -11 -10  -1   75.91    2.26
 -10 -11  -1   78.55    2.25
  11 -10   1   75.65    2.04
  10  11  -1   74.36    2.03
  11 -10   1   78.36    1.96
  11  10  -1   75.31    2.06
  10  11   1   74.66    2.00
 -11  10  -1   73.84    1.88
  11 -10  -1   75.42    1.91
 -11  10  -1   74.33    1.91
  10 -11  -1   74.31    1.92
 -10  11  -1   74.48    1.91
  11 -10  -1   75.14    1.85
  11  10   1   75.00    2.03
 -11 -10   1   77.49    2.26
 -10 -11   1   74.11    2.21
 -10  11  -1   76.01    1.88
  11  10   3   15.58    0.63
 -10  11  -3   16.29    0.55
  10  11   3   15.86    0.63
 -11  10  -3   15.79    0.56
 -10  11  -3   14.99    0.55
 -10 -11   3   15.55    0.80
  10 -11  -3   15.91    0.64
 -11  10  -3   17.04    0.55
  10 -11  -5   86.46    2.35
  11 -10  -5   88.15    2.37
  10  11   5   88.04    2.32
 -11  10  -5   90.15    2.23
 -10  11  -5   87.81    2.24
  11  10   5   90.21    2.34
 -10  11  -5   88.18    2.23
 -11  10  -7   41.06    1.14
 -10  11  -7   41.45    1.14
  11  10   7   39.55    1.21
  10 -11  -7   36.76    1.24
  11 -10  -7   39.46    1.27
  10 -11  -9    0.39    0.29
  11 -10  -9    0.23    0.29
 -10  11  -9    0.49    0.19
 -11  10  -9    0.39    0.18
 -10  11 -11   37.76    1.11
 -11  10 -11   37.22    1.11
  11 -10 -11   36.47    1.26
  10 -11 -11   36.04    1.23
 -11  10 -13   19.76    0.73
 -10  11 -13   19.79    0.72
  10 -11 -13   21.47    0.90
  11 -10 -13   21.16    0.90
 -11  10 -15   13.86    0.60
 -10  11 -15   13.06    0.58
  11 -10 -15   14.49    0.77
  10 -11 -15   12.82    0.71
 -11  10 -17   15.43    0.66
 -10  11 -21    0.32    0.28
 -11  10 -21    0.16    0.26
 -10  11 -23    4.47    0.43
 -11 -11 -22    7.41    0.70
  11 -11  22    8.56    0.52
  11  11 -20   13.95    0.54
  11 -11  20   14.58    0.68
 -11 -11 -20   13.67    0.87
  11  11 -18    1.14    0.21
  11 -11  18    1.03    0.28
 -11 -11 -18    0.90    0.41
  11  11 -16   22.51    0.73
  11 -11  16   23.58    0.84
  11  11 -16   23.16    0.91
 -11  11  16   23.31    0.71
 -11 -11 -16   20.77    1.05
  11  11 -14   36.12    1.01
  11 -11  14   33.09    1.09
  11  11 -14   33.61    1.16
 -11  11  14   34.94    0.98
  11  11 -12    1.70    0.31
  11 -11  12    1.89    0.16
  11 -11  12    2.03    0.25
  11  11 -12    2.12    0.23
 -11  11  12    1.88    0.20
 -11 -11 -10   33.06    0.90
  11 -11  10   36.29    1.06
  11  11 -10   38.33    0.92
  11  11 -10   37.88    1.04
 -11  11  10   36.83    1.01
 -11 -11 -10   35.58    1.34
  11  11 -10   34.83    1.16
  11 -11  10   36.33    0.99
 -11  11   8   38.93    0.95
 -11 -11  -8   37.71    1.06
  11 -11   8   38.07    1.17
  11 -11   8   37.06    1.09
  11  11  -8   38.15    1.08
 -11  11   8   38.18    1.06
  11  11  -8   38.07    0.98
 -11 -11  -8   38.85    1.39
  11 -11   8   37.58    1.13
  11  11  -8   38.76    1.21
 -11  11   6   11.74    0.36
  11 -11   6   10.86    0.52
  11 -11   6   10.39    0.45
  11  11  -6   12.00    0.39
 -11  11   6   11.21    0.44
  11 -11   6   11.97    0.54
 -11 -11  -6   11.01    0.68
  11 -11   6   11.09    0.49
  11  11  -6   11.00    0.56
 -11  11   4   69.73    1.71
  11 -11   4   66.86    1.76
  11 -11   4   69.14    1.88
 -11  11   4   69.57    1.77
  11 -11   4   71.67    1.96
 -11 -11  -4   67.15    2.08
  11 -11   4   68.41    1.82
  11  11  -4   69.53    1.90
  11 -11   2   49.45    1.35
 -11  11   2   48.95    1.32
  11 -11   2   49.58    1.30
 -11  11   2   49.14    1.27
  11 -11   2   49.57    1.43
 -11 -11  -2   48.77    1.63
  11  11  -2   49.15    1.43
 -11  11   0   85.72    2.14
  11 -11   0   87.54    2.19
 -11  11   0   85.65    2.17
  11 -11   0   84.39    2.12
 -11 -11   0   87.39    2.52
  11  11   0   87.49    2.28
 -11  11  -2   51.89    1.36
  11  11   2   51.69    1.48
 -11  11  -2   49.47    1.37
 -11 -11   2   52.87    1.72
  11 -11  -4   66.00    1.84
 -11  11  -4   64.84    1.70
  11  11   4   64.88    1.80
 -11  11  -4   65.99    1.72
 -11  11  -6   10.11    0.44
  11  11   6   10.27    0.51
  11 -11  -6    9.55    0.54
  11 -11  -8   35.38    1.20
 -11  11  -8   37.25    1.08
 -11  11 -10   35.00    1.06
  11 -11 -10   35.19    1.20
 -11  11 -12    1.86    0.25
  11 -11 -12    1.97    0.37
  11 -11 -14   35.75    1.26
 -11  11 -14   33.81    1.08
 -11  11 -16   22.22    0.83
 -11  11 -18    0.98    0.28
 -11  11 -22    6.93    0.50
  12   0   0  178.18    4.12
   0  12   0  171.06    4.14
  12   0   0  170.92    4.09
   0  12   0  175.52    4.14
  12   0   0  165.82    4.36
   0 -12   0  178.16    4.14
 -12   0   0  170.95    4.21
   0 -12   2    3.07    0.20
  12   0   2    3.12    0.21
   0 -12  -2    3.07    0.22
 -12   0   2    3.36    0.30
  12   0  -2    3.34    0.16
  12   0  -2    3.37    0.19
   0  12  -2    2.84    0.21
 -12   0  -2    3.22    0.23
  12   0   2    2.94    0.30
  12   0   2    3.19    0.35
   0  12  -2    2.93    0.21
  12   0   4    7.99    0.34
 -12   0   4    7.57    0.44
 -12   0  -4    8.76    0.36
   0  12  -4    7.52    0.34
  12   0  -4    8.51    0.26
  12   0   4    8.78    0.47
   0  12  -4    8.15    0.34
   0 -12   4    7.50    0.30
  12   0   4    8.45    0.43
  12   0  -4    7.92    0.29
 -12   0   6   67.13    1.82
  12   0   6   68.05    1.66
  12   0  -6   61.91    1.50
 -12   0  -6   66.46    1.96
  12   0   6   63.20    1.70
   0  12  -6   65.21    1.63
  12   0   6   65.50    1.78
  12   0   8    2.44    0.27
   0 -12   8    2.58    0.22
  12   0   8    2.51    0.26
   0 -12  -8    2.65    0.22
  12   0   8    2.68    0.23
   0  12  -8    2.54    0.20
 -12   0  -8    2.71    0.39
   0  12 -10   24.17    0.74
  12   0 -10   22.35    0.57
  12   0 -10   22.47    0.57
  12   0  10   24.30    0.74
   0 -12  10   24.44    0.73
   0  12 -10   25.32    0.71
 -12   0 -10   25.51    1.01
  12   0  10   25.68    0.76
   0 -12 -10   24.74    0.72
  12   0  10   25.00    0.82
 -12   0  12    2.07    0.36
  12   0  12    1.95    0.24
   0 -12  12    1.55    0.21
  12   0  12    2.04    0.23
   0  12 -12    1.96    0.23
 -12   0 -12    2.40    0.40
   0 -12 -12    2.22    0.23
   0  12 -12    1.93    0.21
  12   0  12    1.90    0.20
  12   0  14    4.41    0.26
   0 -12  14    4.61    0.30
   0  12 -14    5.12    0.31
 -12   0  14    6.10    0.48
 -12   0 -14    5.43    0.52
   0 -12 -14    5.38    0.33
 -12   0  16    4.66    0.49
   0  12 -16    4.73    0.32
 -12   0 -16    5.46    0.52
  12   0  16    3.64    0.31
   0 -12 -16    4.78    0.33
 -12   0  18    1.59    0.38
   0 -12  18    2.36    0.26
   0  12 -18    2.20    0.27
 -12   0 -18    2.39    0.42
   0  12  20    3.25    0.26
   0 -12  20    3.39    0.29
   0  12 -20    3.30    0.32
 -12   0 -20    3.29    0.49
 -12   0  20    3.12    0.46
   0 -12  22   -0.03    0.20
   0  12 -22   -0.07    0.26
   0 -12 -22   -0.03    0.30
 -12   0 -22   -0.49    0.41
 -12   0  22   -0.30    0.40
   0  12 -24    4.25    0.36
   0 -12 -24    5.01    0.48
 -12   0  24    5.48    0.55
 -12   0 -24    4.51    0.56
   0 -12  24    4.22    0.34
   0  12 -26    0.50    0.28
 -12   0  26    0.37    0.42
 -12   1  27    0.53    0.38
   1  12 -27    0.12    0.25
   1  12 -25    4.80    0.40
  -1 -12 -25    5.02    0.51
 -12   1  25    4.85    0.55
 -12  -1 -25    4.31    0.56
  12  -1  25    4.70    0.42
   1 -12  25    4.78    0.36
   1  12 -23    0.88    0.25
  -1 -12 -23    0.76    0.34
  12  -1  23    1.54    0.32
   1 -12  23    1.27    0.25
 -12   1  23    1.03    0.41
 -12  -1 -23    0.90    0.41
   1  12 -21    1.25    0.26
  -1 -12 -21    1.71    0.34
   1 -12  21    0.87    0.24
 -12   1  21    1.54    0.40
 -12  -1 -21    0.96    0.38
  -1  12  19   17.74    0.59
   1  12 -19   16.84    0.65
 -12   1  19   16.89    0.85
 -12  -1 -19   16.72    0.88
   1 -12  19   17.57    0.64
   1 -12  17    3.30    0.26
   1  12 -17    3.24    0.28
   1 -12  17    3.14    0.28
  12  -1  17    2.76    0.20
 -12   1  17    3.94    0.46
  12  -1  17    3.18    0.27
 -12  -1 -17    3.30    0.46
   1  12 -15   12.97    0.51
 -12   1  15   13.16    0.70
  12  -1  15   12.54    0.46
   1 -12  15   12.10    0.50
 -12  -1 -15   14.71    0.76
  -1 -12 -15   13.51    0.50
   1 -12  15   13.36    0.51
  12  -1  13   11.12    0.49
   1  12 -13   11.88    0.43
 -12   1  13   11.75    0.62
  12  -1  13   10.92    0.42
  -1 -12 -13   12.36    0.44
   1  12 -13   11.85    0.46
 -12  -1 -13   11.31    0.66
  12  -1  13   11.26    0.46
   1 -12  13   11.84    0.45
  12  -1  11   45.43    1.28
   1 -12  11   43.35    1.20
   1  12 -11   43.30    1.21
  12  -1  11   45.83    1.23
  12   1 -11   42.49    1.05
 -12   1  11   41.87    1.39
  12  -1  11   42.75    1.19
 -12  -1 -11   44.72    1.48
   1  12 -11   44.27    1.17
  -1 -12 -11   45.59    1.18
  12  -1   9    8.50    0.39
   1 -12   9    8.91    0.38
  -1 -12  -9    9.46    0.36
   1  12  -9    8.47    0.38
   1  12  -9    8.78    0.36
  12   1  -9    8.36    0.26
 -12  -1  -9    9.18    0.60
  12  -1   9    9.12    0.41
  12  -1   9    8.70    0.44
  12  -1   7    9.68    0.40
   1 -12   7    9.47    0.39
   1  12  -7    9.00    0.37
 -12  -1  -7   10.04    0.62
  12  -1   7    9.18    0.43
  12  -1   7    9.07    0.47
  -1 -12  -7    9.46    0.45
  12  -1   5   91.40    2.19
  -1 -12  -5   87.57    2.25
 -12   1   5   92.86    2.34
 -12  -1  -5   94.10    2.18
  12  -1   5   88.75    2.26
 -12  -1  -5   90.67    2.52
  12   1  -5   86.65    2.45
  12   1  -5   90.52    2.06
   1  12  -5   88.90    2.17
  12  -1   5   87.35    2.33
   1 -12   3   12.56    0.40
  12  -1   3   12.92    0.45
  12  -1   3   12.87    0.43
  12  -1   3   12.96    0.54
  12   1  -3   13.21    0.37
   1  12  -3   12.20    0.46
  -1 -12  -3   12.36    0.48
 -12  -1  -3   13.43    0.48
  12  -1   3   13.47    0.61
   1  12  -3   12.57    0.45
 -12   1   3   12.82    0.55
   1  12  -1   63.38    1.62
   1 -12   1   64.16    1.60
  12  -1   1   62.75    1.58
  -1 -12  -1   63.78    1.65
   1  12  -1   62.77    1.62
  12  -1   1   63.28    1.84
  12   1  -1   63.86    1.56
  12  -1   1   65.85    1.60
 -12   1   1   61.66    1.70
  12  -1   1   65.02    1.76
  -1  12   1   60.84    1.61
 -12  -1  -1   65.17    1.69
   1  12   1   63.33    1.62
  12  -1  -1   63.76    1.76
  12  -1  -1   63.64    1.56
  -1  12  -1   63.96    1.61
 -12   1  -1   61.89    1.66
  12  -1  -1   61.36    1.84
  12   1   1   59.65    1.80
  12  -1  -1   64.12    1.57
 -12  -1   1   64.63    1.72
  -1  12  -1   60.92    1.61
  -1 -12   1   64.39    1.62
  12   1   3   13.36    0.48
 -12   1  -3   13.62    0.49
 -12  -1   3   13.16    0.58
  12  -1  -3   13.24    0.41
  -1  12  -3   13.84    0.46
  12  -1  -3   13.01    0.39
  -1  12  -3   12.53    0.46
  12   1   3   13.40    0.60
  -1 -12   3   13.70    0.45
  -1  12  -5   85.54    2.23
 -12  -1   5   91.36    2.41
  12  -1  -5   91.28    2.14
  -1  12  -5   88.64    2.23
  -1 -12   5   88.74    2.20
  12   1   5   90.39    2.38
  12  -1  -5   91.03    2.13
  12   1   5   91.93    2.25
  -1  12  -7    8.85    0.37
 -12   1  -7    8.98    0.58
 -12  -1   7    8.62    0.52
  12  -1  -7    8.62    0.26
   1 -12  -7    9.66    0.38
  12   1   7    9.51    0.42
  12   1   7    9.12    0.39
  12   1   7    9.45    0.48
  12   1   9    8.30    0.42
  -1 -12   9    8.05    0.34
  -1  12  -9    8.14    0.33
  12   1   9    8.50    0.38
 -12   1  -9    7.47    0.56
   1 -12  -9    8.82    0.35
  12   1   9    8.29    0.36
  12   1  11   47.18    1.30
  12   1  11   46.50    1.35
  -1 -12  11   46.87    1.25
  -1  12 -11   44.32    1.28
  -1  12 -11   47.26    1.25
  12   1  11   44.94    1.24
 -12   1 -11   48.36    1.56
   1 -12 -11   48.97    1.29
  -1  12 -13   11.29    0.47
  12   1  13   11.97    0.53
   1 -12 -13   11.50    0.49
  -1 -12  13   11.39    0.44
 -12   1 -13   11.42    0.67
 -12  -1  13   11.09    0.64
  -1  12 -15   13.12    0.52
  -1 -12  15   12.06    0.48
   1 -12 -15   13.94    0.55
 -12   1 -15   13.66    0.75
 -12  -1  15   11.49    0.67
  -1  12 -17    3.63    0.29
  12   1  17    3.54    0.30
 -12  -1  17    3.65    0.45
 -12   1 -17    4.00    0.48
  -1 -12  17    4.00    0.28
  -1  12 -19   16.59    0.65
 -12   1 -19   17.54    0.87
 -12  -1  19   15.84    0.85
  -1 -12  19   17.40    0.61
   1  12  21    1.00    0.21
  -1 -12  21    0.77    0.21
 -12  -1  21    1.34    0.43
  -1  12 -21    0.30    0.21
 -12   1 -21    1.10    0.40
  -1  12 -23    0.93    0.27
 -12   1 -23    1.08    0.43
 -12  -1  23    1.00    0.43
   1 -12 -25    5.72    0.51
 -12   1 -25    6.09    0.59
 -12  -1  25    4.94    0.59
  -1  12 -25    5.04    0.42
 -12  -1  27    0.53    0.43
 -12   2  26    0.41    0.37
   2  12 -26    0.88    0.28
 -12  -2 -26    0.24    0.45
   2 -12  26    0.34    0.22
   2  12 -24    9.04    0.49
  -2 -12 -24    8.69    0.61
 -12  -2 -24    9.00    0.71
   2 -12  24    8.62    0.47
 -12   2  24    8.02    0.65
  12  -2  24    8.95    0.55
  -2 -12 -22    6.04    0.50
  12  -2  22    7.26    0.47
 -12   2  22    6.85    0.60
   2  12 -22    7.04    0.42
 -12  -2 -22    5.65    0.57
   2 -12  22    6.68    0.40
  -2 -12 -20    4.42    0.44
   2  12 -20    4.49    0.33
  12  -2  20    3.79    0.36
 -12   2  20    4.26    0.47
 -12  -2 -20    5.31    0.51
   2 -12  20    3.92    0.31
  12  -2  18   10.37    0.41
 -12   2  18   13.31    0.71
  12  -2  18   11.20    0.55
   2  12 -18   12.26    0.51
  -2  12  18   12.48    0.44
   2 -12  18   11.57    0.51
 -12  -2 -18   11.98    0.74
   2 -12  18   11.77    0.50
  12   2 -16    2.11    0.10
 -12   2  16    2.22    0.39
   2 -12  16    2.75    0.27
 -12  -2 -16    2.76    0.43
   2  12 -16    2.44    0.25
  -2 -12 -14    5.14    0.28
  12   2 -14    4.81    0.17
  12  -2  14    4.68    0.33
  -2 -12 -14    4.05    0.38
   2  12 -14    4.94    0.31
  12  -2  14    4.42    0.28
   2 -12  14    5.13    0.31
 -12   2  14    4.83    0.46
 -12  -2 -14    5.69    0.51
   2 -12  14    5.16    0.32
  12  -2  12   22.35    0.76
  12  -2  12   21.86    0.71
  12  -2  12   23.34    0.74
 -12   2  12   24.61    0.92
  -2 -12 -12   22.38    0.84
   2  12 -12   22.43    0.73
  12   2 -12   23.01    0.59
   2  12 -12   21.90    0.69
 -12  -2 -12   23.73    0.98
  -2 -12 -12   23.04    0.69
   2 -12  12   22.94    0.74
  -2 -12 -10   20.33    0.76
 -12   2  10   18.95    0.80
   2  12 -10   20.49    0.67
   2  12 -10   20.52    0.63
  12  -2  10   20.07    0.68
  12   2 -10   20.79    0.55
  -2 -12 -10   21.05    0.62
  12  -2  10   20.69    0.68
  12  -2  10   20.76    0.73
   2 -12  10   21.12    0.68
 -12  -2 -10   20.73    0.90
   2 -12   8   15.50    0.54
  12  -2   8   15.85    0.54
  -2 -12  -8   15.36    0.61
  12  -2   8   15.65    0.55
  12  -2   8   15.66    0.58
   2  12  -8   15.97    0.54
  12   2  -8   13.30    0.73
   2  12  -8   14.32    0.50
 -12  -2  -8   16.28    0.78
  12  -2   8   15.71    0.61
  12  -2   6   94.44    2.30
  12   2  -6   86.67    2.54
  12  -2   6   91.07    2.29
 -12  -2  -6   97.10    2.27
  12  -2   6   96.42    2.37
 -12  -2  -6   93.78    2.62
   2  12  -6   92.20    2.27
  -2 -12  -6   95.94    2.39
  12  -2   6   94.00    2.43
   2 -12   6   92.32    2.31
  12   2  -4    0.65    0.08
  -2 -12  -4    0.75    0.20
  12  -2   4    0.43    0.21
  -2  12   4    0.59    0.17
  12  -2   4    0.81    0.16
  12  -2   4    0.61    0.14
  -2  12   4    0.78    0.15
 -12  -2  -4    0.96    0.35
  12   2  -4    0.62    0.31
 -12   2   4    0.57    0.24
   2 -12   4    0.71    0.10
  12  -2   4    0.47    0.25
 -12  -2  -4    0.62    0.16
   2  12  -4    0.66    0.15
   2  12  -2   26.23    0.78
  -2 -12  -2   26.33    0.82
  12  -2   2   28.07    0.77
  12  -2   2   24.95    0.88
   2 -12   2   28.00    0.74
  -2  12   2   27.66    0.77
   2  12  -2   24.26    0.78
  12  -2   2   27.44    0.98
 -12   2   2   28.14    0.87
  12  -2   2   27.71    0.76
 -12  -2  -2   27.76    0.85
  12  -2   0  204.81    4.81
   2  12   0  206.72    4.85
 -12  -2   0  211.91    4.96
 -12   2   0  194.71    4.91
  12  -2   0  205.36    5.00
  -2  12   0  200.74    4.84
  12  -2   0  207.80    4.81
  12  -2   0  203.64    5.11
  -2 -12   0  206.49    4.89
  12  -2  -2   26.25    0.73
 -12   2  -2   28.32    0.83
  -2  12  -2   28.31    0.79
 -12  -2   2   26.73    0.91
  12  -2  -2   25.68    1.00
  12  -2  -2   28.34    0.73
  -2  12  -2   25.17    0.78
  -2 -12   2   28.15    0.81
  12  -2  -2   27.90    0.95
  12  -2  -4    0.71    0.11
 -12  -2   4    0.73    0.27
  -2  12  -4    0.59    0.15
  12  -2  -4    1.03    0.29
  -2  12  -4    0.81    0.16
  -2 -12   4    0.49    0.16
  12   2   4    0.67    0.25
  12  -2  -4    0.72    0.10
  12   2   6   93.44    2.31
   2 -12  -6   95.44    2.31
  12  -2  -6   90.51    2.16
  -2  12  -6   92.34    2.29
  -2  12  -6   92.39    2.28
 -12  -2   6   93.47    2.49
  12   2   6   92.49    2.42
  12   2   8   14.48    0.60
  12   2   8   15.10    0.55
  -2  12  -8   14.89    0.51
   2 -12  -8   15.44    0.54
 -12   2  -8   14.11    0.75
 -12  -2   8   14.89    0.70
  12   2  10   20.51    0.69
  -2  12 -10   20.05    0.65
  12   2  10   21.34    0.75
 -12   2 -10   22.53    0.94
   2 -12 -10   20.62    0.69
  12   2  12   22.78    0.78
  -2  12 -12   20.59    0.70
  -2 -12  12   21.86    0.68
  -2  12 -12   21.43    0.68
 -12   2 -12   21.67    0.94
   2 -12 -12   22.21    0.74
  -2  12 -14    5.05    0.31
   2 -12 -14    5.33    0.37
 -12  -2  14    5.07    0.49
  12   2  16    2.43    0.26
   2 -12 -16    2.48    0.30
  -2  12 -16    2.45    0.25
 -12   2 -16    2.55    0.43
  -2 -12  16    2.19    0.22
 -12  -2  16    2.50    0.41
 -12   2 -18   10.59    0.69
  -2 -12  18   10.27    0.43
  -2  12 -18   10.94    0.49
 -12  -2  18   10.46    0.69
  -2  12 -20    4.23    0.34
  -2 -12  20    4.41    0.30
 -12  -2  20    4.64    0.53
 -12   2 -20    4.46    0.51
  -2 -12  22    6.59    0.35
  -2  12 -22    5.47    0.41
 -12  -2  22    5.89    0.59
 -12   2 -22    6.64    0.60
  -2  12 -24    8.73    0.51
 -12  -2  24    7.81    0.69
 -12   2 -24    9.03    0.68
  -2  12 -26    0.33    0.27
 -12  -2  26    0.62    0.45
   3  12 -27    2.98    0.34
 -12  -3 -27    2.72    0.56
 -12   3  27    3.43    0.47
 -12   3  25    4.83    0.50
   3  12 -25    4.35    0.38
  -3 -12 -25    3.43    0.47
  12  -3  25    4.49    0.41
 -12  -3 -25    4.76    0.59
   3 -12  25    4.40    0.36
   3  12 -23    1.68    0.29
 -12   3  23    1.94    0.43
 -12  -3 -23    2.03    0.50
  -3 -12 -23    1.49    0.38
   3 -12  23    1.63    0.28
  -3 -12 -21    4.50    0.47
 -12   3  21    4.89    0.50
   3  12 -21    3.69    0.33
  12  -3  21    4.53    0.39
 -12  -3 -21    4.45    0.55
   3 -12  21    4.33    0.34
  12   3 -19    9.10    0.29
  -3 -12 -19    8.83    0.59
   3  12 -19    9.41    0.45
  12  -3  19    9.41    0.50
 -12  -3 -19   10.59    0.71
  -3  12  19    9.77    0.37
 -12   3  19    9.85    0.63
  12  -3  17    1.41    0.19
   3  12 -17    1.46    0.23
 -12   3  17    1.97    0.39
  12   3 -17    1.51    0.11
   3 -12  17    1.83    0.24
 -12  -3 -17    1.28    0.38
   3 -12  17    1.62    0.25
  12  -3  15    1.21    0.19
  12   3 -15    1.41    0.11
   3  12 -15    1.39    0.22
 -12   3  15    1.84    0.35
   3 -12  15    1.65    0.24
 -12  -3 -15    2.21    0.41
   3 -12  15    1.43    0.24
 -12   3  13    6.27    0.47
  12  -3  13    5.59    0.35
  -3 -12 -13    6.26    0.43
  12  -3  13    6.35    0.35
   3  12 -13    6.13    0.29
   3  12 -13    6.02    0.33
  12   3 -13    6.06    0.22
   3 -12  13    5.39    0.33
 -12  -3 -13    6.06    0.50
  12  -3  13    5.62    0.31
  12  -3  13    5.73    0.35
   3 -12  13    6.15    0.35
  12  -3  11   22.45    0.74
  12  -3  11   24.65    0.79
  -3 -12 -11   23.48    0.86
  12  -3  11   22.34    0.76
   3  12 -11   24.22    0.75
   3  12 -11   23.50    0.70
 -12  -3 -11   22.70    0.97
  -3 -12 -11   23.58    0.67
  12   3 -11   23.44    0.62
  12  -3  11   23.35    0.75
   3 -12  11   22.79    0.75
 -12   3  11   24.84    0.92
  12  -3   9   10.30    0.44
  12  -3   9    9.27    0.41
   3  12  -9    9.42    0.40
   3 -12   9    9.80    0.42
   3  12  -9    9.02    0.36
  -3 -12  -9   10.12    0.49
  12   3  -9    8.30    0.60
  12  -3   9    9.05    0.41
 -12  -3  -9    9.71    0.62
  12  -3   9    9.09    0.46
  -3 -12  -7   14.18    0.58
   3 -12   7   12.03    0.47
  12  -3   7   13.29    0.48
  -3  12   7   13.00    0.47
 -12  -3  -7   13.35    0.43
  12  -3   7   12.11    0.47
   3  12  -7   13.11    0.47
  12   3  -7   11.15    0.66
  12  -3   7   13.07    0.53
 -12  -3  -7   11.98    0.71
   3  12  -7   12.84    0.45
  12  -3   7   12.71    0.56
   3 -12   5   73.46    1.83
  -3 -12  -5   80.05    2.05
  12   3  -5   73.48    2.18
   3 -12   5   76.18    1.96
  12  -3   5   78.32    2.03
  12   3  -5   77.71    1.82
  12  -3   5   76.33    1.93
  -3  12   5   78.70    1.91
 -12  -3  -5   75.62    2.26
  12  -3   5   80.22    1.95
 -12  -3  -5   78.31    1.94
 -12   3   5   75.84    2.06
  12  -3   5   80.72    2.11
   3  12  -5   78.40    1.93
  -3  12   5   79.03    1.95
  -3 -12  -3   94.94    2.39
  -3  12   3   91.26    2.30
 -12  -3  -3   95.14    2.35
  12  -3   3   91.17    2.28
  12  -3   3   93.38    2.29
  -3  12   3   93.42    2.27
  12  -3   3   91.37    2.40
 -12   3   3   92.27    2.39
  12   3  -3   90.08    2.53
  12  -3   3   96.19    2.51
   3  12  -3   94.44    2.30
   3  12  -1   51.41    1.31
 -12  -3  -1   51.61    1.40
  -3  12   1   49.50    1.29
 -12   3   1   48.63    1.38
  12  -3   1   51.20    1.29
  12  -3   1   49.67    1.54
  12  -3   1   49.75    1.28
  12   3  -1   45.13    1.49
  12  -3   1   50.96    1.44
  -3 -12  -1   50.80    1.38
  12  -3  -1   49.16    1.44
  12  -3  -1   49.37    1.24
  -3  12  -1   48.30    1.29
  12  -3  -1   47.20    1.53
  12  -3  -1   51.16    1.26
 -12  -3   1   50.83    1.43
 -12   3  -1   49.30    1.35
  -3 -12   1   49.02    1.36
  12  -3  -3   94.51    2.28
  -3  12  -3   95.77    2.37
  12  -3  -3   91.79    2.53
  -3 -12   3   99.46    2.43
  12  -3  -3   97.49    2.30
 -12  -3   3   96.09    2.53
  12  -3  -5   79.02    1.84
 -12  -3   5   77.09    2.12
  -3  12  -5   76.07    1.93
  12  -3  -5   75.98    1.80
  -3  12  -5   76.74    1.92
  -3 -12   5   76.18    1.96
  12   3   5   76.45    2.06
 -12  -3   7   13.05    0.65
  -3  12  -7   12.69    0.48
  12   3   7   13.88    0.51
  -3  12  -7   12.99    0.48
   3 -12  -7   12.82    0.50
  12   3   7   14.05    0.58
  12   3   9    9.40    0.43
  12   3   9    9.16    0.47
  -3  12  -9    9.34    0.40
 -12  -3   9    8.73    0.57
   3 -12  -9    8.86    0.41
   3 -12 -11   26.05    0.84
  12   3  11   25.02    0.86
  -3  12 -11   25.21    0.78
 -12   3 -11   26.90    1.04
  -3  12 -13    5.58    0.33
  12   3  13    6.93    0.40
 -12   3 -13    6.63    0.54
   3 -12 -13    6.37    0.40
 -12  -3  13    5.59    0.52
  -3  12 -15    1.83    0.23
  -3 -12  15    1.90    0.21
  12   3  15    2.31    0.26
 -12  -3  15    1.38    0.39
 -12   3 -15    1.92    0.41
   3 -12 -15    2.38    0.31
  12   3  17    1.68    0.25
  -3  12 -17    1.70    0.24
 -12  -3  17    1.38    0.39
  -3 -12  17    1.69    0.21
 -12   3 -17    2.05    0.42
  -3  12 -19    8.43    0.45
 -12  -3  19    9.40    0.69
 -12   3 -19    9.16    0.64
   3  12  19    9.74    0.44
  -3 -12  21    3.74    0.28
  -3  12 -21    4.59    0.38
 -12   3 -21    4.54    0.54
 -12  -3  21    3.68    0.54
  -3  12 -23    2.39    0.33
 -12  -3  23    2.35    0.52
 -12   3 -23    1.57    0.46
 -12  -3  25    5.19    0.64
  -3  12 -25    4.00    0.38
   4  12 -26    3.94    0.36
 -12  -4 -26    3.78    0.57
 -12   4  26    3.50    0.47
   4  12 -24    5.96    0.40
  -4 -12 -24    5.67    0.56
  12  -4  24    5.99    0.45
   4 -12  24    5.15    0.41
 -12  -4 -24    5.52    0.62
 -12   4  24    6.35    0.55
  -4 -12 -22    5.72    0.52
  12  -4  22    7.25    0.47
   4  12 -22    6.73    0.39
   4 -12  22    6.05    0.41
 -12   4  22    6.73    0.55
 -12  -4 -22    5.66    0.60
   4  12 -20    5.84    0.38
  -4 -12 -20    7.23    0.55
   4 -12  20    7.08    0.41
 -12   4  20    7.11    0.52
 -12  -4 -20    6.85    0.64
  12  -4  20    6.26    0.44
   4  12 -18    8.10    0.40
  -4  12  18    9.01    0.33
  12  -4  18    7.06    0.35
  12   4 -18    8.72    0.30
   4 -12  18    8.05    0.43
 -12  -4 -18    8.06    0.65
 -12   4  18    8.78    0.57
  12  -4  18    8.02    0.47
  12   4 -16   10.20    0.32
   4  12 -16   10.50    0.44
   4 -12  16   10.15    0.46
 -12  -4 -16   10.89    0.70
   4 -12  16   10.79    0.47
 -12   4  16   11.64    0.62
 -12   4  14    3.80    0.40
  12  -4  14    3.93    0.28
  12   4 -14    3.70    0.18
   4 -12  14    3.46    0.29
  12  -4  14    3.81    0.29
 -12   4  14    3.33    0.13
  12  -4  14    3.81    0.27
  -4 -12 -14    3.69    0.38
   4  12 -14    3.85    0.27
 -12  -4 -14    3.51    0.45
   4 -12  14    3.52    0.30
  -4 -12 -12    6.21    0.26
  12  -4  12    6.42    0.36
   4  12 -12    5.45    0.21
  12  -4  12    5.88    0.34
 -12   4  12    5.81    0.19
  12  -4  12    5.90    0.35
  -4 -12 -12    6.71    0.44
   4  12 -12    6.21    0.33
  12   4 -12    6.22    0.24
   4  12 -12    5.54    0.28
  12   4 -12    5.35    0.51
 -12  -4 -12    6.24    0.53
  12  -4  12    6.08    0.33
 -12   4  12    6.30    0.44
   4 -12  12    6.27    0.35
 -12   4  10    5.21    0.20
  12  -4  10    5.71    0.34
   4  12 -10    5.82    0.32
  -4 -12 -10    6.56    0.26
  -4 -12 -10    5.98    0.42
   4  12 -10    6.45    0.29
  12  -4  10    5.87    0.33
  12   4 -10    5.86    0.25
  12   4 -10    5.25    0.50
 -12  -4 -10    5.88    0.52
 -12   4  10    5.41    0.42
  12  -4  10    5.54    0.33
   4 -12  10    6.15    0.34
  12  -4  10    5.40    0.35
  -4 -12  -8   19.80    0.76
  12  -4   8   20.40    0.66
  -4  12   8   20.14    0.65
  12  -4   8   20.87    0.67
   4  12  -8   20.46    0.66
   4 -12   8   19.80    0.65
  -4  12   8   20.62    0.59
  12   4  -8   20.44    0.88
   4  12  -8   19.96    0.61
 -12  -4  -8   20.29    0.90
   4 -12   8   20.74    0.68
   4  12  -8   20.32    0.57
  12  -4   8   20.34    0.74
  12  -4   8   20.07    0.70
  -4 -12  -6   50.51    1.38
  12  -4   6   51.82    1.34
  12  -4   6   49.76    1.25
   4 -12   6   47.43    1.28
  12  -4   6   50.80    1.27
   4  12  -6   48.98    1.27
  -4  12   6   51.37    1.21
 -12  -4  -6   47.22    1.56
  -4  12   6   49.71    1.26
 -12  -4  -6   49.44    1.23
   4  12  -6   48.04    1.22
  12  -4   6   49.37    1.39
  12   4  -6   45.92    1.48
 -12  -4  -4   42.85    1.17
  12  -4   4   43.12    1.24
   4 -12   4   37.66    1.15
  -4  12   4   43.32    1.11
  12  -4   4   43.74    1.14
  -4  12   4   41.88    1.14
 -12   4   4   42.25    1.24
  12  -4   4   41.88    1.13
  12   4  -4   41.64    1.36
  12  -4   4   42.36    1.31
   4  12  -4   43.53    1.13
  -4 -12  -4   41.96    1.25
   4  12  -2   54.30    1.38
  12  -4   2   52.36    1.35
  12  -4   2   52.35    1.50
  -4  12   2   52.35    1.35
 -12   4   2   53.16    1.46
 -12  -4  -2   53.10    1.45
  12  -4   2   52.92    1.37
  12  -4   2   53.58    1.60
  12   4  -2   52.99    1.59
  -4  12   2   51.97    1.39
  -4 -12  -2   53.88    1.48
  -4  12   0   97.06    2.45
  12  -4   0  102.13    2.42
  12  -4   0   99.16    2.72
  12  -4   0  100.31    2.61
  12  -4   0  104.86    2.44
  12   4   0  101.14    2.67
  -4  12   0   95.05    2.47
  -4 -12   0  102.01    2.57
 -12  -4   0  101.81    2.59
 -12  -4   2   51.92    1.53
  12  -4  -2   53.53    1.31
  -4  12  -2   53.17    1.38
  -4 -12   2   54.00    1.47
  12  -4  -2   53.28    1.34
  12  -4  -2   51.79    1.53
  12  -4  -4   42.19    1.08
  12  -4  -4   42.97    1.04
  -4  12  -4   41.81    1.15
  12  -4  -4   41.32    1.30
 -12  -4   4   42.51    1.33
  -4 -12   4   41.76    1.22
  -4  12  -6   49.95    1.33
   4 -12  -6   48.73    1.35
  -4  12  -6   49.99    1.33
 -12  -4   6   51.42    1.54
  12   4   6   49.17    1.44
  12  -4  -8   19.51    0.81
  12   4   8   19.28    0.73
  -4  12  -8   18.78    0.64
  -4  12  -8   20.60    0.65
   4 -12  -8   19.88    0.68
 -12  -4   8   20.83    0.87
  12   4  10    4.71    0.35
  -4  12 -10    5.61    0.31
   4 -12 -10    5.70    0.35
  12   4  10    5.27    0.34
  12   4  12    6.41    0.40
   4 -12 -12    6.10    0.40
  12   4  14    3.20    0.28
 -12  -4  14    3.33    0.46
 -12   4 -14    3.94    0.48
  -4  12 -14    3.05    0.27
   4 -12 -14    4.16    0.35
   4 -12 -16   10.54    0.55
  12   4  16   10.34    0.48
 -12  -4  16   10.73    0.71
 -12   4 -16   10.93    0.67
  -4  12 -16   10.72    0.49
  -4  12 -18    7.72    0.42
  -4 -12  18    7.79    0.35
 -12   4 -18    7.60    0.61
 -12  -4  18    6.55    0.59
  -4  12 -20    6.76    0.42
  -4 -12  20    6.38    0.33
 -12  -4  20    5.43    0.60
 -12   4 -20    6.36    0.58
  -4  12 -22    5.93    0.43
  -4 -12  22    6.00    0.33
 -12   4 -22    4.63    0.57
 -12  -4  22    6.50    0.63
  -4  12 -24    5.70    0.44
 -12  -4  24    5.59    0.63
 -12  -4  26    3.73    0.58
   5 -12  27    0.59    0.26
   5  12 -25    3.23    0.33
  12  -5  25    2.93    0.39
  -5 -12 -25    2.32    0.45
 -12   5  25    3.22    0.44
 -12  -5 -25    3.14    0.54
  -5 -12 -23    1.51    0.41
   5  12 -23    2.72    0.30
 -12  -5 -23    3.11    0.52
 -12   5  23    2.68    0.42
   5 -12  23    2.43    0.30
  -5 -12 -21    0.69    0.32
   5  12 -21    0.86    0.23
 -12  -5 -21    0.71    0.40
   5 -12  21    0.19    0.26
 -12   5  21    0.82    0.37
  -5 -12 -19    9.32    0.64
  12   5 -19   10.90    0.38
  12  -5  19   11.41    0.56
 -12   5  19   11.87    0.65
   5 -12  19   10.99    0.52
 -12  -5 -19   12.21    0.78
   5  12 -19   10.47    0.48
  -5  12  17    7.43    0.28
 -12   5  17    6.23    0.22
  12  -5  17    6.32    0.42
 -12   5  17    7.15    0.51
   5  12 -17    7.33    0.38
  12   5 -17    7.36    0.28
 -12  -5 -17    6.28    0.56
  12  -5  15    0.18    0.20
  12   5 -15    0.36    0.12
   5 -12  15    0.40    0.20
 -12   5  15    0.31    0.08
   5  12 -15    0.58    0.20
  12   5 -15    0.06    0.33
  12  -5  15    0.25    0.17
 -12  -5 -15    0.33    0.32
   5 -12  15    0.36    0.23
   5  12 -15    0.17    0.11
 -12   5  15    0.33    0.30
  -5 -12 -13   17.63    0.76
  12  -5  13   16.98    0.61
   5  12 -13   17.76    0.55
   5  12 -13   17.41    0.60
  12   5 -13   17.35    0.51
 -12   5  13   16.56    0.47
  12   5 -13   15.87    0.81
  12  -5  13   15.93    0.58
 -12   5  13   17.62    0.74
  12  -5  13   16.20    0.61
 -12  -5 -13   18.36    0.87
   5 -12  13   17.10    0.63
   5  12 -13   16.62    0.51
  -5  12  11   18.79    0.63
  12  -5  11   18.48    0.66
  12  -5  11   18.32    0.64
  -5 -12 -11   19.75    0.78
   5  12 -11   18.38    0.55
 -12   5  11   18.69    0.51
  12  -5  11   18.86    0.66
   5  12 -11   19.60    0.64
  12   5 -11   18.30    0.55
  -5  12  11   19.28    0.55
  12   5 -11   16.91    0.83
  -5 -12 -11   18.53    0.53
  12  -5  11   17.07    0.64
 -12   5  11   18.89    0.75
 -12  -5 -11   19.65    0.89
   5  12 -11   19.92    0.58
   5 -12  11   18.96    0.66
   5 -12   9    0.81    0.20
  -5 -12  -9    1.07    0.25
  -5  12   9    0.46    0.19
  12  -5   9    0.97    0.19
 -12   5   9    0.71    0.11
   5  12  -9    0.67    0.20
  12  -5   9    0.86    0.19
  -5  12   9    0.73    0.13
   5 -12   9    0.57    0.18
   5  12  -9    0.97    0.16
   5  12  -9    0.96    0.14
  12   5  -9    0.16    0.33
 -12  -5  -9    0.39    0.35
 -12   5   9    0.49    0.24
  12  -5   9    0.82    0.22
  12  -5   9    0.73    0.24
   5 -12   7   27.23    0.87
  -5  12   7   29.32    0.85
   5  12  -7   29.29    0.81
   5 -12   7   28.41    0.85
 -12   5   7   28.92    0.77
  -5 -12  -7   28.35    0.97
  12  -5   7   28.51    0.86
  -5  12   7   30.22    0.79
   5  12  -7   28.91    0.85
  12   5  -7   28.17    1.07
 -12  -5  -7   28.38    0.80
 -12  -5  -7   29.13    1.13
   5  12  -7   29.24    0.81
  12  -5   7   28.33    0.91
  12  -5   7   29.99    0.96
  12  -5   7   29.42    0.85
  12  -5   5   42.01    1.15
 -12  -5  -5   43.29    1.16
  12  -5   5   40.98    1.13
  -5  12   5   42.53    1.10
   5 -12   5   40.38    1.13
   5  12  -5   42.78    1.16
   5  12  -5   43.41    1.12
  12   5  -5   41.27    1.37
  12  -5   5   42.71    1.30
   5  12  -5   40.93    1.11
  12  -5   5   42.44    1.24
  -5 -12  -5   43.11    1.28
  -5  12   5   42.46    1.15
  12  -5   3    4.90    0.36
  12  -5   3    5.31    0.27
  -5  12   3    5.37    0.25
   5  12  -3    4.98    0.26
  12  -5   3    5.46    0.28
 -12  -5  -3    5.53    0.35
  12  -5   3    5.57    0.45
  12   5  -3    5.46    0.45
  -5  12   3    5.07    0.28
 -12   5   3    5.96    0.35
  -5 -12  -3    4.82    0.36
 -12  -5  -1   37.47    1.14
  12  -5   1   38.70    1.00
  12  -5   1   37.83    1.16
   5  12  -1   38.18    1.03
  -5  12   1   37.86    1.01
 -12  -5  -1   33.48    1.32
  12  -5   1   37.03    1.26
  12  -5   1   38.48    1.02
  -5  12   1   37.81    1.04
  12   5  -1   37.05    1.21
  -5 -12  -1   37.75    1.14
  12  -5  -1   38.74    1.00
  -5 -12   1   39.33    1.18
  -5  12  -1   37.89    1.05
 -12  -5   1   38.28    1.20
  12  -5  -1   39.54    1.20
  -5  12  -1   38.46    1.07
  12  -5  -1   40.53    1.04
  12   5   1   39.12    1.23
  12  -5  -3    4.64    0.19
  -5  12  -3    4.88    0.27
   5 -12  -3    4.61    0.30
 -12  -5   3    4.93    0.42
  12  -5  -3    4.46    0.39
  -5 -12   3    5.15    0.37
  -5  12  -5   40.90    1.10
   5 -12  -5   39.99    1.14
  12  -5  -5   40.75    1.04
  -5 -12   5   40.92    1.22
  12  -5  -5   39.63    0.97
 -12  -5   5   38.47    1.29
  -5  12  -7   27.58    0.81
  -5  12  -7   26.94    0.81
  12   5   7   26.90    0.91
   5 -12  -7   27.56    0.86
 -12  -5   7   28.82    1.04
  12   5   9    0.56    0.24
  12  -5  -9    0.73    0.31
   5 -12  -9    1.07    0.27
  -5  12  -9    0.57    0.20
  -5  12  -9    0.41    0.18
 -12  -5   9    0.59    0.35
  12   5  11   19.13    0.69
   5 -12 -11   17.75    0.67
   5 -12 -13   19.14    0.75
 -12  -5  15    0.46    0.37
 -12   5 -15    0.26    0.33
  12   5  15    0.52    0.22
   5 -12 -15    0.75    0.28
  -5  12 -17    6.45    0.40
   5 -12 -17    8.14    0.49
 -12   5 -17    7.29    0.57
 -12  -5  17    6.63    0.60
  -5  12 -19   11.52    0.54
 -12   5 -19   10.53    0.70
 -12  -5  19   11.30    0.77
   5  12  19   10.53    0.50
  -5  12 -21    0.79    0.27
 -12   5 -21    0.47    0.39
 -12  -5  21    0.27    0.44
 -12  -5  23    2.29    0.51
  -5  12 -23    2.37    0.34
  -5  12 -25    3.68    0.41
 -12  -5  25    3.35    0.60
 -12   6  26    0.77    0.37
 -12  -6 -26    0.69    0.52
   6  12 -24    0.54    0.22
  12  -6  24    0.93    0.31
 -12   6  24    0.50    0.34
   6 -12  24    0.68    0.29
 -12  -6 -24    0.94    0.44
  -6 -12 -24    0.68    0.38
   6  12 -22    3.59    0.30
  12  -6  22    4.06    0.37
 -12   6  22    4.66    0.44
  -6 -12 -22    4.84    0.52
   6 -12  22    4.12    0.37
 -12  -6 -22    4.05    0.57
  -6 -12 -20    3.05    0.45
   6  12 -20    3.40    0.30
  12   6 -20    3.21    0.51
  12  -6  20    3.53    0.36
  12   6 -20    3.15    0.23
 -12   6  20    3.84    0.46
   6 -12  20    3.41    0.34
 -12  -6 -20    4.81    0.60
  12   6 -18    2.74    0.20
   6  12 -18    2.60    0.27
  12  -6  18    2.51    0.30
  -6  12  18    2.42    0.14
  12   6 -18    2.34    0.45
  12  -6  18    2.17    0.23
  -6 -12 -18    1.88    0.37
 -12   6  18    2.61    0.38
   6 -12  18    2.85    0.32
 -12  -6 -18    2.78    0.48
  -6  12  16    4.97    0.21
  12   6 -16    4.21    0.24
   6  12 -16    4.99    0.31
   6 -12  16    4.19    0.32
  12  -6  16    4.33    0.28
 -12   6  16    4.99    0.21
  12   6 -16    3.86    0.47
   6 -12  16    4.88    0.34
 -12   6  16    4.80    0.43
 -12  -6 -16    4.32    0.50
  -6  12  16    4.62    0.20
  12  -6  14   14.06    0.56
  12  -6  14   13.49    0.53
   6  12 -14   14.55    0.54
  12   6 -14   14.25    0.46
  -6  12  14   13.62    0.52
  -6  12  14   14.10    0.42
  12  -6  14   12.77    0.52
 -12   6  14   14.55    0.42
  12   6 -14   12.49    0.73
 -12   6  14   15.41    0.68
 -12  -6 -14   13.92    0.79
   6 -12  14   15.00    0.59
   6  12 -14   13.83    0.49
  -6 -12 -12   20.64    0.86
  12  -6  12   22.72    0.72
  -6  12  12   22.22    0.70
  12  -6  12   22.91    0.73
  -6 -12 -12   19.51    0.56
   6  12 -12   22.50    0.64
   6  12 -12   21.90    0.70
  12   6 -12   22.33    0.63
  12  -6  12   19.62    0.73
  -6  12  12   21.79    0.60
 -12   6  12   21.77    0.60
  12  -6  12   20.89    0.71
 -12   6  12   21.28    0.82
  12   6 -12   21.45    0.94
 -12  -6 -12   21.45    0.97
   6 -12  12   22.37    0.74
   6  12 -12   22.63    0.67
  -6  12  10   28.18    0.82
  12   6 -10   28.08    0.77
  12  -6  10   27.27    0.83
   6  12 -10   27.51    0.83
 -12   6  10   26.80    0.73
  -6  12  10   26.66    0.73
  12  -6  10   25.95    0.85
   6 -12  10   27.55    0.84
   6  12 -10   27.80    0.77
 -12   6  10   27.48    0.95
  12  -6  10   26.53    0.85
  12   6 -10   24.70    1.03
 -12  -6 -10   28.79    1.11
   6 -12  10   28.47    0.87
  12  -6  10   26.45    0.86
   6  12 -10   28.05    0.80
  -6 -12 -10   27.73    0.99
  -6  12   8   11.59    0.45
  12  -6   8   11.27    0.45
 -12   6   8   11.30    0.37
  -6  12   8   11.50    0.38
 -12   6   8   11.19    0.54
   6  12  -8   11.59    0.46
   6 -12   8   11.34    0.45
  12  -6   8   11.13    0.46
   6  12  -8   11.27    0.43
 -12  -6  -8   11.54    0.38
  12   6  -8   11.40    0.65
   6  12  -8   11.63    0.41
  12  -6   8   11.03    0.49
 -12  -6  -8   10.46    0.67
  12  -6   8   11.61    0.52
   6 -12   8   11.15    0.48
  -6 -12  -8   12.06    0.59
   6  12  -6    7.60    0.35
 -12  -6  -6    8.40    0.36
  12  -6   6    8.55    0.35
 -12   6   6    8.05    0.31
  -6  12   6    7.98    0.31
   6 -12   6    8.14    0.36
   6  12  -6    8.04    0.37
   6 -12   6    7.73    0.31
  12   6  -6    8.61    0.54
  12  -6   6    8.06    0.47
  12  -6   6    8.45    0.43
   6  12  -6    7.78    0.33
  12  -6   6    8.42    0.38
  -6 -12  -6    8.20    0.47
  -6  12   6    7.74    0.36
   6  12  -4   14.12    0.50
 -12   6   4   13.69    0.45
  -6  12   4   14.36    0.45
   6 -12   4   14.04    0.49
  12  -6   4   13.32    0.47
  12  -6   4   13.33    0.49
 -12  -6  -4   13.32    0.53
  12  -6   4   13.35    0.64
  12   6  -4   14.55    0.67
  -6  12   4   14.04    0.49
  12  -6   4   13.53    0.57
  -6 -12  -4   14.25    0.62
   6  12  -4   13.70    0.47
  12  -6   2   18.47    0.71
   6  12  -2   18.55    0.62
 -12  -6  -2   18.80    0.69
   6  12  -2   19.33    0.59
 -12  -6  -2   18.58    0.88
  12  -6   2   17.47    0.79
  -6  12   2   18.32    0.57
  12  -6   2   20.70    0.62
  -6  12   2   19.03    0.61
  12   6  -2   19.03    0.77
  -6 -12  -2   19.11    0.74
  12  -6   2   19.24    0.57
  12  -6   0    0.41    0.14
  -6  12   0    0.13    0.13
 -12  -6   0    0.21    0.27
  12  -6   0    0.37    0.31
 -12  -6   0    0.09    0.35
  12  -6   0    0.05    0.25
  -6  12   0    0.16    0.16
  -6 -12   0    0.08    0.26
  12  -6   0    0.23    0.14
  12   6   0   -0.20    0.25
  12  -6  -2   18.27    0.52
   6 -12  -2   19.22    0.66
 -12  -6   2   18.17    0.74
  -6  12  -2   18.03    0.60
  12  -6  -2   17.89    0.72
  -6 -12   2   18.06    0.72
  -6  12  -2   18.54    0.59
  12   6   2   18.74    0.73
  12  -6  -2   19.16    0.57
  12  -6  -4   14.10    0.46
  -6  12  -4   13.98    0.49
 -12   6  -4   14.36    0.50
  12  -6  -4   14.19    0.40
   6 -12  -4   14.13    0.55
  -6 -12   4   15.27    0.65
 -12  -6   4   15.87    0.68
  -6  12  -6    8.31    0.37
 -12  -6   6    8.06    0.56
   6 -12  -6    8.04    0.42
 -12   6  -6    8.36    0.39
  12   6   8    9.65    0.50
  -6  12  -8   10.24    0.43
  -6  12  -8   10.89    0.44
 -12   6  -8   10.14    0.45
  12  -6  -8    9.61    0.57
   6 -12  -8   10.20    0.48
  12   6  10   25.51    0.88
  -6  12 -10   26.94    0.82
  -6  12 -10   25.68    0.82
  12  -6 -10   27.16    1.01
   6 -12 -10   25.71    0.88
 -12   6 -10   26.78    0.85
  -6  12 -12   19.40    0.70
   6 -12 -12   23.24    0.83
   6 -12 -14   13.82    0.66
  12   6  14   14.88    0.60
  12   6  16    5.19    0.36
 -12  -6  16    4.55    0.54
   6 -12 -16    5.63    0.46
  -6  12 -18    3.36    0.31
 -12  -6  18    2.33    0.48
  -6  12 -20    3.14    0.35
 -12  -6  20    3.74    0.56
  -6  12 -22    4.47    0.39
 -12  -6  22    4.52    0.61
  -6  12 -24    0.88    0.28
 -12  -6  24    0.87    0.51
 -12   7  25    1.40    0.37
   7 -12  25    0.77    0.29
 -12  -7 -25    0.69    0.47
   7  12 -23    0.18    0.21
  -7 -12 -23   -0.29    0.38
 -12   7  23    0.33    0.32
   7 -12  23   -0.04    0.28
 -12  -7 -23   -0.12    0.45
  -7 -12 -21    0.80    0.38
  12  -7  21    1.33    0.28
 -12   7  21    0.63    0.33
   7  12 -21    1.34    0.24
   7 -12  21    0.84    0.30
 -12  -7 -21    0.63    0.42
  12   7 -19    2.01    0.21
   7  12 -19    2.14    0.26
  12  -7  19    2.32    0.32
 -12   7  19    2.68    0.39
   7 -12  19    2.55    0.33
  -7  12  19    1.73    0.25
 -12  -7 -19    1.24    0.45
  -7 -12 -19    1.56    0.40
  -7  12  17    3.66    0.28
  12   7 -17    4.00    0.23
   7  12 -17    3.42    0.28
  -7  12  17    3.35    0.14
  12  -7  17    3.57    0.26
  12  -7  17    3.26    0.32
  12   7 -17    4.25    0.51
 -12   7  17    3.46    0.39
   7 -12  17    3.11    0.32
 -12  -7 -17    3.21    0.50
  -7  12  15    5.75    0.33
  12  -7  15    6.06    0.38
   7  12 -15    6.53    0.35
  -7  12  15    5.77    0.21
  12  -7  15    5.48    0.33
  12   7 -15    6.16    0.29
 -12   7  15    5.78    0.25
  12   7 -15    5.54    0.53
 -12   7  15    4.95    0.43
   7 -12  15    6.21    0.39
   7  12 -15    6.41    0.34
 -12  -7 -15    5.92    0.56
  -7  12  15    5.93    0.22
  -7 -12 -13    1.18    0.32
  12  -7  13    1.18    0.21
  -7  12  13    0.68    0.19
  12  -7  13    1.16    0.23
   7  12 -13    1.24    0.16
  -7  12  13    0.89    0.11
  12   7 -13    0.92    0.17
   7 -12  13    0.89    0.21
  12  -7  13    1.06    0.22
 -12   7  13    1.35    0.30
 -12   7  13    0.95    0.14
  12   7 -13    0.79    0.37
 -12  -7 -13    1.10    0.40
   7 -12  13    0.76    0.23
   7  12 -13    1.11    0.22
   7  12 -13    0.90    0.21
  -7 -12 -11    4.02    0.41
  -7  12  11    3.35    0.25
  12  -7  11    3.87    0.28
  12  -7  11    3.32    0.27
  -7  12  11    4.05    0.18
   7  12 -11    3.83    0.22
   7 -12  11    4.49    0.30
  12   7 -11    3.94    0.24
  12  -7  11    3.58    0.30
 -12   7  11    3.74    0.21
 -12   7  11    4.09    0.36
  12  -7  11    3.48    0.28
  12   7 -11    3.51    0.42
   7  12 -11    4.04    0.27
 -12  -7 -11    3.72    0.47
   7 -12  11    4.28    0.31
   7  12 -11    4.27    0.28
  12  -7   9   11.51    0.46
  -7  12   9   11.24    0.36
 -12   7   9   11.51    0.55
 -12  -7  -9   11.24    0.34
   7  12  -9   10.82    0.45
   7 -12   9   10.77    0.45
 -12   7   9   11.65    0.38
  12  -7   9   11.40    0.48
  12  -7   9   10.70    0.49
   7  12  -9   10.62    0.39
  12   7  -9   11.13    0.62
 -12  -7  -9    8.56    0.63
   7 -12   9   11.32    0.48
  12  -7   9   11.24    0.49
  -7 -12  -9   11.63    0.61
   7  12  -9   11.16    0.45
  -7  12   9   11.07    0.44
 -12  -7  -7   13.93    0.46
  -7  12   7   12.93    0.41
 -12   7   7   12.92    0.57
 -12   7   7   13.37    0.43
   7 -12   7   12.89    0.49
   7  12  -7   13.23    0.49
   7  12  -7   13.10    0.49
  12  -7   7   13.20    0.51
  12  -7   7   14.33    0.55
  12   7  -7   12.81    0.66
   7 -12   7   11.93    0.40
   7  12  -7   12.51    0.43
  12  -7   7   13.12    0.58
  12  -7   7   13.37    0.49
  -7 -12  -7   13.05    0.64
  12   7  -7   12.18    0.35
  -7  12   7   13.53    0.48
  12  -7   5    7.83    0.35
  -7  12   5    8.20    0.31
 -12   7   5    7.72    0.31
   7 -12   5    7.52    0.35
   7 -12   5    8.14    0.40
  12  -7   5    7.61    0.37
   7  12  -5    7.83    0.37
  12  -7   5    8.28    0.49
 -12  -7  -5    7.51    0.38
  12  -7   5    7.67    0.42
  12   7  -5    7.92    0.51
  -7  12   5    7.70    0.35
  -7 -12  -5    8.10    0.51
   7  12  -5    8.56    0.33
   7  12  -3    5.14    0.30
   7  12  -3    5.05    0.26
 -12   7   3    4.53    0.25
  -7  12   3    4.79    0.24
   7 -12   3    4.14    0.29
 -12  -7  -3    4.69    0.35
   7 -12   3    4.83    0.27
  12  -7   3    5.14    0.27
  12  -7   3    4.74    0.43
 -12  -7  -3    4.62    0.48
  12  -7   3    4.80    0.28
  -7  12   3    4.98    0.28
  12   7  -3    5.46    0.42
  -7 -12  -3    4.92    0.40
  12  -7   3    4.55    0.36
   7  12  -1    2.19    0.23
  -7  12   1    2.50    0.20
   7 -12   1    2.34    0.24
  12  -7   1    2.33    0.30
  12  -7   1    2.16    0.18
 -12   7   1    2.21    0.18
  12  -7   1    2.53    0.39
 -12  -7  -1    2.34    0.41
  -7  12   1    2.33    0.22
  -7 -12  -1    2.84    0.35
 -12  -7  -1    2.45    0.30
  12  -7   1    2.26    0.21
  12   7  -1    2.10    0.32
 -12   7  -1    1.91    0.19
  12  -7  -1    1.52    0.19
  -7  12  -1    1.88    0.19
  12  -7  -1    2.20    0.16
   7 -12  -1    1.77    0.25
  12  -7  -1    1.99    0.30
 -12  -7   1    1.66    0.33
  -7  12  -1    2.24    0.21
  -7 -12   1    1.94    0.33
  12   7   1    1.87    0.29
 -12   7  -3    3.93    0.26
  -7  12  -3    4.65    0.26
  -7 -12   3    3.87    0.39
  12  -7  -3    4.14    0.19
   7 -12  -3    4.60    0.32
  -7  12  -3    3.79    0.26
  12   7   3    3.69    0.34
  12  -7  -3    4.67    0.25
 -12   7  -5    9.02    0.39
  -7  12  -5    9.28    0.37
  12   7   5    8.43    0.46
  12  -7  -5    7.85    0.26
   7 -12  -5    8.66    0.43
 -12   7  -7   13.68    0.52
  12  -7  -7   14.11    0.66
  -7  12  -7   13.09    0.49
   7 -12  -7   12.39    0.57
 -12   7  -9   11.68    0.48
   7 -12  -9   10.70    0.54
  -7  12  -9   10.33    0.45
  -7  12  -9   11.52    0.46
  12  -7  -9    9.99    0.60
 -12   7 -11    3.89    0.31
  -7  12 -11    3.35    0.28
  12  -7 -11    3.64    0.42
   7 -12 -11    3.91    0.36
 -12   7 -13    1.26    0.26
   7 -12 -13    0.87    0.32
  -7  12 -13    0.85    0.21
  12   7  15    6.32    0.40
   7 -12 -15    6.42    0.49
 -12   7 -15    5.88    0.40
   7 -12 -17    3.31    0.40
 -12  -7  17    3.53    0.52
  -7  12 -19    2.84    0.32
 -12  -7  19    2.37    0.50
 -12  -7  21    0.78    0.48
  -7  12 -21    0.70    0.29
  -7  12 -23   -0.02    0.25
 -12  -7  23    0.68    0.50
 -12   8  24    1.95    0.37
  12  -8  24    1.90    0.35
   8 -12  24    1.84    0.32
 -12  -8 -24    2.21    0.52
  -8 -12 -22    1.65    0.45
 -12   8  22    2.02    0.38
  12  -8  22    2.72    0.35
 -12  -8 -22    1.90    0.48
   8  12 -22    1.66    0.26
  12   8 -20    2.96    0.24
   8  12 -20    3.35    0.30
 -12   8  20    2.91    0.38
  -8 -12 -20    3.83    0.50
   8 -12  20    2.74    0.34
 -12  -8 -20    2.84    0.51
  -8  12  18    1.52    0.22
  12   8 -18    1.52    0.20
 -12   8  18    2.29    0.37
  12  -8  18    1.31    0.27
  12   8 -18    1.60    0.39
  12  -8  18    0.97    0.21
   8 -12  18    1.57    0.27
 -12  -8 -18    0.68    0.41
  -8 -12 -18    2.34    0.44
   8  12 -18    1.56    0.24
  -8  12  16    0.88    0.19
  12   8 -16    0.88    0.18
   8  12 -16    0.91    0.22
  12  -8  16    1.02    0.22
 -12   8  16    0.95    0.31
  12  -8  16    0.74    0.27
 -12   8  16    0.80    0.15
   8 -12  16    0.75    0.24
 -12  -8 -16    1.09    0.40
   8  12 -16    0.89    0.25
  -8  12  14    4.45    0.29
   8  12 -14    4.58    0.31
  -8  12  14    3.94    0.15
  12   8 -14    3.93    0.25
   8 -12  14    4.30    0.32
  12  -8  14    4.60    0.33
 -12   8  14    4.10    0.40
 -12   8  14    4.43    0.23
  12   8 -14    3.97    0.44
   8 -12  14    4.34    0.34
 -12  -8 -14    3.97    0.50
  12  -8  14    3.70    0.30
  12  -8  12    4.11    0.28
  -8  12  12    4.19    0.17
   8  12 -12    4.11    0.22
   8  12 -12    4.12    0.27
  12  -8  12    4.16    0.31
  12   8 -12    4.14    0.25
   8 -12  12    3.84    0.29
 -12   8  12    3.90    0.37
  12  -8  12    3.91    0.30
 -12   8  12    4.32    0.23
  -8 -12 -12    4.03    0.44
  12   8 -12    3.50    0.42
   8 -12  12    4.19    0.32
 -12  -8 -12    3.38    0.46
   8  12 -12    4.47    0.31
  -8  12  12    3.92    0.27
  -8  12  10    9.08    0.29
 -12   8  10    8.57    0.49
   8 -12  10    8.95    0.42
   8  12 -10    8.55    0.40
  12  -8  10    8.39    0.41
  12  -8  10    8.21    0.42
  12   8 -10    8.96    0.37
   8  12 -10    9.42    0.33
 -12   8  10    8.65    0.34
  12  -8  10    7.55    0.41
  12   8 -10    9.07    0.57
   8 -12  10    7.95    0.42
  -8 -12 -10    8.14    0.55
   8  12 -10    9.45    0.43
  -8  12  10    8.12    0.37
  12  -8  10    8.00    0.41
 -12  -8  -8    2.84    0.19
   8  12  -8    2.42    0.26
  -8  12   8    2.61    0.16
  12  -8   8    2.55    0.25
 -12   8   8    2.81    0.20
   8 -12   8    2.55    0.25
   8  12  -8    2.25    0.24
  12   8  -8    2.47    0.12
   8  12  -8    2.68    0.19
  12  -8   8    2.72    0.25
  12  -8   8    2.70    0.28
  12   8  -8    2.30    0.37
  12  -8   8    2.51    0.28
  -8 -12  -8    3.38    0.39
  -8  12   8    2.88    0.24
   8  12  -6    2.00    0.18
  12   8  -6    2.14    0.14
  12  -8   6    2.15    0.22
  -8  12   6    2.24    0.17
 -12  -8  -6    1.94    0.23
   8  12  -6    2.12    0.25
 -12   8   6    2.15    0.18
   8 -12   6    1.79    0.22
   8 -12   6    2.35    0.24
  12  -8   6    2.31    0.24
  12  -8   6    2.26    0.31
  12  -8   6    2.13    0.26
  12   8  -6    2.09    0.34
  -8  12   6    1.92    0.21
  -8 -12  -6    1.81    0.36
   8 -12   4   21.34    0.72
   8  12  -4   22.67    0.67
 -12   8   4   22.21    0.67
  -8  12   4   23.86    0.66
   8  12  -4   22.77    0.74
  12  -8   4   22.57    0.69
   8 -12   4   22.80    0.70
 -12  -8  -4   21.82    0.77
  12  -8   4   23.04    0.88
 -12  -8  -4   22.79    1.00
  -8  12   4   21.98    0.70
  12  -8   4   22.24    0.79
  12  -8   4   21.96    0.71
  -8 -12  -4   22.54    0.90
  12   8  -4   24.44    0.88
 -12   8   2    4.98    0.24
   8 -12   2    4.27    0.30
  12  -8   2    4.74    0.37
   8  12  -2    5.06    0.33
  -8  12   2    5.06    0.25
 -12   8   2    4.44    0.26
  12  -8   2    5.01    0.25
 -12  -8  -2    5.26    0.39
   8 -12   2    4.58    0.28
  12  -8   2    5.16    0.47
  -8  12   2    4.58    0.28
 -12  -8  -2    4.42    0.49
  -8 -12  -2    5.67    0.46
  12  -8   2    5.00    0.29
  12   8  -2    5.12    0.41
  12  -8   0    5.14    0.38
 -12   8   0    4.70    0.26
  12  -8   0    4.86    0.24
   8  12   0    5.34    0.32
  -8  12   0    4.78    0.26
 -12   8   0    4.92    0.27
  -8  12   0    4.67    0.28
 -12  -8   0    5.35    0.51
   8 -12   0    5.31    0.35
  -8 -12   0    5.00    0.43
  12   8   0    4.88    0.39
  12  -8   0    5.24    0.29
 -12   8  -2    4.79    0.28
  12  -8  -2    5.77    0.29
  -8  12  -2    6.02    0.29
   8  12   2    4.92    0.33
  -8  12  -2    5.09    0.29
   8 -12  -2    5.17    0.35
  12  -8  -2    4.31    0.40
  12  -8  -2    4.90    0.23
  -8 -12   2    5.37    0.46
  12   8   2    5.22    0.39
 -12   8  -4   24.10    0.72
  12   8   4   21.25    0.80
  -8  12  -4   22.82    0.70
  -8  12  -4   22.37    0.71
  12  -8  -4   22.55    0.61
  -8 -12   4   22.39    0.91
   8 -12  -4   22.16    0.78
 -12   8  -6    1.63    0.22
   8 -12  -6    1.63    0.28
  12   8   6    1.60    0.26
  -8  12  -6    1.30    0.20
  -8  12  -6    1.41    0.20
  12  -8  -6    1.16    0.31
   8 -12  -8    2.64    0.33
  -8  12  -8    2.85    0.24
 -12   8  -8    2.45    0.26
  12  -8  -8    2.80    0.38
  -8  12 -10    8.21    0.40
 -12   8 -10    8.22    0.41
   8 -12 -10    7.62    0.48
  12  -8 -10    7.91    0.55
 -12   8 -12    3.61    0.31
  -8  12 -12    3.80    0.29
   8 -12 -12    3.65    0.39
  12  -8 -12    3.11    0.40
 -12   8 -14    4.23    0.34
  -8  12 -14    4.23    0.32
 -12   8 -16    1.06    0.27
  -8  12 -20    2.94    0.35
 -12  -8  20    3.96    0.59
  -8  12 -22    2.29    0.35
 -12  -8  22    1.96    0.53
 -12  -8  24    2.26    0.58
   9  12 -23    1.03    0.23
   9 -12  23    0.80    0.29
 -12  -9 -23    0.65    0.47
  -9 -12 -23    1.71    0.48
   9  12 -21    2.09    0.26
  12  -9  21    1.99    0.35
 -12  -9 -21    2.01    0.51
  -9 -12 -21    1.59    0.46
  12   9 -19    6.35    0.33
   9  12 -19    6.80    0.38
  12  -9  19    5.69    0.42
   9 -12  19    6.74    0.45
 -12  -9 -19    6.27    0.64
  -9 -12 -19    6.25    0.60
  -9  12  17    1.20    0.20
  12   9 -17    1.44    0.20
   9  12 -17    1.64    0.23
  12  -9  17    1.60    0.23
  12  -9  17    1.80    0.28
  12   9 -17    1.85    0.36
   9 -12  17    1.54    0.27
 -12  -9 -17    1.45    0.44
  12  -9  15    4.86    0.34
   9  12 -15    5.54    0.34
  12   9 -15    5.89    0.31
 -12   9  15    5.65    0.28
  12   9 -15    4.96    0.49
   9 -12  15    5.61    0.39
   9  12 -15    5.52    0.39
 -12  -9 -15    5.06    0.56
  -9  12  15    5.84    0.32
  -9  12  13    0.24    0.17
  12  -9  13    0.29    0.16
  -9  12  13    0.26    0.04
   9  12 -13    0.22    0.18
  12   9 -13    0.47    0.16
   9 -12  13    0.22    0.18
  12  -9  13    0.07    0.18
  12  -9  13    0.52    0.21
 -12   9  13    0.37    0.14
  12   9 -13   -0.03    0.29
 -12  -9 -13    0.46    0.34
   9 -12  13    0.03    0.20
  -9 -12 -13    0.31    0.32
  -9 -12 -11   11.76    0.37
   9  12 -11   14.57    0.53
  -9  12  11   14.27    0.38
   9 -12  11   14.49    0.56
  12  -9  11   14.24    0.55
  12  -9  11   13.18    0.55
   9  12 -11   14.88    0.44
  12   9 -11   13.79    0.49
 -12   9  11   14.55    0.47
  12  -9  11   14.21    0.57
  12   9 -11   14.89    0.71
   9 -12  11   13.22    0.56
  -9  12  11   14.42    0.51
  -9 -12 -11   14.51    0.76
  -9  12   9    5.49    0.21
  12  -9   9    4.72    0.32
   9 -12   9    5.45    0.33
  12  -9   9    5.12    0.36
   9  12  -9    5.43    0.32
  12   9  -9    4.98    0.18
 -12   9   9    4.75    0.26
  12   9  -9    4.78    0.28
   9  12  -9    5.22    0.25
  12  -9   9    5.13    0.34
  -9  12   9    5.20    0.30
  12   9  -9    4.57    0.42
  -9 -12  -9    6.06    0.50
 -12  -9  -9    4.88    0.22
  12  -9   9    5.05    0.34
   9  12  -9    5.07    0.35
  -9  12   7    5.49    0.23
  12  -9   7    5.28    0.31
   9 -12   7    5.36    0.31
 -12   9   7    5.01    0.27
  12  -9   7    5.17    0.36
   9  12  -7    5.37    0.31
  12  -9   7    5.42    0.33
 -12  -9  -7    4.89    0.29
   9 -12   7    5.35    0.30
  -9  12   7    5.37    0.30
  12  -9   7    5.70    0.38
 -12  -9  -7    5.03    0.51
   9  12  -7    5.30    0.26
  12   9  -7    5.31    0.44
  -9 -12  -7    5.48    0.47
  12   9  -7    5.49    0.21
   9  12  -7    4.99    0.35
  -9  12   5   41.61    1.07
   9  12  -5   40.58    1.09
   9  12  -5   39.41    1.19
  12  -9   5   41.44    1.13
 -12   9   5   42.78    1.11
 -12  -9  -5   39.88    1.18
   9 -12   5   40.83    1.13
 -12   9   5   41.78    1.04
   9 -12   5   41.36    1.22
  12  -9   5   40.50    1.23
  12  -9   5   38.95    1.28
  -9  12   5   42.45    1.14
 -12  -9  -5   41.94    1.46
  12  -9   5   40.73    1.16
  -9 -12  -5   42.17    1.39
  12   9  -5   42.39    1.31
   9 -12   5   38.99    1.17
 -12   9   3   12.06    0.40
   9  12  -3   12.84    0.53
  -9  12   3   12.26    0.41
   9  12  -3   11.88    0.44
 -12   9   3   12.07    0.44
  12  -9   3   11.95    0.45
   9 -12   3   12.42    0.46
  12  -9   3   11.03    0.62
   9 -12   3   11.78    0.49
  -9  12   3   12.64    0.48
 -12  -9  -3   13.12    0.74
  12  -9   3   12.31    0.57
  -9 -12  -3   11.95    0.65
 -12  -9  -3   11.91    0.55
  12  -9   3   12.65    0.49
  12   9  -3   12.25    0.59
  -9  12   1   11.83    0.43
   9 -12   1   13.17    0.49
   9  12  -1   11.66    0.51
 -12   9   1   12.85    0.46
  12  -9   1   11.89    0.43
 -12   9   1   12.87    0.43
  -9  12   1   12.14    0.47
 -12  -9  -1   12.79    0.76
  -9 -12  -1   12.62    0.67
  12  -9   1   13.16    0.58
  12   9  -1   13.10    0.60
  12  -9   1   12.48    0.48
 -12   9  -1   12.97    0.47
  12  -9  -1   13.83    0.50
   9  12   1   14.06    0.55
  -9  12  -1   14.52    0.48
 -12   9  -1   13.71    0.49
  12  -9  -1   13.15    0.44
   9 -12  -1   13.28    0.56
 -12  -9   1   13.24    0.77
  -9 -12   1   14.52    0.74
  -9  12  -1   12.63    0.50
  12   9   1   13.69    0.60
  12  -9  -1   13.99    0.61
  12   9   3   11.58    0.55
 -12   9  -3   12.01    0.45
  -9  12  -3   11.84    0.45
   9  12   3   11.46    0.51
  12  -9  -3   12.86    0.45
  -9  12  -3   11.78    0.48
  12  -9  -3   11.47    0.38
  -9 -12   3   12.21    0.69
   9 -12  -3   11.23    0.53
  12   9   5   40.06    1.23
  -9  12  -5   41.40    1.13
 -12   9  -5   40.17    1.13
  -9  12  -5   40.74    1.14
  12  -9  -5   39.78    1.27
   9 -12  -5   38.78    1.22
 -12   9  -7    5.59    0.33
  -9  12  -7    5.39    0.31
  12   9   7    5.11    0.37
  -9  12  -7    4.85    0.31
  12  -9  -7    5.76    0.44
   9 -12  -7    4.73    0.39
 -12   9  -9    5.10    0.34
  -9  12  -9    5.37    0.33
   9 -12  -9    4.87    0.41
  12  -9  -9    4.80    0.45
  -9  12 -11   13.37    0.54
 -12   9 -11   13.23    0.55
  12  -9 -11   13.07    0.69
   9 -12 -11   12.59    0.63
 -12   9 -13    0.23    0.21
   9 -12 -13    0.27    0.29
  -9  12 -13    0.33    0.20
  12  -9 -13    0.14    0.35
  -9  12 -15    5.62    0.39
 -12   9 -15    6.23    0.41
   9 -12 -15    6.00    0.52
 -12   9 -17    1.54    0.29
  -9  12 -21    2.16    0.34
 -12  -9  21    1.20    0.53
  -9  12 -23    0.84    0.30
 -12  -9  23    0.58    0.46
  10  12 -22    3.59    0.31
  12 -10  22    3.11    0.39
  10 -12  22    3.03    0.37
 -12 -10 -22    3.38    0.55
 -10 -12 -22    3.74    0.56
  10  12 -20    5.09    0.33
  12 -10  20    5.35    0.43
  12  10 -20    4.95    0.31
  10 -12  20    5.00    0.43
 -12 -10 -20    5.30    0.62
 -10 -12 -20    5.66    0.58
  12  10 -18    0.46    0.19
  10  12 -18    0.53    0.21
  12 -10  18    0.42    0.25
  10 -12  18    0.70    0.26
 -12 -10 -18    0.12    0.41
 -10 -12 -18    0.57    0.42
  10  12 -16   10.37    0.45
  12  10 -16   10.25    0.42
  12 -10  16   10.76    0.53
  12  10 -16   10.39    0.61
  10 -12  16   10.40    0.53
 -12 -10 -16    9.03    0.70
 -10  12  16    9.10    0.41
  12 -10  14   10.07    0.49
  10  12 -14   11.55    0.48
  12  10 -14   12.16    0.46
 -12  10  14   12.19    0.44
  12  10 -14   12.14    0.65
  10 -12  14   12.57    0.56
 -12 -10 -14   11.83    0.75
  10  12 -14   11.37    0.55
 -10  12  14   11.92    0.46
  12 -10  12    1.35    0.18
  12 -10  12    1.06    0.23
  10  12 -12    0.92    0.13
  10  12 -12    0.87    0.19
  12  10 -12    1.07    0.19
  12 -10  12    0.78    0.21
 -12  10  12    0.91    0.16
  12  10 -12    0.85    0.29
  10 -12  12    0.86    0.24
  10  12 -12    0.71    0.23
 -10 -12 -12    1.60    0.37
 -10  12  12    1.07    0.18
 -10  12  10   34.93    0.88
  12 -10  10   36.11    1.05
  12 -10  10   34.75    1.09
  12  10 -10   34.34    0.88
  10 -12  10   37.00    1.06
 -10 -12 -10   35.22    0.93
  10  12 -10   38.19    1.05
  12  10 -10   37.34    1.02
  10  12 -10   36.97    0.93
 -12  10  10   35.65    0.98
 -12 -10 -10   33.26    0.87
  12 -10  10   34.94    1.08
  10 -12  10   35.29    0.93
 -10  12  10   35.60    1.00
  12  10 -10   35.56    1.19
 -10 -12 -10   35.70    1.31
  10  12 -10   36.73    1.12
  12 -10  10   36.91    1.03
 -10  12   8   16.25    0.46
  12 -10   8   15.69    0.57
  10 -12   8   15.94    0.58
  12 -10   8   15.47    0.63
  10  12  -8   15.89    0.57
 -12  10   8   16.25    0.53
 -12 -10  -8   16.11    0.53
 -10  12   8   15.34    0.55
  10  12  -8   15.82    0.49
  12 -10   8   15.04    0.60
  12  10  -8   16.28    0.45
 -12 -10  -8   14.08    0.81
 -10 -12  -8   14.17    0.76
  12  10  -8   14.55    0.70
  12 -10   8   15.59    0.61
  10 -12   8   15.92    0.54
  10  12  -8   16.59    0.65
 -12  10   6    4.62    0.20
  10  12  -6    4.48    0.34
 -10  12   6    3.94    0.21
  12  10  -6    4.26    0.21
  10 -12   6    4.20    0.30
  12 -10   6    4.23    0.28
 -12  10   6    3.94    0.26
  12 -10   6    4.95    0.36
 -10  12   6    4.40    0.28
 -12 -10  -6    4.10    0.31
  10 -12   6    4.33    0.34
 -12 -10  -6    3.85    0.48
  12 -10   6    4.82    0.38
  12 -10   6    4.54    0.31
 -10 -12  -6    3.96    0.43
  12  10  -6    4.36    0.40
  10 -12   6    3.84    0.30
  10  12  -6    4.30    0.24
  10 -12   4   33.69    1.02
 -12  10   4   34.78    0.91
 -10  12   4   34.07    0.92
 -12 -10  -4   33.66    1.07
  10 -12   4   35.15    1.09
  12 -10   4   33.46    0.97
 -12  10   4   33.40    0.96
  10 -12   4   35.64    0.98
  10  12  -4   34.81    1.07
  10 -12   4   33.85    1.12
 -10  12   4   34.70    0.99
  12 -10   4   34.73    1.09
  12 -10   4   35.49    1.17
 -12 -10  -4   34.06    1.29
 -10 -12  -4   34.31    1.24
  12 -10   4   34.30    1.02
  10  12  -4   34.61    0.94
  12  10  -4   34.96    1.14
  10  12  -2   20.58    0.74
  10 -12   2   20.32    0.69
 -10  12   2   20.79    0.62
 -12  10   2   20.25    0.65
  12 -10   2   20.26    0.64
  10 -12   2   20.48    0.75
  10 -12   2   21.25    0.65
 -10  12   2   20.62    0.67
  12 -10   2   20.53    0.86
 -12 -10  -2   21.30    0.97
 -10 -12  -2   21.40    0.93
  12 -10   2   19.42    0.76
  12  10  -2   20.27    0.79
 -12  10   2   20.69    0.61
  12 -10   2   20.77    0.69
 -12  10   0   17.00    0.56
  12 -10   0   19.69    0.62
  10  12   0   16.75    0.66
 -10  12   0   18.20    0.57
 -10  12   0   17.19    0.60
  12 -10   0   16.83    0.55
 -12 -10   0   18.68    0.92
 -10 -12   0   17.13    0.85
 -12  10   0   17.69    0.60
  10 -12   0   18.51    0.62
  12 -10   0   18.05    0.71
  12  10   0   17.16    0.70
  12  10   2   19.78    0.75
 -12  10  -2   20.50    0.64
  10  12   2   20.20    0.72
 -10  12  -2   20.08    0.63
  12 -10  -2   20.57    0.65
 -12  10  -2   20.00    0.65
 -10  12  -2   19.09    0.65
  12 -10  -2   19.24    0.58
 -10 -12   2   19.75    0.91
  10 -12  -2   18.97    0.73
 -12  10  -4   34.33    0.97
  12  10   4   33.42    1.08
 -10  12  -4   33.72    0.98
  10  12   4   34.17    1.05
 -10  12  -4   34.31    0.97
  10 -12  -4   33.73    1.08
 -12  10  -6    4.96    0.32
 -10  12  -6    5.02    0.31
  12  10   6    4.85    0.38
 -10  12  -6    4.84    0.31
  10 -12  -6    4.25    0.38
  12 -10  -6    4.29    0.41
 -12  10  -8   15.68    0.58
 -10  12  -8   15.27    0.58
  12  10   8   15.22    0.64
  10 -12  -8   15.17    0.69
  12 -10  -8   14.69    0.71
 -10  12 -10   34.67    1.06
 -12  10 -10   35.89    1.07
  12 -10 -10   33.80    1.21
  10 -12 -10   35.04    1.19
 -10  12 -12    1.00    0.22
 -12  10 -12    0.91    0.23
  12 -10 -12    0.63    0.32
  10 -12 -12    1.41    0.33
 -10  12 -14   11.71    0.54
 -12  10 -14   11.27    0.54
  10 -12 -14   11.98    0.68
  12 -10 -14   13.10    0.74
 -12  10 -16    9.12    0.50
 -10  12 -16    9.44    0.50
  10 -12 -16   10.51    0.65
 -12  10 -18    0.14    0.28
 -10  12 -22    3.92    0.41
  11  12 -21    2.15    0.24
  12 -11  21    2.39    0.37
 -12 -11 -21    2.49    0.55
 -11 -12 -21    1.78    0.47
  12  11 -19    3.37    0.27
  11  12 -19    3.13    0.28
  12 -11  19    2.59    0.36
  11 -12  19    3.09    0.36
 -12 -11 -19    3.74    0.56
 -11 -12 -19    2.68    0.50
  11  12 -17    9.05    0.42
  12  11 -17    9.02    0.41
  12 -11  17    9.21    0.53
  11 -12  17   10.42    0.54
 -12 -11 -17    9.46    0.73
 -11 -12 -17    9.85    0.72
  11  12 -15   19.73    0.69
  12  11 -15   20.63    0.67
  12 -11  15   18.32    0.76
 -12  11  15   20.73    0.65
  11 -12  15   18.92    0.77
  12  11 -15   22.17    0.88
 -11  12  15   21.34    0.67
  11  12 -15   21.34    0.82
 -12 -11 -15   17.96    0.99
  12 -11  13    9.50    0.48
  11  12 -13   10.54    0.45
  12  11 -13   10.29    0.44
 -12  11  13   10.11    0.41
 -11  12  13   10.11    0.42
  11  12 -13    9.84    0.54
  12 -11  11   10.76    0.41
  12  11 -11    9.94    0.31
  12 -11  11    9.45    0.48
  12 -11  11    9.75    0.46
  11  12 -11   10.27    0.34
  11 -12  11   10.47    0.47
  11  12 -11   10.61    0.45
  12  11 -11   10.27    0.43
 -12  11  11   10.61    0.41
 -11  12  11   10.47    0.42
  12 -11  11    8.04    0.46
  12  11 -11   10.20    0.55
 -11 -12 -11    9.68    0.67
  11  12 -11    9.46    0.52
  11 -12  11   10.17    0.35
 -11  12   9   25.27    0.67
  12 -11   9   26.82    0.84
  12 -11   9   25.56    0.89
  11 -12   9   25.41    0.84
  11  12  -9   25.80    0.82
 -12 -11  -9   26.68    0.75
  12  11  -9   26.63    0.81
 -11 -12  -9   26.64    0.77
 -12  11   9   26.16    0.78
  12  11  -9   27.15    0.70
  11  12  -9   27.52    0.73
 -11  12   9   26.22    0.80
 -12 -11  -9   25.41    1.11
  12 -11   9   24.28    0.86
 -11 -12  -9   25.37    1.10
  11 -12   9   23.49    0.85
  12  11  -9   28.88    0.98
  12 -11   9   27.00    0.83
  11  12  -9   27.47    0.93
  11 -12   9   26.76    0.78
 -12  11   7   31.99    0.82
 -11  12   7   32.46    0.83
  11 -12   7   32.51    1.04
  12 -11   7   30.85    0.94
  11 -12   7   30.96    0.95
  12 -11   7   32.99    1.05
 -12  11   7   32.60    0.92
 -11  12   7   31.53    0.93
 -12 -11  -7   30.96    0.95
 -12 -11  -7   33.66    1.27
  11 -12   7   32.41    0.98
  12 -11   7   32.71    1.02
 -11 -12  -7   30.51    1.22
  12 -11   7   30.28    0.97
  11  12  -7   32.23    0.86
  12  11  -7   33.65    1.09
  12  11  -7   31.35    0.84
  11 -12   7   30.46    0.98
  11  12  -7   32.31    1.05
 -12  11   5   56.30    1.36
  11  12  -5   54.05    1.39
  12  11  -5   53.35    1.37
  11 -12   5   54.37    1.55
  12 -11   5   53.34    1.43
  11 -12   5   51.31    1.44
 -11  12   5   55.07    1.37
 -12  11   5   52.75    1.42
  12 -11   5   54.48    1.56
 -11  12   5   53.93    1.44
  11 -12   5   54.98    1.57
  12 -11   5   54.06    1.59
 -12 -11  -5   53.94    1.79
 -11 -12  -5   55.20    1.78
  12 -11   5   53.70    1.48
  12  11  -5   54.25    1.58
  11 -12   5   53.72    1.49
  11  12  -5   53.50    1.55
 -11  12   3    6.85    0.29
  11 -12   3    6.68    0.49
  11 -12   3    6.52    0.36
  11  12  -3    5.92    0.38
 -12  11   3    6.83    0.28
 -12  11   3    5.89    0.31
  12 -11   3    6.34    0.32
  11 -12   3    6.20    0.32
  11 -12   3    6.31    0.40
 -11  12   3    5.88    0.32
  12 -11   3    6.27    0.49
  12 -11   3    5.83    0.41
 -12 -11  -3    6.95    0.59
 -11 -12  -3    6.56    0.55
  12  11  -3    6.40    0.43
  12 -11   3    6.43    0.35
  12  11  -1   32.43    1.08
 -12  11   1   32.19    0.92
  11 -12   1   35.01    1.00
 -12  11   1   32.34    0.96
 -11  12   1   33.63    0.97
  11  12  -1   33.79    1.06
  12 -11   1   33.71    0.92
  11 -12   1   32.42    0.92
  11 -12   1   29.02    1.04
 -12 -11  -1   34.72    1.30
 -11 -12  -1   33.05    1.27
  12 -11   1   35.31    1.00
  12 -11   1   34.47    1.09
 -11  12   1   33.52    0.93
  12  11   1   32.29    1.07
 -12  11  -1   33.77    0.94
  11  12   1   34.48    1.07
 -11  12  -1   33.96    0.94
  12 -11  -1   32.00    0.97
 -12  11  -1   33.58    0.97
 -11  12  -1   32.47    0.97
  12 -11  -1   32.95    0.90
 -12 -11   1   32.92    1.30
 -11 -12   1   33.49    1.27
 -12  11  -3    6.87    0.34
  12  11   3    6.26    0.41
  11  12   3    6.90    0.42
 -12  11  -3    6.18    0.34
 -11  12  -3    6.38    0.34
 -11 -12   3    5.82    0.55
 -11  12  -3    6.39    0.33
  11 -12  -3    6.31    0.43
  11 -12  -5   53.50    1.57
 -12  11  -5   53.21    1.43
 -11  12  -5   53.67    1.44
  11  12   5   53.73    1.53
  12 -11  -5   52.39    1.58
 -11  12  -5   51.93    1.44
  12  11   5   51.75    1.53
 -12  11  -7   30.49    0.95
  12  11   7   30.78    1.03
  11 -12  -7   30.94    1.08
  12 -11  -7   31.70    1.10
 -11  12  -7   31.53    0.95
 -12  11  -9   25.91    0.84
  11 -12  -9   25.45    0.96
 -11  12  -9   26.38    0.84
  12 -11  -9   23.91    0.97
 -12  11 -11   10.58    0.49
  12 -11 -11    9.71    0.61
 -11  12 -11    9.98    0.48
  11 -12 -11   10.45    0.62
 -11  12 -13    9.76    0.49
  11 -12 -13   10.89    0.66
 -12  11 -13   10.43    0.51
 -12  11 -15   20.69    0.79
 -11  12 -15   21.09    0.79
  11 -12 -15   21.27    0.94
 -12  11 -17    8.62    0.50
 -11  12 -17    9.22    0.50
 -12  11 -19    3.06    0.38
  12  12 -20    8.26    0.41
 -12 -12 -20    7.65    0.74
  12  12 -18    6.13    0.35
  12 -12  18    7.11    0.46
  12  12 -16   10.76    0.46
  12 -12  16   11.09    0.57
  12  12 -14   15.77    0.58
 -12  12  14   14.90    0.54
  12  12 -14   16.00    0.71
  12 -12  12   23.34    0.83
  12  12 -12   23.68    0.77
 -12  12  12   24.32    0.74
 -12 -12 -12   24.00    1.11
  12  12 -12   24.09    0.90
  12 -12  10   52.44    1.53
  12 -12  10   55.50    1.49
  12  12 -10   55.42    1.46
  12  12 -10   54.83    1.33
 -12  12  10   54.84    1.43
 -12 -12 -10   51.18    1.33
 -12 -12 -10   50.39    1.79
  12 -12  10   53.39    1.52
  12  12 -10   52.38    1.59
  12 -12  10   53.09    1.41
 -12  12   8    9.48    0.31
  12 -12   8   10.06    0.45
 -12 -12  -8   10.32    0.43
  12  12  -8   10.04    0.43
 -12  12   8    9.99    0.41
  12 -12   8   10.82    0.52
 -12 -12  -8   10.29    0.70
  12  12  -8    9.90    0.35
  12 -12   8   10.23    0.46
  12 -12   8    9.62    0.47
  12  12  -8   10.84    0.56
  12 -12   6    7.58    0.37
  12 -12   6    7.71    0.46
 -12  12   6    7.57    0.36
  12  12  -6    7.71    0.31
  12 -12   6    8.26    0.47
 -12 -12  -6    7.09    0.59
 -12  12   6    7.80    0.29
  12 -12   6    7.70    0.42
  12  12  -6    8.25    0.47
 -12  12   4   84.29    2.03
  12  12  -4   80.89    2.04
  12 -12   4   80.98    2.09
 -12  12   4   82.34    2.10
  12 -12   4   84.51    2.24
  12 -12   4   83.65    2.31
 -12 -12  -4   83.08    2.48
  12  12  -4   81.76    2.23
  12 -12   4   83.37    2.16
  12  12  -2   20.67    0.78
  12 -12   2   20.29    0.78
  12 -12   2   20.91    0.71
 -12  12   2   19.97    0.63
 -12  12   2   21.35    0.69
  12 -12   2   21.50    0.66
 -12 -12  -2   19.13    0.96
 -12  12   0    0.98    0.17
  12  12   0    0.87    0.24
  12 -12   0    0.87    0.19
 -12  12   0    1.28    0.20
  12 -12   0    0.96    0.16
 -12 -12   0    1.25    0.42
 -12  12  -2   21.75    0.69
  12  12   2   22.04    0.80
 -12  12  -2   21.35    0.72
 -12 -12   2   21.29    1.02
 -12  12  -4   81.35    2.04
  12  12   4   79.18    2.15
 -12  12  -4   76.80    2.04
  12 -12  -4   78.38    2.19
  12  12   6    7.46    0.45
 -12  12  -6    8.18    0.40
  12 -12  -6    7.21    0.50
 -12  12  -8   10.80    0.48
  12 -12  -8    9.87    0.58
 -12  12 -10   54.82    1.52
  12 -12 -10   53.51    1.68
 -12  12 -12   24.28    0.84
  12 -12 -12   24.19    1.01
 -12  12 -14   14.93    0.64
 -12  12 -16   10.00    0.53
 -12  12 -18    6.50    0.46
 -12  12 -20    7.74    0.51
   0 -13   1   13.81    0.47
   0  13   1   13.25    0.49
   0 -13  -1   14.35    0.49
  13   0   1   13.97    0.45
  13   0  -1   14.07    0.43
  13   0  -1   13.93    0.45
   0  13  -1   13.48    0.48
   0  13   1   12.76    0.47
 -13   0  -1   12.88    0.53
  13   0   1   14.17    0.47
  13   0   1   13.52    0.66
 -13   0   1   14.18    0.57
   0  13  -1   13.06    0.48
  13   0  -3    5.77    0.26
  13   0   3    5.59    0.29
   0 -13  -3    6.18    0.32
   0  13  -3    6.14    0.30
 -13   0  -3    6.28    0.33
  13   0  -3    6.70    0.23
  13   0   3    6.60    0.40
 -13   0   3    6.23    0.41
  13   0   3    5.98    0.43
   0  13  -3    5.36    0.29
   0 -13   3    5.62    0.27
  13   0  -5   59.69    1.45
  13   0   5   60.58    1.54
 -13   0   5   62.12    1.70
  13   0   5   60.08    1.63
   0  13  -5   60.20    1.53
   0 -13   5   56.27    1.47
  13   0  -5   59.68    1.42
  13   0   5   59.98    1.70
  13   0  -7    0.56    0.10
  13   0   7    0.50    0.20
  13   0   7    1.15    0.25
 -13   0  -7    0.03    0.33
   0  13  -7    0.63    0.18
 -13   0   7    0.82    0.31
  13   0   7    0.70    0.25
  13   0   9    3.03    0.29
  13   0   9    2.81    0.25
   0 -13   9    2.70    0.23
  13   0  -9    2.26    0.11
 -13   0  -9    2.32    0.43
   0 -13  -9    2.62    0.23
  13   0   9    2.52    0.30
   0  13  -9    2.60    0.23
  13   0  11    5.62    0.38
  13   0  11    5.51    0.32
   0  13 -11    5.42    0.32
   0  13 -11    5.18    0.29
  13   0  11    5.03    0.31
   0 -13  11    5.36    0.31
 -13   0 -11    5.22    0.53
   0 -13 -11    5.86    0.32
  13   0  13    2.01    0.25
  13   0  13    1.37    0.25
  13   0  13    1.90    0.22
   0 -13  13    1.73    0.23
   0  13 -13    1.91    0.23
   0  13 -13    1.88    0.21
 -13   0 -13    1.74    0.41
   0 -13 -13    1.73    0.24
 -13   0  13    1.49    0.38
   0 -13 -15    0.37    0.21
   0 -13  15    0.50    0.21
   0  13 -15    0.42    0.18
  13   0  15    0.33    0.15
 -13   0 -15    0.76    0.36
 -13   0  15    0.50    0.35
   0  13 -17    0.04    0.19
   0 -13  17    0.29    0.20
 -13   0 -17    0.07    0.38
 -13   0  17    0.15    0.37
   0  13 -19    6.97    0.41
   0 -13  19    7.61    0.41
 -13   0 -19    7.28    0.63
 -13   0  19    6.51    0.57
   0  13  19    6.78    0.35
   0 -13  21    0.03    0.22
   0  13 -21    0.08    0.22
 -13   0 -21   -0.04    0.42
 -13   0  21    0.07    0.35
   0  13 -23    1.24    0.28
   0 -13  23    1.09    0.25
 -13   0  23    1.38    0.45
 -13   0 -23    1.07    0.45
   0 -13 -23    1.69    0.38
   0  13 -25    3.87    0.39
 -13   0  25    3.53    0.50
 -13   0 -25    3.45    0.57
 -13   1  26    0.14    0.41
   1  13 -26    0.47    0.27
 -13   1  24   13.63    0.80
   1  13 -24   12.26    0.60
  -1 -13 -24   13.91    0.77
  13  -1  24   14.67    0.68
 -13  -1 -24   13.00    0.85
   1 -13  24   12.77    0.57
   1  13 -22    3.91    0.34
  -1 -13 -22    3.84    0.46
  13  -1  22    3.59    0.36
 -13   1  22    4.14    0.50
 -13  -1 -22    4.81    0.59
   1  13 -20    6.48    0.38
 -13   1  20    5.63    0.57
 -13  -1 -20    6.29    0.58
   1 -13  20    5.00    0.36
   1  13 -18   10.42    0.49
 -13   1  18   11.52    0.69
 -13  -1 -18   10.74    0.75
   1 -13  18   10.65    0.49
  -1 -13 -16    5.68    0.45
 -13   1  16    6.58    0.54
   1  13 -16    5.97    0.36
 -13  -1 -16    6.54    0.58
  13  -1  16    5.56    0.29
   1 -13  16    6.76    0.36
   1 -13  14   12.80    0.51
  -1 -13 -14   13.56    0.62
  13  -1  14   12.96    0.53
  13  -1  14   12.22    0.53
   1  13 -14   12.61    0.51
 -13   1  14   13.23    0.69
 -13  -1 -14   12.01    0.75
  -1 -13 -14   13.19    0.50
  13  -1  14   11.14    0.46
  13  -1  12    2.81    0.26
  13   1 -12    2.59    0.10
   1 -13  12    2.75    0.24
  -1 -13 -12    2.07    0.30
   1  13 -12    3.09    0.23
   1  13 -12    2.42    0.24
  -1 -13 -12    2.82    0.24
 -13   1  12    2.72    0.39
 -13  -1 -12    2.29    0.42
  13  -1  12    2.73    0.27
  13  -1  10   23.69    0.83
   1 -13  10   23.02    0.75
  -1 -13 -10   25.07    0.85
   1  13 -10   24.13    0.76
   1  13 -10   23.42    0.72
  -1 -13 -10   24.39    0.72
 -13  -1 -10   23.34    1.01
  13   1 -10   23.61    0.61
  13  -1  10   25.07    0.77
  13  -1  10   22.88    0.77
  13  -1   8   19.59    0.66
  -1 -13  -8   19.59    0.72
   1 -13   8   20.51    0.66
  13  -1   8   19.12    0.69
   1  13  -8   19.96    0.63
 -13  -1  -8   19.94    0.93
  13  -1   8   21.18    0.76
 -13   1   6   32.95    1.04
  -1 -13  -6   34.32    0.96
  13  -1   6   32.53    0.95
  13  -1   6   33.15    0.88
 -13  -1  -6   34.56    1.21
  13   1  -6   30.13    1.11
   1  13  -6   33.98    0.87
  13  -1   6   32.60    1.02
  13  -1   4    4.44    0.26
  -1 -13  -4    3.71    0.30
   1  13  -4    3.54    0.25
  13  -1   4    4.68    0.36
 -13  -1  -4    4.15    0.28
  13   1  -4    4.88    0.18
  13   1  -4    3.75    0.43
   1  13  -4    4.60    0.26
  13  -1   4    4.32    0.39
  13  -1   4    4.44    0.26
   1 -13   4    4.66    0.21
 -13   1   4    4.62    0.35
  13  -1   2   13.27    0.47
   1 -13   2   14.11    0.46
  -1 -13  -2   13.79    0.52
  13  -1   2   14.15    0.47
   1  13  -2   13.68    0.49
  -1  13   2   14.30    0.48
  13  -1   2   13.86    0.67
 -13  -1  -2   14.04    0.54
  13   1  -2   14.11    0.42
 -13   1   2   14.00    0.58
  13  -1   2   14.19    0.62
   1  13  -2   14.03    0.49
  -1 -13   0   46.56    1.26
  13  -1   0   46.49    1.20
   1  13   0   48.18    1.25
  13   1   0   46.12    1.18
  13  -1   0   46.68    1.39
  -1  13   0   47.76    1.23
   1 -13   0   49.01    1.24
   1  13   0   46.05    1.24
 -13   1   0   47.72    1.31
  13  -1   0   45.83    1.47
 -13  -1   0   48.00    1.33
  13   1   0   45.80    1.22
  13  -1  -2   14.39    0.45
 -13  -1   2   15.62    0.62
   1  13   2   14.26    0.51
  13   1   2   15.11    0.51
  -1  13  -2   14.69    0.50
 -13   1  -2   13.84    0.53
  13  -1  -2   14.67    0.44
  13  -1  -2   14.04    0.71
  13   1   2   13.83    0.66
  13  -1  -2   12.53    0.63
  -1  13  -2   14.29    0.51
  -1 -13   2   15.03    0.51
  13   1   4    4.27    0.27
  13  -1  -4    4.33    0.20
  -1  13  -4    3.93    0.26
  -1  13  -4    4.56    0.27
 -13  -1   4    4.67    0.39
  13  -1  -4    4.04    0.19
  -1 -13   4    4.86    0.26
  13   1   4    5.02    0.38
  13   1   6   34.44    0.97
  13  -1  -6   32.79    0.83
  13  -1  -6   32.36    0.82
  -1  13  -6   31.39    0.95
 -13  -1   6   35.53    1.13
  -1 -13   6   32.23    0.89
  -1  13  -6   34.63    0.94
  13   1   6   34.76    1.09
  13   1   8   20.68    0.66
  13  -1  -8   18.61    0.49
   1 -13  -8   20.39    0.64
  -1  13  -8   19.49    0.63
 -13   1  -8   20.78    0.92
 -13  -1   8   19.09    0.81
  13   1   8   19.59    0.74
  13   1  10   24.24    0.86
  13   1  10   25.55    0.81
  -1  13 -10   25.62    0.77
 -13   1 -10   25.96    1.08
   1 -13 -10   25.79    0.79
  13   1  12    2.57    0.25
  -1  13 -12    3.15    0.26
  13   1  12    2.59    0.30
  -1  13 -12    2.81    0.23
  -1 -13  12    2.67    0.23
   1 -13 -12    2.69    0.27
 -13   1 -12    3.14    0.46
  13   1  14   13.00    0.56
  -1 -13  14   12.10    0.48
  -1  13 -14   13.08    0.52
 -13   1 -14   11.54    0.74
 -13  -1  14   12.15    0.69
   1 -13 -14   12.24    0.53
  -1 -13  16    6.77    0.36
  -1  13 -16    6.92    0.39
 -13  -1  16    6.39    0.54
 -13   1 -16    5.95    0.58
   1 -13 -16    7.33    0.41
  -1 -13  18    9.52    0.44
  -1  13 -18    9.67    0.47
 -13  -1  18   10.84    0.69
 -13   1 -18    9.10    0.69
 -13  -1  20    5.30    0.58
  -1  13 -20    5.89    0.40
   1  13  20    5.60    0.34
 -13   1 -20    5.53    0.60
  -1 -13  20    5.85    0.35
  -1  13 -22    3.63    0.35
  -1 -13  22    3.71    0.30
 -13   1 -22    2.81    0.50
 -13  -1  22    4.21    0.53
  -1  13 -24   12.43    0.61
 -13  -1  24   13.52    0.84
   1 -13 -24   13.03    0.72
 -13   1 -24   13.30    0.84
  -1  13 -26    0.04    0.28
 -13  -1  26    0.29    0.38
   2  13 -25    5.44    0.42
 -13   2  25    6.09    0.56
 -13  -2 -25    4.95    0.62
   2 -13  25    6.02    0.41
   2  13 -23    5.93    0.41
 -13   2  23    5.40    0.55
  13  -2  23    4.81    0.43
 -13  -2 -23    4.43    0.54
   2 -13  23    5.22    0.38
  -2 -13 -23    4.78    0.50
  13  -2  21   13.05    0.61
   2  13 -21   11.71    0.54
 -13   2  21   13.13    0.76
 -13  -2 -21   12.06    0.78
   2 -13  21   12.68    0.56
  -2 -13 -21   11.75    0.70
 -13   2  19   28.89    1.14
   2  13 -19   27.48    0.91
 -13  -2 -19   27.35    1.19
   2  13 -17    4.73    0.32
  13  -2  17    4.01    0.26
 -13   2  17    3.13    0.43
 -13  -2 -17    3.77    0.51
   2 -13  17    3.65    0.30
  13   2 -15    3.12    0.12
   2  13 -15    3.18    0.27
  13  -2  15    3.54    0.31
 -13   2  15    3.28    0.42
  -2 -13 -15    3.43    0.25
   2 -13  15    3.71    0.29
  -2 -13 -15    3.37    0.37
 -13  -2 -15    3.13    0.47
  13  -2  15    3.24    0.26
   2 -13  15    3.88    0.30
  13  -2  15    3.44    0.28
   2 -13  13   12.47    0.51
 -13   2  13   12.03    0.66
  13  -2  13   13.01    0.55
  13  -2  13   12.71    0.51
  -2 -13 -13   11.77    0.59
  13   2 -13   11.80    0.34
  13  -2  13   12.29    0.52
   2  13 -13   12.76    0.46
   2  13 -13   12.34    0.50
  -2 -13 -13   12.89    0.46
  13  -2  13   11.50    0.48
 -13  -2 -13   12.71    0.75
  13  -2  11   32.14    0.99
   2 -13  11   29.37    0.91
 -13   2  11   30.84    1.10
  13  -2  11   30.76    0.93
  -2 -13 -11   32.17    1.04
  13  -2  11   31.27    0.95
   2  13 -11   31.41    0.88
  13   2 -11   30.42    0.78
  13  -2  11   28.48    0.92
 -13  -2 -11   31.66    1.22
  -2 -13 -11   32.20    0.88
   2  13 -11   30.47    0.92
  13   2  -9    5.78    0.52
  13  -2   9    5.70    0.34
  13  -2   9    6.73    0.34
   2  13  -9    5.79    0.32
  -2 -13  -9    6.63    0.31
   2  13  -9    6.30    0.31
  13  -2   9    6.42    0.38
  -2 -13  -9    6.75    0.41
 -13  -2  -9    7.12    0.58
   2 -13   9    5.91    0.33
  13  -2   9    6.70    0.42
  13  -2   7   13.97    0.51
  -2 -13  -7   14.41    0.59
   2 -13   7   13.61    0.52
  13  -2   7   14.48    0.52
  13   2  -7   12.90    0.72
 -13  -2  -7   14.78    0.78
   2  13  -7   14.73    0.50
  13  -2   7   14.78    0.58
  13  -2   7   14.04    0.62
  -2 -13  -5   73.06    1.90
  13  -2   5   72.20    1.81
  -2  13   5   73.71    1.82
  13  -2   5   72.29    1.80
 -13  -2  -5   73.06    1.80
  13   2  -5   73.39    1.68
 -13  -2  -5   72.10    2.17
  13   2  -5   68.89    2.07
   2  13  -5   73.22    1.80
  13  -2   5   72.82    1.98
  13  -2   5   69.98    1.90
 -13   2   5   74.05    1.96
  -2  13   3   54.15    1.55
  13  -2   3   60.46    1.54
   2 -13   3   60.96    1.50
  -2 -13  -3   61.11    1.63
  13  -2   3   57.43    1.53
  -2  13   3   60.97    1.54
  13   2  -3   56.44    1.79
 -13   2   3   60.88    1.67
  13  -2   3   62.33    1.77
  13   2  -3   62.53    1.46
 -13  -2  -3   62.01    1.59
   2  13  -3   60.71    1.55
  13  -2   3   58.78    1.68
  -2 -13  -1   56.09    1.52
   2  13  -1   57.72    1.48
  13  -2   1   56.72    1.45
 -13  -2  -1   54.78    1.55
  13  -2   1   56.50    1.63
  -2  13   1   58.21    1.47
  13  -2   1   57.62    1.44
 -13   2   1   55.84    1.55
  13  -2   1   54.65    1.70
 -13  -2   1   58.89    1.63
  13  -2  -1   58.88    1.45
  13  -2  -1   56.92    1.45
  -2  13  -1   57.50    1.50
   2  13   1   59.42    1.52
 -13   2  -1   56.47    1.55
  13  -2  -1   56.84    1.76
  13  -2  -1   57.66    1.67
  -2 -13   1   58.35    1.54
  13  -2  -3   59.87    1.50
  -2  13  -3   62.45    1.58
 -13  -2   3   62.51    1.73
  13  -2  -3   60.50    1.76
  -2  13  -3   61.53    1.58
  13  -2  -3   62.86    1.50
  -2 -13   3   60.93    1.60
  13   2   3   58.26    1.74
  13  -2  -5   70.75    1.67
  13  -2  -5   67.43    1.66
  -2  13  -5   68.32    1.78
  13   2   5   72.54    1.80
  -2  13  -5   68.95    1.77
  -2 -13   5   69.92    1.78
 -13  -2   5   67.62    1.95
  13   2   5   69.92    1.93
  -2  13  -7   15.11    0.54
   2 -13  -7   14.70    0.54
  -2  13  -7   14.92    0.53
  13   2   7   15.53    0.56
 -13  -2   7   14.59    0.69
  13   2   7   15.38    0.63
  13   2   9    6.04    0.39
  -2  13  -9    6.00    0.32
 -13  -2   9    5.07    0.47
 -13   2  -9    6.26    0.57
   2 -13  -9    5.81    0.33
  13   2   9    6.30    0.35
  13   2  11   31.13    0.94
  -2  13 -11   29.97    0.90
  13   2  11   29.82    1.00
 -13   2 -11   33.10    1.23
   2 -13 -11   30.64    0.94
  13   2  13   11.73    0.54
  -2  13 -13   12.46    0.51
  -2 -13  13   12.93    0.48
   2 -13 -13   12.92    0.55
 -13   2 -13   13.96    0.78
 -13  -2  13   12.02    0.69
  -2  13 -15    3.87    0.30
  -2 -13  15    3.33    0.27
   2 -13 -15    3.62    0.33
 -13  -2  15    4.08    0.47
 -13   2 -15    3.46    0.48
  -2 -13  17    3.39    0.27
  -2  13 -17    3.57    0.31
 -13  -2  17    4.46    0.50
 -13   2 -17    4.16    0.51
   2 -13 -17    4.57    0.37
  -2  13 -19   26.84    0.91
 -13   2 -19   27.14    1.16
  -2 -13  19   27.42    0.85
 -13  -2  19   27.70    1.15
  -2  13 -21   11.40    0.54
  -2 -13  21   10.70    0.47
 -13   2 -21   10.61    0.75
 -13  -2  21   11.28    0.76
 -13  -2  23    4.54    0.58
  -2  13 -23    5.43    0.41
  -2 -13  23    4.48    0.32
 -13   2 -23    4.57    0.57
  -2  13 -25    5.68    0.45
 -13  -2  25    6.98    0.65
   3 -13  26    1.68    0.29
   3  13 -26    1.91    0.32
 -13   3  26    1.75    0.42
 -13  -3 -26    1.29    0.52
  -3 -13 -24   13.78    0.79
   3  13 -24   14.25    0.63
  13  -3  24   14.17    0.67
 -13  -3 -24   13.68    0.89
 -13   3  24   13.47    0.77
   3 -13  24   12.48    0.60
   3  13 -22    8.14    0.45
  13  -3  22   10.12    0.55
  -3 -13 -22    8.48    0.60
 -13  -3 -22    8.96    0.71
   3 -13  22    8.54    0.46
 -13   3  22    8.67    0.64
 -13   3  20    0.12    0.37
   3  13 -20    0.12    0.22
  13  -3  20    0.28    0.26
 -13  -3 -20    0.46    0.44
   3 -13  20    0.16    0.22
  13   3 -18   16.21    0.45
   3  13 -18   16.91    0.65
 -13  -3 -18   18.73    0.95
   3 -13  18   18.75    0.67
 -13   3  18   18.18    0.85
  -3  13  18   18.35    0.57
  13  -3  16    4.72    0.29
  -3 -13 -16    5.52    0.45
  13   3 -16    5.09    0.19
   3  13 -16    5.16    0.33
 -13   3  16    6.08    0.51
   3 -13  16    4.68    0.34
 -13  -3 -16    5.41    0.57
   3 -13  16    5.60    0.37
  13  -3  14    4.70    0.31
   3  13 -14    4.21    0.30
  -3 -13 -14    4.98    0.41
  13  -3  14    4.70    0.32
 -13   3  14    4.15    0.43
  13  -3  14    4.58    0.34
   3 -13  14    4.43    0.31
 -13  -3 -14    4.13    0.48
  -3 -13 -14    4.83    0.25
   3 -13  14    5.19    0.34
  13   3 -14    4.93    0.19
  13  -3  12   35.36    1.08
  13  -3  12   33.72    1.03
  -3 -13 -12   35.12    1.16
  13  -3  12   35.18    1.04
  13  -3  12   35.17    1.07
   3  13 -12   34.90    1.03
   3  13 -12   34.90    0.98
  13   3 -12   35.32    0.89
 -13  -3 -12   35.94    1.32
 -13   3  12   37.37    1.22
   3 -13  12   36.58    1.05
   3 -13  10   10.25    0.45
  -3 -13 -10   11.22    0.55
  13  -3  10   10.85    0.45
  13  -3  10   11.03    0.48
   3  13 -10   10.70    0.45
  -3 -13 -10   11.42    0.40
  13  -3  10   10.62    0.46
   3  13 -10   10.67    0.41
  13   3 -10   11.12    0.34
  13   3 -10    9.18    0.64
 -13  -3 -10   11.07    0.69
 -13   3  10    9.96    0.57
  13  -3  10   10.08    0.49
   3 -13   8   29.37    0.90
  13  -3   8   30.92    0.89
  13  -3   8   29.50    0.94
  13  -3   8   31.77    0.90
   3  13  -8   29.27    0.89
  -3 -13  -8   29.43    0.99
  13   3  -8   27.57    1.12
   3  13  -8   29.72    0.85
 -13  -3  -8   30.81    1.18
  13  -3   8   29.48    0.98
  -3  13   8   29.74    0.89
  13  -3   6  120.95    2.84
  -3  13   6  120.12    2.85
   3 -13   6  117.26    2.86
  13  -3   6  119.86    2.85
  13  -3   6  120.41    2.94
 -13  -3  -6  119.89    2.81
  -3 -13  -6  122.86    2.97
  -3  13   6  113.82    2.79
 -13  -3  -6  119.15    3.22
  13   3  -6  115.61    3.12
  13   3  -6  110.90    2.67
   3  13  -6  117.71    2.82
 -13   3   6  108.88    2.95
  13  -3   6  122.13    3.00
  -3  13   4    5.11    0.30
  -3 -13  -4    5.31    0.35
  13  -3   4    5.38    0.29
  13   3  -4    5.76    0.20
   3 -13   4    5.65    0.22
  13  -3   4    5.56    0.28
  -3  13   4    5.47    0.28
 -13  -3  -4    5.35    0.54
  13  -3   4    5.23    0.38
 -13   3   4    5.15    0.37
  13   3  -4    5.02    0.44
  13  -3   4    5.37    0.42
 -13  -3  -4    5.42    0.31
   3  13  -4    5.18    0.28
 -13  -3  -2   51.87    1.45
  13  -3   2   52.54    1.35
   3  13  -2   51.97    1.38
  -3  13   2   53.98    1.36
  13  -3   2   52.27    1.36
 -13   3   2   51.64    1.46
  13  -3   2   52.04    1.60
  13   3  -2   51.97    1.60
  13  -3   2   52.52    1.51
  -3  13   2   50.65    1.39
  -3 -13  -2   54.14    1.46
  13  -3   0  240.31    5.70
   3  13   0  249.13    5.76
 -13  -3   0  238.78    5.87
 -13   3   0  241.98    5.82
  -3  13   0  246.40    5.74
  13  -3   0  235.55    5.90
  13  -3   0  248.65    5.72
  13  -3   0  236.17    6.02
  -3 -13   0  245.05    5.83
  -3  13  -2   51.49    1.35
  13  -3  -2   46.81    1.59
  13  -3  -2   49.42    1.52
  13  -3  -2   51.35    1.29
 -13  -3   2   51.90    1.51
  13  -3  -2   53.91    1.31
  -3 -13   2   51.33    1.42
  13  -3  -4    6.04    0.23
  -3  13  -4    6.52    0.31
  -3  13  -4    6.37    0.32
  -3 -13   4    5.93    0.35
 -13  -3   4    6.08    0.45
  13   3   4    5.49    0.41
  13  -3  -4    6.28    0.25
  13  -3  -4    5.45    0.45
 -13  -3   6  118.48    3.16
  13  -3  -6  118.83    2.80
  -3  13  -6  121.94    2.95
   3 -13  -6  122.14    2.97
  -3  13  -6  122.04    2.95
  13   3   6  119.15    3.08
  13   3   8   30.58    0.92
  13   3   8   29.17    0.98
 -13  -3   8   30.86    1.10
  -3  13  -8   30.75    0.90
  -3  13  -8   29.30    0.87
   3 -13  -8   28.39    0.90
  13   3  10   11.72    0.48
  13   3  10   11.16    0.53
  -3  13 -10   10.82    0.44
   3 -13 -10   10.42    0.48
  13   3  12   36.26    1.14
  -3  13 -12   35.40    1.04
   3 -13 -12   38.18    1.12
 -13   3 -12   35.76    1.34
  -3  13 -14    4.37    0.31
 -13  -3  14    3.56    0.47
 -13   3 -14    4.59    0.53
   3 -13 -14    4.95    0.37
  -3  13 -16    4.62    0.33
 -13   3 -16    4.68    0.53
 -13  -3  16    5.52    0.53
  -3  13 -18   16.19    0.65
  -3 -13  18   16.02    0.57
 -13   3 -18   17.79    0.89
 -13  -3  18   16.07    0.87
  -3 -13  20    0.12    0.18
   3  13  20   -0.03    0.22
 -13  -3  20    0.04    0.41
 -13   3 -20   -0.14    0.40
  -3  13 -20    0.32    0.25
  -3  13 -22    8.08    0.48
 -13   3 -22    8.90    0.68
 -13  -3  22    8.77    0.70
  -3  13 -24   13.67    0.67
 -13  -3  24   15.69    0.90
   4  13 -25    3.17    0.34
 -13  -4 -25    4.13    0.60
 -13   4  25    2.92    0.47
   4 -13  25    3.63    0.37
  -4 -13 -23    0.37    0.37
   4  13 -23    0.38    0.25
  13  -4  23    0.18    0.29
 -13  -4 -23    0.91    0.49
   4 -13  23    0.36    0.27
 -13   4  23   -0.09    0.34
  -4 -13 -21   13.07    0.76
   4  13 -21   13.66    0.59
  13  -4  21   15.51    0.66
 -13  -4 -21   13.45    0.88
 -13   4  21   14.56    0.76
   4 -13  21   13.39    0.61
   4  13 -19    8.69    0.45
  13  -4  19    8.17    0.49
 -13  -4 -19    9.07    0.70
 -13   4  19    8.04    0.58
   4 -13  19    9.07    0.46
 -13   4  17    0.56    0.33
  13  -4  17    0.32    0.18
  13   4 -17    0.49    0.11
   4  13 -17    0.50    0.19
 -13  -4 -17    0.80    0.40
   4 -13  17    0.84    0.23
 -13   4  15    4.54    0.45
  -4 -13 -15    4.95    0.42
  13  -4  15    4.85    0.33
  13   4 -15    4.45    0.20
   4  13 -15    4.22    0.31
   4 -13  15    4.11    0.32
 -13  -4 -15    4.20    0.50
  13  -4  15    4.55    0.31
   4 -13  15    4.12    0.32
   4 -13  13    2.23    0.25
  13  -4  13    2.41    0.25
  13  -4  13    2.54    0.25
 -13   4  13    2.26    0.33
  -4 -13 -13    1.89    0.32
  -4 -13 -13    2.41    0.18
  13   4 -13    2.38    0.15
   4  13 -13    2.15    0.24
   4  13 -13    2.28    0.20
  13  -4  13    1.76    0.25
  13   4 -13    1.65    0.42
  13  -4  13    2.11    0.25
 -13  -4 -13    1.36    0.41
  -4 -13 -11   11.85    0.58
  13  -4  11   10.95    0.47
  13  -4  11   11.23    0.49
   4  13 -11   11.16    0.46
   4  13 -11   11.35    0.41
  13   4 -11   10.41    0.36
  13   4 -11   11.36    0.67
  -4 -13 -11   11.37    0.39
 -13  -4 -11   11.78    0.72
 -13   4  11   11.17    0.58
  13  -4  11   10.89    0.50
  13  -4  11   10.94    0.48
   4 -13  11   10.89    0.47
  13  -4   9   32.68    1.01
   4 -13   9   32.16    0.97
  13  -4   9   33.40    0.96
  -4  13   9   32.56    0.95
  -4 -13  -9   32.21    1.08
  13  -4   9   34.69    0.98
   4  13  -9   32.46    0.96
  -4  13   9   32.12    0.88
   4  13  -9   33.64    0.92
   4 -13   9   31.00    0.95
  13   4  -9   31.59    1.20
 -13  -4  -9   32.73    1.25
  13  -4   9   31.56    1.03
  13  -4   7    2.22    0.27
  13  -4   7    2.44    0.23
 -13  -4  -7    2.42    0.19
  13  -4   7    2.23    0.22
   4  13  -7    2.34    0.23
  -4  13   7    2.47    0.19
  -4  13   7    2.27    0.23
   4 -13   7    2.46    0.25
  13   4  -7    1.73    0.39
 -13  -4  -7    2.83    0.45
   4  13  -7    2.51    0.21
  13  -4   7    2.74    0.32
  -4 -13  -7    2.55    0.29
  -4  13   5   52.19    1.36
  13  -4   5   51.27    1.33
   4 -13   5   50.17    1.23
   4 -13   5   50.23    1.37
  13  -4   5   50.87    1.45
  13  -4   5   50.45    1.34
  -4  13   5   50.93    1.30
   4  13  -5   44.03    1.34
 -13   4   5   49.16    1.45
 -13  -4  -5   50.52    1.69
  13   4  -5   51.08    1.59
  13  -4   5   53.10    1.53
 -13  -4  -5   50.64    1.35
   4  13  -5   52.24    1.33
  -4 -13  -5   51.75    1.47
 -13  -4  -3  105.93    2.60
  13  -4   3  103.40    2.51
   4  13  -3  104.03    2.53
  -4  13   3   97.67    2.50
 -13   4   3  102.07    2.63
  13  -4   3  103.76    2.67
  13  -4   3  102.84    2.52
  13  -4   3  102.49    2.76
  13   4  -3  104.39    2.78
  -4  13   3  101.60    2.54
  -4 -13  -3  103.92    2.65
  13  -4   1   36.00    0.98
  13  -4   1   36.89    1.00
 -13   4   1   37.22    1.10
  -4  13   1   37.47    1.00
 -13  -4  -1   37.04    1.12
  13  -4   1   37.86    1.27
  13  -4   1   37.98    1.17
  13   4  -1   35.58    1.22
  -4  13   1   35.16    1.03
   4  13  -1   37.34    1.03
  -4 -13  -1   37.61    1.11
  -4  13  -1   38.51    1.03
  13  -4  -1   36.82    0.97
  13  -4  -1   35.52    1.27
  13  -4  -1   39.20    1.00
 -13  -4   1   35.98    1.16
  -4 -13   1   36.66    1.12
  13  -4  -1   35.99    1.18
 -13  -4   3  102.53    2.73
  13  -4  -3  103.06    2.46
  -4  13  -3  101.61    2.55
  13  -4  -3   99.30    2.73
  -4 -13   3  103.27    2.64
  13  -4  -3  107.28    2.50
  13  -4  -5   51.59    1.26
  13  -4  -5   49.16    1.21
 -13  -4   5   50.91    1.54
  -4  13  -5   51.62    1.35
   4 -13  -5   51.66    1.38
  -4  13  -5   50.23    1.34
  -4 -13   5   50.72    1.42
  13  -4  -5   46.62    1.51
  13   4   5   47.75    1.47
  13   4   7    2.71    0.30
  -4  13  -7    2.76    0.23
  -4  13  -7    2.31    0.23
 -13  -4   7    3.17    0.39
   4 -13  -7    2.54    0.27
  -4  13  -9   31.48    0.95
  -4  13  -9   30.75    0.93
  13   4   9   31.77    1.04
 -13  -4   9   33.29    1.18
   4 -13  -9   31.25    0.98
  13   4   9   34.09    0.99
  13   4  11   11.37    0.49
   4 -13 -11   11.44    0.53
  13   4  11   11.35    0.55
  -4  13 -11   11.12    0.46
   4 -13 -13    2.09    0.30
  13   4  13    2.33    0.30
  -4  13 -15    4.30    0.32
   4 -13 -15    5.48    0.40
 -13   4 -15    5.49    0.56
 -13  -4  15    4.92    0.54
 -13  -4  17    1.16    0.40
  -4  13 -17    0.55    0.21
 -13   4 -17    1.05    0.44
   4 -13 -17    0.53    0.27
  -4  13 -19    6.99    0.43
 -13  -4  19    7.35    0.64
 -13   4 -19    7.72    0.65
  -4  13 -21   13.69    0.62
 -13  -4  21   12.56    0.82
 -13   4 -21   13.88    0.81
  -4  13 -23    0.44    0.27
 -13  -4  23    0.12    0.46
 -13  -4  25    2.68    0.56
 -13   5  26   -0.29    0.36
 -13  -5 -26    0.04    0.44
   5 -13  26    0.04    0.25
  -5 -13 -24    1.08    0.41
   5  13 -24    1.40    0.27
  13  -5  24    1.09    0.33
 -13   5  24    1.63    0.39
 -13  -5 -24    0.73    0.45
   5 -13  24    0.75    0.29
  -5 -13 -22    3.20    0.46
   5  13 -22    3.56    0.32
 -13  -5 -22    3.64    0.60
 -13   5  22    3.51    0.45
   5 -13  22    2.92    0.33
   5  13 -20    0.37    0.22
  13  -5  20    0.37    0.26
  -5 -13 -20    0.54    0.36
 -13  -5 -20   -0.08    0.45
 -13   5  20    0.63    0.37
   5 -13  20    0.37    0.25
  13   5 -18    0.02    0.12
   5  13 -18    0.17    0.20
  13   5 -18    0.07    0.41
 -13  -5 -18    0.04    0.41
 -13   5  18    0.08    0.29
  13  -5  18    0.05    0.17
   5 -13  18    0.46    0.24
  13   5 -16    0.09    0.11
   5  13 -16    0.23    0.20
 -13   5  16    0.13    0.06
  13   5 -16   -0.20    0.41
 -13  -5 -16    0.26    0.41
 -13   5  16    0.03    0.29
   5 -13  16   -0.05    0.21
   5  13 -14    4.07    0.17
  -5 -13 -14    3.23    0.38
  13  -5  14    4.09    0.30
  13  -5  14    3.74    0.30
 -13   5  14    3.54    0.15
   5  13 -14    3.91    0.29
  13   5 -14    3.85    0.21
  13  -5  14    4.01    0.32
  -5  13  14    3.90    0.21
  13   5 -14    3.45    0.47
 -13  -5 -14    4.59    0.53
   5 -13  14    4.48    0.33
 -13   5  14    4.04    0.42
  13  -5  14    3.40    0.27
  13  -5  12    0.15    0.19
   5 -13  12    0.27    0.19
  13  -5  12    0.12    0.18
  -5  13  12    0.17    0.19
  13  -5  12    0.01    0.19
 -13   5  12    0.23    0.08
   5  13 -12    0.39    0.18
   5  13 -12    0.41    0.15
  13   5 -12    0.33    0.11
  13  -5  12    0.21    0.19
  -5  13  12    0.23    0.12
  13   5 -12    0.21    0.34
 -13  -5 -12    0.55    0.34
  -5 -13 -12    0.19    0.25
 -13   5  12    0.36    0.26
  -5 -13 -10    8.40    0.51
   5  13 -10    7.56    0.29
  -5  13  10    7.54    0.37
  13  -5  10    7.26    0.38
   5  13 -10    7.85    0.37
  -5  13  10    8.20    0.31
   5  13 -10    7.85    0.33
   5 -13  10    7.44    0.37
  13   5 -10    7.65    0.30
 -13   5  10    7.09    0.48
 -13   5  10    7.33    0.26
  13  -5  10    7.77    0.39
  13   5 -10    6.98    0.56
 -13  -5 -10    8.10    0.62
  13  -5  10    7.60    0.41
  13  -5  10    8.14    0.43
   5 -13  10    7.76    0.39
  -5 -13  -8   24.95    0.91
   5 -13   8   24.65    0.80
  -5  13   8   24.35    0.77
   5  13  -8   24.69    0.70
  13  -5   8   25.58    0.78
 -13  -5  -8   25.63    0.70
  13  -5   8   24.56    0.79
   5  13  -8   24.90    0.78
  -5  13   8   25.05    0.70
   5 -13   8   24.19    0.77
  13   5  -8   23.94    1.00
   5  13  -8   24.83    0.74
 -13  -5  -8   24.01    1.06
  13  -5   8   25.83    0.88
  13  -5   8   26.00    0.84
  13  -5   6    5.11    0.37
   5 -13   6    5.27    0.33
  13  -5   6    5.55    0.29
   5 -13   6    4.62    0.18
  -5  13   6    5.60    0.26
  13  -5   6    5.92    0.31
   5  13  -6    5.60    0.31
   5 -13   6    4.90    0.21
 -13  -5  -6    5.26    0.53
  13   5  -6    5.20    0.47
  13  -5   6    6.15    0.43
 -13  -5  -6    5.38    0.29
   5  13  -6    5.43    0.28
  -5 -13  -6    6.09    0.41
  -5  13   6    5.80    0.32
  -5  13   4    1.41    0.20
   5  13  -4    1.67    0.20
  13  -5   4    1.46    0.19
 -13   5   4    1.69    0.26
  -5  13   4    1.64    0.17
  13  -5   4    1.64    0.30
 -13  -5  -4    1.57    0.24
   5  13  -4    1.45    0.21
  13  -5   4    1.52    0.21
  13  -5   4    1.72    0.32
  13   5  -4    1.04    0.33
  -5 -13  -4    1.71    0.29
  13  -5   2   23.55    0.69
   5  13  -2   24.36    0.72
 -13   5   2   24.27    0.81
  -5  13   2   23.26    0.70
  13  -5   2   24.73    0.86
 -13  -5  -2   24.86    0.82
  13  -5   2   23.60    0.72
  13  -5   2   22.57    0.92
  13   5  -2   24.32    0.93
  -5  13   2   23.65    0.73
  -5 -13  -2   23.55    0.85
  13  -5   0   66.88    1.67
  -5  13   0   67.53    1.71
  13  -5   0   66.94    1.98
  13  -5   0   66.09    1.87
  -5  13   0   69.14    1.74
  13  -5   0   67.57    1.71
  -5 -13   0   68.13    1.86
  13   5   0   68.76    1.93
 -13  -5   0   66.46    1.86
  13  -5  -2   22.95    0.64
 -13  -5   2   24.47    0.89
  -5  13  -2   24.28    0.72
  -5 -13   2   23.79    0.84
  13  -5  -2   21.78    0.85
  13   5   2   22.45    0.86
  13  -5  -2   24.27    0.68
  13  -5  -4    1.33    0.32
  13  -5  -4    1.77    0.17
  -5  13  -4    1.79    0.20
   5 -13  -4    1.72    0.24
  -5 -13   4    1.48    0.27
  13  -5  -4    1.65    0.13
 -13  -5   4    1.47    0.32
 -13  -5   6    5.08    0.47
  13  -5  -6    4.85    0.17
  -5  13  -6    5.77    0.32
   5 -13  -6    5.36    0.34
  -5  13  -6    5.11    0.29
  13   5   8   23.51    0.85
  -5  13  -8   24.15    0.75
  13  -5  -8   22.75    0.93
   5 -13  -8   22.55    0.79
  -5  13  -8   24.51    0.76
 -13  -5   8   25.01    0.98
  13   5  10    7.25    0.44
  -5  13 -10    6.89    0.36
  -5  13 -10    7.20    0.36
  13   5  10    7.77    0.41
   5 -13 -10    6.81    0.41
 -13  -5  10    6.75    0.55
  13   5  12    0.37    0.22
   5 -13 -12    0.68    0.27
   5 -13 -14    4.15    0.38
  -5  13 -16   -0.03    0.21
 -13  -5  16    0.18    0.35
   5 -13 -16   -0.15    0.27
  -5  13 -18   -0.05    0.24
 -13   5 -18    0.23    0.38
 -13  -5  18    0.82    0.42
  -5  13 -20    0.80    0.28
 -13  -5  20    0.50    0.44
 -13   5 -20    0.16    0.42
  -5  13 -22    3.13    0.36
 -13  -5  22    3.18    0.56
  -5  13 -24    0.79    0.32
 -13  -5  24    1.27    0.49
   6  13 -25    0.61    0.27
 -13   6  25    0.36    0.35
 -13  -6 -25    0.63    0.50
  -6 -13 -23    0.61    0.38
   6  13 -23    0.64    0.23
  13  -6  23    0.42    0.29
 -13   6  23    0.74    0.34
 -13  -6 -23    0.43    0.46
  -6 -13 -21   -0.20    0.37
   6  13 -21   -0.12    0.20
  13  -6  21    0.02    0.23
 -13   6  21   -0.03    0.32
 -13  -6 -21    0.95    0.49
   6 -13  21    0.02    0.23
  13   6 -19    0.11    0.15
   6  13 -19    0.12    0.22
  13  -6  19   -0.14    0.25
  13   6 -19    0.77    0.46
 -13   6  19    0.84    0.33
 -13  -6 -19    0.12    0.42
   6 -13  19   -0.05    0.26
  13   6 -17    2.82    0.21
   6  13 -17    3.31    0.28
  -6  13  17    3.04    0.17
  13   6 -17    3.35    0.50
  -6  13  17    3.57    0.29
 -13   6  17    3.16    0.40
  13  -6  17    2.88    0.26
 -13  -6 -17    4.35    0.54
   6 -13  17    3.14    0.32
  -6  13  15    8.26    0.40
  13  -6  15    7.95    0.43
   6  13 -15    7.86    0.40
 -13   6  15    8.24    0.28
  13   6 -15    8.14    0.33
  -6  13  15    7.98    0.30
 -13   6  15    9.18    0.54
  13   6 -15    8.66    0.62
  13  -6  15    7.70    0.40
 -13  -6 -15    8.97    0.66
   6 -13  15    7.86    0.44
  -6 -13 -15    9.16    0.58
   6  13 -15    8.64    0.32
   6  13 -13    5.05    0.25
  -6 -13 -13    4.88    0.45
  13  -6  13    4.88    0.32
  -6  13  13    4.52    0.30
   6  13 -13    5.19    0.27
   6  13 -13    4.71    0.31
 -13   6  13    5.33    0.21
  13   6 -13    4.63    0.25
  13  -6  13    4.95    0.36
  -6  13  13    5.08    0.23
 -13   6  13    5.30    0.43
  13  -6  13    4.15    0.31
  13   6 -13    3.81    0.48
 -13  -6 -13    4.46    0.53
   6 -13  13    5.46    0.35
   6 -13  11    0.91    0.22
  -6 -13 -11    1.07    0.32
  13  -6  11    0.97    0.21
   6  13 -11    0.94    0.15
  -6  13  11    0.93    0.20
  13  -6  11    0.93    0.21
 -13   6  11    0.89    0.12
   6  13 -11    1.02    0.20
  -6  13  11    0.69    0.12
   6  13 -11    0.87    0.16
  13   6 -11    0.59    0.15
   6 -13  11    0.76    0.20
  13  -6  11    0.77    0.19
  -6 -13 -11    0.75    0.12
  13   6 -11    0.89    0.36
 -13   6  11    0.78    0.26
 -13  -6 -11    1.17    0.40
  13  -6  11    1.21    0.22
  -6 -13  -9    0.70    0.27
   6 -13   9    0.65    0.21
 -13   6   9    0.49    0.12
   6  13  -9    0.61    0.15
  -6  13   9    0.44    0.19
  13  -6   9    0.65    0.18
  -6  13   9    0.54    0.13
   6  13  -9    0.68    0.18
   6 -13   9    0.37    0.19
  13  -6   9    0.55    0.21
  13  -6   9    0.45    0.19
 -13   6   9    0.71    0.26
   6  13  -9    0.70    0.16
  13   6  -9    0.33    0.34
 -13  -6  -9    0.44    0.36
  13  -6   9    0.65    0.24
   6 -13   7   12.50    0.50
  13  -6   7   12.65    0.48
   6  13  -7   12.56    0.45
 -13   6   7   12.74    0.41
  -6  13   7   12.71    0.41
   6  13  -7   12.87    0.49
  13  -6   7   13.89    0.51
   6 -13   7   12.90    0.48
  13   6  -7   12.50    0.67
 -13  -6  -7   13.35    0.44
   6  13  -7   12.59    0.44
  13  -6   7   13.46    0.59
  13  -6   7   13.07    0.56
  13   6  -7   11.02    0.31
  -6 -13  -7   11.75    0.60
  -6  13   7   12.90    0.48
  13  -6   5    6.90    0.33
   6  13  -5    7.26    0.33
 -13  -6  -5    6.92    0.36
  -6  13   5    6.97    0.29
   6  13  -5    6.80    0.35
  13  -6   5    7.06    0.35
  13  -6   5    6.35    0.45
  13   6  -5    7.54    0.53
  -6  13   5    7.04    0.35
  -6 -13  -5    7.05    0.46
   6  13  -5    7.36    0.33
  13  -6   5    6.68    0.41
  13  -6   3   11.74    0.42
   6  13  -3   11.89    0.44
  13  -6   3   11.89    0.55
  -6  13   3   10.47    0.40
  13  -6   3   11.80    0.44
  13  -6   3   12.05    0.62
 -13  -6  -3   11.22    0.50
  13   6  -3   11.18    0.60
  -6  13   3   11.34    0.45
  -6 -13  -3   12.06    0.58
  13  -6   1    2.25    0.19
   6  13  -1    2.28    0.21
  -6  13   1    2.21    0.20
 -13  -6  -1    1.84    0.42
  13  -6   1    2.08    0.40
  13  -6   1    2.33    0.33
  -6  13   1    2.42    0.22
  13  -6   1    2.37    0.22
  -6 -13  -1    2.15    0.33
  13   6  -1    2.52    0.34
 -13  -6  -1    2.46    0.31
  13  -6  -1    2.56    0.17
  -6  13  -1    2.71    0.22
  13  -6  -1    2.51    0.38
  -6  13  -1    2.60    0.23
 -13  -6   1    2.78    0.35
  -6 -13   1    2.37    0.32
  13  -6  -1    2.69    0.20
  13   6   1    2.21    0.31
  13  -6  -1    2.17    0.34
  -6  13  -3   10.81    0.43
  13  -6  -3   11.28    0.35
   6 -13  -3   11.17    0.48
  -6  13  -3    9.83    0.43
  -6 -13   3   11.70    0.57
  13  -6  -3   11.87    0.41
  13  -6  -3   12.49    0.59
 -13  -6   3   12.11    0.62
  13   6   3   11.40    0.56
 -13  -6   5    7.71    0.52
  -6  13  -5    7.23    0.33
  13  -6  -5    5.73    0.21
   6 -13  -5    5.89    0.37
  -6 -13   5    6.94    0.45
  -6  13  -7   12.58    0.48
  -6  13  -7   11.09    0.47
 -13  -6   7   13.12    0.68
   6 -13  -7   11.94    0.53
  13   6   9    0.38    0.23
  -6  13  -9    0.47    0.18
  13  -6  -9   -0.05    0.31
  -6  13  -9    0.52    0.19
 -13  -6   9    0.87    0.34
   6 -13  -9    0.48    0.27
  -6  13 -11    1.05    0.22
  13   6  11    0.91    0.25
 -13  -6  11    0.34    0.35
   6 -13 -11    0.92    0.26
   6 -13 -13    4.73    0.41
   6 -13 -15    8.34    0.54
  13   6  15    9.34    0.47
  -6  13 -17    3.12    0.31
   6 -13 -17    2.96    0.38
 -13  -6  17    3.23    0.49
  -6  13 -19    0.26    0.24
 -13  -6  19    0.24    0.46
  -6  13 -21    0.02    0.27
 -13  -6  21   -0.37    0.49
  -6  13 -23    0.91    0.28
 -13  -6  23    1.51    0.52
 -13   7  26    3.04    0.43
   7  13 -24    0.52    0.24
 -13   7  24   -0.14    0.33
 -13  -7 -24    0.54    0.50
   7 -13  24    0.02    0.25
  -7 -13 -22    1.92    0.43
   7  13 -22    2.75    0.28
 -13   7  22    3.30    0.43
 -13  -7 -22    2.29    0.52
   7 -13  22    2.35    0.34
  -7 -13 -20    5.64    0.55
   7  13 -20    4.94    0.34
 -13   7  20    5.34    0.48
   7 -13  20    5.57    0.44
 -13  -7 -20    5.05    0.61
  13   7 -18    3.33    0.23
   7  13 -18    3.63    0.29
  -7  13  18    3.61    0.29
  13  -7  18    3.61    0.35
  13   7 -18    4.26    0.50
 -13   7  18    3.89    0.43
 -13  -7 -18    3.26    0.51
  -7  13  16    6.13    0.35
  13   7 -16    6.42    0.29
   7  13 -16    6.23    0.36
  -7  13  16    6.12    0.22
 -13   7  16    6.49    0.49
  13  -7  16    5.56    0.34
  13   7 -16    5.23    0.52
   7 -13  16    6.29    0.40
 -13  -7 -16    6.76    0.61
  -7 -13 -14    4.99    0.48
  -7  13  14    5.01    0.32
  13  -7  14    5.05    0.31
  13  -7  14    5.09    0.35
   7  13 -14    5.18    0.32
  13   7 -14    4.62    0.26
  -7  13  14    4.73    0.20
 -13   7  14    4.81    0.22
  13  -7  14    4.20    0.31
 -13   7  14    5.05    0.44
  13   7 -14    4.02    0.50
 -13  -7 -14    5.05    0.56
   7 -13  14    4.52    0.35
   7  13 -14    4.98    0.28
  13  -7  12    9.42    0.43
   7  13 -12    9.32    0.36
   7  13 -12    9.46    0.42
  -7  13  12    8.94    0.42
  13  -7  12    9.86    0.45
  -7  13  12    9.31    0.32
 -13   7  12    9.30    0.33
 -13   7  12    9.70    0.53
  13   7 -12    9.52    0.37
  13  -7  12    8.80    0.45
  13  -7  12    8.93    0.44
  13   7 -12    8.49    0.61
 -13  -7 -12    8.76    0.65
   7 -13  12    9.05    0.45
  -7 -13 -12    9.51    0.60
   7  13 -12    9.62    0.39
   7  13 -10   19.22    0.62
  13  -7  10   19.31    0.66
  -7  13  10   19.22    0.55
 -13   7  10   18.45    0.56
 -13   7  10   19.04    0.76
   7  13 -10   19.05    0.66
   7 -13  10   20.00    0.67
  13   7 -10   18.78    0.59
   7  13 -10   19.17    0.59
  13  -7  10   18.49    0.68
  13  -7  10   19.01    0.69
  13   7 -10   17.34    0.83
 -13  -7 -10   19.51    0.95
   7 -13  10   19.24    0.68
  -7 -13 -10   19.14    0.82
  13  -7  10   17.96    0.68
  -7  13  10   19.92    0.65
   7  13  -8   17.00    0.54
  13  -7   8   15.94    0.55
 -13   7   8   17.17    0.48
  -7  13   8   16.05    0.46
 -13   7   8   17.16    0.67
   7  13  -8   16.59    0.57
   7 -13   8   17.48    0.57
  13  -7   8   16.24    0.57
 -13  -7  -8   16.82    0.48
   7  13  -8   16.69    0.50
  13   7  -8   17.11    0.77
  13  -7   8   16.92    0.63
  13  -7   8   16.24    0.63
  -7 -13  -8   16.54    0.73
  -7  13   8   16.47    0.55
   7 -13   8   15.97    0.59
   7  13  -6    4.22    0.28
  13   7  -6    3.62    0.17
  13  -7   6    4.55    0.28
 -13   7   6    3.77    0.22
  -7  13   6    4.06    0.22
 -13  -7  -6    4.48    0.28
   7 -13   6    3.99    0.27
   7  13  -6    4.53    0.29
  13  -7   6    4.08    0.29
   7 -13   6    3.79    0.25
  13   7  -6    4.97    0.43
  13  -7   6    4.65    0.39
  13  -7   6    4.58    0.35
  -7  13   6    3.92    0.27
   7  13  -6    3.81    0.25
  -7 -13  -6    3.73    0.39
   7  13  -4   57.57    1.47
   7  13  -4   55.61    1.51
 -13   7   4   54.79    1.44
  13  -7   4   57.48    1.47
  -7  13   4   57.85    1.44
  13  -7   4   57.61    1.51
  13  -7   4   56.96    1.70
 -13  -7  -4   55.71    1.55
  -7  13   4   58.21    1.51
  13   7  -4   55.82    1.70
  -7 -13  -4   58.76    1.70
  13  -7   4   58.68    1.62
  13  -7   2   28.95    0.97
 -13  -7  -2   26.87    0.93
   7  13  -2   28.44    0.82
  -7  13   2   27.79    0.80
   7 -13   2   27.38    0.86
 -13  -7  -2   27.97    1.18
  13  -7   2   28.73    1.06
   7  13  -2   27.80    0.85
  -7  13   2   27.65    0.84
  13  -7   2   28.30    0.83
  -7 -13  -2   30.44    1.04
  13   7  -2   28.55    1.01
  13  -7   2   28.48    0.80
  13  -7   0   25.19    0.90
  -7  13   0   24.87    0.74
  13  -7   0   24.28    0.70
 -13  -7   0   23.80    1.08
  13  -7   0   22.38    0.96
  -7  13   0   25.88    0.78
  -7 -13   0   25.75    0.94
 -13  -7   0   24.87    0.89
  13  -7   0   26.04    0.75
  13   7   0   25.20    0.92
  13  -7  -2   27.76    0.79
  -7  13  -2   28.34    0.81
 -13  -7   2   25.42    0.98
  13  -7  -2   26.78    0.74
   7 -13  -2   27.58    0.88
  13  -7  -2   27.08    0.96
  -7  13  -2   27.73    0.83
  -7 -13   2   25.74    0.99
  13   7   2   29.04    0.97
  -7  13  -4   57.14    1.48
  13  -7  -4   56.09    1.44
  13  -7  -4   56.36    1.37
  -7  13  -4   53.49    1.49
   7 -13  -4   54.24    1.55
  -7 -13   4   57.91    1.69
 -13  -7   4   56.48    1.71
  13   7   4   57.16    1.63
 -13   7  -4   57.85    1.50
 -13  -7   6    4.74    0.48
  -7  13  -6    4.42    0.29
   7 -13  -6    4.38    0.35
 -13   7  -6    4.56    0.31
 -13  -7   8   14.90    0.77
  -7  13  -8   15.52    0.57
  13  -7  -8   15.05    0.72
   7 -13  -8   15.02    0.64
 -13   7  -8   15.81    0.59
  -7  13 -10   18.46    0.65
 -13  -7  10   18.56    0.87
  13   7  10   18.99    0.73
   7 -13 -10   18.48    0.74
 -13   7 -10   17.69    0.66
  13  -7 -10   17.37    0.81
  -7  13 -12   10.22    0.46
 -13  -7  12    9.55    0.66
   7 -13 -12   10.63    0.56
  13   7  14    4.93    0.37
   7 -13 -14    6.09    0.46
  -7  13 -14    5.33    0.37
 -13  -7  16    6.76    0.63
   7 -13 -16    6.32    0.51
  -7  13 -18    2.83    0.32
 -13  -7  18    2.99    0.50
  -7  13 -20    5.06    0.40
 -13  -7  20    5.33    0.62
  -7  13 -22    2.56    0.34
 -13  -7  22    2.22    0.56
 -13   8  25    4.19    0.46
   8  13 -23    3.23    0.30
 -13   8  23    3.22    0.44
  13  -8  23    3.05    0.40
 -13  -8 -23    2.62    0.54
   8 -13  23    3.10    0.38
  -8 -13 -21    0.53    0.38
   8  13 -21    0.53    0.21
 -13   8  21    0.39    0.32
  13  -8  21    0.79    0.30
 -13  -8 -21    0.44    0.44
   8 -13  21    0.24    0.27
  -8 -13 -19    3.95    0.51
  13   8 -19    4.96    0.29
   8  13 -19    4.67    0.33
  13  -8  19    5.13    0.41
 -13   8  19    5.52    0.48
   8 -13  19    5.85    0.45
 -13  -8 -19    4.42    0.60
  -8  13  17    8.48    0.41
   8  13 -17    8.84    0.43
 -13   8  17    9.05    0.55
  13  -8  17    7.28    0.40
  13   8 -17    7.24    0.60
  13   8 -17    8.38    0.36
   8 -13  17    8.83    0.49
 -13  -8 -17    7.91    0.67
  -8  13  15    1.83    0.21
  -8  13  15    1.32    0.09
   8  13 -15    1.47    0.22
 -13   8  15    1.87    0.34
 -13   8  15    1.28    0.17
  13  -8  15    1.40    0.24
  13   8 -15    1.50    0.39
 -13  -8 -15    1.19    0.42
  13   8 -15    1.55    0.19
   8 -13  15    2.18    0.30
   8  13 -15    1.42    0.23
  13  -8  13   10.19    0.44
   8 -13  13   10.90    0.49
   8  13 -13   11.09    0.38
  13  -8  13    9.75    0.46
  -8  13  13    9.79    0.31
 -13   8  13   10.05    0.56
   8  13 -13   11.02    0.46
  13   8 -13   10.32    0.40
 -13   8  13    9.67    0.36
  13  -8  13    8.89    0.45
  13  -8  13   10.14    0.50
  13   8 -13    9.63    0.61
 -13  -8 -13    9.29    0.70
   8 -13  13   10.69    0.50
  -8 -13 -13   10.01    0.65
   8  13 -13   10.39    0.45
  -8  13  13   10.95    0.44
  13  -8  11    3.68    0.29
  -8  13  11    3.95    0.19
  -8 -13 -11    3.76    0.17
   8  13 -11    3.54    0.28
   8  13 -11    3.50    0.22
 -13   8  11    3.62    0.21
 -13   8  11    3.77    0.37
  13   8 -11    3.89    0.25
   8 -13  11    3.73    0.30
  13  -8  11    3.59    0.31
  13  -8  11    3.42    0.30
  13   8 -11    4.43    0.45
 -13  -8 -11    3.46    0.48
  13  -8  11    4.12    0.30
  -8  13  11    3.55    0.27
   8  13 -11    3.88    0.28
  -8 -13 -11    3.00    0.40
   8 -13  11    3.86    0.31
   8 -13   9   -0.10    0.21
   8  13  -9    0.35    0.19
  -8  13   9    0.39    0.13
  13  -8   9    0.23    0.20
 -13   8   9    0.40    0.14
   8  13  -9    0.42    0.20
   8 -13   9    0.14    0.20
  13  -8   9    0.22    0.19
   8  13  -9    0.32    0.15
 -13  -8  -9    0.28    0.11
  13   8  -9    0.31    0.32
  13  -8   9    0.44    0.23
  13  -8   9    0.13    0.22
  -8 -13  -9    0.36    0.30
  -8  13   9    0.23    0.16
   8  13  -7   33.82    0.97
 -13  -8  -7   33.91    0.93
  -8  13   7   33.79    0.87
  13  -8   7   34.35    0.96
 -13   8   7   32.99    0.89
   8 -13   7   32.59    0.96
   8  13  -7   33.31    0.97
  13  -8   7   32.54    0.98
  13  -8   7   33.08    1.04
   8 -13   7   29.42    0.88
  13   8  -7   32.50    1.16
  13  -8   7   33.57    1.07
   8  13  -7   31.82    0.90
  -8  13   7   33.40    0.95
  -8 -13  -7   37.36    1.21
  13   8  -7   30.68    0.81
   8  13  -5   51.60    1.41
  -8  13   5   52.47    1.33
  13  -8   5   53.18    1.38
 -13   8   5   50.99    1.34
   8 -13   5   50.04    1.38
   8 -13   5   53.74    1.45
 -13  -8  -5   49.65    1.73
  13  -8   5   51.55    1.41
  13  -8   5   52.86    1.57
  -8  13   5   52.42    1.39
 -13  -8  -5   51.52    1.43
  13  -8   5   52.50    1.50
  13   8  -5   52.21    1.59
  -8 -13  -5   53.03    1.62
   8  13  -5   49.56    1.35
   8 -13   3   17.77    0.63
   8  13  -3   17.67    0.58
  -8  13   3   16.72    0.55
 -13   8   3   17.58    0.56
   8  13  -3   17.08    0.63
  13  -8   3   18.31    0.57
 -13  -8  -3   18.66    0.69
 -13  -8  -3   19.12    0.94
  13  -8   3   18.71    0.80
  -8  13   3   18.30    0.61
  -8 -13  -3   17.77    0.79
  13  -8   3   17.13    0.60
  13   8  -3   18.05    0.77
  13  -8   3   18.92    0.73
 -13  -8  -1   42.51    1.33
  13  -8   1   43.79    1.33
   8  13  -1   43.94    1.24
  -8  13   1   44.26    1.16
  13  -8   1   42.87    1.43
 -13  -8  -1   43.97    1.56
  -8  13   1   43.25    1.20
  -8 -13  -1   43.32    1.41
  13  -8   1   43.03    1.20
  13   8  -1   45.20    1.38
 -13   8   1   43.76    1.15
 -13   8  -1   42.42    1.15
  13  -8  -1   43.81    1.17
  -8  13  -1   43.17    1.15
  13  -8  -1   41.75    1.32
  13  -8  -1   42.17    1.10
   8 -13  -1   44.52    1.27
  -8  13  -1   42.51    1.18
  -8 -13   1   41.23    1.38
 -13  -8   1   41.55    1.33
  13   8   1   42.45    1.32
 -13   8  -3   18.39    0.61
  -8  13  -3   19.05    0.61
  -8  13  -3   17.01    0.61
  13  -8  -3   17.71    0.52
  13  -8  -3   18.84    0.59
   8 -13  -3   17.71    0.68
  -8 -13   3   18.08    0.81
  13   8   3   18.65    0.74
 -13   8  -5   50.21    1.37
  -8  13  -5   51.94    1.37
  -8  13  -5   47.94    1.37
   8 -13  -5   50.78    1.45
  13   8   5   51.39    1.49
 -13   8  -7   32.63    0.97
  13  -8  -7   31.41    1.13
  -8  13  -7   31.54    0.95
   8 -13  -7   32.69    1.05
 -13   8  -9    0.04    0.20
   8 -13  -9    0.20    0.28
  -8  13  -9    0.39    0.18
  13  -8  -9    0.31    0.31
 -13   8 -11    3.18    0.30
  -8  13 -11    2.97    0.27
  13  -8 -11    3.85    0.46
   8 -13 -11    3.46    0.40
  -8  13 -13   10.50    0.49
   8 -13 -13    8.98    0.57
 -13   8 -13   10.17    0.51
  -8  13 -15    1.40    0.26
   8 -13 -15    1.52    0.37
 -13  -8  17    7.49    0.66
 -13  -8  19    5.08    0.62
  -8  13 -21    0.32    0.26
 -13  -8  21    1.26    0.50
 -13  -8  23    2.11    0.54
   9  13 -22    0.33    0.21
 -13  -9 -22    1.05    0.47
   9 -13  22    0.35    0.28
  -9 -13 -22    0.70    0.42
   9  13 -20    1.95    0.25
  13  -9  20    2.35    0.33
 -13  -9 -20    2.62    0.50
   9 -13  20    2.38    0.33
  -9 -13 -20    2.11    0.45
  13   9 -18    2.57    0.23
   9  13 -18    2.64    0.27
  13  -9  18    2.36    0.31
 -13  -9 -18    2.27    0.51
   9 -13  18    2.52    0.33
  -9  13  16    1.79    0.22
   9  13 -16    1.54    0.24
  13   9 -16    1.89    0.20
  13  -9  16    1.82    0.24
  13   9 -16    1.51    0.36
 -13  -9 -16    2.55    0.49
   9 -13  16    1.81    0.30
  -9  13  14    1.97    0.23
  -9  13  14    1.64    0.08
  13  -9  14    2.12    0.21
   9  13 -14    1.95    0.24
  13   9 -14    2.09    0.21
  13  -9  14    2.11    0.25
 -13   9  14    2.09    0.18
  13   9 -14    1.80    0.38
 -13  -9 -14    1.55    0.43
   9 -13  14    1.96    0.27
  -9 -13 -14    1.74    0.40
   9  13 -14    1.91    0.26
  13  -9  12    4.36    0.29
  -9  13  12    4.26    0.17
  13  -9  12    4.23    0.32
   9  13 -12    4.48    0.23
   9  13 -12    3.82    0.29
  13   9 -12    4.35    0.27
   9 -13  12    4.28    0.32
 -13   9  12    4.22    0.23
  13  -9  12    3.89    0.31
  13  -9  12    3.76    0.33
  13   9 -12    4.42    0.44
 -13  -9 -12    3.61    0.50
   9 -13  12    4.10    0.33
  -9  13  12    4.13    0.27
   9  13 -12    4.34    0.32
  -9 -13 -12    3.89    0.45
  13  -9  10    6.57    0.36
 -13  -9 -10    5.49    0.20
   9  13 -10    6.09    0.35
   9 -13  10    5.88    0.36
 -13   9  10    6.47    0.29
  13   9 -10    6.64    0.32
  13  -9  10    5.98    0.39
   9  13 -10    6.38    0.28
  13  -9  10    5.56    0.36
  13   9 -10    5.89    0.48
  -9  13  10    6.15    0.23
  -9  13  10    6.22    0.33
  -9 -13 -10    4.95    0.48
  13  -9  10    6.04    0.36
   9  13 -10    5.92    0.36
   9  13  -8    6.62    0.37
 -13  -9  -8    6.59    0.30
 -13   9   8    6.23    0.30
  -9  13   8    6.65    0.26
  13  -9   8    6.94    0.35
   9 -13   8    6.89    0.36
   9  13  -8    7.12    0.37
  13  -9   8    6.49    0.40
  13  -9   8    6.44    0.37
  13   9  -8    6.00    0.22
   9  13  -8    6.68    0.29
  13   9  -8    6.36    0.49
  -9  13   8    6.53    0.34
   9 -13   8    6.13    0.28
  -9 -13  -8    5.94    0.52
   9  13  -6   36.94    1.12
  13   9  -6   38.83    0.97
  -9  13   6   39.75    1.01
  13  -9   6   38.84    1.08
 -13   9   6   38.50    1.04
   9 -13   6   38.03    1.09
   9 -13   6   39.76    1.11
 -13  -9  -6   38.35    1.43
  13  -9   6   37.84    1.18
  -9  13   6   38.87    1.09
  13  -9   6   39.03    1.12
  13  -9   6   39.54    1.23
 -13  -9  -6   38.52    1.11
  -9 -13  -6   38.35    1.33
  13   9  -6   36.42    1.25
   9  13  -6   37.46    1.03
   9  13  -4   10.94    0.50
 -13   9   4   11.67    0.44
   9 -13   4   11.83    0.50
   9  13  -4   11.85    0.44
  13  -9   4   11.44    0.44
  -9  13   4   12.39    0.42
 -13  -9  -4   12.45    0.56
   9 -13   4   12.52    0.46
   9 -13   4   11.86    0.56
 -13  -9  -4   11.27    0.74
  13  -9   4   12.33    0.64
  -9  13   4   12.22    0.48
  -9 -13  -4   13.02    0.70
  13  -9   4   12.42    0.56
  13  -9   4   11.86    0.48
  13   9  -4   13.07    0.64
 -13   9   2   11.16    0.39
   9  13  -2   10.18    0.48
   9 -13   2   10.27    0.46
  -9  13   2   10.52    0.39
 -13   9   2   10.19    0.41
  13  -9   2   10.67    0.40
 -13  -9  -2   10.38    0.54
  13  -9   2   10.81    0.64
  -9  13   2   10.26    0.43
 -13  -9  -2   10.93    0.72
  -9 -13  -2   11.01    0.63
  13  -9   2   11.16    0.55
  13  -9   2   10.52    0.44
  13   9  -2   10.96    0.58
  13  -9   0   50.79    1.32
 -13   9   0   46.30    1.28
  13  -9   0   48.88    1.46
 -13  -9   0   47.72    1.47
  13  -9   0   49.36    1.26
   9 -13   0   43.52    1.38
  -9  13   0   48.12    1.32
 -13  -9   0   52.47    1.72
  -9 -13   0   49.74    1.58
  -9  13   0   49.53    1.29
  13   9   0   49.25    1.47
 -13   9  -2   10.47    0.41
  13  -9  -2   10.18    0.42
  -9  13  -2   10.79    0.42
  13  -9  -2    9.64    0.54
  13   9   2   10.39    0.53
  -9  13  -2   10.27    0.44
  13  -9  -2   10.32    0.36
   9 -13  -2   10.41    0.50
  -9 -13   2   10.22    0.64
 -13   9  -4   12.84    0.49
  13   9   4   12.47    0.59
  -9  13  -4   12.52    0.48
  -9  13  -4   12.08    0.49
  -9 -13   4   12.75    0.69
   9 -13  -4   12.53    0.57
  13   9   6   37.65    1.18
  -9  13  -6   36.68    1.06
 -13   9  -6   38.63    1.09
  -9  13  -6   35.91    1.07
  13  -9  -6   35.59    1.22
   9 -13  -6   36.28    1.16
   9 -13  -8    5.98    0.44
  -9  13  -8    6.27    0.35
  13   9   8    5.51    0.40
  13  -9  -8    5.60    0.46
 -13   9 -10    5.71    0.36
   9 -13 -10    5.88    0.47
  -9  13 -10    5.31    0.34
  13  -9 -10    5.65    0.49
 -13   9 -12    4.07    0.33
  -9  13 -12    4.52    0.33
  13  -9 -12    4.54    0.46
   9 -13 -12    4.66    0.44
 -13   9 -14    1.68    0.27
  -9  13 -14    2.45    0.29
   9 -13 -14    2.94    0.44
  -9  13 -16    1.58    0.28
 -13   9 -16    1.37    0.29
 -13  -9  18    2.47    0.52
 -13  -9  20    2.99    0.56
  -9  13 -22    0.29    0.29
 -13  -9  22    0.63    0.48
  10  13 -21    1.03    0.23
  13 -10  21    0.89    0.31
 -13 -10 -21    0.65    0.49
 -10 -13 -21    1.02    0.43
  13  10 -19    6.60    0.34
  13 -10  19    6.84    0.46
  10 -13  19    6.00    0.45
 -13 -10 -19    7.28    0.69
 -10 -13 -19    7.04    0.66
  10  13 -19    6.05    0.37
  13  10 -17    0.32    0.18
  10  13 -17    0.28    0.19
  13 -10  17    0.51    0.19
  13 -10  17    0.30    0.25
 -13 -10 -17   -0.30    0.41
  10 -13  17    0.22    0.25
  10  13 -15    2.36    0.26
  13  10 -15    1.95    0.22
  13 -10  15    1.63    0.25
 -13 -10 -15    2.69    0.49
  10 -13  15    2.65    0.32
 -10  13  15    2.45    0.24
  13 -10  13    1.29    0.19
  10  13 -13    1.34    0.15
  10  13 -13    1.37    0.22
  13  10 -13    1.33    0.21
  13 -10  13    0.80    0.22
 -13  10  13    1.34    0.17
 -10 -13 -13    2.15    0.42
  10 -13  13    1.36    0.25
 -10  13  13    1.34    0.20
  10  13 -13    1.48    0.27
  13 -10  11    1.01    0.21
  10  13 -11    1.22    0.24
  10  13 -11    1.16    0.22
  10 -13  11    1.21    0.24
  10  13 -11    1.18    0.14
  13  10 -11    1.10    0.19
 -10 -13 -11    0.94    0.10
 -13  10  11    1.36    0.16
  13 -10  11    1.07    0.23
 -10  13  11    1.04    0.09
  13  10 -11    1.04    0.31
 -10  13  11    1.09    0.20
 -10 -13 -11    1.04    0.36
  13 -10  11    1.02    0.22
  10  13  -9    3.49    0.32
  13 -10   9    3.00    0.27
 -13  10   9    3.24    0.22
  10  13  -9    3.57    0.28
  10 -13   9    3.32    0.28
  13  10  -9    3.07    0.25
  13  10  -9    3.23    0.14
 -10  13   9    3.01    0.17
  10  13  -9    3.29    0.21
  13 -10   9    3.31    0.32
  13 -10   9    3.18    0.30
 -10  13   9    2.94    0.25
  13  10  -9    2.76    0.35
 -10 -13  -9    3.19    0.45
  10 -13   9    3.10    0.19
 -13 -10  -9    3.29    0.20
  10 -13   7    0.78    0.22
 -10  13   7    0.90    0.13
 -13 -10  -7    1.03    0.21
  13 -10   7    0.76    0.20
  13  10  -7    0.80    0.12
  10 -13   7    0.80    0.21
 -13  10   7    0.79    0.16
  10  13  -7    0.83    0.22
  10  13  -7    0.72    0.21
 -13 -10  -7    0.04    0.35
 -10  13   7    0.90    0.20
  13 -10   7    0.75    0.26
  10 -13   7    0.90    0.20
  13 -10   7    0.73    0.25
 -10 -13  -7    0.53    0.33
  13 -10   7    0.77    0.20
  13  10  -7    1.13    0.30
  10  13  -7    0.91    0.15
  10  13  -5   27.05    0.80
  10 -13   5   27.25    0.89
 -10  13   5   28.82    0.78
  13  10  -5   27.99    0.76
  13 -10   5   27.99    0.83
 -13  10   5   28.23    0.82
  10 -13   5   26.60    0.84
 -13 -10  -5   27.54    0.91
  10 -13   5   29.13    0.96
 -10  13   5   27.92    0.85
 -13 -10  -5   27.28    1.17
  13 -10   5   28.00    0.96
  13 -10   5   29.57    1.02
 -10 -13  -5   27.84    1.10
  13 -10   5   27.84    0.88
  13  10  -5   28.11    1.01
 -13  10   5   28.63    0.76
 -13  10   3   10.13    0.37
  10  13  -3    9.10    0.46
  10 -13   3   10.05    0.46
 -10  13   3    8.97    0.37
  10  13  -3    9.65    0.39
 -13  10   3   10.08    0.40
  10 -13   3   10.00    0.50
  13 -10   3    9.82    0.40
 -13 -10  -3   10.15    0.52
  10 -13   3    9.61    0.40
 -10  13   3    9.73    0.42
  13 -10   3    9.22    0.58
 -13 -10  -3   10.62    0.71
 -10 -13  -3    9.48    0.64
  13 -10   3    9.97    0.52
  13 -10   3   10.24    0.45
  13  10  -3   10.24    0.55
 -13  10   1   13.11    0.45
  10  13  -1   13.89    0.56
 -10  13   1   12.88    0.45
  10 -13   1   11.79    0.50
  13 -10   1   12.69    0.50
 -13  10   1   12.25    0.47
 -10  13   1   12.27    0.49
  13 -10   1   11.51    0.66
 -13 -10  -1   12.91    0.79
 -10 -13  -1   12.99    0.74
  13 -10   1   12.70    0.44
  13 -10   1   12.27    0.60
  13  10  -1   13.12    0.61
  13  10   1   13.08    0.60
  13 -10  -1   12.78    0.61
  13 -10  -1   13.21    0.50
 -10  13  -1   12.08    0.46
  10  13   1   13.73    0.56
 -13  10  -1   12.28    0.48
 -10  13  -1   12.36    0.49
  13 -10  -1   12.77    0.43
 -13  10  -1   13.36    0.47
 -13 -10   1   12.92    0.79
  10 -13  -1   11.68    0.56
 -10 -13   1   14.15    0.76
 -13  10  -3    9.72    0.41
  13  10   3   10.03    0.52
 -10  13  -3    9.61    0.41
  10  13   3    9.70    0.48
 -10  13  -3    9.10    0.42
 -10 -13   3   10.49    0.66
 -13  10  -5   28.12    0.86
 -10  13  -5   26.88    0.84
 -10  13  -5   27.62    0.86
  13 -10  -5   26.38    1.00
  13  10   5   29.02    0.97
  10 -13  -5   26.19    0.94
 -13  10  -7    0.76    0.22
  13  10   7    0.78    0.25
 -10  13  -7    0.96    0.21
  13 -10  -7    1.27    0.32
  10 -13  -7    0.51    0.28
 -10  13  -7    1.01    0.21
 -13  10  -9    2.88    0.29
 -10  13  -9    3.01    0.27
  13  10   9    2.34    0.31
  10 -13  -9    3.08    0.38
 -13  10 -11    1.51    0.24
  13 -10 -11    0.81    0.34
 -10  13 -11    1.12    0.22
  10 -13 -11    1.22    0.32
 -13  10 -13    1.30    0.25
 -10  13 -13    1.48    0.25
  13 -10 -13    1.54    0.39
  10 -13 -13    1.52    0.39
 -10  13 -15    1.83    0.28
 -13  10 -15    1.50    0.28
 -10  13 -17    0.25    0.23
 -13  10 -17    0.33    0.24
 -13 -10  21    0.95    0.47
  11  13 -20    5.27    0.35
  13 -11  20    5.93    0.44
 -13 -11 -20    5.51    0.66
  11 -13  20    4.38    0.42
 -11 -13 -20    5.67    0.64
  13  11 -18    0.64    0.20
  11  13 -18    0.65    0.22
  13 -11  18    1.27    0.30
 -13 -11 -18    1.16    0.46
  11 -13  18    0.76    0.29
 -11 -13 -18    1.51    0.46
  11  13 -16    0.67    0.22
  13  11 -16    0.81    0.20
  13 -11  16    0.57    0.22
 -13 -11 -16    0.39    0.45
  11 -13  16    1.00    0.27
  11  13 -14    9.28    0.43
  13  11 -14    9.33    0.41
  13 -11  14    7.37    0.43
 -13  11  14    9.27    0.38
 -11  13  14    8.45    0.40
  13  11 -14    8.96    0.56
  11 -13  14    8.82    0.49
  11  13 -14    9.95    0.50
 -11 -13 -14    6.74    0.64
  11  13 -12    2.51    0.17
  11  13 -12    2.41    0.25
  13  11 -12    2.41    0.24
  13 -11  12    2.28    0.28
 -13  11  12    2.68    0.22
  13 -11  12    2.29    0.29
 -11  13  12    2.61    0.24
 -11 -13 -12    2.85    0.46
  13 -11  12    2.09    0.22
  11 -13  10   15.21    0.47
 -11  13  10   14.44    0.41
 -11 -13 -10   14.20    0.47
  13 -11  10   14.63    0.57
  13  11 -10   14.79    0.41
  11 -13  10   15.00    0.59
  13 -11  10   14.14    0.62
  11  13 -10   15.33    0.57
  13  11 -10   15.12    0.55
 -13  11  10   14.73    0.51
  11  13 -10   14.74    0.47
 -11  13  10   15.04    0.54
 -13 -11 -10   14.04    0.84
 -13 -11 -10   13.78    0.42
  13 -11  10   15.02    0.61
 -11 -13 -10   15.07    0.83
  13  11 -10   13.82    0.67
  11  13 -10   14.98    0.63
  13 -11  10   15.92    0.57
  11  13  -8    2.39    0.29
  11 -13   8    2.58    0.28
 -13 -11  -8    2.80    0.24
 -11  13   8    2.48    0.15
  13 -11   8    2.81    0.26
  11 -13   8    2.42    0.26
  11  13  -8    2.76    0.27
 -13  11   8    2.58    0.21
  13 -11   8    2.46    0.30
 -11  13   8    2.66    0.23
  13  11  -8    2.57    0.16
 -13 -11  -8    2.22    0.44
 -11 -13  -8    2.40    0.43
  11  13  -8    2.34    0.19
  13 -11   8    2.67    0.30
  13 -11   8    2.35    0.27
 -13  11   6    3.31    0.18
  13  11  -6    3.06    0.19
  11 -13   6    2.96    0.29
 -11  13   6    3.02    0.19
 -13  11   6    3.01    0.23
  11 -13   6    3.55    0.35
  11  13  -6    2.88    0.31
  11 -13   6    3.10    0.27
 -11  13   6    3.09    0.26
 -13 -11  -6    2.54    0.29
  11 -13   6    3.00    0.33
 -13 -11  -6    3.17    0.49
  13 -11   6    2.75    0.35
  13 -11   6    2.61    0.34
 -11 -13  -6    3.91    0.49
  13 -11   6    3.14    0.27
  11  13  -6    3.01    0.22
  13  11  -6    2.84    0.36
  13 -11   6    2.80    0.27
 -13  11   4   18.73    0.57
  11 -13   4   18.30    0.67
 -11  13   4   19.29    0.58
  11  13  -4   19.24    0.60
  11 -13   4   19.41    0.75
 -13  11   4   18.25    0.62
  13 -11   4   17.84    0.62
  11  13  -4   19.38    0.73
 -11  13   4   19.31    0.64
  11 -13   4   19.15    0.79
  13 -11   4   18.65    0.81
 -13 -11  -4   19.04    0.96
 -13 -11  -4   18.92    0.73
  13 -11   4   19.27    0.76
 -11 -13  -4   17.57    0.89
  11 -13   4   18.72    0.63
  13  11  -4   19.87    0.78
  13 -11   4   19.38    0.68
 -13  11   2    1.49    0.17
  13 -11   2    0.92    0.20
  13 -11   2    0.86    0.27
  11 -13   2    0.92    0.22
 -13  11   2    1.10    0.17
  11  13  -2    1.27    0.24
  13 -11   2    1.22    0.17
  11 -13   2    1.08    0.19
 -11  13   2    1.31    0.20
  13 -11   2    0.97    0.33
 -13 -11  -2    1.54    0.44
  11 -13   2    1.44    0.28
 -11 -13  -2    0.99    0.37
 -11  13   2    1.01    0.17
 -13  11   0    5.80    0.30
 -11  13   0    5.83    0.30
  13 -11   0    6.71    0.35
  11  13   0    6.16    0.39
 -11  13   0    6.27    0.34
  13  11   0    6.19    0.42
 -13 -11   0    5.64    0.57
 -11 -13   0    6.09    0.57
 -13  11   0    6.23    0.33
  13 -11   0    6.39    0.44
 -13  11  -2    1.10    0.19
 -11  13  -2    1.16    0.19
  11  13   2    1.25    0.27
 -13  11  -2    1.05    0.19
 -11  13  -2    1.31    0.20
 -11 -13   2    1.29    0.42
  13  11   2    1.17    0.28
  11 -13  -2    1.18    0.27
 -13  11  -4   18.66    0.63
  13  11   4   18.24    0.74
 -11  13  -4   18.57    0.62
  13 -11  -4   16.06    0.74
  11  13   4   17.97    0.70
 -11  13  -4   17.71    0.63
  11 -13  -4   16.77    0.73
 -11  13  -6    2.94    0.27
 -13  11  -6    3.04    0.28
  13  11   6    2.83    0.32
 -11  13  -6    2.54    0.26
  11 -13  -6    3.03    0.36
  13 -11  -6    3.21    0.40
  13  11   8    2.42    0.31
  13 -11  -8    2.89    0.37
 -13  11  -8    2.70    0.29
  11 -13  -8    2.49    0.36
 -11  13  -8    2.17    0.25
 -13  11 -10   14.51    0.60
 -11  13 -10   15.02    0.59
  13 -11 -10   14.90    0.76
 -13  11 -12    2.23    0.28
 -11  13 -12    2.33    0.27
  11 -13 -12    2.60    0.39
 -13  11 -14    8.40    0.48
 -11  13 -14    8.58    0.47
 -13  11 -16    1.17    0.28
 -11  13 -16    0.51    0.26
 -13  11 -18    1.11    0.30
 -11  13 -18    0.71    0.26
 -13  11 -20    4.53    0.42
  13  12 -19    0.91    0.21
  12  13 -19    0.83    0.22
  13 -12  19    0.61    0.30
 -13 -12 -19    0.19    0.46
  12 -13  19    1.16    0.30
 -12 -13 -19    1.13    0.47
  13  12 -17    1.83    0.23
  12  13 -17    2.25    0.25
  13 -12  17    1.60    0.32
 -13 -12 -17    1.86    0.50
  12 -13  17    1.63    0.30
  12  13 -15   30.61    0.95
  13  12 -15   31.50    0.94
  12 -13  15   29.27    1.03
  12  13 -13    3.18    0.28
  13  12 -13    2.80    0.27
  13 -12  13    2.89    0.31
 -13  12  13    2.80    0.23
 -12  13  13    3.10    0.25
 -12 -13 -13    3.20    0.51
  13  12 -13    2.95    0.37
  12  13 -13    2.72    0.35
  12  13 -11    4.94    0.22
  12 -13  11    4.50    0.37
  12  13 -11    4.23    0.33
  13  12 -11    4.65    0.32
 -13  12  11    4.63    0.28
  13 -12  11    4.68    0.37
 -12  13  11    4.51    0.29
 -13 -12 -11    3.97    0.56
 -12 -13 -11    4.78    0.57
  13 -12  11    4.27    0.36
  12  13 -11    5.51    0.40
 -12  13   9   46.42    1.17
 -12 -13  -9   46.26    1.27
  12 -13   9   46.52    1.41
  13 -12   9   47.42    1.34
  12 -13   9   46.17    1.35
  13 -12   9   46.98    1.42
 -13 -12  -9   46.61    1.25
  12  13  -9   48.88    1.34
 -13  12   9   47.97    1.30
  13  12  -9   47.78    1.32
 -12  13   9   47.03    1.30
  13  12  -9   49.15    1.20
  12  13  -9   48.72    1.22
 -13 -12  -9   48.01    1.70
 -12 -13  -9   47.64    1.69
  13 -12   9   47.99    1.39
  13 -12   9   48.08    1.33
  13  12  -9   46.23    1.47
  12 -13   9   48.45    1.40
  12  13  -9   48.40    1.44
 -13  12   7    5.82    0.23
 -12  13   7    5.72    0.24
  12 -13   7    5.82    0.42
  13 -12   7    5.66    0.34
 -13 -12  -7    5.36    0.36
  12 -13   7    5.64    0.33
 -13  12   7    5.51    0.30
  13 -12   7    5.69    0.42
 -12  13   7    5.43    0.32
  12 -13   7    5.95    0.38
 -13 -12  -7    5.13    0.57
  13 -12   7    6.60    0.42
 -12 -13  -7    5.91    0.57
  12  13  -7    6.01    0.27
  13  12  -7    6.14    0.26
  13 -12   7    5.63    0.37
  13  12  -7    5.25    0.42
  12  13  -7    5.35    0.41
  13  12  -5    2.28    0.32
  13 -12   5    2.28    0.27
 -13  12   5    2.20    0.17
  12  13  -5    2.12    0.31
  12  13  -5    1.86    0.19
  13  12  -5    2.16    0.19
  13 -12   5    1.97    0.23
 -13  12   5    2.21    0.22
  12 -13   5    1.79    0.23
 -12  13   5    1.70    0.22
  12 -13   5    1.87    0.31
  12 -13   5    2.16    0.34
  13 -12   5    2.13    0.34
 -13 -12  -5    2.15    0.46
 -12 -13  -5    1.62    0.43
  13 -12   5    2.07    0.31
 -12  13   5    2.02    0.17
  12 -13   5    2.30    0.27
 -13 -12  -5    2.13    0.31
  13 -12   3   36.31    1.08
 -13  12   3   36.51    0.99
 -12  13   3   36.83    0.99
  12 -13   3   36.74    1.09
 -13  12   3   34.54    1.04
 -12  13   3   34.67    1.04
  13 -12   3   35.51    1.02
  12 -13   3   36.33    1.03
  12 -13   3   35.60    1.17
  12 -13   3   38.33    1.26
  13 -12   3   37.19    1.26
 -13 -12  -3   36.04    1.40
 -12 -13  -3   37.30    1.40
  13 -12   3   38.40    1.19
  13  12  -3   36.61    1.18
  13 -12   1    1.09    0.28
  12  13  -1    0.87    0.24
 -13  12   1    0.71    0.16
  13  12  -1    1.36    0.28
 -12  13   1    0.83    0.16
  13 -12   1    0.92    0.20
  12 -13   1    1.11    0.21
 -13  12   1    0.90    0.19
 -12  13   1    0.96    0.19
  13 -12   1    0.90    0.16
  12 -13   1    0.94    0.17
 -13 -12  -1    1.32    0.43
 -12 -13  -1    0.66    0.43
  12 -13   1    0.95    0.26
 -13  12  -1    0.99    0.18
 -12  13  -1    0.80    0.17
  13  12   1    1.07    0.28
  13 -12  -1    1.26    0.22
 -13  12  -1    0.91    0.20
 -12  13  -1    1.13    0.21
 -13 -12   1    0.82    0.42
  12  13   1    1.10    0.25
 -12 -13   1    0.85    0.39
 -13  12  -3   35.55    1.03
 -12  13  -3   36.24    1.03
  13  12   3   36.47    1.16
 -12  13  -3   34.80    1.06
  12  13   3   34.96    1.13
  12 -13  -3   34.91    1.18
 -13  12  -5    2.22    0.23
 -12  13  -5    1.72    0.23
  13  12   5    1.86    0.30
 -12  13  -5    1.68    0.23
  12 -13  -5    1.53    0.31
  13 -12  -5    1.43    0.33
  13 -12  -7    5.17    0.46
 -13  12  -7    5.46    0.33
 -12  13  -7    5.16    0.33
  12 -13  -7    5.28    0.46
 -13  12  -9   47.09    1.34
  12 -13  -9   45.89    1.49
  13 -12  -9   44.68    1.50
 -12  13  -9   45.87    1.33
 -13  12 -11    4.46    0.35
 -12  13 -11    4.46    0.36
 -13  12 -13    3.37    0.34
 -12  13 -13    3.27    0.34
 -13  12 -15   30.15    1.03
 -12  13 -15   30.32    1.03
 -12  13 -17    1.87    0.31
 -13  12 -17    2.29    0.31
 -13  12 -19    0.73    0.30
 -12  13 -19    0.34    0.29
  13  13 -18    1.83    0.25
 -13 -13 -18    1.66    0.49
  13 -13  18    2.44    0.36
  13  13 -16    3.99    0.31
  13 -13  16    3.87    0.38
  13  13 -14   30.64    0.95
  13  13 -12   23.34    0.76
 -13  13  12   22.08    0.71
 -13 -13 -12   21.19    1.09
  13  13 -12   22.55    0.87
 -13 -13 -10   25.90    0.73
  13  13 -10   28.14    0.87
 -13  13  10   26.87    0.82
 -13 -13 -10   27.40    1.22
  13 -13  10   26.14    0.91
 -13  13   8   17.60    0.50
 -13 -13  -8   17.17    0.62
  13 -13   8   18.45    0.66
  13 -13   8   16.84    0.72
 -13  13   8   17.38    0.61
  13  13  -8   17.36    0.64
 -13 -13  -8   18.06    0.96
  13  13  -8   17.99    0.54
  13 -13   8   18.69    0.67
  13 -13   8   18.41    0.69
 -13  13   6   16.66    0.50
  13 -13   6   16.08    0.59
 -13  13   6   16.35    0.58
  13 -13   6   15.70    0.69
 -13 -13  -6   14.60    0.64
 -13 -13  -6   15.97    0.90
  13 -13   6   15.63    0.69
  13  13  -6   15.68    0.52
  13  13  -6   16.86    0.70
  13 -13   6   15.83    0.62
  13  13  -4   25.86    0.91
  13 -13   4   25.24    0.84
 -13  13   4   24.16    0.72
  13  13  -4   24.84    0.73
 -13  13   4   24.17    0.78
  13 -13   4   24.77    0.78
  13 -13   4   25.35    0.92
  13 -13   4   25.39    0.96
 -13 -13  -4   25.34    1.16
  13  13  -2   11.30    0.58
 -13  13   2   12.36    0.44
  13 -13   2   11.78    0.52
 -13  13   2   12.39    0.49
  13 -13   2   12.17    0.46
  13 -13   2   10.99    0.65
 -13 -13  -2   12.38    0.82
  13 -13   0    1.91    0.32
  13  13   0    1.79    0.29
  13 -13   0    2.16    0.24
 -13  13   0    1.97    0.23
 -13 -13   0    1.88    0.47
 -13  13   0    2.07    0.22
 -13  13  -2   12.50    0.49
  13  13   2   12.43    0.58
 -13  13  -2   11.90    0.50
 -13  13  -4   23.37    0.76
  13 -13  -4   23.24    0.91
  13  13   4   23.36    0.86
 -13  13  -6   15.04    0.58
  13 -13  -6   14.80    0.73
 -13  13  -8   17.79    0.67
 -13  13 -10   27.53    0.92
 -13  13 -12   21.99    0.81
 -13  13 -14   29.53    1.02
 -13  13 -16    3.97    0.39
 -13  13 -18    2.06    0.34
   0  14   0   -0.03    0.17
  14   0   0    0.03    0.12
   0  14   0    0.02    0.14
   0 -14   0   -0.09    0.16
  14   0   0    0.07    0.15
  14   0   0   -0.10    0.28
 -14   0   0    0.02    0.20
  14   0  -2    4.06    0.23
  14   0   2    4.33    0.26
   0 -14  -2    4.80    0.30
  14   0   2    4.35    0.24
   0  14  -2    3.69    0.26
  14   0  -2    4.06    0.20
 -14   0  -2    3.94    0.29
   0  14   2    4.07    0.26
  14   0   2    3.66    0.39
   0  14  -2    4.23    0.27
 -14   0   2    4.35    0.34
   0 -14   2    4.03    0.25
  14   0  -4   27.24    0.76
 -14   0   4   26.22    0.94
  14   0   4   27.82    0.82
   0 -14  -4   26.93    0.86
 -14   0  -4   26.39    0.84
   0  14  -4   26.60    0.82
  14   0  -4   29.81    0.73
   0  14  -4   26.15    0.82
  14   0   4   27.07    0.99
   0 -14   4   27.18    0.78
  14   0   4   28.23    0.94
  14   0  -6    0.87    0.12
  14   0   6    0.81    0.18
  14   0  -6    0.53    0.07
   0  14  -6    0.54    0.16
   0 -14  -6    0.80    0.21
 -14   0   6    0.59    0.28
  14   0   6    0.43    0.24
  14   0  -6    0.68    0.33
   0 -14   6    0.37    0.10
   0  14  -6    0.72    0.17
  14   0   6    0.85    0.26
  14   0  -8    6.16    0.23
  14   0   8    7.76    0.37
  14   0   8    6.57    0.40
 -14   0   8    7.62    0.50
   0 -14  -8    6.92    0.35
   0  14  -8    7.15    0.34
 -14   0  -8    6.48    0.60
  14   0   8    7.05    0.45
  14   0  10   40.90    1.19
   0  14 -10   39.95    1.06
 -14   0 -10   42.56    1.46
   0 -14 -10   40.01    1.07
  14   0  10   41.59    1.11
  14   0  12    6.87    0.41
  14   0  12    6.58    0.37
   0 -14  12    6.54    0.36
   0  14 -12    6.84    0.36
 -14   0 -12    6.34    0.60
   0  14 -12    6.37    0.33
   0 -14 -12    6.87    0.36
   0 -14 -14    3.62    0.31
  14   0  14    4.22    0.32
  14   0  14    3.25    0.32
   0  14 -14    3.28    0.29
   0 -14  14    3.69    0.29
  14   0  14    3.20    0.26
 -14   0 -14    4.26    0.53
 -14   0  14    3.09    0.42
   0  14 -16    3.02    0.29
   0 -14  16    2.65    0.27
 -14   0 -16    2.98    0.51
 -14   0  16    3.23    0.45
   0 -14  18    0.41    0.22
   0 -14 -18    0.31    0.28
 -14   0 -18    0.65    0.40
 -14   0  18    0.33    0.35
   0  14 -18    0.14    0.21
   0 -14  20    5.52    0.37
   0  14 -20    6.60    0.41
 -14   0  20    5.74    0.59
 -14   0 -20    5.68    0.64
   0  14 -22    1.69    0.30
   0 -14  22    1.73    0.27
 -14   0  22    2.03    0.47
 -14   0 -22    2.31    0.51
   0  14 -24    0.02    0.28
   0 -14 -24    0.13    0.34
  14   0  24    0.16    0.29
 -14   0  24   -0.04    0.40
 -14   0 -24   -0.04    0.43
   1  14 -25    0.33    0.29
 -14   1  25    0.24    0.43
 -14  -1 -25    0.65    0.46
  -1 -14 -23    2.41    0.40
   1 -14  23    2.28    0.28
 -14   1  23    2.16    0.46
   1  14 -23    2.35    0.33
 -14  -1 -23    2.81    0.54
   1 -14  21    4.52    0.35
   1  14 -21    3.74    0.35
  14  -1  21    4.51    0.41
 -14   1  21    4.67    0.53
 -14  -1 -21    4.25    0.56
   1 -14  19    5.51    0.36
   1  14 -19    5.29    0.38
 -14   1  19    6.23    0.59
 -14  -1 -19    5.79    0.61
   1 -14  17    5.29    0.36
   1  14 -17    6.26    0.38
  -1 -14 -17    5.31    0.45
 -14   1  17    6.06    0.53
 -14  -1 -17    6.14    0.60
  14  -1  15   12.51    0.53
  -1 -14 -15   12.65    0.63
   1  14 -15   12.90    0.53
  14  -1  15   11.43    0.47
  14  -1  15   12.57    0.56
 -14   1  15   12.45    0.71
 -14  -1 -15   11.74    0.77
  14  -1  13    4.97    0.33
  14  -1  13    4.52    0.35
   1 -14  13    4.67    0.31
  14  -1  13    4.15    0.31
   1  14 -13    4.58    0.28
  -1 -14 -13    4.40    0.39
 -14   1  13    4.09    0.44
 -14  -1 -13    4.50    0.54
   1  14 -13    4.52    0.31
  14  -1  11    9.08    0.42
  14  -1  11    7.07    0.39
   1 -14  11    8.74    0.40
  -1 -14 -11    8.31    0.47
   1  14 -11    8.63    0.41
   1  14 -11    8.89    0.38
  14   1 -11    8.04    0.24
 -14  -1 -11    8.06    0.66
  -1 -14 -11    9.02    0.39
  14  -1  11    9.01    0.46
  14  -1   9   38.31    1.07
  -1 -14  -9   36.29    1.15
  14  -1   9   36.31    1.10
   1 -14   9   37.20    1.06
   1  14  -9   32.75    1.04
  -1 -14  -9   39.27    1.04
   1  14  -9   37.60    1.03
  14   1  -9   31.48    1.29
 -14  -1  -9   38.13    1.40
  14  -1   9   37.17    1.15
 -14   1   7    9.08    0.53
  14  -1   7    8.20    0.39
  -1 -14  -7    8.21    0.45
  14  -1   7    8.98    0.47
 -14  -1  -7    8.31    0.63
  14   1  -7    6.84    0.56
   1  14  -7    9.06    0.38
  14  -1   7    9.10    0.40
  14  -1   7    8.29    0.49
  14  -1   5   17.69    0.59
  -1 -14  -5   17.36    0.65
  -1  14   5   17.50    0.60
  14  -1   5   17.47    0.58
 -14  -1  -5   17.38    0.59
  14   1  -5   16.90    0.82
  14  -1   5   16.96    0.68
  14   1  -5   17.71    0.47
   1  14  -5   17.25    0.59
   1 -14   5   17.16    0.51
  14  -1   5   17.31    0.73
 -14   1   5   16.07    0.70
  14  -1   3   12.87    0.60
  14  -1   3   12.93    0.47
  -1 -14  -3   11.97    0.52
  14  -1   3   12.60    0.45
  14   1  -3   13.44    0.39
   1  14  -3   12.38    0.48
  -1  14   3   12.96    0.46
 -14  -1  -3   13.40    0.51
  14  -1   3   13.34    0.66
 -14   1   3   12.41    0.57
   1  14  -3   12.06    0.47
   1 -14   3   12.85    0.43
  -1 -14  -1   17.64    0.62
  14  -1   1   17.65    0.57
   1 -14   1   17.80    0.57
  14   1  -1   17.66    0.52
  14  -1   1   18.35    0.55
  -1  14   1   17.86    0.58
   1  14  -1   17.85    0.60
  14  -1   1   16.09    0.71
  14   1  -1   18.45    0.58
 -14   1   1   16.51    0.66
  14  -1   1   17.69    0.79
 -14  -1  -1   18.05    0.65
   1  14  -1   17.54    0.60
  14   1   1   16.29    0.56
  14  -1  -1   16.08    0.52
   1  14   1   16.54    0.58
   1 -14  -1   16.46    0.57
  14  -1  -1   17.31    0.73
  -1  14  -1   16.65    0.57
  14  -1  -1   17.59    0.51
 -14   1  -1   16.94    0.62
  14  -1  -1   17.23    0.79
  14   1   1   16.29    0.75
  -1  14  -1   16.22    0.57
  -1 -14   1   17.55    0.59
 -14  -1   1   16.74    0.66
  14   1   3   13.08    0.47
  14  -1  -3   12.58    0.41
   1  14   3   12.17    0.48
 -14   1  -3   13.14    0.51
  -1  14  -3   11.99    0.47
 -14  -1   3   12.88    0.59
  14  -1  -3   13.64    0.41
  -1  14  -3   12.56    0.47
  14   1   3   12.59    0.64
  -1 -14   3   13.19    0.48
  14   1   5   18.58    0.62
  14  -1  -5   17.73    0.51
 -14  -1   5   18.09    0.75
  -1  14  -5   17.78    0.61
  -1  14  -5   18.19    0.61
  -1 -14   5   17.63    0.57
  14   1   5   18.11    0.74
  14  -1  -5   18.50    0.50
  14   1   7    9.32    0.41
   1 -14  -7   10.18    0.42
  14  -1  -7    8.58    0.28
  -1  14  -7    8.07    0.39
 -14  -1   7    8.26    0.53
  -1  14  -7    9.16    0.40
  14   1   7    9.34    0.51
  14   1   9   37.70    1.11
  14   1   9   38.27    1.02
  -1  14  -9   37.09    0.98
 -14  -1   9   35.40    1.20
   1 -14  -9   37.28    1.00
 -14   1  -9   37.00    1.35
  14   1  11    9.27    0.48
  14   1  11    9.90    0.45
  -1  14 -11    9.18    0.40
 -14   1 -11    9.95    0.68
   1 -14 -11    8.99    0.43
 -14  -1  13    4.25    0.46
  14   1  13    4.18    0.32
  14   1  13    4.09    0.35
  -1  14 -13    4.38    0.30
  -1  14 -13    4.49    0.28
  -1 -14  13    4.39    0.30
   1 -14 -13    4.50    0.33
 -14   1 -13    5.12    0.57
  -1  14 -15   12.52    0.52
  -1 -14  15   11.48    0.49
 -14  -1  15   10.57    0.68
 -14   1 -15   11.76    0.79
 -14  -1  17    5.97    0.54
  -1  14 -17    5.65    0.36
 -14   1 -17    4.99    0.56
  -1  14 -19    5.52    0.38
 -14   1 -19    6.00    0.63
 -14  -1  19    4.75    0.56
  -1  14 -21    4.87    0.38
 -14   1 -21    4.75    0.61
 -14  -1  21    4.61    0.56
  -1  14 -23    2.60    0.33
   1 -14 -23    2.76    0.41
 -14   1 -23    2.74    0.51
 -14  -1  23    2.50    0.51
  -1  14 -25    0.41    0.26
 -14  -1  25    0.63    0.43
 -14   2  24    3.03    0.50
   2 -14  24    3.00    0.33
  14  -2  24    2.99    0.38
   2  14 -24    3.46    0.35
 -14  -2 -24    2.78    0.57
   2 -14  22    4.50    0.35
   2  14 -22    4.23    0.38
  -2 -14 -22    3.57    0.48
 -14   2  22    4.63    0.54
  14  -2  22    4.46    0.40
 -14  -2 -22    3.54    0.56
   2 -14  20    2.80    0.29
   2  14 -20    2.85    0.30
 -14   2  20    2.81    0.45
 -14  -2 -20    2.74    0.52
  -2 -14 -18    1.99    0.35
   2  14 -18    2.38    0.28
 -14   2  18    1.07    0.38
 -14  -2 -18    2.14    0.44
   2 -14  16    7.54    0.42
 -14   2  16    8.81    0.59
  -2 -14 -16    8.40    0.53
   2  14 -16    8.87    0.43
  14  -2  16    8.79    0.46
  14  -2  16    6.82    0.36
 -14  -2 -16    9.36    0.70
 -14   2  14   16.26    0.76
   2 -14  14   14.01    0.56
  -2 -14 -14   14.75    0.67
  14  -2  14   15.63    0.58
  14   2 -14   13.34    0.37
   2  14 -14   15.77    0.53
  14  -2  14   15.59    0.61
   2  14 -14   14.93    0.57
  14  -2  14   13.70    0.54
 -14  -2 -14   14.48    0.84
   2 -14  12    2.14    0.25
  14  -2  12    2.08    0.25
  -2 -14 -12    2.16    0.21
  14  -2  12    1.69    0.24
  -2 -14 -12    2.00    0.30
  14  -2  12    2.01    0.25
  14   2 -12    1.84    0.11
 -14   2  12    2.27    0.36
   2  14 -12    1.88    0.23
  14  -2  12    2.39    0.26
   2  14 -12    2.06    0.20
 -14  -2 -12    2.36    0.46
  14  -2  10   19.71    0.68
   2 -14  10   20.02    0.67
  14  -2  10   20.07    0.69
  -2 -14 -10   19.80    0.77
   2  14 -10   20.16    0.68
   2  14 -10   20.75    0.64
  -2 -14 -10   20.19    0.63
  14   2 -10   19.45    0.53
  14   2 -10   17.08    0.88
 -14  -2 -10   20.44    0.98
  14  -2  10   19.41    0.70
  14  -2  10   19.11    0.73
  14  -2   8   20.71    0.68
  -2 -14  -8   21.59    0.78
   2 -14   8   20.14    0.68
  14  -2   8   20.35    0.67
  -2  14   8   19.70    0.67
   2  14  -8   18.18    0.66
   2  14  -8   20.24    0.64
  14   2  -8   19.72    0.91
 -14  -2  -8   20.98    0.98
  14  -2   8   19.71    0.73
  14  -2   8   19.91    0.77
  -2 -14  -6   30.17    0.98
  -2  14   6   30.26    0.91
  14  -2   6   30.20    0.89
 -14  -2  -6   31.74    0.88
 -14  -2  -6   31.16    1.24
  14   2  -6   28.89    1.13
  14  -2   6   32.09    0.90
   2  14  -6   30.44    0.88
  14  -2   6   29.17    1.03
 -14   2   6   31.70    1.04
  14  -2   6   27.53    0.97
  -2 -14  -4    6.19    0.38
  14  -2   4    6.61    0.32
  14  -2   4    6.47    0.42
  14  -2   4    6.33    0.31
  -2  14   4    6.58    0.34
  14   2  -4    6.77    0.23
  -2  14   4    6.65    0.31
 -14  -2  -4    7.24    0.36
  14   2  -4    5.73    0.49
 -14   2   4    5.50    0.40
  14  -2   4    6.54    0.46
   2  14  -4    6.32    0.32
   2 -14   4    6.31    0.26
  -2 -14  -2   23.22    0.76
  14  -2   2   21.88    0.67
   2 -14   2   23.14    0.66
  14   2  -2   22.77    0.62
  14  -2   2   20.57    0.66
  -2  14   2   22.40    0.68
   2  14  -2   21.42    0.71
  14  -2   2   22.72    0.83
 -14   2   2   21.68    0.78
  14  -2   2   21.91    0.89
 -14  -2  -2   23.90    0.76
   2  14  -2   22.99    0.71
 -14  -2   0   58.96    1.59
   2  14   0   55.68    1.48
  14  -2   0   54.96    1.43
   2 -14   0   54.56    1.45
  -2  14   0   56.68    1.46
 -14   2   0   55.27    1.53
  14  -2   0   57.87    1.43
  14  -2   0   53.13    1.71
  -2 -14   0   56.32    1.52
  14  -2   0   54.85    1.64
  14  -2  -2   21.15    0.62
   2  14   2   22.45    0.70
 -14  -2   2   21.11    0.81
 -14   2  -2   21.94    0.73
  -2  14  -2   21.67    0.69
  14  -2  -2   22.45    0.94
  14  -2  -2   22.36    0.86
  14  -2  -2   22.83    0.63
  -2  14  -2   21.67    0.69
  14   2   2   23.11    0.89
  -2 -14   2   21.59    0.72
  14   2   4    5.10    0.31
  14  -2  -4    5.24    0.22
  -2  14  -4    5.67    0.31
 -14  -2   4    5.33    0.43
  14  -2  -4    5.48    0.48
  -2  14  -4    5.73    0.31
  -2 -14   4    5.91    0.32
  14   2   4    5.05    0.41
  14  -2  -4    5.47    0.23
  14   2   6   31.26    0.93
  14  -2  -6   30.59    0.77
  14  -2  -6   30.64    0.78
  -2  14  -6   31.02    0.91
  -2 -14   6   30.20    0.89
  -2  14  -6   30.04    0.90
 -14  -2   6   30.95    1.09
  14   2   6   31.60    1.04
  14   2   8   22.20    0.71
  -2  14  -8   18.52    0.67
  -2  14  -8   20.98    0.68
   2 -14  -8   20.92    0.69
 -14  -2   8   20.29    0.86
  14   2   8   20.63    0.79
  14   2  10   20.99    0.70
  14   2  10   18.90    0.75
  -2  14 -10   19.50    0.65
   2 -14 -10   19.33    0.67
 -14  -2  10   17.45    0.84
  14   2  12    1.90    0.24
  -2  14 -12    1.91    0.22
   2 -14 -12    2.29    0.27
 -14   2 -12    1.95    0.42
  14   2  12    2.26    0.30
  14   2  14   14.21    0.58
  14   2  14   13.45    0.61
  -2  14 -14   14.71    0.57
 -14   2 -14   12.67    0.78
   2 -14 -14   14.60    0.59
 -14  -2  14   13.38    0.75
  -2  14 -16    7.90    0.43
  -2 -14  16    8.03    0.39
   2 -14 -16    8.98    0.49
 -14   2 -16    8.02    0.66
 -14  -2  16    7.45    0.60
 -14  -2  18    2.46    0.45
  -2 -14  18    1.89    0.24
 -14   2 -18    2.30    0.47
  -2  14 -18    2.16    0.27
  -2  14 -20    3.79    0.34
 -14  -2  20    2.53    0.53
  -2 -14  20    2.77    0.28
 -14   2 -20    3.07    0.51
 -14  -2  22    3.99    0.54
  -2  14 -22    4.06    0.38
  -2 -14  22    3.57    0.29
 -14   2 -22    4.50    0.59
  -2  14 -24    3.21    0.37
 -14  -2  24    4.00    0.58
   3 -14  25    2.01    0.31
   3  14 -25    2.03    0.32
 -14  -3 -25    2.28    0.59
 -14   3  25    1.77    0.44
   3 -14  23    1.51    0.30
 -14   3  23    1.77    0.45
  -3 -14 -23    1.31    0.38
   3  14 -23    1.74    0.30
 -14  -3 -23    1.94    0.53
   3 -14  21    2.36    0.31
 -14   3  21    2.30    0.47
   3  14 -21    2.94    0.30
  14  -3  21    1.88    0.31
 -14  -3 -21    2.05    0.52
   3  14 -19    6.27    0.40
 -14   3  19    4.90    0.52
 -14  -3 -19    6.15    0.64
   3 -14  17    4.52    0.34
 -14   3  17    3.69    0.44
  -3 -14 -17    3.95    0.41
   3  14 -17    3.77    0.30
  14   3 -17    3.48    0.14
 -14  -3 -17    4.24    0.55
  -3 -14 -15    1.28    0.32
 -14   3  15    1.45    0.36
  14   3 -15    1.69    0.11
  14  -3  15    1.15    0.22
  14  -3  15    1.88    0.26
   3  14 -15    1.48    0.23
  14  -3  15    1.59    0.26
   3 -14  15    1.80    0.24
 -14  -3 -15    2.12    0.48
   3 -14  13    1.81    0.24
  -3 -14 -13    2.16    0.32
  14  -3  13    1.80    0.25
  14  -3  13    2.01    0.25
  14   3 -13    1.67    0.12
   3  14 -13    1.73    0.22
   3  14 -13    1.77    0.20
  -3 -14 -13    1.44    0.20
 -14   3  13    2.04    0.34
  14   3 -13    2.01    0.44
  14  -3  13    1.93    0.25
 -14  -3 -13    1.85    0.43
   3 -14  11   24.20    0.80
  -3 -14 -11   26.20    0.92
  14  -3  11   25.10    0.81
  14  -3  11   25.42    0.83
   3  14 -11   25.40    0.80
  14  -3  11   24.16    0.82
   3  14 -11   24.15    0.75
  14  -3  11   25.77    0.86
  14   3 -11   23.30    1.04
 -14  -3 -11   25.25    1.10
 -14   3  11   24.08    0.95
  -3 -14  -9    4.97    0.40
  14  -3   9    5.14    0.31
   3 -14   9    5.19    0.32
  -3  14   9    4.74    0.32
  14  -3   9    4.63    0.30
   3  14  -9    4.72    0.30
  14  -3   9    5.24    0.37
   3  14  -9    5.25    0.29
  14   3  -9    4.84    0.48
 -14  -3  -9    5.83    0.57
  14  -3   9    4.49    0.36
  -3 -14  -7    5.90    0.41
  14  -3   7    5.82    0.32
  -3  14   7    5.45    0.32
   3 -14   7    5.77    0.33
 -14  -3  -7    5.98    0.28
  14  -3   7    5.75    0.32
   3  14  -7    5.19    0.32
  -3  14   7    5.89    0.28
  14  -3   7    6.29    0.40
 -14  -3  -7    6.49    0.59
   3  14  -7    5.58    0.30
  14   3  -7    6.21    0.52
  14  -3   7    6.16    0.41
 -14   3   7    4.62    0.39
  -3  14   5   50.94    1.39
  -3 -14  -5   52.44    1.49
  14  -3   5   51.06    1.36
  14  -3   5   51.82    1.37
  14   3  -5   54.68    1.24
  -3  14   5   52.04    1.35
 -14  -3  -5   49.87    1.74
 -14  -3  -5   51.61    1.38
  14   3  -5   49.38    1.63
 -14   3   5   49.75    1.49
  14  -3   5   51.28    1.49
  14  -3   5   51.39    1.56
   3  14  -5   50.67    1.36
   3 -14   5   48.53    1.26
  14  -3   3   45.37    1.22
   3 -14   3   45.56    1.18
  14   3  -3   45.98    1.15
  14  -3   3   46.00    1.23
  -3  14   3   46.43    1.23
 -14   3   3   46.27    1.35
  14   3  -3   45.28    1.49
  14  -3   3   47.77    1.47
 -14  -3  -3   45.65    1.29
   3  14  -3   46.38    1.24
  14  -3   3   45.81    1.38
  -3  14   3   46.09    1.26
  -3 -14  -3   45.50    1.33
   3  14  -1   21.37    0.69
 -14  -3  -1   22.94    0.79
  14  -3   1   23.13    0.66
  14  -3   1   21.99    0.83
  -3  14   1   22.43    0.68
 -14   3   1   21.65    0.76
  14  -3   1   21.32    0.66
  14  -3   1   21.58    0.90
  -3 -14  -1   22.36    0.76
  14  -3  -1   21.55    0.64
 -14   3  -1   22.68    0.76
 -14  -3   1   23.02    0.82
  -3  14  -1   22.37    0.69
   3  14   1   22.14    0.71
  14  -3  -1   19.92    0.91
  14  -3  -1   22.44    0.87
  14  -3  -1   24.40    0.67
  -3 -14   1   23.28    0.77
  14  -3  -3   46.51    1.46
  14  -3  -3   45.84    1.17
  -3  14  -3   45.34    1.26
  14  -3  -3   43.15    1.51
 -14  -3   3   46.57    1.42
  -3  14  -3   47.90    1.27
  -3 -14   3   49.37    1.33
  14  -3  -3   48.19    1.19
  14   3   3   40.54    1.40
  14  -3  -5   49.53    1.57
  14  -3  -5   52.67    1.28
  14  -3  -5   50.89    1.25
  -3  14  -5   49.56    1.37
  -3  14  -5   49.63    1.37
  -3 -14   5   51.07    1.41
 -14  -3   5   51.99    1.57
  14   3   5   51.84    1.53
  -3  14  -7    5.44    0.31
   3 -14  -7    4.77    0.32
  -3  14  -7    5.02    0.30
 -14  -3   7    5.25    0.44
  14   3   7    5.60    0.33
  14   3   7    5.15    0.39
  14   3   9    5.72    0.35
  14   3   9    5.31    0.39
  -3  14  -9    5.58    0.33
  -3  14  -9    5.26    0.31
 -14  -3   9    5.46    0.48
   3 -14  -9    5.80    0.35
  14   3  11   25.89    0.84
  14   3  11   25.82    0.91
  -3  14 -11   24.85    0.80
   3 -14 -11   26.75    0.86
  14   3  13    1.17    0.22
  14   3  13    1.82    0.29
 -14   3 -13    1.45    0.43
   3 -14 -13    1.41    0.27
  -3  14 -15    1.97    0.26
 -14   3 -15    2.42    0.48
 -14  -3  15    1.79    0.42
   3 -14 -15    1.82    0.31
  -3  14 -17    3.82    0.30
 -14  -3  17    4.19    0.52
 -14   3 -17    4.04    0.56
   3 -14 -17    4.41    0.37
  -3  14 -19    6.74    0.43
 -14  -3  19    6.38    0.64
 -14   3 -19    7.01    0.63
  -3  14 -21    2.24    0.31
 -14  -3  21    2.80    0.50
 -14   3 -21    2.45    0.54
  -3  14 -23    2.23    0.34
 -14  -3  23    1.87    0.50
   4  14 -26    0.25    0.26
   4 -14  24    3.62    0.36
   4  14 -24    4.12    0.36
 -14  -4 -24    3.37    0.60
 -14   4  24    4.06    0.50
  -4 -14 -22    6.04    0.56
   4  14 -22    6.19    0.40
  14  -4  22    6.20    0.48
 -14  -4 -22    6.81    0.70
   4 -14  22    6.23    0.45
   4 -14  20    0.62    0.26
   4  14 -20    1.37    0.26
 -14   4  20    1.35    0.41
  14  -4  20    0.65    0.25
 -14  -4 -20    0.33    0.42
 -14   4  18    0.03    0.34
   4  14 -18    0.14    0.22
   4 -14  18    0.08    0.22
 -14  -4 -18    0.04    0.41
 -14   4  16    2.14    0.38
   4 -14  16    2.98    0.30
  -4 -14 -16    1.91    0.35
   4  14 -16    2.19    0.27
  14   4 -16    2.52    0.15
  14  -4  16    1.91    0.28
  14   4 -16    1.92    0.48
 -14  -4 -16    2.39    0.50
  -4 -14 -14    5.68    0.45
  14  -4  14    6.40    0.37
  14  -4  14    5.64    0.35
   4  14 -14    5.81    0.30
   4  14 -14    6.15    0.36
  14   4 -14    5.31    0.23
  14  -4  14    5.60    0.37
   4 -14  14    5.05    0.35
  14   4 -14    5.55    0.59
 -14  -4 -14    5.22    0.56
 -14   4  14    4.78    0.45
   4 -14  14    6.06    0.38
   4 -14  12    4.30    0.32
  -4 -14 -12    3.78    0.38
  14  -4  12    3.67    0.29
  -4  14  12    4.18    0.30
   4  14 -12    4.56    0.30
  14  -4  12    4.13    0.32
   4  14 -12    4.13    0.26
  14   4 -12    4.28    0.20
  14  -4  12    4.24    0.33
 -14  -4 -12    4.36    0.51
  -4 -14 -12    4.87    0.25
 -14   4  12    4.79    0.41
   4 -14  10    4.54    0.31
  -4 -14 -10    4.80    0.41
  14  -4  10    4.58    0.34
  14  -4  10    4.75    0.32
  -4  14  10    4.98    0.31
  -4 -14 -10    5.54    0.27
  14  -4  10    5.08    0.32
   4  14 -10    5.49    0.32
   4  14 -10    4.64    0.27
  14   4 -10    5.01    0.22
  -4  14  10    4.78    0.25
  14   4 -10    4.48    0.49
 -14  -4 -10    5.28    0.55
  14  -4  10    4.94    0.36
  -4 -14  -8   16.62    0.71
  -4  14   8   16.75    0.59
  14  -4   8   16.91    0.58
  14  -4   8   17.15    0.65
  14  -4   8   16.72    0.59
   4  14  -8   16.58    0.59
  -4  14   8   16.28    0.53
   4  14  -8   16.54    0.55
  14   4  -8   15.04    0.78
 -14  -4  -8   18.08    0.90
   4 -14   8   16.34    0.60
  14  -4   8   17.30    0.69
  -4  14   6    3.97    0.28
  -4 -14  -6    3.52    0.33
  14  -4   6    4.10    0.26
   4 -14   6    3.84    0.28
  14  -4   6    3.99    0.27
   4  14  -6    3.81    0.28
  -4  14   6    4.00    0.23
 -14  -4  -6    4.44    0.26
 -14  -4  -6    4.68    0.55
  14   4  -6    3.49    0.43
   4  14  -6    4.15    0.26
 -14   4   6    4.07    0.36
  14  -4   6    4.35    0.36
  14  -4   6    3.64    0.37
   4 -14   6    3.51    0.13
  -4 -14  -4    2.15    0.28
  14  -4   4    1.98    0.31
  -4  14   4    2.70    0.24
 -14  -4  -4    2.22    0.24
   4 -14   4    2.18    0.15
  14  -4   4    2.51    0.22
  -4  14   4    2.72    0.21
   4  14  -4    2.46    0.21
  14  -4   4    2.54    0.22
 -14  -4  -4    1.65    0.41
 -14   4   4    2.28    0.29
  14   4  -4    2.85    0.37
  14  -4   4    3.08    0.35
  14  -4   2   15.70    0.52
 -14  -4  -2   16.08    0.63
   4  14  -2   16.17    0.55
 -14   4   2   16.29    0.63
  -4  14   2   15.83    0.53
  14  -4   2   16.55    0.54
  14  -4   2   15.71    0.74
  14   4  -2   15.88    0.75
  14  -4   2   15.59    0.67
  -4  14   2   15.40    0.56
  -4 -14  -2   16.86    0.65
  14  -4   0   61.12    1.78
  14  -4   0   61.11    1.56
   4  14   0   63.24    1.62
  -4  14   0   61.18    1.60
 -14  -4   0   64.43    1.75
  14  -4   0   63.13    1.89
  14  -4   0   61.83    1.59
  14   4   0   63.00    1.84
  -4 -14   0   63.97    1.73
  14  -4  -2   15.98    0.49
  -4  14  -2   17.60    0.57
  14  -4  -2   15.23    0.72
  14  -4  -2   15.84    0.78
 -14  -4   2   16.54    0.71
  -4 -14   2   16.63    0.65
  14  -4  -2   17.26    0.52
  14  -4  -4    2.48    0.18
  14  -4  -4    2.42    0.14
  -4  14  -4    1.95    0.21
  14  -4  -4    1.88    0.36
 -14  -4   4    2.22    0.34
  -4  14  -4    1.87    0.21
  -4 -14   4    2.05    0.27
  14   4   6    4.43    0.37
  14  -4  -6    4.12    0.16
   4 -14  -6    4.79    0.32
  -4  14  -6    4.34    0.28
  -4  14  -6    4.62    0.29
  14  -4  -6    4.25    0.42
 -14  -4   6    4.15    0.42
  14   4   8   16.58    0.69
 -14  -4   8   16.70    0.79
  -4  14  -8   15.95    0.58
  -4  14  -8   16.30    0.58
   4 -14  -8   16.21    0.62
  14   4   8   16.76    0.62
  14   4  10    5.20    0.34
  14   4  10    4.30    0.37
 -14  -4  10    4.81    0.48
  -4  14 -10    4.74    0.30
  -4  14 -10    4.92    0.30
   4 -14 -10    5.19    0.37
  14   4  12    4.19    0.33
  14   4  12    4.45    0.37
  -4  14 -12    4.04    0.29
   4 -14 -12    4.52    0.36
   4 -14 -14    5.40    0.40
 -14  -4  16    1.62    0.43
  -4  14 -16    2.14    0.26
 -14   4 -16    2.04    0.48
   4 -14 -16    2.23    0.33
  -4  14 -18    0.16    0.24
 -14   4 -18    0.25    0.42
 -14  -4  18    0.52    0.39
  -4  14 -20    0.68    0.26
 -14   4 -20    1.25    0.48
 -14  -4  20    1.49    0.46
  -4  14 -22    6.39    0.44
 -14  -4  22    6.05    0.63
 -14  -4  24    3.12    0.58
  -4  14 -24    3.87    0.39
   5  14 -25    1.24    0.29
 -14   5  25    1.19    0.37
 -14  -5 -25    1.02    0.47
   5  14 -23    3.06    0.33
  14  -5  23    2.78    0.37
 -14   5  23    3.02    0.44
  -5 -14 -23    2.85    0.45
   5 -14  21   -0.06    0.25
  14  -5  21    0.37    0.27
 -14  -5 -21    0.22    0.47
   5  14 -21    0.13    0.25
 -14   5  21    0.86    0.39
   5 -14  19    0.30    0.26
   5  14 -19    0.17    0.23
 -14  -5 -19    0.54    0.44
 -14   5  19    0.31    0.36
  -5 -14 -17   10.71    0.66
  14   5 -17   11.84    0.38
   5  14 -17   11.45    0.51
  -5  14  17   11.33    0.39
 -14   5  17   13.13    0.69
 -14  -5 -17   12.28    0.83
  14  -5  17   10.68    0.48
   5 -14  17   12.37    0.55
  -5 -14 -15   17.15    0.81
  14  -5  15   17.96    0.65
  14   5 -15   18.36    0.52
   5  14 -15   17.02    0.64
  -5  14  15   18.03    0.64
  14  -5  15   17.15    0.69
  -5  14  15   17.59    0.54
  14   5 -15   15.53    0.86
 -14   5  15   17.86    0.80
 -14  -5 -15   19.19    0.97
  14  -5  15   16.15    0.63
   5 -14  15   18.46    0.69
   5 -14  13    2.75    0.29
  -5 -14 -13    3.18    0.37
  -5 -14 -13    2.88    0.18
  14  -5  13    2.85    0.28
  14  -5  13    2.33    0.27
  14  -5  13    2.67    0.28
  -5  14  13    2.77    0.28
   5  14 -13    2.83    0.27
  14   5 -13    2.57    0.18
   5  14 -13    2.76    0.22
  14  -5  13    2.67    0.30
  -5  14  13    2.54    0.19
  14   5 -13    2.69    0.44
 -14  -5 -13    2.31    0.46
 -14   5  13    2.45    0.35
  14  -5  11    6.50    0.39
  -5 -14 -11    5.75    0.44
   5 -14  11    6.04    0.36
  -5  14  11    5.89    0.34
  14  -5  11    6.48    0.35
   5  14 -11    6.16    0.35
  14  -5  11    6.29    0.36
   5  14 -11    6.66    0.31
  -5 -14 -11    6.30    0.27
  14   5 -11    5.92    0.26
  -5  14  11    6.20    0.27
   5 -14  11    6.47    0.36
 -14   5  11    6.15    0.45
  14   5 -11    4.69    0.50
 -14  -5 -11    5.95    0.57
  14  -5  11    5.21    0.36
  14  -5   9    4.53    0.36
  -5 -14  -9    4.35    0.40
   5 -14   9    4.46    0.32
  -5  14   9    4.58    0.30
  14  -5   9    4.96    0.32
   5  14  -9    4.73    0.30
  14  -5   9    4.79    0.32
  -5  14   9    4.47    0.25
   5  14  -9    4.73    0.27
  14   5  -9    4.72    0.47
 -14  -5  -9    4.25    0.53
  14  -5   9    4.77    0.37
  -5  14   7   35.95    1.03
  14  -5   7   34.43    1.10
   5 -14   7   33.18    1.04
  14  -5   7   35.89    1.01
  -5  14   7   33.66    0.95
   5  14  -7   35.70    1.03
  14  -5   7   35.23    1.03
 -14  -5  -7   35.64    0.97
 -14  -5  -7   36.15    1.37
  14   5  -7   35.30    1.25
   5  14  -7   35.63    0.98
  14  -5   7   34.00    1.13
  -5 -14  -7   36.49    1.18
  14  -5   5   16.35    0.54
   5 -14   5   13.23    0.57
  14  -5   5   16.49    0.66
  -5  14   5   15.95    0.51
 -14   5   5   16.50    0.65
   5  14  -5   16.04    0.57
  14  -5   5   15.57    0.56
  14   5  -5   17.33    0.79
  14  -5   5   15.38    0.70
   5  14  -5   16.15    0.55
 -14  -5  -5   15.28    0.57
  -5  14   5   15.35    0.56
  -5 -14  -5   17.62    0.70
   5  14  -3    9.84    0.40
  14  -5   3    9.41    0.38
 -14  -5  -3    8.47    0.45
 -14   5   3    9.69    0.48
  -5  14   3    9.46    0.37
  14  -5   3   10.11    0.53
  14  -5   3    9.22    0.39
  14  -5   3   10.00    0.59
  14   5  -3    9.32    0.57
  -5  14   3    9.58    0.42
  -5 -14  -3   10.12    0.52
  14  -5   1    4.30    0.39
   5  14  -1    4.87    0.28
  14  -5   1    4.58    0.24
  -5  14   1    4.94    0.27
 -14  -5  -1    4.85    0.36
  14  -5   1    5.18    0.28
  14  -5   1    4.02    0.43
  -5  14   1    4.47    0.29
  14   5  -1    3.92    0.41
  -5 -14  -1    4.64    0.38
  14  -5  -1    4.98    0.24
  -5  14  -1    4.97    0.27
  14  -5  -1    5.36    0.50
  -5  14  -1    4.59    0.29
  -5 -14   1    5.42    0.38
  14  -5  -1    4.55    0.26
 -14  -5   1    6.06    0.42
  14  -5  -1    5.29    0.41
  14   5   1    4.28    0.40
 -14  -5   3    9.81    0.56
  14  -5  -3    8.84    0.55
  14  -5  -3    9.65    0.32
  -5  14  -3    9.46    0.40
  -5 -14   3    9.77    0.51
  14  -5  -3   10.05    0.37
  -5  14  -5   16.81    0.57
 -14  -5   5   16.38    0.74
  14  -5  -5   15.47    0.43
   5 -14  -5   15.65    0.60
  -5  14  -5   13.56    0.54
  14  -5  -5   16.18    0.49
  -5 -14   5   15.22    0.65
  14  -5  -5   14.57    0.72
  14   5   7   35.44    1.12
  -5  14  -7   34.79    1.00
  -5  14  -7   33.65    0.99
 -14  -5   7   33.61    1.21
   5 -14  -7   33.23    1.04
   5 -14  -9    4.26    0.35
  -5  14  -9    4.36    0.30
  -5  14  -9    3.86    0.29
  14   5   9    4.58    0.37
 -14  -5   9    4.19    0.45
  14   5   9    4.01    0.32
   5 -14 -11    6.60    0.42
  14   5  11    5.87    0.41
  -5  14 -11    5.91    0.35
  14   5  11    5.66    0.36
  -5  14 -11    5.24    0.32
 -14  -5  11    6.14    0.56
   5 -14 -13    2.39    0.33
  14   5  13    1.99    0.31
   5 -14 -15   17.06    0.73
   5 -14 -17   12.90    0.65
 -14  -5  17   11.70    0.79
  -5  14 -17   12.51    0.56
  -5  14 -19   -0.07    0.26
 -14  -5  19    0.04    0.45
  -5  14 -21    0.06    0.25
 -14  -5  21    0.48    0.49
  -5  14 -23    3.41    0.36
 -14  -5  23    2.23    0.56
   6  14 -24    0.21    0.24
 -14   6  24    0.40    0.36
 -14  -6 -24   -0.09    0.48
   6 -14  24   -0.10    0.29
  -6 -14 -22    2.74    0.48
   6  14 -22    2.89    0.32
  14  -6  22    3.33    0.37
 -14   6  22    2.96    0.44
 -14  -6 -22    3.03    0.56
   6 -14  22    2.58    0.33
   6  14 -20    6.60    0.39
  14  -6  20    5.71    0.45
 -14   6  20    6.52    0.54
 -14  -6 -20    7.32    0.72
  -6  14  18   13.92    0.57
   6  14 -18   14.55    0.59
 -14   6  18   13.43    0.72
  14   6 -18   13.28    0.84
 -14  -6 -18   13.52    0.89
   6 -14  18   14.41    0.62
   6 -14  16    2.60    0.30
  14  -6  16    2.56    0.27
  -6 -14 -16    2.74    0.41
  14   6 -16    2.99    0.20
  -6  14  16    2.86    0.28
   6  14 -16    3.15    0.29
  -6  14  16    2.58    0.18
  14   6 -16    2.80    0.48
 -14   6  16    2.52    0.38
 -14  -6 -16    1.94    0.49
  -6 -14 -14   15.03    0.74
   6  14 -14   13.01    0.42
  14  -6  14   14.67    0.57
  -6  14  14   14.71    0.56
  14  -6  14   14.51    0.58
   6  14 -14   15.24    0.51
 -14   6  14   14.57    0.41
   6  14 -14   15.43    0.58
  14   6 -14   13.90    0.47
  14  -6  14   14.43    0.61
  -6  14  14   13.96    0.45
 -14   6  14   13.89    0.69
  14   6 -14   13.31    0.79
 -14  -6 -14   15.13    0.90
  14  -6  14   13.59    0.57
   6 -14  14   13.99    0.61
  14  -6  12   28.86    0.92
  -6  14  12   29.27    0.89
   6  14 -12   28.01    0.78
  14  -6  12   28.71    0.90
 -14   6  12   28.71    0.75
   6  14 -12   29.26    0.90
   6  14 -12   29.40    0.83
  14   6 -12   26.26    0.79
  -6  14  12   30.41    0.79
  14  -6  12   26.86    0.92
   6 -14  12   27.49    0.90
 -14   6  12   28.43    1.03
  14   6 -12   29.77    1.16
 -14  -6 -12   30.73    1.25
  -6 -14 -12   29.07    0.77
  14  -6  12   28.46    0.93
   6 -14  12   28.78    0.93
  -6 -14 -12   28.79    1.08
   6 -14  10   25.55    0.86
  -6  14  10   27.31    0.83
   6  14 -10   25.69    0.74
  14  -6  10   25.69    0.83
   6  14 -10   26.33    0.83
  -6  14  10   26.87    0.74
  14  -6  10   26.18    0.85
 -14   6  10   27.37    0.96
   6  14 -10   27.06    0.78
   6 -14  10   26.50    0.84
  14   6 -10   25.48    0.75
  14   6 -10   26.77    1.08
 -14  -6 -10   28.63    1.18
  14  -6  10   26.67    0.89
  14  -6  10   25.85    0.89
  -6 -14 -10   27.41    1.02
   6  14  -8   17.43    0.55
  14  -6   8   17.67    0.62
  -6  14   8   18.02    0.54
 -14  -6  -8   17.03    0.54
   6  14  -8   17.01    0.62
  14  -6   8   16.97    0.62
   6 -14   8   17.45    0.61
   6 -14   8   16.43    0.63
 -14  -6  -8   17.60    0.92
   6  14  -8   17.90    0.57
  14   6  -8   16.51    0.81
  14  -6   8   17.14    0.70
  -6 -14  -8   18.67    0.79
  14  -6   8   18.87    0.71
  -6  14   8   17.12    0.61
  14  -6   6   26.35    0.88
   6 -14   6   22.55    0.78
  14  -6   6   25.45    0.76
  -6  14   6   23.13    0.71
   6  14  -6   25.82    0.79
  14  -6   6   24.45    0.78
   6 -14   6   22.80    0.69
  14   6  -6   24.22    0.98
  14  -6   6   27.42    0.94
   6  14  -6   24.22    0.74
 -14  -6  -6   25.60    0.77
  -6  14   6   24.49    0.78
  -6 -14  -6   26.91    0.95
  14  -6   4   38.73    1.06
 -14  -6  -4   39.42    1.14
  14  -6   4   39.41    1.21
  -6  14   4   37.57    1.04
  14  -6   4   38.08    1.09
  14  -6   4   39.95    1.29
  14   6  -4   38.34    1.30
  -6  14   4   37.94    1.09
  -6 -14  -4   37.76    1.24
   6  14  -4   39.59    1.07
  14  -6   2   21.70    0.67
   6  14  -2   22.46    0.70
  -6  14   2   22.92    0.69
  14  -6   2   22.16    0.84
 -14  -6  -2   21.31    1.03
 -14  -6  -2   23.52    0.81
  14  -6   2   23.43    0.94
  14  -6   2   23.17    0.71
  -6  14   2   23.15    0.73
  14   6  -2   23.56    0.90
  -6 -14  -2   22.42    0.85
  14  -6   0    0.59    0.27
  14  -6   0    0.73    0.15
  -6  14   0    0.78    0.15
  14  -6   0    0.56    0.33
 -14  -6   0    0.90    0.30
  -6  14   0    0.71    0.18
  -6 -14   0    0.94    0.27
  14  -6   0    1.00    0.18
  14   6   0    0.71    0.27
  -6  14  -2   23.34    0.71
  14  -6  -2   22.96    0.63
  -6  14  -2   22.44    0.72
  -6 -14   2   21.93    0.85
 -14  -6   2   22.09    0.87
  14  -6  -2   23.56    0.88
  14   6   2   22.09    0.86
  14  -6  -2   22.26    0.69
  14  -6  -4   37.79    1.26
  14  -6  -4   40.10    1.03
  -6  14  -4   37.49    1.07
  14  -6  -4   37.64    0.96
   6 -14  -4   37.72    1.14
 -14  -6   4   36.25    1.27
  -6 -14   4   39.45    1.24
  -6  14  -6   24.74    0.76
  14  -6  -6   23.54    0.60
   6 -14  -6   23.46    0.81
 -14  -6   6   23.99    0.96
  -6  14  -8   16.71    0.60
  14  -6  -8   15.33    0.76
  -6  14  -8   16.25    0.59
   6 -14  -8   16.58    0.66
  14   6   8   16.41    0.69
 -14  -6   8   16.66    0.80
  14  -6 -10   24.98    1.01
   6 -14 -10   25.13    0.89
  14   6  10   27.08    0.93
  -6  14 -10   25.40    0.82
  -6  14 -10   25.49    0.82
 -14  -6  10   24.42    1.06
  14   6  12   26.51    0.92
  -6  14 -12   28.90    0.91
  14   6  12   29.78    0.99
   6 -14 -12   28.23    1.00
 -14  -6  12   28.60    1.17
   6 -14 -14   14.88    0.70
   6 -14 -16    2.45    0.38
 -14  -6  16    2.52    0.48
  -6  14 -18   12.80    0.59
 -14  -6  18   11.89    0.82
  -6  14 -20    7.08    0.45
 -14  -6  20    6.37    0.66
  -6  14 -22    2.87    0.35
 -14  -6  22    2.75    0.55
   7  14 -23    5.08    0.36
 -14   7  23    5.14    0.49
 -14  -7 -23    4.50    0.64
   7 -14  23    5.32    0.44
  -7 -14 -21   -0.07    0.37
   7  14 -21    0.14    0.23
  14  -7  21    0.38    0.25
 -14   7  21    0.14    0.35
 -14  -7 -21   -0.14    0.45
   7  14 -19    5.46    0.37
  14  -7  19    4.98    0.42
 -14   7  19    5.39    0.50
 -14  -7 -19    5.30    0.67
   7 -14  19    5.37    0.43
  -7  14  17   20.22    0.72
  14   7 -17   20.97    0.63
   7  14 -17   20.73    0.73
 -14   7  17   21.16    0.89
  14   7 -17   21.08    0.99
 -14  -7 -17   19.14    1.04
   7 -14  17   20.67    0.78
  -7  14  15   14.14    0.55
   7  14 -15   13.26    0.55
  14   7 -15   14.09    0.47
  -7  14  15   13.50    0.41
 -14   7  15   14.03    0.69
  14  -7  15   12.69    0.59
  14   7 -15   13.37    0.78
 -14  -7 -15   13.37    0.85
   7 -14  15   13.76    0.59
  -7 -14 -15   13.42    0.77
  -7  14  13   24.41    0.79
   7  14 -13   25.40    0.73
  14  -7  13   25.38    0.84
  14  -7  13   25.52    0.83
   7  14 -13   25.85    0.74
 -14   7  13   25.09    0.68
   7  14 -13   25.95    0.82
  -7  14  13   24.55    0.68
  14   7 -13   26.20    0.74
 -14   7  13   25.70    0.96
   7 -14  13   24.04    0.83
  14   7 -13   24.20    1.05
 -14  -7 -13   25.88    1.16
  14  -7  13   22.84    0.82
   7 -14  13   24.07    0.85
  -7 -14 -13   23.97    1.00
  -7  14  11   17.67    0.62
   7  14 -11   17.43    0.57
  14  -7  11   17.25    0.64
  -7  14  11   17.00    0.52
   7  14 -11   17.36    0.63
 -14   7  11   17.80    0.75
   7  14 -11   18.24    0.57
  14   7 -11   17.81    0.56
   7 -14  11   17.73    0.65
  14  -7  11   18.21    0.67
 -14   7  11   17.30    0.52
  14   7 -11   16.70    0.84
 -14  -7 -11   16.11    0.91
  14  -7  11   16.57    0.66
  -7 -14 -11   17.56    0.82
   7 -14  11   16.97    0.66
  14  -7  11   17.95    0.67
   7 -14   9   10.41    0.49
  14  -7   9   10.66    0.47
 -14   7   9   10.52    0.37
  -7  14   9   10.77    0.38
 -14  -7  -9   11.07    0.37
 -14   7   9   10.67    0.56
   7  14  -9   10.90    0.47
   7 -14   9   10.62    0.46
  14  -7   9   10.66    0.48
   7  14  -9   10.76    0.41
 -14  -7  -9   10.42    0.73
  14  -7   9   11.85    0.53
  14  -7   9   11.04    0.53
  -7 -14  -9   10.04    0.61
  -7  14   9   11.13    0.46
   7  14  -7   56.57    1.48
 -14   7   7   56.28    1.42
  14  -7   7   57.51    1.50
  -7  14   7   56.18    1.43
   7  14  -7   59.05    1.53
   7 -14   7   56.65    1.51
  14  -7   7   58.71    1.53
  14   7  -7   56.71    1.74
   7  14  -7   58.62    1.46
  14  -7   7   57.16    1.64
 -14  -7  -7   56.81    1.47
  -7  14   7   57.63    1.51
  -7 -14  -7   58.20    1.73
  14  -7   7   58.69    1.61
  14   7  -7   52.76    1.32
  14  -7   5   42.79    1.29
   7  14  -5   40.86    1.14
  14  -7   5   41.54    1.13
 -14  -7  -5   41.93    1.18
  -7  14   5   39.62    1.09
   7  14  -5   41.14    1.17
   7 -14   5   41.22    1.17
  14  -7   5   40.35    1.16
  14  -7   5   43.28    1.34
  14   7  -5   39.79    1.36
  -7  14   5   40.27    1.15
  -7 -14  -5   40.92    1.35
   7  14  -5   41.65    1.12
 -14  -7  -3    2.06    0.28
   7  14  -3    2.75    0.23
  14  -7   3    2.23    0.20
  -7  14   3    2.38    0.20
  14  -7   3    2.57    0.32
 -14  -7  -3    2.33    0.47
  14  -7   3    3.11    0.41
  14  -7   3    2.70    0.23
  -7  14   3    2.72    0.25
  14   7  -3    2.94    0.37
  -7 -14  -3    2.78    0.37
   7  14  -1   67.06    1.72
  -7  14   1   68.26    1.70
  14  -7   1   64.61    1.67
  14  -7   1   66.98    1.89
 -14  -7  -1   65.57    1.85
 -14  -7  -1   63.02    2.12
  14  -7   1   64.89    1.99
  -7  14   1   68.60    1.75
  -7 -14  -1   65.44    1.92
  14  -7   1   67.09    1.72
  14   7  -1   66.59    1.93
  -7  14  -1   68.04    1.74
  14  -7  -1   67.21    1.68
   7 -14  -1   71.84    1.85
 -14  -7   1   65.78    1.92
  14  -7  -1   65.78    1.92
  -7  14  -1   68.12    1.77
  -7 -14   1   67.95    1.96
  14   7   1   67.36    1.93
  14  -7  -1   69.41    1.74
  14   7   3    3.48    0.35
  14  -7  -3    2.45    0.21
  -7  14  -3    2.93    0.23
  14  -7  -3    2.29    0.36
  14  -7  -3    2.53    0.16
  -7  14  -3    2.87    0.24
 -14  -7   3    3.02    0.38
   7 -14  -3    2.68    0.28
  -7 -14   3    2.55    0.36
 -14  -7   5   39.96    1.35
  -7  14  -5   41.52    1.14
  14  -7  -5   40.81    0.99
  -7 -14   5   40.03    1.32
   7 -14  -5   39.68    1.20
  -7  14  -7   57.65    1.54
 -14  -7   7   56.81    1.79
   7 -14  -7   56.89    1.61
  14   7   9   10.55    0.54
  14  -7  -9    9.36    0.60
  -7  14  -9   10.35    0.46
  -7  14  -9   10.11    0.46
   7 -14  -9   11.64    0.56
 -14  -7   9   11.15    0.68
  -7  14 -11   15.91    0.61
  14   7  11   17.01    0.70
 -14  -7  11   15.39    0.84
  -7  14 -13   25.05    0.85
 -14  -7  13   23.99    1.09
   7 -14 -13   25.95    0.95
 -14  -7  17   19.02    1.01
   7 -14 -17   18.44    0.83
 -14  -7  19    6.11    0.66
  -7  14 -19    5.26    0.41
  -7  14 -21    0.17    0.24
 -14  -7  21    0.91    0.48
 -14   8  24    0.50    0.34
  -8 -14 -22    4.93    0.56
   8  14 -22    4.74    0.36
 -14   8  22    5.79    0.52
  14  -8  22    5.12    0.44
 -14  -8 -22    4.63    0.66
   8 -14  22    5.01    0.43
   8  14 -20    8.15    0.44
 -14   8  20    8.14    0.58
  14  -8  20    8.71    0.52
 -14  -8 -20    9.65    0.78
   8 -14  20    8.34    0.50
  -8  14  18    0.19    0.24
  14   8 -18    0.37    0.17
   8  14 -18    0.70    0.23
 -14   8  18    0.79    0.35
 -14  -8 -18    0.61    0.46
   8 -14  18    0.63    0.28
  -8  14  16   12.20    0.52
   8  14 -16   12.94    0.53
  14   8 -16   13.11    0.46
 -14   8  16   12.61    0.66
  14  -8  16   10.28    0.50
  14   8 -16   13.61    0.76
 -14  -8 -16   12.69    0.84
   8 -14  16   11.81    0.58
  -8 -14 -16   12.41    0.74
   8  14 -14   13.98    0.51
  14  -8  14   14.24    0.54
  -8  14  14   13.03    0.40
   8  14 -14   13.71    0.54
 -14   8  14   15.40    0.70
  14   8 -14   13.55    0.48
 -14   8  14   13.71    0.44
  14  -8  14   14.25    0.61
  14  -8  14   12.36    0.56
  14   8 -14   13.62    0.76
 -14  -8 -14   13.67    0.86
   8 -14  14   14.69    0.61
  -8 -14 -14   14.24    0.79
  -8  14  14   14.62    0.55
   8  14 -12    8.22    0.37
  14  -8  12    7.96    0.41
  14  -8  12    8.05    0.42
  -8  14  12    7.63    0.28
 -14   8  12    8.45    0.52
 -14   8  12    7.47    0.31
   8  14 -12    8.35    0.34
   8  14 -12    7.90    0.41
  14   8 -12    7.87    0.35
   8 -14  12    7.40    0.42
  14  -8  12    7.82    0.43
  14  -8  12    7.31    0.43
  14   8 -12    7.71    0.59
 -14  -8 -12    8.66    0.69
  -8 -14 -12    8.18    0.59
   8 -14  12    8.14    0.44
  -8  14  12    7.53    0.39
   8  14 -10   30.34    0.92
  14  -8  10   31.52    0.96
  -8  14  10   31.16    0.84
 -14   8  10   31.03    0.86
   8  14 -10   32.96    0.97
   8 -14  10   32.68    0.98
  14   8 -10   32.71    0.90
   8  14 -10   33.02    0.89
  14  -8  10   31.14    0.99
 -14  -8 -10   27.14    1.25
  14   8 -10   29.06    1.15
  14  -8  10   31.08    1.01
  -8 -14 -10   32.59    1.20
  -8  14  10   30.58    0.94
   8 -14  10   31.55    1.00
   8  14  -8   42.69    1.15
  14  -8   8   41.26    1.15
  -8  14   8   42.68    1.06
 -14   8   8   40.61    1.07
   8  14  -8   42.81    1.17
   8 -14   8   42.52    1.16
  14  -8   8   41.65    1.18
  14   8  -8   36.53    0.95
   8  14  -8   43.83    1.10
 -14  -8  -8   42.48    1.08
  14   8  -8   41.52    1.37
  14  -8   8   40.02    1.23
  14  -8   8   41.48    1.24
  -8  14   8   41.04    1.14
  -8 -14  -8   41.31    1.39
  14  -8   6    0.42    0.24
  14   8  -6    0.48    0.10
  -8  14   6    0.69    0.14
  14  -8   6    0.52    0.19
 -14   8   6    0.36    0.15
   8  14  -6    0.42    0.19
   8  14  -6    0.56    0.20
   8 -14   6    0.42    0.19
 -14  -8  -6    0.60    0.21
   8 -14   6    0.45    0.19
  14  -8   6    0.63    0.29
  14   8  -6    0.10    0.31
  -8  14   6    0.65    0.19
  -8 -14  -6    0.57    0.33
   8  14  -6    0.56    0.16
   8  14  -4   66.96    1.71
   8  14  -4   66.48    1.76
  -8  14   4   66.66    1.69
  14  -8   4   67.93    1.72
 -14  -8  -4   66.45    2.16
  14  -8   4   67.64    1.96
  -8  14   4   68.59    1.76
  14  -8   4   68.88    1.77
 -14  -8  -4   65.79    1.82
  -8 -14  -4   69.30    2.01
  14   8  -4   65.76    1.95
   8 -14   4   61.84    1.77
  14  -8   4   70.29    1.90
  14  -8   2   63.15    1.81
   8  14  -2   61.67    1.68
   8  14  -2   64.44    1.64
 -14  -8  -2   61.67    1.77
  -8  14   2   65.28    1.62
  14  -8   2   63.35    1.61
 -14  -8  -2   62.93    2.07
  14  -8   2   61.12    1.90
  -8  14   2   61.99    1.67
  -8 -14  -2   66.27    1.91
  14  -8   2   62.94    1.66
  14   8  -2   62.64    1.85
  -8  14   0    5.15    0.28
  14  -8   0    4.57    0.24
   8 -14   0    4.28    0.35
  -8  14   0    4.18    0.29
  14  -8   0    4.25    0.45
  14  -8   0    4.16    0.39
  -8 -14   0    4.19    0.45
 -14  -8   0    3.81    0.39
  14  -8   0    4.37    0.28
  14   8   0    4.67    0.41
  14  -8  -2   64.86    1.63
 -14  -8   2   62.36    1.85
  -8  14  -2   60.77    1.63
  14  -8  -2   61.87    1.56
   8 -14  -2   63.48    1.74
  -8  14  -2   63.90    1.67
  14  -8  -2   63.85    1.83
  -8 -14   2   64.29    1.89
  14   8   2   60.93    1.80
  14   8   4   66.03    1.88
  -8  14  -4   67.30    1.74
  -8  14  -4   66.12    1.76
  14  -8  -4   65.23    1.62
  -8 -14   4   68.56    1.99
   8 -14  -4   67.44    1.83
 -14  -8   4   67.14    1.98
 -14   8  -4   68.78    1.75
 -14   8  -6    0.44    0.20
  14   8   6    0.54    0.25
  -8  14  -6    0.49    0.20
 -14  -8   6    0.62    0.34
   8 -14  -6    0.66    0.27
 -14  -8   8   42.18    1.47
  -8  14  -8   42.13    1.21
  14  -8  -8   41.88    1.41
   8 -14  -8   42.82    1.31
 -14   8  -8   43.38    1.24
  14  -8 -10   32.10    1.19
 -14  -8  10   32.05    1.25
  -8  14 -10   32.08    0.99
   8 -14 -10   32.71    1.11
 -14   8 -10   31.00    1.00
  -8  14 -12    8.85    0.44
   8 -14 -12    8.55    0.52
  14  -8 -12    7.19    0.58
 -14  -8  12    7.37    0.63
  -8  14 -14   13.91    0.59
   8 -14 -14   14.20    0.70
  -8  14 -16   11.10    0.55
   8 -14 -16   13.26    0.69
 -14  -8  18    0.04    0.44
  -8  14 -20    8.35    0.51
 -14  -8  20    8.21    0.74
  -8  14 -22    5.22    0.46
 -14  -8  22    4.88    0.63
   9  14 -21    1.18    0.25
  14  -9  21    0.87    0.30
 -14  -9 -21    1.24    0.51
   9 -14  21    1.30    0.31
  -9 -14 -21    1.24    0.44
   9  14 -19    9.69    0.47
  14  -9  19    9.71    0.55
 -14  -9 -19    9.44    0.79
  14   9 -17    5.85    0.31
   9  14 -17    5.72    0.37
  14   9 -17    5.71    0.57
 -14  -9 -17    6.25    0.69
   9 -14  17    5.89    0.44
  -9  14  17    5.41    0.34
  14   9 -15    3.23    0.24
   9  14 -15    3.38    0.31
  -9  14  15    2.92    0.26
  14   9 -15    3.15    0.42
  14  -9  15    2.51    0.29
 -14  -9 -15    3.64    0.54
  -9 -14 -15    3.22    0.49
   9 -14  15    3.39    0.35
  14  -9  13   10.41    0.45
  -9  14  13   10.09    0.31
   9  14 -13   10.56    0.38
   9  14 -13   10.50    0.46
  14   9 -13   10.32    0.42
 -14   9  13   10.07    0.38
  14  -9  13    9.07    0.48
  14  -9  13   10.73    0.51
  14   9 -13   10.56    0.64
 -14  -9 -13   11.76    0.80
  -9 -14 -13   10.85    0.70
   9 -14  13   10.45    0.51
  -9  14  13    9.94    0.45
  -9  14  11    9.94    0.33
  14  -9  11    9.98    0.46
 -14   9  11    9.48    0.37
   9  14 -11   10.00    0.46
   9  14 -11   10.21    0.38
   9 -14  11    9.53    0.46
  14   9 -11   10.77    0.42
  14  -9  11    9.90    0.48
  14  -9  11    9.56    0.49
  14   9 -11   10.70    0.63
  -9  14  11    9.54    0.43
  -9 -14 -11    9.02    0.64
   9 -14  11   10.46    0.50
  14  -9  11    9.32    0.45
   9  14  -9    2.54    0.25
  -9  14   9    2.60    0.17
  14  -9   9    2.75    0.27
  14   9  -9    1.95    0.08
 -14   9   9    2.57    0.21
   9  14  -9    2.58    0.25
   9 -14   9    2.81    0.27
 -14  -9  -9    2.61    0.18
   9  14  -9    2.52    0.20
  14  -9   9    2.33    0.27
  14   9  -9    2.73    0.40
  -9  14   9    2.50    0.25
  14  -9   9    3.24    0.32
  -9 -14  -9    3.46    0.44
   9  14  -7   29.35    0.91
 -14  -9  -7   29.21    0.87
  -9  14   7   28.46    0.79
  14  -9   7   28.22    0.88
 -14   9   7   29.45    0.83
   9 -14   7   30.11    0.90
   9  14  -7   29.41    0.90
 -14  -9  -7   24.45    1.18
  14  -9   7   29.48    0.92
  -9  14   7   28.86    0.88
   9 -14   7   28.15    0.83
  14  -9   7   28.26    0.97
  14  -9   7   30.65    1.01
  14   9  -7   29.83    1.08
   9  14  -7   29.70    0.83
  -9 -14  -7   28.44    1.12
  14   9  -7   28.64    0.74
   9  14  -5   49.36    1.36
   9 -14   5   46.30    1.36
  -9  14   5   46.41    1.25
 -14   9   5   47.95    1.28
  14  -9   5   48.49    1.31
   9 -14   5   47.22    1.31
   9 -14   5   51.85    1.41
 -14  -9  -5   48.05    1.71
  -9  14   5   47.84    1.33
  14  -9   5   50.98    1.52
 -14  -9  -5   48.24    1.37
  14  -9   5   47.94    1.35
  -9 -14  -5   48.67    1.59
  14   9  -5   45.12    1.50
  14  -9   5   49.69    1.46
   9  14  -5   50.37    1.29
   9  14  -3   22.27    0.75
   9  14  -3   21.07    0.68
   9 -14   3   22.51    0.76
  -9  14   3   22.93    0.67
 -14   9   3   21.54    0.68
 -14  -9  -3   22.89    0.82
  14  -9   3   20.72    0.68
 -14  -9  -3   20.02    1.04
  -9  14   3   21.83    0.72
  14  -9   3   23.96    0.95
  -9 -14  -3   21.11    0.94
  14  -9   3   22.90    0.73
  14   9  -3   20.77    0.86
  14  -9   3   23.42    0.86
  14  -9   1   51.61    1.51
  -9  14   1   49.19    1.31
  14  -9   1   48.22    1.28
  -9  14   1   49.77    1.36
 -14  -9  -1   49.57    1.74
  14  -9   1   47.91    1.59
  -9 -14  -1   48.12    1.60
   9  14  -1   49.54    1.39
 -14  -9  -1   48.82    1.49
  14   9  -1   48.37    1.51
  14  -9   1   51.06    1.35
  14  -9  -1   50.66    1.33
  -9  14  -1   48.84    1.30
  14  -9  -1   50.05    1.50
  14  -9  -1   48.23    1.25
   9 -14  -1   47.44    1.42
  -9  14  -1   48.57    1.34
 -14  -9   1   45.52    1.49
  -9 -14   1   50.17    1.60
  14   9   1   48.54    1.48
 -14   9  -1   47.69    1.30
 -14   9  -3   22.49    0.70
 -14  -9   3   21.59    0.90
  -9  14  -3   22.18    0.69
  14  -9  -3   21.73    0.68
  -9  14  -3   19.54    0.70
  14   9   3   21.32    0.83
  -9 -14   3   22.16    0.94
   9 -14  -3   21.59    0.79
  -9  14  -5   47.18    1.32
 -14   9  -5   48.07    1.34
  -9  14  -5   47.74    1.34
   9 -14  -5   47.66    1.43
  14   9   5   51.23    1.48
 -14   9  -7   30.00    0.92
  14  -9  -7   28.66    1.06
  14   9   7   30.21    1.01
  -9  14  -7   29.62    0.89
   9 -14  -7   28.86    1.00
 -14   9  -9    2.32    0.26
  -9  14  -9    2.24    0.25
   9 -14  -9    2.98    0.37
  14  -9  -9    2.38    0.41
  -9  14 -11    9.74    0.46
   9 -14 -11    8.75    0.56
 -14   9 -11    9.81    0.49
  -9  14 -13   10.53    0.51
   9 -14 -13   10.09    0.60
 -14   9 -13   10.00    0.51
  -9  14 -15    2.56    0.30
   9 -14 -15    3.82    0.46
  -9  14 -17    5.69    0.41
 -14  -9  19    8.39    0.74
  -9  14 -21    1.56    0.32
 -14  -9  21    2.10    0.54
  10  14 -20    1.98    0.27
  14 -10  20    3.04    0.36
 -14 -10 -20    2.66    0.57
  10 -14  20    2.47    0.34
 -10 -14 -20    2.54    0.53
  14  10 -18    4.12    0.29
  10  14 -18    3.92    0.32
  14 -10  18    3.44    0.37
 -14 -10 -18    3.51    0.57
  10 -14  18    4.60    0.40
  14  10 -16    3.84    0.28
  10  14 -16    3.32    0.29
  14 -10  16    3.07    0.29
 -14 -10 -16    4.37    0.61
 -10 -14 -16    2.61    0.50
  10 -14  16    3.48    0.36
 -10  14  16    3.38    0.28
  10  14 -14    2.78    0.27
  14  10 -14    3.05    0.25
  14 -10  14    2.34    0.28
  14 -10  14    2.05    0.29
  14  10 -14    3.13    0.41
 -14 -10 -14    2.02    0.48
 -10 -14 -14    2.27    0.46
 -10  14  14    2.92    0.25
  10 -14  14    2.18    0.29
  10 -14  12    0.59    0.23
  10  14 -12    0.51    0.22
  14 -10  12    0.97    0.20
 -10  14  12    0.75    0.09
  10  14 -12    0.71    0.15
  10  14 -12    1.08    0.23
  14  10 -12    1.22    0.20
 -14  10  12    0.98    0.16
  14 -10  12    1.11    0.25
  14 -10  12    0.73    0.24
  14  10 -12    1.17    0.33
 -10  14  12    0.55    0.19
 -10 -14 -12    0.53    0.35
 -10  14  10    8.44    0.29
  14 -10  10    8.31    0.41
 -14  10  10    7.94    0.34
 -14 -10 -10    7.70    0.26
  10  14 -10    8.78    0.42
  10 -14  10    8.13    0.41
  14  10 -10    8.90    0.38
  10  14 -10    7.54    0.33
  14 -10  10    7.58    0.45
  14 -10  10    7.82    0.43
 -10  14  10    8.40    0.39
  14  10 -10    8.28    0.55
 -10 -14 -10    7.62    0.61
  14 -10  10    7.77    0.42
 -14 -10  -8    6.85    0.32
  10  14  -8    6.54    0.38
 -10  14   8    6.72    0.27
  14 -10   8    6.79    0.36
 -14  10   8    6.30    0.31
  10 -14   8    6.26    0.37
  10  14  -8    6.10    0.36
  14 -10   8    6.89    0.44
 -10  14   8    6.30    0.36
  14  10  -8    6.54    0.23
  10  14  -8    6.74    0.30
  14 -10   8    6.30    0.38
 -14 -10  -8    6.63    0.64
  14  10  -8    6.75    0.51
  14 -10   8    6.40    0.41
 -10 -14  -8    6.62    0.55
  10  14  -6   21.94    0.77
  10 -14   6   21.84    0.78
  14  10  -6   21.90    0.61
 -10  14   6   22.62    0.65
 -14  10   6   21.55    0.68
  14 -10   6   21.97    0.72
  10 -14   6   22.92    0.74
 -10  14   6   21.52    0.72
 -14 -10  -6   22.48    1.08
  10 -14   6   22.54    0.76
 -14 -10  -6   22.06    0.75
  14 -10   6   22.05    0.85
  14 -10   6   22.52    0.84
 -10 -14  -6   23.18    1.00
  14 -10   6   22.47    0.76
  14  10  -6   22.75    0.89
  10  14  -6   22.94    0.68
  10  14  -4   10.59    0.41
  10  14  -4   11.01    0.49
 -14  10   4   10.66    0.42
  10 -14   4    9.69    0.48
 -10  14   4   11.43    0.40
  10 -14   4   11.04    0.54
 -14 -10  -4   10.45    0.52
  14 -10   4   10.07    0.43
  10 -14   4    9.94    0.43
 -10  14   4   10.74    0.45
 -14 -10  -4   10.57    0.75
  14 -10   4   10.17    0.61
 -10 -14  -4   10.86    0.67
  14 -10   4   10.39    0.55
  14 -10   4   11.10    0.48
  10  14  -2   14.70    0.58
 -10  14   2   14.13    0.50
  10 -14   2   15.11    0.58
 -14  10   2   14.39    0.52
  14 -10   2   15.21    0.50
 -14 -10  -2   13.77    0.65
 -10  14   2   13.81    0.54
 -14 -10  -2   14.67    0.87
  14 -10   2   13.07    0.72
 -10 -14  -2   13.65    0.76
  14  10  -2   15.04    0.69
  14 -10   2   14.07    0.67
  14 -10   2   14.67    0.55
 -14  10   2   14.85    0.49
 -14  10   0   19.24    0.61
  14 -10   0   19.61    0.65
 -10  14   0   19.44    0.61
  10  14   0   18.56    0.69
  14 -10   0   19.53    0.79
  14 -10   0   18.08    0.57
 -10  14   0   17.87    0.65
  10 -14   0   16.23    0.71
  14 -10   0   16.64    0.81
 -14 -10   0   19.67    1.00
 -10 -14   0   18.80    0.88
 -14 -10   0   19.89    0.81
  14  10   0   19.76    0.78
  14  10   2   15.54    0.69
 -10  14  -2   14.62    0.53
  14 -10  -2   14.99    0.54
  14 -10  -2   14.96    0.71
 -10  14  -2   14.65    0.56
 -14  10  -2   15.51    0.55
  14 -10  -2   15.33    0.48
 -10 -14   2   15.07    0.80
  10 -14  -2   14.84    0.64
 -14  10  -4   10.56    0.46
  14  10   4   10.38    0.55
 -10  14  -4   10.37    0.44
 -10  14  -4   10.33    0.46
  10 -14  -4   11.08    0.55
 -14  10  -6   20.80    0.73
  14  10   6   22.02    0.83
 -10  14  -6   22.03    0.72
 -10  14  -6   21.07    0.73
  14 -10  -6   20.65    0.87
  10 -14  -6   21.27    0.83
 -14  10  -8    7.09    0.39
  14 -10  -8    6.99    0.53
 -10  14  -8    7.00    0.38
  10 -14  -8    6.50    0.46
  14  10   8    7.15    0.46
 -14  10 -10    8.88    0.46
 -10  14 -10    8.81    0.44
  10 -14 -10    8.39    0.55
  14 -10 -10    8.23    0.59
 -10  14 -12    0.89    0.23
 -14  10 -12    0.84    0.24
  10 -14 -12    0.96    0.36
 -14  10 -14    2.90    0.34
 -10  14 -14    2.43    0.30
 -14  10 -16    4.40    0.39
 -10  14 -16    4.14    0.36
 -10  14 -18    3.42    0.35
 -14 -10  18    2.93    0.60
 -14 -10  20    2.61    0.57
  11  14 -19    6.10    0.38
  14 -11  19    7.17    0.49
  11 -14  19    6.48    0.47
  11  14 -17    0.87    0.24
  14  11 -17    0.28    0.19
 -14 -11 -17    0.84    0.45
  11 -14  17    0.55    0.27
  11  14 -15    2.20    0.27
  14  11 -15    2.52    0.26
 -14 -11 -15    1.77    0.50
 -11  14  15    1.84    0.24
 -11 -14 -15    3.13    0.50
  11 -14  15    2.27    0.32
  14  11 -13    3.39    0.27
  11  14 -13    2.79    0.29
  14 -11  13    2.44    0.28
  14 -11  13    3.27    0.33
 -11  14  13    2.96    0.27
  14  11 -13    3.67    0.43
 -11 -14 -13    2.21    0.47
  11 -14  13    2.76    0.32
  11  14 -11    3.74    0.32
  14 -11  11    3.51    0.28
 -11  14  11    3.21    0.14
  11  14 -11    3.57    0.21
  11  14 -11    3.64    0.29
  14  11 -11    3.22    0.26
 -14  11  11    3.07    0.23
 -11 -14 -11    2.96    0.16
 -11  14  11    3.38    0.27
  14 -11  11    3.01    0.30
 -11 -14 -11    3.57    0.49
  14  11 -11    3.63    0.40
  11  14  -9    9.70    0.48
 -11  14   9    9.51    0.32
  14 -11   9    9.30    0.44
 -14  11   9    9.91    0.39
  11 -14   9    9.25    0.45
  11  14  -9   10.34    0.46
  14  11  -9    9.26    0.43
  14  11  -9    9.63    0.30
  14 -11   9    8.76    0.49
  11  14  -9    9.09    0.36
 -11  14   9    9.89    0.43
 -14 -11  -9    8.32    0.71
  14 -11   9    9.25    0.47
 -11 -14  -9   10.47    0.70
  14  11  -9    9.63    0.57
  14 -11   9    9.30    0.47
  11 -14   9    9.15    0.35
 -14 -11  -9    9.26    0.35
  11  14  -7    3.17    0.30
  11 -14   7    3.53    0.31
 -11  14   7    3.50    0.20
 -14 -11  -7    3.41    0.28
  14 -11   7    3.76    0.28
 -14  11   7    3.60    0.25
  11 -14   7    3.95    0.37
  11 -14   7    3.66    0.30
  11  14  -7    3.59    0.29
 -11  14   7    3.79    0.28
 -14 -11  -7    2.61    0.48
  11 -14   7    3.68    0.30
 -11 -14  -7    3.57    0.48
  11  14  -7    3.50    0.23
  14 -11   7    3.28    0.36
  14 -11   7    3.36    0.35
  14  11  -7    3.62    0.19
  14 -11   7    3.19    0.30
  11  14  -5   10.27    0.40
  11  14  -5    9.51    0.48
  11 -14   5    9.80    0.47
 -11  14   5    9.17    0.37
  14  11  -5   10.08    0.36
 -14  11   5    9.80    0.41
 -14 -11  -5    9.01    0.48
  14 -11   5    9.98    0.42
  11 -14   5   10.42    0.44
 -11  14   5    9.59    0.43
  11 -14   5   10.38    0.54
 -14 -11  -5   10.47    0.75
 -11 -14  -5   10.12    0.69
  14 -11   5   10.30    0.55
  14 -11   5    9.24    0.46
  14  11  -5    9.76    0.57
  14  11  -3    0.43    0.28
 -14  11   3    0.39    0.14
  14 -11   3    0.48    0.22
  14 -11   3    0.57    0.27
  11  14  -3    0.33    0.22
 -11  14   3    0.43    0.17
  11 -14   3    0.30    0.21
  11  14  -3    0.29    0.16
 -14  11   3    0.29    0.14
  14 -11   3    0.34    0.16
  11 -14   3    0.48    0.17
  11 -14   3    0.30    0.30
 -11  14   3    0.46    0.20
  11 -14   3    0.36    0.24
 -14 -11  -3    0.57    0.39
  14 -11   3    0.24    0.32
 -11 -14  -3    0.10    0.37
 -14 -11  -3    0.61    0.29
 -14  11   1    2.57    0.22
  14  11  -1    2.07    0.33
 -14 -11  -1    2.18    0.35
 -11  14   1    2.18    0.21
  14 -11   1    2.58    0.26
  11  14  -1    2.63    0.30
  14 -11   1    1.94    0.31
 -14  11   1    2.36    0.22
  14 -11   1    2.10    0.19
 -11  14   1    2.24    0.24
  14 -11   1    2.45    0.40
 -14 -11  -1    2.25    0.47
 -11 -14  -1    2.32    0.45
 -14  11  -1    2.18    0.22
  14  11   1    2.51    0.32
 -11  14  -1    1.89    0.21
  11  14   1    2.14    0.27
  14 -11  -1    2.07    0.23
  14 -11  -1    2.02    0.32
 -11  14  -1    2.14    0.23
  14 -11  -1    2.18    0.19
 -11 -14   1    1.85    0.44
  11 -14  -1    2.90    0.33
  11 -14  -3    0.21    0.24
 -14  11  -3    0.28    0.19
  14  11   3    0.06    0.24
 -11  14  -3    0.43    0.17
 -11  14  -3    0.44    0.19
 -11 -14   3    0.31    0.41
 -14  11  -5   10.89    0.46
 -11  14  -5    9.76    0.44
  14  11   5    9.04    0.53
 -11  14  -5    9.91    0.46
  14 -11  -5    8.71    0.57
  11 -14  -5   10.04    0.56
 -14  11  -7    3.79    0.31
 -11  14  -7    3.76    0.30
  14  11   7    3.95    0.38
  14 -11  -7    3.79    0.44
  11 -14  -7    3.52    0.39
 -14  11  -9    9.31    0.47
  14 -11  -9   11.11    0.66
 -11  14  -9   10.39    0.48
  11 -14  -9    9.58    0.59
 -14  11 -11    3.29    0.32
  11 -14 -11    3.54    0.44
 -11  14 -11    3.90    0.33
 -14  11 -13    2.72    0.32
 -11  14 -13    3.50    0.32
 -14  11 -15    2.52    0.32
 -11  14 -15    2.37    0.32
 -14  11 -17    0.41    0.27
 -11  14 -17    0.50    0.25
 -11  14 -19    5.56    0.44
 -14 -11  19    6.14    0.69
  14  12 -18    3.19    0.27
  12  14 -18    2.72    0.28
 -14 -12 -18    3.20    0.62
  12 -14  18    2.87    0.35
  12  14 -16    7.90    0.42
  14  12 -16    8.04    0.40
 -14 -12 -16    7.45    0.74
  12 -14  16    8.11    0.51
  12  14 -14   10.30    0.48
  14  12 -14   10.40    0.46
 -12 -14 -14   10.99    0.78
  12 -14  14    9.24    0.54
  12  14 -12   10.33    0.49
  14  12 -12   11.00    0.48
 -14  12  12   10.86    0.44
 -12  14  12   11.92    0.47
  14 -12  12   10.34    0.53
 -12 -14 -12   11.37    0.79
  14  12 -12   11.36    0.62
 -12  14  10   25.18    0.66
 -14  12  10   26.02    0.79
  12  14 -10   26.56    0.85
  14  12 -10   27.48    0.83
  14 -12  10   24.25    0.91
 -12  14  10   26.55    0.81
 -14 -12 -10   26.63    1.24
 -14 -12 -10   24.54    0.68
 -12 -14 -10   25.37    1.16
  14 -12  10   25.07    0.88
  14  12 -10   27.56    1.00
  12 -14  10   24.59    0.89
  14 -12  10   26.41    0.83
 -12 -14 -10   24.79    0.73
  12  14 -10   26.47    0.91
  12  14  -8    3.80    0.34
 -12  14   8    3.84    0.20
  12 -14   8    3.97    0.34
 -12 -14  -8    3.90    0.31
  14 -12   8    3.88    0.30
 -14  12   8    3.45    0.27
  12 -14   8    3.86    0.31
  12  14  -8    4.07    0.31
 -12  14   8    3.99    0.29
  14  12  -8    3.80    0.20
  12  14  -8    3.65    0.23
 -14 -12  -8    3.93    0.54
  14 -12   8    3.34    0.36
 -12 -14  -8    3.92    0.52
  12 -14   8    3.97    0.28
  14 -12   8    4.08    0.35
  14 -12   8    3.81    0.33
  14  12  -8    3.58    0.39
 -14 -12  -8    3.38    0.27
  14 -12   6    1.02    0.23
  12  14  -6    1.34    0.17
  12  14  -6    1.26    0.26
  14  12  -6    1.06    0.15
 -12  14   6    1.26    0.16
 -14 -12  -6    1.31    0.26
  12 -14   6    1.12    0.23
 -14  12   6    0.92    0.19
  12 -14   6    1.41    0.30
 -12  14   6    1.10    0.20
 -14 -12  -6    0.80    0.40
 -12 -14  -6    1.35    0.42
  14 -12   6    1.00    0.31
  14 -12   6    1.08    0.28
  14  12  -6    1.25    0.31
 -14  12   4   16.89    0.54
  12  14  -4   18.51    0.71
 -12  14   4   17.26    0.56
  12 -14   4   17.73    0.67
  12  14  -4   16.51    0.56
 -14 -12  -4   15.96    0.70
 -14  12   4   16.58    0.59
  14 -12   4   17.01    0.59
 -12  14   4   16.61    0.61
  12 -14   4   18.39    0.74
  12 -14   4   17.70    0.61
  12 -14   4   17.05    0.76
 -14 -12  -4   17.83    0.98
  14 -12   4   17.69    0.78
 -12 -14  -4   16.73    0.91
  14 -12   4   18.49    0.76
  14  12  -4   16.53    0.74
  14 -12   4   17.60    0.65
 -14  12   2    5.56    0.29
  14  12  -2    5.18    0.42
  14 -12   2    5.43    0.35
  14 -12   2    5.32    0.43
  12  14  -2    5.80    0.39
 -12  14   2    5.15    0.29
  12 -14   2    5.16    0.35
 -14  12   2    5.75    0.32
 -12  14   2    5.66    0.33
  14 -12   2    5.13    0.29
  14 -12   2    5.27    0.48
 -14 -12  -2    5.38    0.62
 -12 -14  -2    4.88    0.57
 -12  14   0    0.09    0.16
  12  14   0   -0.04    0.21
  14 -12   0    0.60    0.30
  14 -12   0    0.08    0.20
 -14  12   0    0.01    0.17
 -12  14   0    0.16    0.17
  14 -12   0    0.09    0.13
  14  12   0   -0.02    0.26
 -14  12   0    0.03    0.16
 -14 -12   0    0.04    0.40
 -12 -14   0    0.49    0.41
 -14  12  -2    5.47    0.31
  12 -14  -2    4.50    0.40
 -12  14  -2    4.93    0.31
  14  12   2    4.65    0.41
  12  14   2    5.24    0.39
 -12  14  -2    5.22    0.33
 -12 -14   2    4.51    0.56
 -14  12  -4   15.87    0.60
  14  12   4   17.49    0.72
 -12  14  -4   15.98    0.62
 -12  14  -4   17.16    0.62
  12 -14  -4   17.07    0.75
  14 -12  -6    0.69    0.32
 -14  12  -6    1.50    0.23
 -12  14  -6    1.23    0.23
  14  12   6    1.01    0.28
  12 -14  -6    1.48    0.34
 -14  12  -8    3.80    0.33
 -12  14  -8    4.31    0.32
 -14  12 -10   26.87    0.91
 -12  14 -10   25.92    0.89
 -14  12 -12   11.52    0.56
 -12  14 -12   10.61    0.53
 -14  12 -14   10.19    0.55
 -12  14 -14   10.10    0.53
 -14  12 -16    7.21    0.50
 -12  14 -16    8.42    0.51
 -14  12 -18    3.28    0.39
 -12  14 -18    3.40    0.37
  13  14 -17    6.92    0.39
  14  13 -17    6.77    0.39
 -14 -13 -17    6.04    0.71
  13 -14  17    7.26    0.50
  13  14 -15   22.00    0.76
  14  13 -15   21.58    0.74
 -13 -14 -15   21.16    1.15
  13  14 -13    7.82    0.42
  14  13 -13    7.24    0.40
 -14 -13 -13    8.72    0.78
 -13 -14 -13    7.35    0.69
  13  14 -11   15.01    0.59
  14  13 -11   13.36    0.56
 -14  13  11   14.02    0.53
 -13  14  11   13.86    0.55
 -14 -13 -11   13.67    0.89
 -13 -14 -11   13.96    0.90
  14 -13  11   14.01    0.63
  14  13 -11   14.90    0.70
  13 -14  11   14.01    0.63
  13  14 -11   14.78    0.66
 -13 -14  -9   22.48    0.72
 -14 -13  -9   22.46    0.69
 -14  13   9   23.47    0.74
  13  14  -9   23.83    0.78
  14  13  -9   22.76    0.77
 -13  14   9   22.70    0.75
 -14 -13  -9   22.20    1.15
 -13 -14  -9   23.68    1.13
  14 -13   9   21.69    0.81
  14  13  -9   24.33    0.91
  13 -14   9   22.25    0.83
  13  14  -9   23.30    0.87
  13 -14   7   16.22    0.67
 -13  14   7   17.00    0.50
 -14 -13  -7   15.55    0.62
 -13 -14  -7   15.20    0.64
 -14  13   7   16.78    0.59
 -13  14   7   16.78    0.60
 -14 -13  -7   15.89    0.94
 -13 -14  -7   15.87    0.92
  13 -14   7   16.99    0.66
  13  14  -7   16.43    0.53
  14  13  -7   16.95    0.52
  13  14  -7   16.54    0.70
  14 -13   7   16.89    0.66
  14  13  -7   16.81    0.73
  14 -13   5   14.66    0.60
 -14  13   5   14.48    0.47
  13  14  -5   14.90    0.64
  13  14  -5   14.26    0.49
 -13  14   5   13.45    0.47
  13 -14   5   14.56    0.60
  14  13  -5   14.17    0.48
 -14  13   5   14.30    0.54
 -13  14   5   13.91    0.54
  14 -13   5   14.20    0.55
  13 -14   5   14.66    0.55
 -14 -13  -5   13.14    0.86
  13 -14   5   14.09    0.67
 -13 -14  -5   13.41    0.87
  14 -13   5   15.36    0.69
 -14 -13  -5   12.92    0.62
  14  13  -5   14.83    0.67
  14  13  -3    8.11    0.50
 -14  13   3    7.94    0.35
  13  14  -3    8.73    0.49
 -13  14   3    8.46    0.36
  13 -14   3    8.11    0.43
  13  14  -3    8.15    0.36
 -14  13   3    8.85    0.41
 -13  14   3    8.82    0.42
  14 -13   3    8.54    0.39
  13 -14   3    8.17    0.38
  13 -14   3    8.94    0.56
  14 -13   3    9.10    0.58
 -14 -13  -3    8.95    0.74
 -13 -14  -3    7.89    0.69
  14 -13   3    8.53    0.53
  14  13  -1    9.85    0.53
 -13  14   1    9.24    0.39
  14 -13   1    8.99    0.44
  13 -14   1    8.71    0.45
 -14  13   1    9.25    0.43
 -13  14   1    9.46    0.43
  14 -13   1    8.52    0.37
  14 -13   1    7.54    0.56
 -13 -14  -1    9.02    0.71
 -14 -13  -1    8.86    0.74
  13 -14   1    9.11    0.54
 -14  13   1    8.65    0.38
  14 -13   1    8.88    0.55
 -14  13  -1    9.18    0.41
 -13  14  -1    8.83    0.40
  14  13   1    9.07    0.52
 -14  13  -1    8.09    0.41
 -13  14  -1    9.23    0.43
  13  14   1    8.94    0.51
 -14 -13   1    8.07    0.71
 -13 -14   1    8.21    0.70
 -14  13  -3    7.99    0.39
 -13  14  -3    8.17    0.39
  14  13   3    7.91    0.50
  13  14   3    7.90    0.47
 -13  14  -3    7.43    0.40
 -14  13  -5   15.01    0.59
 -13  14  -5   14.28    0.58
  14  13   5   15.42    0.68
 -14  13  -7   15.28    0.62
 -13  14  -7   16.85    0.63
 -14  13  -9   24.42    0.84
 -13  14  -9   22.84    0.82
 -14  13 -11   14.54    0.63
 -13  14 -11   14.89    0.63
 -14  13 -13    8.19    0.48
 -13  14 -13    7.93    0.49
 -14  13 -15   22.19    0.86
 -13  14 -15   21.41    0.84
 -14  13 -17    7.10    0.48
 -13  14 -17    7.11    0.49
  14  14 -16   13.62    0.57
  14  14 -14    9.81    0.47
 -14 -14 -14    9.80    0.82
  14  14 -12    1.15    0.23
 -14 -14 -12    1.27    0.48
  14 -14  12    1.31    0.29
  14  14 -10   25.59    0.82
 -14  14  10   23.42    0.77
 -14 -14 -10   23.41    1.17
  14 -14  10   21.84    0.85
  14  14 -10   25.21    0.94
 -14  14   8    8.67    0.43
  14  14  -8    9.09    0.44
 -14 -14  -8    9.99    0.77
 -14 -14  -8    9.39    0.44
  14 -14   8    9.01    0.49
  14  14  -8    8.93    0.51
  14  14  -6    0.27    0.14
  14  14  -6    0.31    0.27
  14 -14   6    0.17    0.20
 -14  14   6    0.29    0.13
 -14  14   6    0.16    0.19
  14 -14   6    0.25    0.19
 -14 -14  -6   -0.13    0.46
 -14 -14  -6    0.32    0.27
  14 -14   6    0.46    0.28
  14  14  -4   15.70    0.70
 -14  14   4   16.59    0.54
  14 -14   4   16.00    0.64
  14  14  -4   16.01    0.54
 -14  14   4   15.06    0.58
 -14 -14  -4   15.49    0.95
  14 -14   4   16.82    0.76
 -14  14   2    8.32    0.37
  14  14  -2    7.51    0.48
  14 -14   2    8.15    0.43
 -14  14   2    7.86    0.39
  14 -14   2    7.82    0.37
 -14 -14  -2    7.85    0.72
 -14  14   0   20.34    0.66
  14  14   0   19.71    0.79
 -14  14   0   18.45    0.68
 -14 -14   0   21.11    1.09
 -14  14  -2    8.25    0.40
  14  14   2    8.15    0.50
 -14  14  -2    7.99    0.41
 -14  14  -4   14.66    0.57
 -14  14  -6    0.32    0.22
 -14  14  -8    8.69    0.46
 -14  14 -10   22.76    0.83
 -14  14 -12    1.22    0.28
 -14  14 -14    9.37    0.55
 -14  14 -16   12.37    0.63
   0  15   1   21.37    0.68
  15   0  -1   20.38    0.63
  15   0   1   20.96    0.65
   0 -15  -1   20.16    0.69
  15   0   1   21.19    0.62
  15   0  -1   21.25    0.61
   0  15  -1   20.70    0.67
   0  15   1   19.71    0.66
 -15   0  -1   19.82    0.72
  15   0  -1   18.11    0.87
  15   0   1   20.83    0.88
 -15   0   1   19.85    0.75
   0  15  -1   20.67    0.67
   0 -15   1   20.35    0.67
  15   0  -3   57.63    1.48
  15   0   3   56.80    1.53
   0 -15  -3   58.32    1.59
  15   0   3   58.14    1.51
 -15   0  -3   58.28    1.58
   0  15  -3   57.23    1.55
  15   0  -3   61.15    1.45
  15   0   3   57.73    1.76
   0  15  -3   57.20    1.54
   0 -15   3   58.25    1.52
 -15   0   3   58.95    1.68
  15   0  -5    1.05    0.14
  15   0   5    1.02    0.19
   0 -15  -5    1.03    0.23
 -15   0   5    1.11    0.29
   0  15  -5    0.97    0.19
   0 -15   5    1.00    0.15
   0  15  -5    1.14    0.20
  15   0   5    1.12    0.30
  15   0  -5    1.12    0.10
  15   0  -7   10.32    0.33
  15   0   7   10.86    0.45
 -15   0   7   10.15    0.58
   0 -15  -7   11.08    0.51
   0  15  -7   10.03    0.43
  15   0   7   10.22    0.54
  15   0   7    9.58    0.50
  15   0   9   91.18    2.27
 -15   0   9   89.75    2.47
   0 -15  -9   90.81    2.36
   0 -15  -9   93.18    2.25
   0  15  -9   87.12    2.23
 -15   0  -9   87.96    2.66
  15   0   9   84.29    2.29
  15   0   9   88.03    2.37
  15   0  11   10.44    0.53
  15   0  11   11.03    0.48
   0 -15 -11   10.79    0.54
   0  15 -11    9.87    0.46
   0  15 -11   10.30    0.43
 -15   0 -11    9.41    0.73
   0 -15 -11   10.69    0.46
  15   0  11   10.09    0.47
  15   0  13   11.73    0.57
   0 -15 -13   12.21    0.52
   0 -15 -13   11.38    0.59
   0  15 -13   11.87    0.52
   0  15 -13   12.22    0.49
 -15   0  13   10.50    0.67
   0 -15  13   11.79    0.51
 -15   0 -13   12.90    0.82
  15   0  13   13.13    0.54
  15   0  15   35.76    1.12
   0  15 -15   35.54    1.07
   0 -15  15   34.05    1.03
   0 -15 -15   33.75    1.19
 -15   0  15   32.90    1.27
 -15   0 -15   34.61    1.41
   0 -15 -15   34.09    1.05
   0 -15  17    7.93    0.42
   0  15 -17    7.51    0.43
   0 -15 -17    8.19    0.53
 -15   0  17    7.58    0.62
 -15   0 -17    8.95    0.73
   0  15 -19    0.19    0.24
   0 -15 -19    0.03    0.29
 -15   0  19   -0.17    0.36
 -15   0 -19   -0.62    0.48
   0  15 -21   16.71    0.69
 -15   0  21   17.63    0.93
 -15   0 -21   16.66    0.97
   0  15 -23    0.70    0.28
  15   0  23    0.93    0.32
 -15   0  23    0.91    0.43
 -15   0 -23    1.50    0.55
   1 -15  24    1.16    0.24
 -15  -1 -24    0.96    0.51
   1  15 -24    1.36    0.29
   1  15 -22    1.58    0.30
   1 -15  22    2.05    0.28
 -15   1  22    1.33    0.43
 -15   1  20   11.93    0.76
   1 -15  20   10.96    0.51
  -1 -15 -20    9.21    0.63
   1  15 -20   11.25    0.54
 -15  -1 -20   10.73    0.82
 -15   1  18    9.13    0.68
   1 -15  18    9.05    0.46
  -1 -15 -18   10.18    0.61
   1  15 -18    9.34    0.47
  15  -1  18    8.92    0.50
 -15  -1 -18    9.01    0.74
   1  15 -16    4.17    0.32
  -1 -15 -16    4.43    0.42
   1 -15  16    3.99    0.33
 -15   1  16    3.70    0.47
 -15  -1 -16    4.07    0.59
 -15   1  14   14.73    0.77
  15  -1  14   14.88    0.61
  15  -1  14   15.12    0.63
   1 -15  14   14.92    0.59
   1  15 -14   14.77    0.56
   1  15 -14   15.39    0.60
  -1 -15 -14   15.80    0.72
 -15  -1 -14   14.13    0.88
  15  -1  12   46.73    1.29
  15  -1  12   45.77    1.22
  -1 -15 -12   44.42    1.33
   1 -15  12   45.44    1.20
   1  15 -12   44.76    1.21
   1  15 -12   44.92    1.17
  15  -1  12   43.66    1.21
 -15  -1 -12   46.63    1.61
  -1 -15 -12   46.57    1.18
  15  -1  10   26.74    0.93
  15   1 -10   25.09    0.68
  15  -1  10   27.53    0.86
  -1 -15 -10   27.91    0.95
   1  15 -10   26.10    0.85
   1  15 -10   27.25    0.81
  15   1 -10   26.69    0.67
  -1 -15 -10   27.62    0.82
 -15  -1 -10   28.33    1.22
  15  -1  10   26.09    0.87
 -15   1   8   27.06    1.00
  15  -1   8   26.76    0.83
  -1 -15  -8   25.79    0.90
  15  -1   8   25.76    0.83
   1  15  -8   27.83    0.81
 -15  -1  -8   27.01    1.19
  15   1  -8   23.19    1.05
  15  -1   8   26.23    0.89
  15  -1   8   25.67    0.93
  15  -1   6   33.67    0.94
  -1 -15  -6   33.27    1.02
  -1  15   6   31.80    0.94
  15  -1   6   32.80    0.93
   1 -15   6   26.46    0.78
  15   1  -6   28.27    1.17
   1  15  -6   32.79    0.92
  15  -1   6   31.58    1.08
  15  -1   6   32.21    1.04
 -15   1   6   33.55    1.10
  15   1  -6   31.90    0.77
  15   1  -6   33.23    0.85
  15  -1   4   38.13    1.07
  -1 -15  -4   37.69    1.15
  15  -1   4   37.84    1.21
  15  -1   4   38.34    1.06
 -15  -1  -4   37.61    1.10
   1  15  -4   37.96    1.09
  -1  15   4   38.29    1.06
  15   1  -4   39.36    0.97
   1  15  -4   37.74    1.07
  15  -1   4   38.20    1.27
 -15   1   4   37.07    1.20
   1 -15   4   38.94    1.02
  15   1  -4   37.12    1.01
  15   1  -2   16.12    0.52
   1 -15   2   15.79    0.53
  -1 -15  -2   14.05    0.58
  15  -1   2   14.65    0.52
  15  -1   2   15.09    0.51
  15   1  -2   15.92    0.47
   1  15  -2   14.91    0.56
  -1  15   2   15.45    0.55
 -15  -1  -2   15.27    0.60
 -15   1   2   14.64    0.62
  15  -1   2   16.46    0.77
  15  -1   2   15.90    0.69
   1  15  -2   15.50    0.55
   1  15   0   44.95    1.24
  15   1   0   45.91    1.21
  15  -1   0   45.14    1.19
   1 -15   0   45.14    1.23
  15   1   0   44.80    1.17
  15  -1   0   45.82    1.18
  -1  15   0   44.90    1.23
   1  15   0   45.70    1.24
 -15   1   0   44.78    1.30
  15  -1   0   46.46    1.50
  15   1   0   42.30    1.45
 -15  -1   0   43.96    1.32
  -1  15   0   43.71    1.24
  -1 -15   0   45.50    1.26
  15   1   2   15.14    0.53
   1  15   2   14.51    0.54
   1 -15  -2   14.89    0.55
  15   1   2   14.53    0.50
 -15   1  -2   14.98    0.58
  -1  15  -2   14.80    0.54
  15  -1  -2   13.64    0.47
  15  -1  -2   15.16    0.46
  15  -1  -2   13.69    0.73
  15   1   2   13.67    0.69
  -1  15  -2   14.86    0.53
  -1 -15   2   14.91    0.55
 -15  -1   2   13.95    0.63
  15   1   4   39.39    1.11
  15  -1  -4   38.02    1.02
 -15  -1   4   39.74    1.27
   1 -15  -4   39.90    1.15
  -1  15  -4   39.06    1.11
  -1  15  -4   39.01    1.11
  -1 -15   4   40.44    1.10
  15  -1  -4   40.71    1.01
  15   1   4   37.73    1.28
  15   1   6   34.50    0.97
  15  -1  -6   32.32    0.84
  15  -1  -6   32.75    0.82
 -15  -1   6   31.96    1.12
  -1  15  -6   32.57    0.96
  -1 -15   6   31.41    0.90
  -1  15  -6   31.36    0.95
  15   1   6   33.23    1.11
  15   1   8   26.17    0.83
 -15  -1   8   26.33    1.02
   1 -15  -8   26.20    0.83
  -1  15  -8   26.38    0.81
  15   1   8   25.65    0.93
  15   1  10   30.11    0.93
  -1  15 -10   30.05    0.89
 -15  -1  10   27.99    1.09
 -15   1 -10   26.84    1.21
   1 -15 -10   29.23    0.90
  15   1  12   46.24    1.31
  15   1  12   45.39    1.38
  -1  15 -12   41.41    1.28
  -1  15 -12   44.04    1.26
 -15   1 -12   51.45    1.72
   1 -15 -12   48.54    1.31
  15   1  14   14.39    0.60
  15   1  14   14.82    0.64
  -1  15 -14   14.37    0.58
 -15  -1  14   13.49    0.79
   1 -15 -14   14.51    0.60
 -15   1 -14   14.81    0.87
  -1  15 -16    5.07    0.36
  -1 -15  16    5.51    0.34
   1 -15 -16    4.99    0.37
 -15  -1  16    4.26    0.49
  -1  15 -18    9.13    0.48
 -15  -1  18    8.47    0.66
 -15   1 -18    9.36    0.76
  -1  15 -20   11.59    0.56
  -1 -15  20   11.67    0.51
   1 -15 -20   10.51    0.64
 -15  -1  20   11.91    0.78
 -15   1 -20   10.66    0.82
  -1  15 -22    1.45    0.28
 -15   1 -22    1.95    0.52
 -15  -1  22    2.05    0.48
 -15  -2 -25    0.38    0.48
 -15   2  23    0.99    0.43
   2  15 -23    1.52    0.30
   2 -15  23    1.12    0.27
  15  -2  23    1.35    0.31
 -15  -2 -23    1.50    0.50
   2 -15  21    1.27    0.28
   2  15 -21    1.14    0.27
 -15   2  21    2.13    0.44
 -15  -2 -21    1.82    0.55
   2 -15  19    2.40    0.29
  -2 -15 -19    3.12    0.42
   2  15 -19    2.70    0.31
 -15   2  19    2.01    0.46
 -15  -2 -19    2.37    0.55
   2 -15  17    7.56    0.43
  -2 -15 -17    8.85    0.57
   2  15 -17    7.79    0.43
  15  -2  17    7.62    0.46
 -15  -2 -17    8.55    0.73
 -15   2  17    8.01    0.60
 -15   2  15    8.40    0.60
   2 -15  15    8.63    0.43
  15  -2  15    8.77    0.46
   2  15 -15    8.28    0.43
  15  -2  15    8.55    0.46
  -2 -15 -15    9.40    0.56
 -15  -2 -15    8.94    0.73
  -2 -15 -13    3.94    0.28
  15  -2  13    3.73    0.31
  15  -2  13    3.53    0.33
  -2 -15 -13    3.57    0.38
  15   2 -13    3.45    0.14
  15  -2  13    3.90    0.32
   2 -15  13    3.98    0.31
 -15   2  13    3.65    0.43
   2  15 -13    4.18    0.27
   2  15 -13    3.79    0.31
  15   2 -13    3.06    0.48
  15  -2  13    3.78    0.32
 -15  -2 -13    2.42    0.52
  15  -2  11    1.94    0.29
  15  -2  11    2.44    0.26
  -2 -15 -11    2.50    0.32
   2 -15  11    2.20    0.24
   2  15 -11    2.55    0.26
  15   2 -11    2.51    0.14
   2  15 -11    2.77    0.23
  15   2 -11    2.42    0.45
 -15  -2 -11    2.75    0.51
  15  -2  11    2.24    0.28
  -2 -15 -11    2.65    0.23
  -2 -15  -9   10.46    0.55
  15  -2   9   10.33    0.45
  15  -2   9   10.29    0.46
  -2  15   9   10.39    0.46
  -2 -15  -9   11.73    0.44
   2  15  -9   10.06    0.46
   2  15  -9   10.63    0.43
  15   2  -9    9.11    0.65
 -15  -2  -9   11.16    0.76
  15  -2   9   10.72    0.54
  15  -2   7    3.59    0.36
 -15   2   7    3.79    0.38
  15  -2   7    4.11    0.28
  -2 -15  -7    3.96    0.35
  -2  15   7    4.26    0.30
  15  -2   7    4.17    0.28
 -15  -2  -7    3.38    0.50
   2  15  -7    3.87    0.27
  15   2  -7    3.57    0.45
  15  -2   7    4.85    0.39
  -2 -15  -5    6.40    0.40
  -2  15   5    6.31    0.34
  15  -2   5    6.99    0.32
  15  -2   5    6.10    0.32
  15  -2   5    6.49    0.42
 -15  -2  -5    6.84    0.35
  -2  15   5    6.25    0.31
  15   2  -5    6.74    0.22
  15   2  -5    6.07    0.50
 -15   2   5    6.55    0.43
   2  15  -5    6.72    0.33
  15  -2   5    6.39    0.47
   2 -15   5    6.03    0.24
  15  -2   3    0.56    0.16
  15  -2   3    0.31    0.25
   2 -15   3    0.65    0.14
  15   2  -3    0.63    0.11
  15  -2   3    0.70    0.17
   2  15  -3    0.53    0.18
  -2  15   3    0.58    0.16
  15   2  -3    0.37    0.29
  15  -2   3    1.00    0.33
 -15   2   3    0.60    0.22
 -15  -2  -3    1.05    0.19
  -2 -15  -3    0.86    0.21
   2  15  -3    1.10    0.19
  -2 -15  -1    1.91    0.25
   2  15  -1    2.31    0.24
 -15  -2  -1    2.02    0.26
   2 -15   1    2.43    0.21
  15   2  -1    2.19    0.17
  -2  15   1    2.14    0.22
   2  15  -1    2.12    0.23
  15  -2   1    2.14    0.19
 -15   2   1    2.39    0.27
  15  -2   1    2.63    0.39
  15  -2   1    2.20    0.34
  15   2   1    2.31    0.22
  15  -2  -1    2.25    0.19
   2 -15  -1    2.15    0.22
   2  15   1    2.11    0.23
 -15  -2   1    2.49    0.31
  -2  15  -1    2.29    0.23
 -15   2  -1    2.25    0.27
  15  -2  -1    2.34    0.19
  15  -2  -1    2.10    0.38
  -2  15  -1    2.08    0.23
  15  -2  -1    1.81    0.34
  -2 -15   1    2.39    0.27
  15  -2  -3    0.85    0.13
   2  15   3    0.71    0.18
  -2  15  -3    0.78    0.17
 -15  -2   3    0.75    0.28
  15  -2  -3    1.33    0.35
  -2  15  -3    0.61    0.17
  -2 -15   3    0.57    0.20
  15   2   3    0.95    0.19
  15  -2  -3    1.06    0.14
  15   2   3    0.36    0.28
  15  -2  -5    6.54    0.24
  15   2   5    6.30    0.35
  15  -2  -5    6.18    0.24
  -2  15  -5    5.81    0.33
 -15  -2   5    5.85    0.46
  -2  15  -5    6.75    0.34
  15  -2  -5    5.28    0.50
  -2 -15   5    6.69    0.34
  15   2   5    6.50    0.45
  15   2   7    4.34    0.38
  15   2   7    4.17    0.30
  -2  15  -7    4.32    0.29
   2 -15  -7    4.68    0.30
  -2  15  -7    3.66    0.28
 -15  -2   7    4.39    0.43
  15   2   9   10.74    0.56
  15   2   9   12.31    0.50
  -2  15  -9   11.40    0.47
   2 -15  -9   12.74    0.50
 -15  -2   9   12.27    0.67
  15   2  11    3.01    0.29
  15   2  11    2.64    0.32
  -2  15 -11    2.62    0.25
  15   2  13    3.85    0.32
  15   2  13    3.87    0.37
  -2  15 -13    4.34    0.30
 -15   2 -13    3.86    0.54
   2 -15 -13    4.21    0.34
  -2  15 -15    9.13    0.46
 -15   2 -15    9.39    0.74
 -15  -2  15    8.41    0.64
   2 -15 -15    9.25    0.49
 -15  -2  17    7.27    0.63
  -2  15 -17    8.12    0.44
 -15   2 -17    8.08    0.71
 -15  -2  19    2.67    0.49
  -2  15 -19    2.90    0.32
 -15   2 -19    2.91    0.57
  -2  15 -21    1.49    0.30
 -15   2 -21    1.60    0.50
 -15  -2  21    1.63    0.45
  -2  15 -23    1.34    0.29
 -15  -2  23    1.13    0.47
   3 -15  24    0.86    0.27
 -15   3  24    0.33    0.35
   3  15 -24    0.60    0.28
 -15  -3 -24    1.18    0.52
 -15   3  22    3.16    0.47
   3 -15  22    2.65    0.33
   3  15 -22    2.47    0.33
  15  -3  22    2.14    0.33
 -15  -3 -22    2.37    0.57
 -15   3  20    1.68    0.41
   3 -15  20    1.05    0.28
   3  15 -20    0.85    0.25
 -15  -3 -20    1.15    0.54
 -15   3  18    1.35    0.38
  -3 -15 -18    1.13    0.35
   3  15 -18    1.44    0.25
  15  -3  18    0.98    0.27
   3 -15  18    1.14    0.26
 -15  -3 -18    1.67    0.48
 -15   3  16    3.43    0.44
  -3 -15 -16    3.38    0.40
   3 -15  16    2.92    0.30
   3  15 -16    3.31    0.29
  15   3 -16    3.09    0.52
 -15  -3 -16    2.87    0.53
  15  -3  14    3.14    0.30
 -15   3  14    2.29    0.37
  -3 -15 -14    2.37    0.35
  15  -3  14    2.53    0.27
   3 -15  14    2.16    0.27
  15   3 -14    2.46    0.13
   3  15 -14    2.67    0.27
   3  15 -14    2.27    0.23
  15   3 -14    2.27    0.47
 -15  -3 -14    2.24    0.49
  -3 -15 -14    2.77    0.24
  15  -3  14    2.84    0.29
  15  -3  12    5.87    0.39
   3 -15  12    5.55    0.35
  15  -3  12    5.45    0.34
  15  -3  12    5.84    0.36
   3  15 -12    4.95    0.33
   3  15 -12    5.75    0.30
  15   3 -12    5.43    0.22
  15  -3  12    5.18    0.36
  15   3 -12    5.20    0.54
 -15  -3 -12    5.12    0.59
  -3 -15 -12    5.83    0.31
 -15   3  12    5.62    0.47
  -3 -15 -12    5.56    0.43
  -3 -15 -10    9.44    0.53
  15  -3  10    9.23    0.43
   3 -15  10    8.96    0.43
  -3  15  10    8.97    0.43
  15  -3  10    9.47    0.44
   3  15 -10    8.35    0.41
  -3 -15 -10    9.20    0.39
   3  15 -10    8.81    0.39
  15   3 -10    8.87    0.31
  15   3 -10    8.56    0.63
 -15  -3 -10    9.39    0.71
  15  -3  10    9.15    0.50
  -3 -15  -8    9.09    0.51
  15  -3   8    9.54    0.41
  -3  15   8    9.14    0.42
   3 -15   8    9.14    0.43
  15  -3   8    8.96    0.41
   3  15  -8    8.13    0.41
  -3  15   8    9.06    0.37
 -15  -3  -8    9.36    0.70
   3  15  -8    9.38    0.38
  15   3  -8    7.13    0.59
  15  -3   8    8.61    0.47
  15  -3   8    8.39    0.49
  -3 -15  -6    0.37    0.25
  15  -3   6    0.43    0.17
  -3  15   6    0.33    0.18
  15  -3   6    0.25    0.17
  -3  15   6    0.22    0.15
 -15  -3  -6    0.14    0.16
  15  -3   6    0.37    0.22
 -15  -3  -6    0.19    0.37
  15   3  -6    0.42    0.32
   3  15  -6    0.31    0.15
 -15   3   6    0.61    0.25
  15  -3   6    0.41    0.27
   3 -15   4   11.12    0.37
  15  -3   4   10.63    0.55
  15  -3   4   10.70    0.42
  15   3  -4   11.46    0.34
  15  -3   4   10.76    0.43
  -3  15   4   11.54    0.42
 -15   3   4   10.38    0.53
 -15  -3  -4   10.28    0.46
  15   3  -4   10.22    0.64
  15  -3   4   10.56    0.59
   3  15  -4   11.01    0.44
  -3  15   4   10.83    0.45
  -3 -15  -4   10.81    0.51
  15  -3   2   13.94    0.49
   3 -15   2   15.15    0.49
  15   3  -2   14.92    0.45
  15  -3   2   14.32    0.66
  -3  15   2   14.22    0.51
 -15   3   2   14.40    0.60
  15  -3   2   15.25    0.51
   3  15  -2   14.33    0.54
  15  -3   2   14.68    0.73
  15   3  -2   13.21    0.71
 -15  -3  -2   14.53    0.58
  -3  15   2   13.14    0.52
  -3 -15  -2   14.28    0.60
   3  15  -2   14.69    0.53
   3  15   0   24.01    0.76
 -15  -3   0   25.78    0.87
  15  -3   0   23.61    0.71
 -15   3   0   25.71    0.84
  -3  15   0   24.93    0.75
  15  -3   0   23.38    0.71
  15  -3   0   24.20    0.99
  15  -3   0   25.19    0.93
  -3 -15   0   26.00    0.84
  15  -3  -2   14.40    0.46
  15  -3  -2   15.78    0.72
   3  15   2   15.22    0.55
 -15  -3   2   16.10    0.67
  -3  15  -2   14.84    0.53
  15  -3  -2   14.83    0.77
  -3  15  -2   13.32    0.53
  15  -3  -2   15.52    0.48
  -3 -15   2   15.34    0.60
  15  -3  -4   10.21    0.34
  -3  15  -4   10.53    0.43
 -15  -3   4   10.62    0.59
  -3  15  -4   11.38    0.45
  -3 -15   4   11.54    0.49
  15   3   4   11.50    0.59
  15  -3  -4   11.17    0.37
  15   3   4   10.61    0.45
  15  -3  -4   10.92    0.62
  15   3   6    0.04    0.23
  15   3   6    0.39    0.18
 -15  -3   6   -0.10    0.28
  -3  15  -6    0.22    0.16
   3 -15  -6    0.29    0.19
  -3 -15   6    0.17    0.18
  -3  15  -6    0.26    0.16
  15   3   8    8.09    0.50
  15   3   8   10.13    0.46
  -3  15  -8    8.48    0.41
  -3  15  -8    8.92    0.41
   3 -15  -8    8.85    0.44
 -15  -3   8    9.13    0.58
  15   3  10    9.00    0.44
  15   3  10    9.28    0.51
  -3  15 -10    8.32    0.42
  -3  15 -10    9.71    0.43
   3 -15 -10    9.70    0.47
 -15  -3  10    8.26    0.58
   3 -15 -12    6.11    0.40
  -3  15 -12    5.26    0.33
  15   3  12    6.05    0.37
   3 -15 -14    3.20    0.34
  -3  15 -16    3.02    0.31
   3 -15 -16    3.28    0.35
 -15  -3  16    3.09    0.48
 -15   3 -16    3.73    0.56
  -3  15 -18    1.36    0.26
 -15  -3  18    1.07    0.43
 -15   3 -18    1.94    0.50
  -3  15 -20    1.29    0.30
 -15  -3  20    1.45    0.49
 -15   3 -20    1.14    0.48
 -15  -3  22    3.62    0.55
  -3  15 -22    3.19    0.35
   4 -15  23    1.47    0.32
   4  15 -23    1.80    0.29
 -15  -4 -23    2.17    0.56
 -15   4  23    1.94    0.43
   4 -15  21    0.84    0.30
   4  15 -21    0.55    0.25
 -15  -4 -21    0.87    0.52
 -15   4  21    0.43    0.36
  -4 -15 -19    0.45    0.35
   4  15 -19    0.13    0.23
 -15  -4 -19   -0.18    0.54
 -15   4  19    0.27    0.35
   4 -15  17    8.93    0.48
  -4 -15 -17    9.59    0.61
   4  15 -17    8.85    0.45
 -15  -4 -17    9.84    0.77
 -15   4  17    8.57    0.61
   4 -15  15   10.00    0.50
  -4 -15 -15   10.39    0.62
  15  -4  15   11.38    0.51
  15   4 -15   10.53    0.33
   4  15 -15   10.80    0.49
  15  -4  15    9.43    0.46
 -15  -4 -15   11.07    0.80
 -15   4  15   10.24    0.62
  -4 -15 -13    1.70    0.34
  15  -4  13    2.44    0.29
   4 -15  13    2.04    0.28
  15  -4  13    2.12    0.27
  -4  15  13    2.32    0.26
  -4 -15 -13    2.36    0.21
   4  15 -13    2.35    0.25
  15   4 -13    2.30    0.16
   4  15 -13    2.29    0.22
  15  -4  13    1.65    0.26
  -4  15  13    2.21    0.19
  15   4 -13    1.88    0.44
 -15  -4 -13    2.36    0.47
  15  -4  13    2.52    0.28
 -15   4  13    2.51    0.37
  15  -4  11    1.17    0.25
  -4 -15 -11    1.20    0.30
  15  -4  11    1.58    0.23
   4 -15  11    1.44    0.24
  -4  15  11    1.41    0.24
   4  15 -11    1.37    0.22
  15  -4  11    1.47    0.23
  15   4 -11    1.38    0.14
   4  15 -11    1.07    0.18
  -4  15  11    1.25    0.17
  15   4 -11    1.58    0.42
  -4 -15 -11    1.33    0.18
 -15  -4 -11    1.07    0.44
  15  -4  11    1.25    0.26
 -15   4  11    1.06    0.30
  -4 -15  -9    2.31    0.33
  -4  15   9    2.27    0.25
   4 -15   9    2.77    0.27
   4  15  -9    2.42    0.24
  15  -4   9    1.90    0.24
  -4  15   9    2.28    0.20
   4  15  -9    2.03    0.22
 -15  -4  -9    2.01    0.46
  15   4  -9    2.38    0.44
  15  -4   9    2.14    0.29
  15  -4   9    2.42    0.30
  -4 -15  -7   29.96    1.05
  -4  15   7   32.10    0.93
  15  -4   7   31.08    0.92
   4 -15   7   30.38    0.94
 -15  -4  -7   31.18    0.88
  15  -4   7   31.24    0.93
   4  15  -7   32.66    0.95
  -4  15   7   30.46    0.87
  15  -4   7   30.69    1.02
 -15  -4  -7   31.03    1.30
 -15   4   7   27.44    1.02
  15   4  -7   29.54    1.16
   4  15  -7   30.44    0.89
  15  -4   7   29.82    1.05
   4 -15   5   10.23    0.32
  15  -4   5   10.07    0.41
  15   4  -5   10.27    0.30
  -4  15   5   10.36    0.39
  15  -4   5    9.82    0.42
 -15   4   5    9.52    0.51
 -15  -4  -5    9.72    0.72
 -15  -4  -5    9.95    0.43
  15   4  -5    9.15    0.61
  15  -4   5   10.79    0.54
  15  -4   5   10.70    0.58
   4  15  -5   10.23    0.42
  -4 -15  -5    9.68    0.52
  -4  15   5   10.24    0.44
  15  -4   3    7.75    0.35
   4 -15   3    7.94    0.31
  -4  15   3    8.38    0.35
 -15   4   3    8.57    0.46
  15  -4   3    7.91    0.36
  15  -4   3    9.22    0.56
  15   4  -3    8.61    0.57
  15  -4   3    7.36    0.48
  -4  15   3    8.42    0.39
 -15  -4  -3    8.55    0.43
  -4 -15  -3    9.36    0.49
   4  15  -3    8.89    0.39
  15  -4   1    2.73    0.20
   4  15  -1    2.64    0.24
  -4  15   1    2.77    0.22
 -15   4   1    2.65    0.27
 -15  -4  -1    2.62    0.30
  15  -4   1    2.46    0.20
  15  -4   1    1.88    0.35
  15   4  -1    3.16    0.38
  15  -4   1    1.97    0.34
  -4  15   1    2.45    0.23
  -4 -15  -1    2.63    0.30
  15  -4  -1    2.87    0.19
   4  15   1    2.69    0.24
  -4  15  -1    2.65    0.22
  15  -4  -1    3.03    0.38
  15  -4  -1    2.50    0.38
  15  -4  -1    2.43    0.20
 -15  -4   1    3.16    0.35
  -4 -15   1    3.09    0.31
  15  -4  -3    8.61    0.30
  -4  15  -3    7.73    0.37
  15  -4  -3    7.28    0.57
 -15  -4   3    8.31    0.52
  -4 -15   3    7.55    0.44
  15  -4  -3    6.99    0.52
  15  -4  -3    8.63    0.32
  15  -4  -5   10.50    0.36
  15  -4  -5   10.81    0.32
  -4  15  -5   10.12    0.43
   4 -15  -5   11.45    0.49
  -4  15  -5   10.39    0.44
  15  -4  -5   10.86    0.61
  -4 -15   5   10.01    0.50
 -15  -4   5   10.84    0.60
  15   4   5   10.74    0.57
  -4  15  -7   32.69    0.96
  -4  15  -7   31.44    0.95
   4 -15  -7   30.61    0.98
 -15  -4   7   31.58    1.16
  15   4   7   32.21    0.98
  15   4   9    2.07    0.27
  15   4   9    1.99    0.30
  -4  15  -9    2.20    0.24
  -4  15  -9    2.05    0.23
 -15  -4   9    2.89    0.40
   4 -15  -9    1.96    0.26
  15   4  11    1.64    0.26
  15   4  11    1.47    0.30
  -4  15 -11    1.68    0.23
   4 -15 -11    1.35    0.29
  -4  15 -11    1.31    0.21
 -15  -4  11    1.19    0.37
  15   4  13    2.61    0.30
   4 -15 -13    2.35    0.32
  15   4  13    2.20    0.31
   4 -15 -15   11.18    0.58
  -4  15 -17    8.57    0.46
 -15  -4  17    9.17    0.70
  -4  15 -19    0.15    0.24
 -15  -4  19    0.12    0.41
  -4  15 -21    0.74    0.27
 -15  -4  21    0.60    0.45
 -15   4 -21    1.19    0.48
  -4  15 -23    1.80    0.31
 -15  -4  23    1.93    0.51
   5 -15  24    0.85    0.29
   5  15 -24    0.95    0.27
 -15  -5 -24    0.83    0.53
   5 -15  22    3.72    0.37
   5  15 -22    4.04    0.35
  15  -5  22    4.87    0.42
 -15  -5 -22    3.58    0.61
 -15   5  22    4.64    0.51
   5 -15  20    2.95    0.35
   5  15 -20    2.83    0.31
 -15  -5 -20    3.58    0.61
 -15   5  20    3.66    0.46
  -5 -15 -18   19.66    0.93
   5  15 -18   19.54    0.73
 -15   5  18   21.82    0.94
 -15  -5 -18   19.72    1.09
   5 -15  18   20.88    0.79
  -5 -15 -16    1.49    0.38
  15   5 -16    1.73    0.16
  -5  15  16    1.62    0.26
   5  15 -16    1.83    0.25
  15  -5  16    1.56    0.26
  15  -5  16    1.35    0.28
  -5  15  16    1.85    0.18
  15   5 -16    1.19    0.47
 -15  -5 -16    1.42    0.49
 -15   5  16    1.73    0.38
   5 -15  14   11.63    0.54
  -5 -15 -14   11.86    0.67
  15  -5  14   11.98    0.53
  -5  15  14   12.77    0.53
   5  15 -14   11.85    0.47
   5  15 -14   12.58    0.53
  15   5 -14   12.33    0.40
  15  -5  14   13.23    0.57
  -5  15  14   12.49    0.43
  15   5 -14   11.11    0.76
 -15   5  14   12.02    0.65
 -15  -5 -14   10.80    0.81
  -5 -15 -12   33.57    1.20
  15  -5  12   32.61    1.06
   5 -15  12   33.91    1.05
  15  -5  12   31.41    1.04
  -5  15  12   33.18    1.01
  15  -5  12   33.72    1.03
   5  15 -12   34.76    1.03
   5  15 -12   35.20    0.97
  15  -5  12   34.02    1.05
  15   5 -12   34.23    0.90
  -5  15  12   32.41    0.92
 -15   5  12   32.38    1.16
  15   5 -12   31.60    1.27
 -15  -5 -12   33.85    1.41
  -5 -15 -12   34.59    0.92
  -5 -15 -10   18.56    0.80
  -5  15  10   18.25    0.64
   5 -15  10   17.62    0.66
  15  -5  10   17.42    0.70
  15  -5  10   17.76    0.64
   5  15 -10   17.41    0.65
  15  -5  10   18.01    0.66
  -5  15  10   18.15    0.57
   5  15 -10   18.83    0.61
  15   5 -10   18.15    0.55
 -15   5  10   16.36    0.74
  15   5 -10   17.18    0.86
 -15  -5 -10   18.13    0.97
  15  -5  10   18.82    0.72
  -5  15   8    7.47    0.38
   5 -15   8    7.45    0.40
  15  -5   8    7.45    0.37
  15  -5   8    7.76    0.47
 -15  -5  -8    8.34    0.33
   5  15  -8    8.33    0.40
  -5  15   8    7.72    0.33
  15  -5   8    7.13    0.39
   5  15  -8    7.44    0.35
  15   5  -8    7.20    0.57
 -15  -5  -8    6.84    0.65
  15  -5   8    7.48    0.47
  -5 -15  -8    7.77    0.51
  15  -5   6   21.19    0.67
   5 -15   6   21.60    0.71
  15   5  -6   20.83    0.52
  15  -5   6   21.80    0.80
  -5  15   6   21.10    0.64
 -15   5   6   20.30    0.79
   5  15  -6   22.06    0.71
  15  -5   6   21.16    0.70
 -15  -5  -6   21.46    1.06
 -15  -5  -6   22.00    0.68
  15   5  -6   20.91    0.91
   5 -15   6   19.01    0.53
   5  15  -6   22.28    0.68
  15  -5   6   21.65    0.84
  -5 -15  -6   21.02    0.84
  -5  15   6   20.48    0.70
  15  -5   4    4.21    0.38
  15  -5   4    4.25    0.25
 -15   5   4    4.59    0.35
  -5  15   4    4.26    0.25
  15  -5   4    4.55    0.28
  15  -5   4    4.70    0.45
  15   5  -4    3.45    0.42
  -5  15   4    4.05    0.28
   5  15  -4    4.41    0.27
 -15  -5  -4    4.36    0.32
  -5 -15  -4    4.66    0.38
   5  15  -2    1.74    0.22
  15  -5   2    1.75    0.18
  15  -5   2    1.19    0.28
  -5  15   2    1.64    0.18
 -15  -5  -2    1.84    0.27
  15  -5   2    1.64    0.33
  15  -5   2    1.70    0.19
  15   5  -2    1.55    0.33
  -5  15   2    1.32    0.20
  -5 -15  -2    1.56    0.29
  15  -5   0    0.22    0.13
   5  15   0    0.14    0.17
  -5  15   0   -0.05    0.15
  15  -5   0    0.29    0.31
  15  -5   0   -0.05    0.28
  -5  15   0   -0.12    0.16
  15  -5   0    0.27    0.13
  -5 -15   0    0.14    0.25
  15   5   0    0.20    0.25
 -15  -5   0   -0.04    0.23
  15  -5  -2    2.25    0.35
 -15  -5   2    1.40    0.32
  15  -5  -2    1.74    0.15
  -5  15  -2    1.62    0.20
  15  -5  -2    1.50    0.35
  -5 -15   2    1.61    0.29
  15  -5  -2    1.55    0.18
  15  -5  -4    4.67    0.24
  15  -5  -4    4.55    0.44
  -5  15  -4    4.76    0.29
  15  -5  -4    4.62    0.20
   5 -15  -4    5.24    0.34
 -15  -5   4    4.30    0.42
 -15  -5   6   20.53    0.89
  -5  15  -6   21.81    0.71
  15  -5  -6   20.20    0.89
  -5  15  -6   21.67    0.71
   5 -15  -6   22.56    0.76
  15   5   6   20.90    0.82
  15   5   8    6.83    0.45
  -5  15  -8    6.53    0.36
  -5  15  -8    6.87    0.37
   5 -15  -8    6.69    0.41
  15   5  10   19.16    0.69
  15   5  10   18.11    0.75
  -5  15 -10   17.23    0.64
 -15  -5  10   16.47    0.86
  -5  15 -10   17.89    0.64
  15   5  12   36.58    1.10
  15   5  12   33.03    1.14
  -5  15 -12   34.52    1.06
  -5  15 -12   33.51    1.04
   5 -15 -12   36.20    1.15
 -15  -5  12   35.63    1.33
   5 -15 -14   11.78    0.60
 -15  -5  16    1.90    0.44
   5 -15 -16    1.92    0.35
  -5  15 -18   18.90    0.75
 -15  -5  18   20.49    1.04
  -5  15 -20    2.09    0.32
 -15  -5  20    1.87    0.47
  -5  15 -22    4.18    0.40
 -15  -5  22    5.34    0.65
   6 -15  23    5.33    0.42
   6  15 -23    5.01    0.38
 -15   6  23    5.52    0.56
 -15  -6 -23    6.45    0.74
   6 -15  21    0.58    0.26
   6  15 -21    1.19    0.29
  15  -6  21    0.68    0.30
 -15   6  21    0.76    0.37
 -15  -6 -21    1.19    0.52
   6 -15  19    1.06    0.30
   6  15 -19    1.37    0.27
 -15   6  19    1.25    0.37
 -15  -6 -19    1.19    0.51
   6  15 -17   15.71    0.63
  15  -6  17   14.96    0.68
 -15   6  17   15.55    0.79
 -15  -6 -17   15.71    0.98
   6 -15  17   16.23    0.67
  -6 -15 -17   16.25    0.85
  -6  15  15   36.60    1.07
   6  15 -15   35.67    1.08
  15   6 -15   35.58    0.95
  -6  15  15   35.59    0.94
  15  -6  15   35.28    1.13
 -15   6  15   35.99    1.25
  15   6 -15   32.88    1.33
 -15  -6 -15   34.38    1.46
  15  -6  15   33.17    1.08
  -6 -15 -15   37.64    1.33
   6 -15  13   18.50    0.70
  -6 -15 -13   17.05    0.52
  15  -6  13   17.52    0.67
  -6  15  13   17.69    0.65
   6  15 -13   18.05    0.59
   6  15 -13   17.85    0.66
  15   6 -13   17.74    0.55
  -6  15  13   16.91    0.54
  15  -6  13   19.55    0.71
 -15   6  13   18.15    0.80
  15   6 -13   16.44    0.89
 -15  -6 -13   17.58    0.97
  15  -6  13   16.84    0.67
  -6 -15 -13   17.80    0.84
  15  -6  11    8.87    0.47
  -6  15  11    8.85    0.42
  15  -6  11    8.33    0.43
   6  15 -11    8.45    0.43
  -6 -15 -11    9.15    0.34
  -6  15  11    8.41    0.34
   6  15 -11    8.45    0.37
  15  -6  11    8.02    0.43
 -15   6  11    9.10    0.54
  15   6 -11    8.55    0.34
   6 -15  11    8.38    0.43
  15   6 -11    8.49    0.64
 -15  -6 -11    8.01    0.70
  -6 -15 -11    9.12    0.59
  15  -6  11    7.93    0.45
  15  -6   9   38.83    1.23
   6 -15   9   40.50    1.19
  15  -6   9   39.78    1.15
  -6  15   9   39.78    1.07
   6  15  -9   39.61    1.17
  15  -6   9   40.72    1.18
   6  15  -9   40.91    1.11
 -15  -6  -9   41.98    1.56
  15   6  -9   37.73    1.39
  15  -6   9   41.35    1.26
  -6 -15  -9   39.43    1.34
  -6  15   9   40.07    1.15
  15  -6   7   82.02    2.21
   6 -15   7   78.78    2.12
  15  -6   7   82.30    2.08
  -6  15   7   81.52    2.02
   6  15  -7   82.53    2.11
  15  -6   7   80.86    2.10
 -15  -6  -7   82.49    2.04
 -15  -6  -7   77.47    2.51
  15   6  -7   77.71    2.34
   6  15  -7   81.68    2.05
  15  -6   7   82.62    2.25
  -6 -15  -7   80.25    2.28
  -6  15   7   79.79    2.09
 -15  -6  -5    2.75    0.27
  15  -6   5    3.24    0.24
  -6  15   5    2.90    0.21
 -15   6   5    3.47    0.34
   6  15  -5    3.12    0.27
  15  -6   5    2.98    0.25
  15  -6   5    2.35    0.35
  15   6  -5    3.15    0.42
  15  -6   5    3.15    0.37
  -6 -15  -5    2.59    0.36
  -6  15   5    2.85    0.26
   6  15  -5    2.92    0.24
   6  15  -3    5.68    0.31
  15  -6   3    6.56    0.30
 -15  -6  -3    6.43    0.40
  -6  15   3    6.10    0.30
  15  -6   3    6.69    0.45
  15  -6   3    6.44    0.33
  15  -6   3    6.61    0.51
  -6  15   3    6.32    0.35
  15   6  -3    6.57    0.50
  -6 -15  -3    5.93    0.45
   6  15  -1   12.18    0.49
  15  -6   1   12.11    0.44
  -6  15   1   12.91    0.47
 -15  -6  -1   13.12    0.60
  15  -6   1   13.04    0.70
  15  -6   1   13.14    0.63
  -6  15   1   13.06    0.51
  15  -6   1   13.04    0.47
  -6 -15  -1   12.42    0.63
  15   6  -1   12.95    0.66
  15  -6  -1   13.50    0.43
  -6  15  -1   12.73    0.48
  15  -6  -1   11.05    0.68
  -6  15  -1   13.45    0.51
  -6 -15   1   11.93    0.61
 -15  -6   1   11.38    0.60
  15  -6  -1   13.38    0.65
  15  -6  -1   14.05    0.48
  15   6   1   12.93    0.65
  15  -6  -3    6.13    0.29
 -15  -6   3    6.74    0.50
  15  -6  -3    6.79    0.50
  -6  15  -3    6.03    0.32
  15  -6  -3    6.30    0.25
   6 -15  -3    6.54    0.40
  -6 -15   3    6.11    0.46
  15   6   3    5.49    0.43
  -6  15  -5    2.80    0.25
 -15  -6   5    2.78    0.39
  15  -6  -5    2.73    0.14
  -6 -15   5    2.73    0.36
   6 -15  -5    2.95    0.31
  15  -6  -5    2.64    0.39
  -6  15  -7   80.07    2.01
  -6  15  -7   78.44    2.01
 -15  -6   7   78.89    2.27
   6 -15  -7   76.88    2.07
  15   6   9   38.67    1.27
  -6  15  -9   41.23    1.17
  -6  15  -9   39.92    1.16
  15  -6  -9   39.25    1.38
 -15  -6   9   40.89    1.43
   6 -15  -9   40.02    1.24
  15   6  11    8.42    0.45
  15   6  11    9.08    0.52
   6 -15 -11    9.17    0.52
  -6  15 -11    9.07    0.44
  -6  15 -11    9.16    0.44
 -15  -6  11    7.97    0.64
  -6  15 -13   16.79    0.66
   6 -15 -13   18.18    0.76
 -15  -6  13   16.60    0.90
 -15  -6  17   16.46    0.95
   6 -15 -17   16.91    0.79
  -6  15 -19    1.61    0.30
 -15  -6  19    1.61    0.52
  -6  15 -21    1.15    0.30
 -15  -6  21    0.81    0.47
   7  15 -24    0.34    0.25
   7 -15  22    2.24    0.33
   7  15 -22    2.46    0.29
 -15   7  22    2.75    0.46
 -15  -7 -22    3.01    0.63
   7 -15  20    5.05    0.43
   7  15 -20    5.22    0.38
 -15   7  20    5.62    0.51
 -15  -7 -20    5.29    0.64
   7  15 -18   14.38    0.59
 -15   7  18   13.60    0.74
 -15  -7 -18   13.35    0.93
   7 -15  18   13.55    0.64
  -7 -15 -18   11.92    0.77
  -7 -15 -16    4.15    0.49
   7 -15  16    4.04    0.36
  -7  15  16    4.73    0.34
  15  -7  16    3.96    0.34
  15   7 -16    4.28    0.24
   7  15 -16    4.62    0.34
  15  -7  16    4.25    0.36
 -15   7  16    3.61    0.43
  15   7 -16    4.23    0.52
 -15  -7 -16    3.79    0.59
  -7  15  14   10.37    0.47
  15  -7  14    9.77    0.47
   7  15 -14   10.74    0.42
   7  15 -14   10.53    0.49
  15   7 -14   10.29    0.39
  -7  15  14   10.38    0.35
 -15   7  14   10.13    0.60
  15  -7  14   10.09    0.51
 -15  -7 -14   10.19    0.79
  15  -7  14    8.98    0.49
  -7 -15 -14    9.62    0.65
   7 -15  14   10.33    0.52
  -7  15  12   37.96    1.12
   7 -15  12   39.10    1.17
  15  -7  12   39.93    1.17
  15  -7  12   38.71    1.15
  -7  15  12   38.05    1.01
   7  15 -12   39.07    1.14
   7  15 -12   38.93    1.06
 -15   7  12   38.80    1.29
  15   7 -12   39.06    1.04
  15  -7  12   37.66    1.17
  -7 -15 -12   37.56    0.99
  15   7 -12   34.82    1.36
 -15  -7 -12   36.22    1.50
  15  -7  12   37.53    1.18
  -7 -15 -12   37.97    1.37
   7 -15  10   24.03    0.83
   7  15 -10   24.16    0.72
  15  -7  10   24.45    0.80
  -7  15  10   23.31    0.69
 -15   7  10   24.20    0.92
   7  15 -10   25.45    0.82
  15   7 -10   25.16    0.73
   7  15 -10   23.54    0.73
   7 -15  10   24.45    0.80
  15  -7  10   25.13    0.83
 -15  -7 -10   25.64    1.17
  15   7 -10   24.08    1.02
  -7 -15 -10   24.00    0.99
  15  -7  10   24.40    0.87
  15  -7  10   23.49    0.85
  -7  15  10   24.18    0.79
  15  -7   8   14.86    0.66
   7 -15   8   15.03    0.61
  15  -7   8   14.61    0.56
  -7  15   8   14.39    0.49
   7  15  -8   14.57    0.58
 -15  -7  -8   15.27    0.50
  15  -7   8   14.62    0.57
   7  15  -8   15.82    0.53
  15   7  -8   15.03    0.77
  15  -7   8   15.50    0.68
  -7  15   8   15.27    0.57
  -7 -15  -8   15.30    0.74
  15  -7   6   28.64    0.86
  -7  15   6   28.53    0.81
  15  -7   6   29.24    1.01
   7  15  -6   28.44    0.89
  15  -7   6   28.71    0.89
  15   7  -6   28.19    1.09
  -7  15   6   27.76    0.87
   7  15  -6   28.41    0.84
  -7 -15  -6   28.72    1.07
 -15  -7  -6   28.13    0.87
  15  -7   4   21.61    0.83
  15  -7   4   21.99    0.68
 -15  -7  -4   22.16    0.76
  -7  15   4   21.03    0.66
  15  -7   4   21.51    0.72
  15  -7   4   22.46    0.91
  -7  15   4   21.25    0.71
  15   7  -4   19.92    0.89
  -7 -15  -4   21.03    0.89
   7  15  -4   22.36    0.69
   7  15  -2   20.71    0.67
  15  -7   2   20.07    0.63
  -7  15   2   20.30    0.64
  15  -7   2   20.63    0.83
 -15  -7  -2   20.56    1.03
  15  -7   2   19.17    0.86
 -15  -7  -2   20.16    0.77
  -7  15   2   20.54    0.69
  15  -7   2   20.75    0.68
  -7 -15  -2   19.98    0.85
  15   7  -2   20.28    0.86
  -7  15   0    5.93    0.31
  15  -7   0    6.12    0.47
  -7  15   0    5.89    0.34
  15  -7   0    5.58    0.51
  -7 -15   0    5.86    0.48
  15  -7   0    6.65    0.33
  15   7   0    6.56    0.47
 -15  -7   0    5.75    0.45
  15  -7  -2   20.62    0.64
 -15  -7   2   20.09    0.84
  -7  15  -2   20.95    0.66
  15  -7  -2   19.77    0.58
  -7  15  -2   19.23    0.67
  15  -7  -2   17.69    0.86
  -7 -15   2   20.52    0.84
  15  -7  -2   19.03    0.83
   7 -15  -2   21.04    0.76
  15   7   2   19.89    0.81
  15  -7  -4   21.02    0.87
  15  -7  -4   20.51    0.65
  -7  15  -4   21.37    0.69
  15  -7  -4   20.94    0.58
   7 -15  -4   20.68    0.77
 -15  -7   4   21.94    0.91
  -7 -15   4   20.45    0.87
  15   7   4   21.27    0.83
  -7  15  -6   27.24    0.85
   7 -15  -6   27.12    0.93
 -15  -7   6   27.00    1.08
  15  -7  -8   13.78    0.74
  -7  15  -8   14.70    0.57
  -7  15  -8   13.97    0.55
   7 -15  -8   14.72    0.64
 -15  -7   8   14.83    0.79
  15  -7 -10   23.85    1.00
  15   7  10   24.35    0.90
  -7  15 -10   25.29    0.82
  -7  15 -10   23.73    0.80
 -15  -7  10   22.76    1.05
  -7  15 -12   38.12    1.14
   7 -15 -12   36.76    1.23
 -15  -7  12   36.54    1.43
  -7  15 -14    9.94    0.50
   7 -15 -14   10.15    0.59
   7 -15 -16    5.15    0.47
 -15  -7  18   13.33    0.87
  -7  15 -20    4.99    0.40
 -15  -7  20    5.32    0.65
   8  15 -23    1.83    0.29
 -15   8  23    2.15    0.43
   8 -15  21    0.78    0.32
   8  15 -21    0.54    0.23
 -15   8  21    0.72    0.38
 -15  -8 -21    0.75    0.51
   8  15 -19    5.42    0.37
 -15   8  19    5.31    0.49
 -15  -8 -19    5.80    0.68
   8  15 -17    9.35    0.47
 -15   8  17    9.41    0.62
 -15  -8 -17    9.07    0.80
   8 -15  17    9.06    0.53
  -8 -15 -17    8.65    0.66
  -8  15  15    0.80    0.20
   8 -15  15    0.55    0.26
   8  15 -15    0.84    0.24
  -8 -15 -15    0.84    0.36
  15   8 -15    0.54    0.17
 -15   8  15    0.96    0.33
  15  -8  15    0.74    0.25
 -15  -8 -15    1.08    0.48
  15  -8  15    0.52    0.22
  15  -8  13    8.87    0.44
  -8  15  13    9.41    0.32
   8  15 -13    9.56    0.37
 -15   8  13   10.00    0.58
   8  15 -13    9.40    0.45
  15   8 -13    9.49    0.39
  15  -8  13    8.71    0.47
  15   8 -13    8.83    0.63
 -15  -8 -13    8.99    0.75
  15  -8  13    8.22    0.46
  -8 -15 -13    9.15    0.65
  -8  15  13    9.00    0.43
   8 -15  13    9.22    0.49
   8 -15  11   11.97    0.54
 -15   8  11   10.87    0.39
  15  -8  11   10.49    0.50
  -8  15  11   11.08    0.38
  -8 -15 -11   11.70    0.38
 -15   8  11   10.95    0.60
   8  15 -11   11.80    0.51
   8  15 -11   11.60    0.43
  15   8 -11   11.55    0.44
  15  -8  11   11.20    0.52
 -15  -8 -11   10.68    0.80
  15   8 -11   11.18    0.69
  15  -8  11   10.63    0.53
  -8 -15 -11   11.22    0.70
  -8  15  11   11.91    0.49
  15  -8  11   10.82    0.52
  15  -8   9    0.37    0.25
   8 -15   9    0.68    0.23
   8  15  -9    0.50    0.18
 -15   8   9    0.81    0.15
  15  -8   9    0.87    0.22
  -8  15   9    0.77    0.14
   8  15  -9    0.70    0.21
   8 -15   9    0.61    0.20
 -15  -8  -9    0.62    0.14
  15  -8   9    0.70    0.21
   8  15  -9    0.42    0.15
  15   8  -9    0.63    0.31
  -8 -15  -9    0.57    0.34
  15  -8   9    0.80    0.25
  -8  15   9    0.71    0.19
   8  15  -7   15.74    0.57
  15  -8   7   16.97    0.59
  -8  15   7   16.52    0.52
   8  15  -7   15.44    0.60
   8 -15   7   15.19    0.47
   8  15  -7   16.86    0.55
  -8  15   7   16.62    0.59
  15  -8   7   16.03    0.70
  -8 -15  -7   15.49    0.79
 -15  -8  -7   15.81    0.56
  15   8  -7   14.95    0.41
  15  -8   7   16.42    0.70
  15  -8   5   14.18    0.66
   8  15  -5   12.38    0.50
  -8  15   5   13.24    0.46
 -15  -8  -5   12.16    0.54
  15  -8   5   12.11    0.48
   8  15  -5   13.73    0.53
   8 -15   5   12.94    0.54
 -15  -8  -5   12.99    0.83
  15  -8   5   12.23    0.52
  15  -8   5   13.33    0.68
  -8  15   5   13.00    0.52
  15   8  -5   13.21    0.69
  -8 -15  -5   12.69    0.70
   8  15  -5   13.17    0.49
   8  15  -3    2.32    0.23
 -15  -8  -3    2.43    0.31
  -8  15   3    2.02    0.20
  15  -8   3    2.25    0.20
  15  -8   3    2.38    0.36
 -15  -8  -3    1.75    0.46
  15  -8   3    2.06    0.36
  -8  15   3    2.37    0.24
  -8 -15  -3    2.65    0.40
  15  -8   3    1.76    0.22
  15   8  -3    2.81    0.39
 -15  -8  -1   20.46    0.82
   8  15  -1   20.90    0.69
  -8  15   1   21.83    0.67
  15  -8   1   22.09    0.65
  15  -8   1   20.86    0.85
  15  -8   1   19.22    0.90
  -8  15   1   20.98    0.71
  -8 -15  -1   21.70    0.91
  15  -8   1   21.04    0.69
  15   8  -1   21.06    0.87
  15  -8  -1   20.40    0.66
  -8  15  -1   19.95    0.66
  15  -8  -1   20.27    0.60
   8 -15  -1   20.09    0.75
 -15  -8   1   19.16    0.82
  -8  15  -1   20.22    0.69
  15  -8  -1   21.29    0.86
  -8 -15   1   21.79    0.89
  15   8   1   20.68    0.84
  15   8   3    1.73    0.31
  -8  15  -3    2.13    0.23
  15  -8  -3    1.87    0.21
  15  -8  -3    1.95    0.37
 -15  -8   3    2.66    0.40
  15  -8  -3    2.18    0.16
  -8  15  -3    1.96    0.23
  -8 -15   3    1.34    0.37
   8 -15  -3    1.59    0.27
 -15  -8   5   12.18    0.70
  15   8   5   12.79    0.62
  -8  15  -5   13.31    0.52
  -8  15  -5   12.99    0.52
  15  -8  -5   12.56    0.38
   8 -15  -5   13.64    0.60
  -8  15  -7   16.90    0.62
 -15  -8   7   17.01    0.83
   8 -15  -7   16.91    0.70
  -8  15  -9    0.50    0.20
 -15  -8   9    0.50    0.37
  -8  15  -9    0.48    0.20
   8 -15  -9    1.11    0.30
  15  -8  -9    1.05    0.36
  -8  15 -11   10.16    0.48
 -15  -8  11   10.29    0.71
   8 -15 -11   11.92    0.62
  -8  15 -13    8.72    0.47
 -15  -8  13    9.20    0.70
   8 -15 -13    9.20    0.58
  -8  15 -15    0.51    0.23
   8 -15 -15    0.61    0.33
   8 -15 -17    9.39    0.65
 -15  -8  19    6.01    0.68
  -8  15 -21    0.29    0.25
 -15  -8  21    0.73    0.49
   9  15 -22    2.05    0.29
   9  15 -20    2.25    0.29
 -15  -9 -20    2.76    0.58
   9 -15  20    2.51    0.36
   9 -15  18    4.19    0.42
   9  15 -18    3.83    0.33
 -15  -9 -18    4.26    0.66
  -9 -15 -18    3.96    0.53
   9  15 -16    6.28    0.38
  15   9 -16    5.71    0.30
  15  -9  16    4.42    0.39
  15   9 -16    5.66    0.57
 -15  -9 -16    6.61    0.68
   9 -15  16    5.83    0.42
  -9  15  16    4.98    0.35
  -9 -15 -16    5.95    0.57
   9  15 -14    5.73    0.36
  15   9 -14    5.25    0.29
  15  -9  14    5.52    0.39
  15  -9  14    4.80    0.37
 -15  -9 -14    5.38    0.61
  15   9 -14    4.71    0.49
  -9  15  14    5.45    0.35
   9 -15  14    5.05    0.40
  -9 -15 -14    6.07    0.58
   9 -15  12    0.73    0.24
  15  -9  12    0.81    0.21
   9  15 -12    0.99    0.19
  -9  15  12    1.08    0.13
 -15   9  12    0.94    0.16
   9  15 -12    1.08    0.23
   9  15 -12    1.15    0.17
  15   9 -12    0.90    0.18
  15  -9  12    0.79    0.24
 -15  -9 -12    0.53    0.40
  15   9 -12    1.01    0.35
  -9 -15 -12    0.38    0.34
  -9  15  12    0.98    0.21
  15  -9  12    0.89    0.25
   9 -15  10    4.74    0.37
  15  -9  10    4.15    0.37
  -9  15  10    5.35    0.24
 -15   9  10    5.19    0.27
  15  -9  10    5.36    0.35
   9  15 -10    5.51    0.32
   9  15 -10    5.63    0.34
   9 -15  10    4.89    0.35
  15   9 -10    5.07    0.30
   9  15 -10    5.50    0.27
  15  -9  10    5.48    0.38
  -9  15  10    5.51    0.33
  15   9 -10    5.03    0.48
  -9 -15 -10    5.23    0.52
   9  15  -8    8.05    0.39
  -9  15   8    8.42    0.33
 -15   9   8    8.54    0.35
  15  -9   8    8.89    0.41
   9  15  -8    9.52    0.44
   9 -15   8    8.56    0.42
  15   9  -8    7.46    0.23
  15  -9   8    8.69    0.44
   9  15  -8    8.50    0.36
  -9  15   8    8.73    0.40
  15   9  -8    7.83    0.58
 -15  -9  -8    8.78    0.36
  -9 -15  -8    8.60    0.60
  15  -9   8    8.18    0.48
  15  -9   8    7.89    0.48
  15   9  -6   18.88    0.52
   9  15  -6   18.28    0.65
  -9  15   6   18.44    0.58
 -15   9   6   18.44    0.59
 -15  -9  -6   19.18    0.67
  15  -9   6   18.35    0.64
   9  15  -6   18.67    0.67
 -15  -9  -6   19.65    1.02
  -9  15   6   19.13    0.66
  15  -9   6   18.81    0.67
  15  -9   6   19.26    0.80
  -9 -15  -6   18.43    0.87
  15   9  -6   17.53    0.81
   9  15  -6   18.56    0.61
  15  -9   6   19.33    0.78
   9  15  -4    3.38    0.25
   9  15  -4    3.98    0.30
  -9  15   4    3.55    0.24
   9 -15   4    3.90    0.32
 -15  -9  -4    3.20    0.32
  15  -9   4    4.25    0.26
  15  -9   4    3.75    0.39
  -9  15   4    4.03    0.29
 -15  -9  -4    4.83    0.58
  15  -9   4    4.28    0.44
  15  -9   4    3.54    0.29
  -9 -15  -4    4.57    0.49
  15   9  -4    3.81    0.42
 -15  -9  -2   22.50    0.83
  15  -9   2   21.01    0.86
   9  15  -2   21.20    0.69
  -9  15   2   21.73    0.67
  15  -9   2   20.73    0.66
 -15  -9  -2   21.95    1.09
  -9  15   2   21.73    0.73
  15  -9   2   21.50    0.93
  -9 -15  -2   20.67    0.94
  15  -9   2   22.63    0.73
  15   9  -2   22.17    0.89
  -9  15   0   29.90    0.86
  15  -9   0   27.89    1.04
  15  -9   0   29.27    0.82
  15  -9   0   29.34    0.89
   9 -15   0   30.41    0.99
  -9  15   0   29.24    0.90
  15  -9   0   26.24    1.09
 -15  -9   0   28.87    1.04
  -9 -15   0   28.84    1.14
  15   9   0   28.78    1.05
  15  -9  -2   21.38    0.68
  -9  15  -2   20.55    0.68
  15  -9  -2   21.38    0.61
  -9  15  -2   20.53    0.71
   9 -15  -2   20.94    0.79
  15  -9  -2   20.46    0.86
  -9 -15   2   21.96    0.95
 -15  -9   2   20.26    0.88
  15   9   4    2.95    0.35
  -9  15  -4    3.17    0.26
 -15  -9   4    2.84    0.41
  -9  15  -4    2.91    0.27
  15  -9  -4    3.42    0.18
  -9 -15   4    3.00    0.44
   9 -15  -4    3.02    0.33
  15   9   6   18.24    0.76
  -9  15  -6   18.53    0.66
  -9  15  -6   18.70    0.67
 -15  -9   6   18.45    0.87
   9 -15  -6   19.31    0.77
  15  -9  -8    9.51    0.61
  -9  15  -8    8.63    0.43
 -15  -9   8    8.69    0.64
  -9  15 -10    4.22    0.33
 -15  -9  10    5.66    0.56
 -15  -9  12    0.52    0.36
   9 -15 -12    1.16    0.36
  -9  15 -12    0.88    0.23
  -9  15 -14    5.23    0.38
 -15  -9  14    4.69    0.57
   9 -15 -14    5.39    0.49
  -9  15 -16    5.29    0.40
  -9  15 -18    3.41    0.36
 -15  -9  20    2.90    0.54
  10  15 -21    1.09    0.26
  10  15 -19    4.05    0.34
 -15 -10 -19    4.93    0.66
  10 -15  19    4.18    0.40
  10 -15  17    1.10    0.30
  10  15 -17    1.44    0.25
 -15 -10 -17    1.03    0.50
 -10 -15 -17    0.58    0.41
  15  10 -15    4.81    0.29
  10  15 -15    4.32    0.33
  15 -10  15    4.57    0.38
 -15 -10 -15    3.12    0.59
  15  10 -15    4.39    0.48
  15 -10  15    4.16    0.35
 -10 -15 -15    4.79    0.59
 -10  15  15    4.23    0.32
  10 -15  13    0.33    0.24
  10  15 -13    0.25    0.22
  15  10 -13    0.58    0.19
  15 -10  13    0.59    0.25
 -15 -10 -13    1.19    0.49
  15  10 -13    0.91    0.35
  15 -10  13    0.60    0.24
 -10  15  13    0.55    0.21
 -10 -15 -13    0.19    0.38
  10 -15  11    3.41    0.33
  10  15 -11    3.57    0.29
 -10  15  11    3.59    0.18
 -15  10  11    3.43    0.23
  10  15 -11    3.79    0.30
  10  15 -11    3.95    0.23
  15  10 -11    4.13    0.28
 -10  15  11    3.84    0.29
  15 -10  11    3.53    0.32
  15  10 -11    4.32    0.47
 -10 -15 -11    3.29    0.48
  15 -10  11    3.66    0.35
 -10 -15 -11    3.58    0.22
  10  15  -9    1.37    0.22
 -10  15   9    2.30    0.16
  15 -10   9    1.87    0.25
 -15  10   9    1.84    0.19
  15  10  -9    1.44    0.08
  10  15  -9    1.69    0.25
  10 -15   9    2.11    0.26
  10  15  -9    2.05    0.19
 -10  15   9    2.08    0.24
  15 -10   9    1.58    0.25
 -15 -10  -9    1.97    0.17
  15  10  -9    2.38    0.39
 -10 -15  -9    1.98    0.41
  15 -10   9    1.87    0.28
  15 -10   9    2.13    0.32
  15 -10   7    4.68    0.41
  10  15  -7    4.76    0.34
 -15 -10  -7    4.49    0.31
 -10  15   7    4.50    0.24
 -15  10   7    4.79    0.27
  15 -10   7    4.74    0.32
  10  15  -7    4.98    0.33
 -10  15   7    4.48    0.31
 -15 -10  -7    5.05    0.60
  15 -10   7    4.72    0.34
  10  15  -7    4.97    0.27
  15 -10   7    5.41    0.43
 -10 -15  -7    5.23    0.52
  15  10  -7    4.83    0.46
  15  10  -7    4.95    0.20
  10  15  -5   17.30    0.65
  10 -15   5   17.86    0.68
 -10  15   5   17.98    0.57
 -15  10   5   17.46    0.59
  15 -10   5   17.49    0.61
  10 -15   5   18.11    0.70
 -15 -10  -5   18.98    1.01
 -10  15   5   17.31    0.63
 -15 -10  -5   18.48    0.69
  15 -10   5   18.11    0.80
 -10 -15  -5   17.48    0.89
  15 -10   5   17.06    0.65
  15  10  -5   18.44    0.80
  15 -10   5   17.88    0.76
  10  15  -5   18.39    0.60
  15 -10   3   13.55    0.65
  10  15  -3   11.98    0.47
  10  15  -3   13.15    0.55
 -15 -10  -3   11.99    0.59
 -10  15   3   12.96    0.46
  10 -15   3   12.46    0.53
  15 -10   3   12.53    0.47
 -10  15   3   12.65    0.51
 -15 -10  -3   12.04    0.83
  15 -10   3   12.28    0.69
 -10 -15  -3   12.60    0.73
  15  10  -3   13.26    0.67
  15 -10   3   11.84    0.51
  15 -10   1    6.11    0.34
  15  10  -1    5.12    0.43
 -10  15   1    5.77    0.31
  10  15  -1    6.28    0.38
  15 -10   1    5.94    0.29
  15 -10   1    5.49    0.46
 -10  15   1    5.85    0.35
 -15 -10  -1    4.97    0.61
  15 -10   1    4.96    0.50
 -15 -10  -1    5.47    0.45
 -10 -15  -1    6.71    0.56
 -15 -10   1    3.87    0.43
  15 -10  -1    5.05    0.31
 -10  15  -1    5.39    0.30
 -10  15  -1    5.35    0.33
  15 -10  -1    4.88    0.25
  10 -15  -1    4.91    0.39
  15 -10  -1    4.41    0.45
 -10 -15   1    4.67    0.51
  15 -10  -1    5.02    0.45
 -15  10  -1    5.26    0.31
  15  10   1    5.51    0.44
  15  10   3   12.96    0.64
 -10  15  -3   12.65    0.50
 -10  15  -3   12.86    0.52
  15 -10  -3   12.95    0.42
  15 -10  -3   11.76    0.66
 -10 -15   3   12.40    0.76
 -15 -10   3   12.20    0.69
  10 -15  -3   13.92    0.62
 -15  10  -3   13.41    0.52
 -15  10  -5   17.96    0.64
  15  10   5   17.25    0.74
 -10  15  -5   17.33    0.62
 -15 -10   5   17.96    0.85
 -10  15  -5   16.38    0.63
  10 -15  -5   18.27    0.75
 -15  10  -7    5.20    0.34
 -10  15  -7    5.12    0.33
  15  10   7    4.87    0.41
 -10  15  -7    4.99    0.34
 -15 -10   7    6.20    0.54
  10 -15  -7    5.01    0.45
  15 -10  -7    5.29    0.49
 -15  10  -9    2.09    0.28
 -10  15  -9    2.04    0.27
  10 -15  -9    1.92    0.35
 -15  10 -11    4.30    0.35
  10 -15 -11    3.60    0.44
 -10  15 -11    3.87    0.32
 -15 -10  11    3.77    0.50
 -10  15 -13    0.40    0.23
 -15 -10  13    1.42    0.44
 -10  15 -15    4.40    0.37
 -15 -10  15    4.52    0.56
 -10  15 -17    0.95    0.28
 -10  15 -19    4.05    0.38
 -15 -10  19    4.11    0.64
  11  15 -20    1.16    0.26
  11  15 -18    3.27    0.31
  11 -15  18    2.95    0.36
  11 -15  16   -0.04    0.27
  11  15 -16    0.23    0.24
  15  11 -16    0.14    0.18
 -15 -11 -16    0.49    0.48
 -11 -15 -16    0.39    0.41
  11 -15  14    0.97    0.27
  11  15 -14    0.64    0.23
  15  11 -14    1.31    0.21
 -15 -11 -14    0.62    0.43
  15 -11  14    1.12    0.28
  15  11 -14    1.18    0.37
 -11  15  14    0.92    0.23
 -11 -15 -14    1.27    0.44
  11  15 -12    0.92    0.24
  15  11 -12    0.82    0.20
 -11  15  12    0.72    0.21
  15 -11  12    0.34    0.24
  15  11 -12    0.94    0.34
 -11 -15 -12    1.57    0.42
  11  15 -10    2.35    0.27
 -15  11  10    2.62    0.22
 -11  15  10    2.02    0.15
  11  15 -10    2.45    0.28
  15  11 -10    2.23    0.24
  11  15 -10    2.21    0.19
 -15 -11 -10    1.50    0.53
 -11  15  10    1.80    0.25
 -11 -15 -10    2.13    0.22
 -11 -15 -10    2.52    0.49
  15 -11  10    2.20    0.29
  15  11 -10    2.12    0.38
  15 -11  10    1.89    0.30
  15 -11  10    1.87    0.27
  11 -15   8    0.33    0.23
 -11  15   8    0.01    0.11
 -15 -11  -8    0.11    0.18
  15 -11   8    0.03    0.20
 -15  11   8    0.20    0.15
  11  15  -8    0.21    0.21
  11 -15   8    0.19    0.20
 -15 -11  -8    0.04    0.43
 -11  15   8    0.20    0.19
  15  11  -8    0.10    0.09
  11  15  -8    0.18    0.14
 -11 -15  -8    0.22    0.38
  15 -11   8    0.02    0.25
  15 -11   8    0.23    0.22
  15  11  -8    0.21    0.30
  15 -11   8    0.35    0.27
  11  15  -6    6.16    0.38
  11 -15   6    6.13    0.38
 -11  15   6    6.33    0.28
 -15  11   6    6.30    0.32
  11 -15   6    6.63    0.46
  15 -11   6    6.68    0.35
  11 -15   6    6.13    0.35
 -11  15   6    6.26    0.35
 -15 -11  -6    5.90    0.39
  11 -15   6    6.16    0.39
 -15 -11  -6    6.11    0.63
  15 -11   6    6.38    0.46
 -11 -15  -6    6.89    0.62
  15 -11   6    6.21    0.45
  15 -11   6    5.55    0.37
  15  11  -6    6.28    0.26
  15  11  -6    6.15    0.48
  11  15  -6    6.32    0.31
  15 -11   4    1.29    0.24
 -15 -11  -4    1.12    0.29
  15 -11   4    1.09    0.33
  11  15  -4    1.03    0.19
 -11  15   4    1.04    0.18
  11 -15   4    0.67    0.22
 -15  11   4    1.29    0.20
  15 -11   4    1.16    0.19
  11 -15   4    1.18    0.29
 -11  15   4    1.25    0.22
  11 -15   4    1.14    0.31
 -15 -11  -4    1.64    0.47
  15 -11   4    0.67    0.32
 -11 -15  -4    1.32    0.43
  15  11  -4    1.89    0.36
  15 -11   2    2.54    0.26
 -11  15   2    2.53    0.22
  11  15  -2    3.13    0.30
 -15  11   2    2.72    0.24
  11  15  -2    2.78    0.24
  15 -11   2    3.01    0.39
  15  11  -2    2.99    0.38
 -15 -11  -2    2.38    0.35
  15 -11   2    2.81    0.22
 -11  15   2    2.94    0.26
 -15 -11  -2    2.40    0.49
  15 -11   2    2.60    0.42
 -11 -15  -2    2.90    0.46
 -15  11   0    3.78    0.26
  15  11   0    3.41    0.38
  15 -11   0    4.25    0.30
 -11  15   0    3.38    0.25
  11  15   0    3.59    0.32
 -15 -11   0    3.57    0.41
 -11  15   0    3.75    0.29
  15 -11   0    3.76    0.23
  15 -11   0    3.69    0.41
  15 -11   0    3.62    0.42
 -11 -15   0    3.15    0.48
  15  11   2    2.49    0.34
 -11  15  -2    2.59    0.24
 -15  11  -2    2.51    0.25
  15 -11  -2    2.84    0.26
 -11  15  -2    2.66    0.27
  15 -11  -2    2.33    0.18
 -11 -15   2    2.58    0.48
  15 -11  -2    2.59    0.37
 -15 -11   2    2.44    0.38
  11 -15  -2    2.55    0.33
 -15  11  -4    1.05    0.23
  11 -15  -4    1.00    0.31
 -11  15  -4    1.29    0.22
 -11  15  -4    1.10    0.22
 -15  11  -6    6.70    0.38
  11 -15  -6    6.56    0.48
 -11  15  -6    5.95    0.36
  15  11   6    6.46    0.45
 -11  15  -8    0.22    0.21
 -15  11  -8    0.13    0.23
 -15  11 -10    1.87    0.29
 -11  15 -10    2.17    0.28
 -15  11 -12    0.82    0.26
 -11  15 -12    0.70    0.25
 -15  11 -14    0.65    0.29
 -11  15 -14    0.50    0.25
 -11  15 -16    0.21    0.26
 -15 -11  16    0.22    0.46
 -11  15 -18    2.31    0.34
  12  15 -19    1.79    0.28
  12  15 -17    1.51    0.25
 -15 -12 -17    0.88    0.53
 -12 -15 -17    1.48    0.50
  12 -15  17    1.93    0.33
  12  15 -15    7.77    0.43
  15  12 -15    7.77    0.39
  15 -12  15    7.60    0.49
 -12 -15 -15    7.39    0.72
  12 -15  15    7.72    0.49
  12  15 -13    1.05    0.26
  15  12 -13    1.39    0.24
 -12  15  13    1.10    0.25
 -12 -15 -13    2.07    0.48
  15 -12  13    1.50    0.29
  12  15 -11    1.23    0.25
  15  12 -11    1.39    0.24
 -12  15  11    1.80    0.25
 -15 -12 -11    1.13    0.46
 -12 -15 -11    1.38    0.48
  15 -12  11    0.95    0.26
  15  12 -11    1.73    0.36
  12  15  -9    8.61    0.47
 -12  15   9    8.44    0.30
 -12 -15  -9    8.01    0.40
 -15  12   9    8.79    0.39
  12  15  -9    9.18    0.46
  15  12  -9    8.52    0.43
 -12  15   9    7.79    0.41
 -15 -12  -9    7.89    0.73
 -12 -15  -9    8.16    0.70
  15 -12   9    8.21    0.47
  15  12  -9    9.78    0.58
 -15 -12  -9    8.83    0.36
 -15 -12  -7    3.45    0.30
 -12  15   7    3.36    0.21
  12  15  -7    3.24    0.31
  12 -15   7    3.52    0.32
 -15  12   7    3.68    0.26
  15 -12   7    3.23    0.29
  12 -15   7    3.45    0.30
  12  15  -7    3.17    0.30
 -12  15   7    3.33    0.28
 -15 -12  -7    3.40    0.57
 -12 -15  -7    3.74    0.52
  12  15  -7    3.17    0.22
  12 -15   7    3.23    0.30
  15 -12   7    4.28    0.38
  15  12  -7    3.54    0.40
  15 -12   7    2.86    0.31
  12  15  -5    8.01    0.46
  12 -15   5    8.38    0.45
  15  12  -5    7.66    0.32
 -15 -12  -5    7.74    0.47
 -15  12   5    7.83    0.37
 -12  15   5    8.19    0.34
  15 -12   5    7.46    0.39
 -12  15   5    7.70    0.40
  12 -15   5    7.60    0.39
  12 -15   5    7.81    0.49
 -15 -12  -5    8.50    0.73
  15 -12   5    8.77    0.55
 -12 -15  -5    7.65    0.68
  15 -12   5    7.40    0.50
  15  12  -5    7.95    0.51
  15 -12   5    8.47    0.44
  12  15  -5    7.65    0.35
 -15  12   3    0.08    0.15
  15 -12   3    0.12    0.19
 -12  15   3    0.20    0.16
  15 -12   3   -0.05    0.30
  12  15  -3   -0.04    0.23
  12  15  -3    0.23    0.18
  12 -15   3    0.10    0.21
 -15  12   3    0.20    0.18
  15 -12   3    0.39    0.18
 -15 -12  -3    0.28    0.30
 -12  15   3    0.26    0.18
  12 -15   3    0.20    0.31
 -15 -12  -3    0.32    0.43
 -12 -15  -3    0.08    0.37
 -15  12   1    0.66    0.18
  15  12  -1    0.65    0.28
 -12  15   1    0.49    0.17
  12  15  -1    0.21    0.23
  15 -12   1    0.56    0.20
 -15  12   1    0.65    0.19
  15 -12   1    0.38    0.28
 -12  15   1    0.75    0.22
 -15 -12  -1    0.72    0.50
  15 -12   1    0.53    0.34
 -15 -12  -1    0.60    0.30
 -12 -15  -1    0.15    0.39
 -15  12  -1    0.48    0.19
  15  12   1    0.67    0.29
 -12  15  -1    0.63    0.18
  15 -12  -1    0.89    0.21
 -12  15  -1    1.02    0.22
  15 -12  -1    0.73    0.15
 -12 -15   1    0.82    0.42
 -15  12  -3    0.01    0.19
 -12  15  -3    0.30    0.20
  15  12   3   -0.14    0.28
 -12  15  -3   -0.04    0.19
 -15  12  -5    7.93    0.42
 -12  15  -5    7.78    0.40
 -15  12  -7    3.99    0.33
 -12  15  -7    3.39    0.30
 -15  12  -9    8.77    0.48
 -12  15  -9    8.07    0.45
 -15  12 -11    1.30    0.30
 -12  15 -11    1.35    0.26
 -15  12 -13    1.52    0.29
 -12  15 -13    1.07    0.28
 -12  15 -15    7.26    0.48
 -15  12 -15    8.52    0.52
 -15  12 -17    1.35    0.31
 -12  15 -17    1.10    0.30
  13  15 -18    0.78    0.23
  13 -15  16    1.96    0.34
  13  15 -16    2.14    0.29
  15  13 -16    2.76    0.28
 -13 -15 -16    1.75    0.53
  13  15 -14    4.18    0.32
  15  13 -14    3.80    0.31
 -13 -15 -14    4.39    0.61
  15 -13  14    3.44    0.37
  13  15 -12    1.09    0.26
  15  13 -12    1.50    0.24
 -15 -13 -12    0.93    0.47
 -13 -15 -12    1.09    0.48
  13  15 -10    8.94    0.46
  15  13 -10    9.60    0.46
 -13  15  10    8.99    0.44
 -13 -15 -10    9.23    0.76
 -15 -13 -10    8.36    0.78
  15 -13  10    8.73    0.49
  15  13 -10    9.20    0.57
  13 -15  10    9.37    0.52
  15  13  -8    4.51    0.44
  15 -13   8    4.54    0.38
 -13 -15  -8    4.72    0.34
  13  15  -8    4.20    0.37
  13 -15   8    4.35    0.37
 -15  13   8    4.03    0.29
 -15 -13  -8    4.88    0.32
 -13  15   8    4.39    0.31
  13  15  -8    4.11    0.34
 -15 -13  -8    3.39    0.59
 -13 -15  -8    5.10    0.59
  13  15  -6    0.21    0.16
  15  13  -6    0.31    0.28
  15 -13   6    0.38    0.22
 -13  15   6    0.14    0.14
  13  15  -6    0.20    0.23
  13 -15   6    0.11    0.22
 -15  13   6   -0.09    0.16
  15 -13   6    0.14    0.20
  13 -15   6    0.30    0.19
 -13  15   6    0.05    0.19
 -15 -13  -6   -0.18    0.44
 -13 -15  -6   -0.21    0.43
  15 -13   6    0.36    0.27
 -15 -13  -6    0.18    0.24
  15  13  -4   11.60    0.61
  15 -13   4   11.29    0.52
 -13  15   4   11.59    0.43
  13  15  -4   10.84    0.43
  13  15  -4   11.33    0.55
  13 -15   4   10.76    0.52
  15  13  -4   10.67    0.40
 -15  13   4   10.75    0.46
 -13  15   4   12.13    0.49
  15 -13   4   11.07    0.46
  13 -15   4    9.93    0.45
 -15 -13  -4   10.89    0.82
  13 -15   4   11.49    0.62
 -13 -15  -4   11.74    0.81
  15 -13   4   11.66    0.65
 -15 -13  -4   10.49    0.58
 -15  13   4   10.64    0.41
 -15  13   2    4.91    0.29
 -13  15   2    5.08    0.30
  15  13  -2    5.09    0.43
  13  15  -2    5.26    0.41
  15 -13   2    4.88    0.35
 -15  13   2    4.78    0.32
  13 -15   2    5.52    0.37
 -13  15   2    4.81    0.33
  15 -13   2    4.80    0.29
  13 -15   2    4.32    0.44
 -15 -13  -2    4.74    0.64
  15 -13   2    4.53    0.48
 -13 -15  -2    4.61    0.59
 -15 -13  -2    4.15    0.43
 -15  13   0    5.94    0.33
 -13  15   0    6.03    0.34
  15  13   0    5.36    0.44
  13  15   0    7.65    0.45
 -15  13   0    5.77    0.35
 -13  15   0    6.09    0.37
 -15 -13   0    5.48    0.66
  15 -13   0    5.56    0.51
 -13 -15   0    6.57    0.66
 -15  13  -2    4.87    0.32
 -13  15  -2    5.49    0.33
  13  15   2    5.56    0.42
 -15  13  -4   11.48    0.50
 -13  15  -4   10.81    0.49
 -15  13  -6    0.30    0.23
 -13  15  -6    0.08    0.21
 -15  13  -8    3.35    0.32
 -13  15  -8    4.48    0.33
 -15  13 -10    9.44    0.51
 -13  15 -10    8.76    0.48
 -15  13 -12    1.16    0.28
 -13  15 -12    1.70    0.31
 -15  13 -14    3.92    0.39
 -13  15 -14    4.20    0.39
 -15  13 -16    2.37    0.36
 -13  15 -16    2.41    0.35
  14  15 -17    3.58    0.32
  14  15 -15    2.86    0.29
  15  14 -15    2.31    0.28
 -14 -15 -15    2.30    0.57
  14 -15  13    2.58    0.34
  14  15 -13    2.25    0.28
  15  14 -13    2.76    0.28
 -14 -15 -13    3.30    0.58
  14  15 -11    5.64    0.38
  15  14 -11    6.53    0.38
 -15 -14 -11    5.57    0.70
 -14 -15 -11    6.42    0.73
  15 -14  11    5.54    0.43
  14 -15  11    6.74    0.45
  15 -14   9    0.41    0.27
  14 -15   9    0.25    0.25
 -15  14   9    0.36    0.19
  14  15  -9    0.33    0.22
  15  14  -9    0.24    0.22
 -14  15   9    0.23    0.23
 -15 -14  -9   -0.24    0.48
 -14 -15  -9    0.75    0.47
  15 -14   7    7.96    0.47
  14 -15   7    7.37    0.46
 -15  14   7    8.19    0.41
 -14  15   7    8.37    0.42
 -15 -14  -7    8.26    0.76
 -14 -15  -7    7.82    0.73
 -14 -15  -7    8.27    0.46
 -15 -14  -7    8.08    0.44
  15  14  -7    8.92    0.55
 -15  14   5   23.59    0.71
  15  14  -5   25.22    0.95
 -14  15   5   25.30    0.72
  14  15  -5   24.27    0.91
  15 -14   5   24.14    0.86
  14 -15   5   24.29    0.87
 -15  14   5   24.13    0.79
 -14  15   5   24.69    0.81
  15 -14   5   24.52    0.79
  14 -15   5   23.79    0.79
 -15 -14  -5   23.93    1.22
 -14 -15  -5   22.95    1.18
 -15 -14  -5   23.73    0.89
 -15  14   3   17.80    0.58
  15  14  -3   18.29    0.76
 -14  15   3   16.85    0.58
  14  15  -3   16.35    0.72
  15 -14   3   17.09    0.68
  14  15  -3   16.84    0.58
  14 -15   3   16.15    0.67
  15  14  -3   17.13    0.57
 -15  14   3   16.78    0.63
 -14  15   3   17.77    0.65
  15 -14   3   16.63    0.60
 -15 -14  -3   16.82    1.05
  14 -15   3   16.61    0.80
 -14 -15  -3   17.57    1.02
 -15 -14  -3   15.96    0.75
 -15  14   1   14.99    0.53
 -14  15   1   14.58    0.53
  15  14  -1   14.50    0.68
  14  15  -1   13.17    0.65
  15 -14   1   14.89    0.61
 -15  14   1   15.02    0.58
  14 -15   1   12.53    0.71
 -15 -14  -1   12.59    0.92
  15 -14   1   12.62    0.72
 -14 -15  -1   15.00    0.95
 -15  14  -1   14.89    0.57
 -14  15  -1   15.88    0.58
 -15  14  -3   17.06    0.63
 -14  15  -3   16.57    0.63
 -15  14  -5   24.79    0.83
 -14  15  -5   24.61    0.83
 -15  14  -7    8.37    0.45
 -14  15  -7    7.74    0.44
 -15  14  -9    0.65    0.27
 -14  15  -9    0.37    0.25
 -15  14 -11    5.37    0.43
 -14  15 -11    6.12    0.43
 -15  14 -13    1.68    0.30
 -14  15 -13    2.63    0.34
 -15  14 -15    2.17    0.33
 -14  15 -15    2.81    0.36
  15  15 -16    4.37    0.33
  15  15 -14    0.38    0.22
 -15 -15 -14    0.05    0.47
  15 -15  12    3.97    0.38
  15  15 -12    4.09    0.33
 -15 -15 -12    4.61    0.66
  15 -15  10    2.19    0.32
  15  15 -10    2.63    0.31
 -15 -15 -10    1.82    0.54
  15 -15   8   25.83    0.95
  15  15  -8   27.87    0.91
 -15 -15  -8   28.67    1.37
  15  15  -6   28.56    1.02
  15 -15   6   28.30    0.97
 -15 -15  -6   27.26    0.96
 -15 -15  -6   29.33    1.36
 -15  15   4    9.04    0.38
  15 -15   4    8.72    0.49
  15 -15   4    8.28    0.42
 -15 -15  -4    8.42    0.55
 -15 -15  -4    8.32    0.81
 -15  15   2   27.17    0.82
  15 -15   2   26.71    0.90
 -15 -15  -2   26.31    1.30
  15 -15   2   23.35    1.03
 -15  15   0   90.09    2.28
 -15 -15   0   85.60    2.82
 -15  15  -2   27.25    0.88
 -15  15  -4    8.47    0.45
 -15  15  -6   27.48    0.91
 -15  15  -8   28.73    0.98
 -15  15 -10    1.92    0.30
 -15  15 -12    4.14    0.39
 -15  15 -14   -0.02    0.28
   0 -16   0   68.91    1.80
  16   0   0   65.27    1.74
  16   0   0   69.27    1.72
   0  16   0   70.38    1.79
 -16   0   0   69.55    1.87
  16   0   0   66.46    2.03
   0  16   0   67.69    1.79
   0  16   2   13.26    0.53
  16   0  -2   14.41    0.48
  16   0   2   14.27    0.52
   0 -16  -2   14.17    0.56
  16   0   2   13.92    0.49
   0  16  -2   14.19    0.54
 -16   0  -2   13.98    0.57
   0  16   2   13.14    0.52
  16   0  -2   14.74    0.45
  16   0  -2   12.18    0.72
  16   0   2   14.05    0.72
 -16   0   2   13.77    0.62
   0  16  -2   14.30    0.54
   0 -16   2   13.18    0.52
  16   0  -4   40.06    1.06
  16   0   4   40.43    1.14
   0 -16  -4   40.97    1.21
  16   0   4   41.10    1.13
 -16   0  -4   41.85    1.18
   0  16  -4   39.81    1.16
  16   0  -4   41.26    1.03
   0  16  -4   39.65    1.15
   0 -16   4   39.70    1.11
  16   0   4   39.58    1.34
 -16   0   4   40.71    1.30
  16   0  -6   45.82    1.17
  16   0   6   49.53    1.30
  16   0  -6   46.26    1.13
   0 -16  -6   50.08    1.39
  16   0   6   46.23    1.28
   0  16  -6   46.50    1.30
   0 -16   6   43.06    1.18
   0  16  -6   46.95    1.29
  16   0   6   47.72    1.47
 -16   0   6   48.53    1.48
  16   0  -8   28.79    0.74
 -16   0   8   28.18    1.07
   0 -16  -8   26.76    0.95
   0  16  -8   27.31    0.87
  16   0  -8   25.81    1.11
  16   0   8   27.68    1.01
  16   0  10   23.55    0.87
  16   0  10   24.36    0.78
 -16   0  10   23.72    0.97
   0 -16 -10   22.27    0.85
   0  16 -10   22.80    0.74
  16   0 -10   21.85    0.56
 -16   0 -10   23.36    1.12
   0 -16 -10   23.20    0.75
  16   0  12   57.35    1.69
  16   0  12   60.10    1.63
   0 -16 -12   58.45    1.72
   0  16 -12   57.48    1.61
   0  16 -12   57.07    1.56
 -16   0 -12   60.43    2.02
  16   0  14   14.47    0.64
 -16   0  14   13.56    0.78
   0 -16 -14   13.96    0.69
   0  16 -14   14.02    0.59
   0 -16 -14   15.06    0.60
 -16   0 -14   15.09    0.93
   0  16 -14   14.73    0.57
   0  16 -16    5.55    0.37
   0 -16 -16    5.89    0.47
 -16   0  16    6.31    0.58
 -16   0 -16    6.00    0.70
 -16   0  18   14.05    0.82
   0 -16 -18   12.70    0.69
   0  16 -18   14.06    0.60
   0 -16  18   12.79    0.56
 -16   0 -18   14.46    0.94
 -16   0  20   11.59    0.78
   0  16 -20   11.01    0.55
   0 -16 -20   11.21    0.67
   0 -16  20   10.41    0.51
  16   0  20   10.78    0.57
 -16   0 -20   11.77    0.85
   0  16 -22    2.30    0.33
   0 -16 -22    1.64    0.37
   0 -16  22    1.44    0.26
 -16   0  22    2.14    0.47
   1  16 -23    0.24    0.26
 -16   1  23    1.05    0.43
   1 -16  23    0.85    0.25
 -16  -1 -23    1.11    0.57
  -1 -16 -21    7.22    0.58
   1  16 -21    6.34    0.43
   1 -16  21    6.37    0.41
 -16   1  21    7.75    0.65
 -16  -1 -21    7.17    0.73
   1  16 -19    0.68    0.25
  -1 -16 -19    0.27    0.32
   1 -16  19    0.49    0.25
  16  -1  19    0.23    0.25
 -16   1  19    0.62    0.40
 -16  -1 -19    0.78    0.49
 -16   1  17    8.59    0.63
  -1 -16 -17    8.45    0.58
   1 -16  17    7.95    0.45
   1  16 -17    8.81    0.47
  16  -1  17    7.66    0.47
 -16  -1 -17    8.16    0.77
 -16   1  15   33.37    1.26
  -1 -16 -15   33.43    1.18
  16  -1  15   33.46    1.09
   1 -16  15   31.97    1.01
   1  16 -15   32.61    1.03
  16  -1  15   32.94    1.07
 -16  -1 -15   36.10    1.46
 -16   1  13   11.95    0.72
  16  -1  13   13.51    0.62
  16  -1  13   14.33    0.59
  -1 -16 -13   13.98    0.68
  16  -1  13   13.62    0.57
  16  -1  13   14.82    0.60
   1  16 -13   14.02    0.58
   1  16 -13   14.42    0.55
  16   1 -13   11.77    0.78
 -16  -1 -13   12.61    0.89
  16  -1  11    9.31    0.52
  16  -1  11    8.86    0.47
  16  -1  11   10.00    0.46
  -1 -16 -11    9.09    0.55
  16  -1  11    9.80    0.47
   1  16 -11    9.22    0.45
   1  16 -11    9.04    0.41
  16   1 -11    8.77    0.26
 -16  -1 -11   10.05    0.78
  16   1 -11    7.59    0.63
  -1 -16 -11    9.08    0.42
  16   1  -9   79.63    1.93
  16  -1   9   82.85    2.10
  16  -1   9   76.27    2.14
  -1 -16  -9   80.17    2.20
  16  -1   9   82.33    2.11
  -1 -16  -9   86.28    2.08
   1  16  -9   79.89    2.06
 -16  -1  -9   81.27    2.54
  16  -1   9   80.64    2.22
 -16   1   9   78.83    2.29
  16   1  -7   20.37    0.60
  16  -1   7   20.62    0.69
  -1 -16  -7   21.14    0.79
  -1  16   7   22.96    0.73
  16  -1   7   20.41    0.79
  16  -1   7   19.54    0.69
  16   1  -7   17.65    0.91
   1  16  -7   21.67    0.69
  16  -1   7   19.81    0.82
 -16   1   7   21.55    0.87
  16   1  -5    6.74    0.29
  16  -1   5    6.41    0.34
  -1 -16  -5    6.93    0.42
  -1  16   5    5.91    0.36
  16  -1   5    6.35    0.33
 -16  -1  -5    7.07    0.37
   1  16  -5    6.32    0.36
  -1  16   5    6.57    0.34
  16  -1   5    7.15    0.47
  16   1  -5    5.34    0.52
   1  16  -5    6.90    0.36
   1 -16   5    6.74    0.28
  16   1  -5    6.79    0.23
 -16   1   5    7.15    0.46
  16  -1   5    6.44    0.48
  16   1  -3   73.05    1.82
  16  -1   3   71.83    2.03
  -1 -16  -3   69.62    1.94
  16  -1   3   71.18    1.84
   1  16  -3   71.40    1.89
 -16  -1  -3   73.45    1.92
  -1  16   3   72.33    1.87
  16   1  -3   75.33    1.78
 -16   1   3   72.49    2.00
  16  -1   3   69.83    2.10
   1  16  -3   70.72    1.88
   1 -16   3   72.96    1.84
  16   1  -1   22.05    0.70
   1 -16   1   22.67    0.72
  16  -1   1   23.31    0.70
  16   1  -1   23.24    0.66
  16  -1   1   23.38    0.69
  -1  16   1   22.18    0.72
   1  16  -1   23.07    0.74
 -16   1   1   21.04    0.80
 -16  -1  -1   22.92    0.80
  16  -1   1   21.09    0.93
   1  16  -1   22.92    0.74
  -1  16   1   20.69    0.73
  -1 -16  -1   22.26    0.78
  16   1   1   24.35    0.73
   1  16   1   24.05    0.76
  16  -1  -1   22.92    0.69
   1 -16  -1   22.75    0.76
  16   1   1   23.19    0.70
  -1  16  -1   21.98    0.74
 -16   1  -1   23.86    0.81
   1  16   1   24.10    0.76
  16  -1  -1   23.19    0.68
  16   1   1   21.71    0.94
 -16  -1   1   22.12    0.83
  -1  16  -1   25.04    0.77
  -1 -16   1   24.11    0.78
  16   1   3   74.88    1.89
  16  -1  -3   71.13    1.80
   1  16   3   71.84    1.91
   1 -16  -3   68.60    1.92
  16   1   3   73.15    1.86
 -16   1  -3   74.65    1.94
  -1  16  -3   72.60    1.90
  16  -1  -3   65.97    2.15
  16  -1  -3   77.63    1.80
  -1  16  -3   72.51    1.90
  -1 -16   3   73.74    1.89
  16   1   3   74.44    2.12
 -16  -1   3   71.67    2.04
  16   1   5    6.65    0.35
 -16  -1   5    6.75    0.47
  16  -1  -5    6.82    0.27
   1 -16  -5    7.03    0.40
  -1  16  -5    6.24    0.35
  -1  16  -5    6.79    0.36
  -1 -16   5    5.94    0.32
  16   1   5    7.08    0.49
  16  -1  -5    6.97    0.25
  16   1   7   22.20    0.74
  16  -1  -7   21.47    0.59
 -16  -1   7   23.02    0.92
   1 -16  -7   21.84    0.79
  -1  16  -7   22.46    0.74
  -1  16  -7   21.69    0.72
  16   1   7   21.86    0.86
  16   1   9   83.43    2.12
 -16  -1   9   83.36    2.35
  -1  16  -9   81.13    2.08
   1 -16  -9   83.80    2.11
  16   1   9   83.86    2.24
  16   1  11    9.53    0.53
  16   1  11    8.82    0.45
 -16  -1  11    8.15    0.60
  -1  16 -11    9.52    0.44
   1 -16 -11    8.97    0.44
   1 -16 -13   14.45    0.60
  16   1  13   14.17    0.64
  -1  16 -13   14.54    0.58
  -1  16 -13   13.78    0.56
 -16   1 -13   14.58    0.93
  16   1  15   33.32    1.11
  -1  16 -15   33.06    1.05
 -16  -1  15   32.90    1.28
 -16   1 -15   31.91    1.40
 -16  -1  17    8.79    0.66
  -1  16 -17    7.84    0.45
  -1  16 -19    0.60    0.26
   1 -16 -19    0.51    0.32
 -16   1 -19    0.63    0.50
 -16  -1  19   -0.15    0.37
  -1  16 -21    7.37    0.47
   1 -16 -21    6.75    0.53
 -16  -1  21    6.55    0.64
 -16   1 -21    6.45    0.72
 -16  -2 -24    0.10    0.49
 -16   2  22    0.76    0.42
   2  16 -22    0.21    0.26
   2 -16  22    0.09    0.25
 -16  -2 -22   -0.05    0.50
 -16   2  20    1.66    0.42
  -2 -16 -20    1.47    0.40
   2  16 -20    2.15    0.31
 -16  -2 -20    0.89    0.54
  -2 -16 -18    3.90    0.44
 -16   2  18    4.00    0.49
   2  16 -18    3.94    0.35
   2 -16  18    4.20    0.35
  16  -2  18    4.87    0.39
 -16  -2 -18    3.64    0.58
  -2 -16 -16    0.06    0.31
 -16   2  16    0.60    0.35
   2  16 -16    0.10    0.19
   2 -16  16    0.58    0.24
  16  -2  16    0.42    0.23
 -16  -2 -16   -0.09    0.47
  16  -2  14    4.80    0.37
  -2 -16 -14    3.96    0.41
 -16   2  14    5.68    0.52
   2  16 -14    4.54    0.30
   2  16 -14    4.37    0.32
  16  -2  14    4.83    0.36
   2 -16  14    4.32    0.35
  -2 -16 -14    4.94    0.31
  16  -2  14    4.53    0.34
 -16  -2 -14    4.70    0.63
  16  -2  12   16.01    0.68
  -2 -16 -12   15.41    0.72
  16  -2  12   16.13    0.62
  16  -2  12   16.41    0.64
  16  -2  12   14.53    0.62
   2  16 -12   15.51    0.61
   2  16 -12   17.20    0.59
  16   2 -12   15.71    0.43
   2 -16  12   16.08    0.62
  16   2 -12   14.13    0.85
 -16  -2 -12   16.92    0.98
  -2 -16 -12   17.20    0.59
  -2 -16 -10   10.69    0.57
  16  -2  10   11.88    0.50
  -2  16  10   11.09    0.49
  16  -2  10   10.84    0.49
   2  16 -10   10.62    0.48
  16  -2  10   10.80    0.53
  -2 -16 -10   10.89    0.45
   2  16 -10   11.24    0.45
  16   2 -10   11.13    0.34
 -16  -2 -10   10.97    0.81
  16   2 -10    9.15    0.70
 -16   2   8    1.39    0.33
  -2 -16  -8    1.92    0.33
  16  -2   8    1.92    0.23
  -2  16   8    1.44    0.25
  16  -2   8    1.54    0.22
  16  -2   8    1.74    0.31
 -16  -2  -8    1.26    0.48
   2  16  -8    1.61    0.21
  16   2  -8    1.28    0.39
  16  -2   8    1.77    0.32
  -2 -16  -6    9.62    0.51
  -2  16   6    9.47    0.43
  16  -2   6    9.97    0.42
  16  -2   6    9.37    0.41
  -2  16   6    9.16    0.40
  16  -2   6    8.67    0.51
  16   2  -6    8.29    0.60
   2  16  -6    8.98    0.41
 -16   2   6    9.51    0.53
  16  -2   6    9.45    0.56
  16   2  -6    9.02    0.26
  -2  16   4    8.46    0.41
  -2 -16  -4    8.43    0.46
  16  -2   4    8.66    0.38
  16  -2   4    9.11    0.39
   2  16  -4    9.41    0.43
  -2  16   4    9.30    0.39
 -16  -2  -4    8.84    0.42
  16   2  -4    9.38    0.30
 -16   2   4    8.66    0.49
  16   2  -4    8.34    0.60
  16  -2   4    9.49    0.58
   2  16  -4    9.35    0.41
  16  -2   4    9.50    0.53
   2 -16   4    9.35    0.35
   2  16  -2    2.42    0.25
  -2 -16  -2    2.89    0.29
  16  -2   2    2.87    0.37
  16  -2   2    2.96    0.23
   2 -16   2    2.31    0.21
  16   2  -2    2.95    0.18
  16  -2   2    2.57    0.21
  -2  16   2    2.96    0.25
   2  16  -2    2.79    0.26
 -16   2   2    2.83    0.31
  16  -2   2    2.66    0.39
 -16  -2  -2    2.84    0.29
  16   2   0    0.75    0.18
 -16  -2   0    0.73    0.25
   2  16   0    0.81    0.20
  16  -2   0    0.37    0.15
   2 -16   0    0.75    0.17
  16  -2   0    0.62    0.31
  16   2   0    0.72    0.15
  -2  16   0    0.72    0.18
   2  16   0    0.86    0.19
 -16   2   0    1.15    0.25
  16  -2   0    0.62    0.15
  16  -2   0    1.15    0.36
  -2 -16   0    0.71    0.23
  16   2   2    2.79    0.24
  16  -2  -2    2.66    0.19
   2 -16  -2    2.55    0.24
   2  16   2    2.32    0.25
 -16  -2   2    2.18    0.32
  -2  16  -2    2.63    0.23
  16  -2  -2    2.42    0.19
  16  -2  -2    2.11    0.41
  -2  16  -2    2.58    0.24
  16   2   2    2.54    0.37
  -2 -16   2    2.24    0.27
  16   2   4    8.77    0.41
  16  -2  -4    8.87    0.32
 -16  -2   4    8.78    0.52
   2  16   4    8.56    0.41
  -2  16  -4    9.26    0.41
  16  -2  -4    7.93    0.59
  -2  16  -4    9.24    0.42
  -2 -16   4    9.05    0.43
  16   2   4    9.19    0.55
  16  -2  -4    9.16    0.32
  16   2   6    9.32    0.43
  16  -2  -6    8.93    0.30
  16  -2  -6    9.91    0.31
 -16  -2   6    9.93    0.58
  -2  16  -6    9.67    0.43
  -2 -16   6    9.57    0.41
  -2  16  -6    8.80    0.41
  16   2   6    9.08    0.54
  16   2   8    1.07    0.29
  16   2   8    1.51    0.25
  -2  16  -8    1.22    0.22
  -2  16  -8    1.63    0.23
   2 -16  -8    1.81    0.26
 -16  -2   8    1.40    0.38
  16   2  10   10.39    0.49
  -2  16 -10   10.37    0.47
 -16  -2  10   11.36    0.68
   2 -16 -10   11.38    0.51
  16   2  12   15.66    0.71
  -2  16 -12   15.96    0.61
   2 -16 -12   17.29    0.67
  -2  16 -14    4.74    0.36
  16   2  14    4.80    0.40
   2 -16 -14    4.70    0.37
  -2  16 -16    0.31    0.22
 -16   2 -16   -0.26    0.46
 -16  -2  16    0.21    0.39
  -2  16 -18    3.73    0.33
 -16   2 -18    4.58    0.63
 -16  -2  18    3.24    0.52
  -2  16 -20    1.75    0.31
 -16   2 -20    1.11    0.54
 -16  -2  20    1.68    0.48
  -2  16 -22    0.61    0.28
   2 -16 -22    0.77    0.33
 -16   2 -22   -0.09    0.48
 -16  -2  22    0.24    0.46
   3  16 -23    0.71    0.29
 -16  -3 -23    1.39    0.57
 -16   3  21    0.03    0.37
  -3 -16 -21   -0.10    0.37
   3  16 -21    0.22    0.25
   3 -16  21    0.04    0.25
 -16  -3 -21   -0.10    0.47
 -16   3  19    2.71    0.47
  -3 -16 -19    1.98    0.40
   3  16 -19    2.49    0.33
  16  -3  19    2.72    0.35
 -16  -3 -19    2.72    0.55
 -16   3  17    5.59    0.53
   3 -16  17    5.42    0.38
  -3 -16 -17    5.67    0.51
   3  16 -17    5.64    0.38
  16  -3  17    4.95    0.40
 -16  -3 -17    6.12    0.69
 -16   3  15    4.42    0.45
  -3 -16 -15    4.26    0.42
   3  16 -15    4.06    0.32
   3 -16  15    4.29    0.35
  16  -3  15    4.45    0.36
 -16  -3 -15    3.66    0.60
 -16   3  13    3.50    0.42
  -3 -16 -13    3.71    0.40
  16  -3  13    3.71    0.34
   3 -16  13    3.29    0.32
   3  16 -13    3.66    0.27
  -3  16  13    4.02    0.33
  16   3 -13    3.79    0.17
   3  16 -13    3.99    0.33
  16  -3  13    3.58    0.32
  16  -3  13    3.54    0.34
  16   3 -13    3.50    0.52
 -16  -3 -13    4.33    0.61
  -3 -16 -13    4.49    0.30
  16  -3  11    3.77    0.35
  16  -3  11    3.41    0.29
  -3  16  11    3.27    0.29
   3 -16  11    3.42    0.30
   3  16 -11    2.92    0.29
  16  -3  11    3.39    0.31
   3  16 -11    3.44    0.25
  16   3 -11    3.28    0.18
  -3 -16 -11    3.40    0.26
  16  -3  11    3.07    0.32
  16   3 -11    2.92    0.46
 -16  -3 -11    3.26    0.55
  -3 -16 -11    3.04    0.36
  16  -3   9    0.43    0.26
  -3 -16  -9    0.25    0.25
  16  -3   9    0.45    0.20
  -3  16   9    0.18    0.20
   3  16  -9    0.29    0.20
  16  -3   9    0.43    0.18
  -3  16   9    0.39    0.17
   3  16  -9    0.27    0.16
 -16  -3  -9    0.73    0.48
  16  -3   9    0.32    0.25
  16   3  -9    0.23    0.36
  -3 -16  -7   10.51    0.57
  -3  16   7   11.48    0.49
  16  -3   7   11.67    0.48
  16  -3   7   12.47    0.49
  -3  16   7   12.47    0.46
 -16  -3  -7   11.56    0.81
  16   3  -7   10.72    0.68
   3  16  -7   12.54    0.48
 -16   3   7   11.56    0.60
  16  -3   7   11.09    0.59
  -3 -16  -5    2.90    0.33
  -3  16   5    2.87    0.27
  16  -3   5    3.42    0.25
  16  -3   5    2.67    0.35
  -3  16   5    3.19    0.23
  16   3  -5    3.11    0.14
 -16  -3  -5    3.19    0.27
  16   3  -5    2.28    0.42
   3  16  -5    3.48    0.26
 -16   3   5    2.94    0.32
  16  -3   5    3.18    0.39
   3 -16   5    2.84    0.16
   3 -16   3   12.83    0.43
  16  -3   3   12.39    0.46
  16   3  -3   12.83    0.40
  -3  16   3   12.69    0.48
  16  -3   3   12.11    0.62
 -16   3   3   12.42    0.57
   3  16  -3   12.13    0.51
  16  -3   3   12.00    0.46
 -16  -3  -3   11.64    0.52
  16   3  -3   11.92    0.69
  16  -3   3   13.63    0.69
   3  16  -3   12.93    0.50
  -3  16   3   11.97    0.49
  -3 -16  -3   11.93    0.56
   3  16  -1    1.43    0.22
 -16  -3  -1    1.80    0.27
   3 -16   1    1.50    0.19
  16  -3   1    2.18    0.35
  -3  16   1    1.53    0.20
   3  16  -1    1.10    0.21
 -16   3   1    1.33    0.25
  16  -3   1    1.64    0.18
  16  -3   1    1.49    0.34
  -3 -16  -1    1.41    0.26
  16  -3  -1    1.27    0.35
  16  -3  -1    1.36    0.16
   3  16   1    1.45    0.21
  -3  16  -1    1.41    0.20
 -16  -3   1    1.42    0.29
  16  -3  -1    1.55    0.36
  16  -3  -1    1.45    0.18
  -3 -16   1    1.28    0.25
  16  -3  -3   12.74    0.67
  16  -3  -3   11.97    0.39
   3  16   3   11.91    0.49
 -16  -3   3   11.78    0.61
  -3  16  -3   11.55    0.47
  16  -3  -3   10.04    0.67
  -3  16  -3   11.83    0.48
  -3 -16   3   12.00    0.53
  16  -3  -3   12.77    0.41
  16   3   3   11.53    0.62
  16   3   3   11.65    0.47
  16   3   5    3.44    0.27
  16  -3  -5    3.24    0.19
  16  -3  -5    2.93    0.16
  -3  16  -5    2.79    0.25
  16  -3  -5    2.69    0.42
  -3  16  -5    2.85    0.25
 -16  -3   5    2.89    0.36
  16   3   5    3.73    0.39
  16   3   7   11.91    0.51
  16  -3  -7   11.28    0.32
  -3  16  -7   11.31    0.49
   3 -16  -7   12.10    0.52
  -3  16  -7   11.99    0.49
 -16  -3   7   11.39    0.64
  16   3   7   11.41    0.60
  16   3   9    0.59    0.22
  16   3   9   -0.04    0.28
 -16  -3   9    0.67    0.34
  -3  16  -9    0.45    0.19
  -3  16  -9    0.42    0.18
   3 -16  -9    0.40    0.22
  16   3  11    3.67    0.31
   3 -16 -11    3.75    0.34
 -16  -3  11    3.42    0.45
  16   3  11    3.53    0.38
  -3  16 -11    2.97    0.27
  -3  16 -13    3.86    0.30
   3 -16 -13    4.08    0.37
  -3  16 -15    4.37    0.34
   3 -16 -15    3.96    0.37
 -16  -3  17    5.80    0.59
  -3  16 -17    6.00    0.39
 -16  -3  19    3.78    0.54
  -3  16 -19    2.69    0.34
 -16   3 -19    3.18    0.56
  -3  16 -21    0.12    0.25
 -16   3 -21    0.48    0.45
 -16  -3  21   -0.04    0.42
   4 -16  24    0.46    0.28
   4 -16  22    4.40    0.40
   4  16 -22    4.68    0.40
 -16  -4 -22    6.10    0.73
 -16   4  22    4.77    0.52
  -4 -16 -20    1.23    0.39
   4 -16  20    1.56    0.32
   4  16 -20    2.27    0.31
 -16  -4 -20    1.79    0.58
 -16   4  20    1.44    0.42
   4 -16  18    6.68    0.43
  -4 -16 -18    7.19    0.56
   4  16 -18    7.10    0.42
  16  -4  18    6.93    0.48
 -16   4  18    7.95    0.60
 -16  -4 -18    7.38    0.73
  -4 -16 -16    0.79    0.34
   4 -16  16    0.68    0.25
   4  16 -16    0.99    0.26
  -4  16  16    0.75    0.17
 -16  -4 -16    0.55    0.46
 -16   4  16    0.55    0.34
  16  -4  14    4.46    0.37
  -4 -16 -14    5.14    0.48
   4 -16  14    5.38    0.39
  16  -4  14    5.33    0.38
   4  16 -14    4.94    0.30
   4  16 -14    5.35    0.36
  16   4 -14    5.31    0.22
  16  -4  14    4.82    0.37
  -4  16  14    5.43    0.29
  16   4 -14    3.89    0.56
 -16  -4 -14    6.35    0.67
 -16   4  14    5.24    0.47
  -4 -16 -12   12.35    0.67
  16  -4  12   12.67    0.58
   4 -16  12   12.72    0.56
  -4  16  12   13.31    0.54
  16  -4  12   12.93    0.54
   4  16 -12   13.46    0.55
   4  16 -12   12.63    0.49
  16  -4  12   13.47    0.57
  16   4 -12   12.90    0.41
  -4  16  12   13.01    0.46
  16  -4  12   12.45    0.57
  16   4 -12   11.44    0.74
 -16  -4 -12   12.30    0.84
 -16   4  12   13.01    0.68
  -4 -16 -10    8.65    0.54
  -4  16  10    9.72    0.46
  16  -4  10   10.03    0.46
   4 -16  10    9.72    0.47
  -4 -16 -10   10.25    0.41
   4  16 -10    9.90    0.46
  16  -4  10    9.10    0.45
  -4  16  10   10.08    0.40
   4  16 -10    9.80    0.42
  16   4 -10    9.62    0.34
 -16  -4 -10    9.62    0.77
  16   4 -10    9.65    0.68
  16  -4  10    9.63    0.52
  -4 -16  -8   17.27    0.76
  -4  16   8   17.65    0.64
  16  -4   8   18.17    0.63
   4  16  -8   17.04    0.64
  16  -4   8   17.14    0.63
  -4  16   8   17.61    0.58
 -16  -4  -8   17.51    0.99
   4  16  -8   17.60    0.60
  16   4  -8   16.46    0.86
  16  -4   8   17.57    0.73
  16  -4   8   17.82    0.75
  -4 -16  -6    2.68    0.35
  -4  16   6    2.99    0.27
  16  -4   6    2.55    0.24
  -4  16   6    2.90    0.23
  16  -4   6    2.17    0.33
  16  -4   6    2.94    0.26
 -16  -4  -6    2.89    0.52
 -16  -4  -6    2.62    0.24
 -16   4   6    2.35    0.31
  16   4  -6    2.88    0.43
   4  16  -6    3.10    0.25
  16  -4   6    2.41    0.34
  -4 -16  -4    0.69    0.26
  -4  16   4    0.70    0.20
   4 -16   4    0.59    0.12
  16  -4   4    0.74    0.18
  16   4  -4    0.65    0.10
  -4  16   4    0.53    0.16
  16  -4   4    0.55    0.16
 -16   4   4    0.67    0.23
  16  -4   4    0.77    0.30
  16   4  -4    0.88    0.35
  16  -4   4    0.11    0.28
 -16  -4  -4    0.65    0.21
   4  16  -4    0.62    0.19
  16  -4   2   11.96    0.44
   4 -16   2   12.01    0.43
  16  -4   2   11.56    0.61
 -16   4   2   12.11    0.56
  -4  16   2   12.44    0.46
   4  16  -2   11.16    0.49
  16  -4   2   13.03    0.47
  16  -4   2   11.66    0.67
  16   4  -2   12.92    0.70
  -4  16   2   12.62    0.50
  -4 -16  -2   11.75    0.58
 -16  -4  -2   12.85    0.55
   4  16  -2   12.50    0.49
   4  16   0    3.62    0.28
  16  -4   0    3.50    0.22
  -4  16   0    3.76    0.26
 -16  -4   0    3.94    0.37
  16  -4   0    3.41    0.23
  16  -4   0    3.46    0.39
  16   4   0    2.96    0.39
  -4 -16   0    3.42    0.33
  16  -4  -2   12.18    0.41
   4  16   2   12.62    0.50
  -4  16  -2   12.28    0.48
 -16  -4   2   11.58    0.61
  16  -4  -2   12.61    0.71
  -4 -16   2   12.56    0.57
  16  -4  -2   12.10    0.44
  16  -4  -2   11.54    0.65
  16  -4  -4    0.75    0.14
  16  -4  -4    0.86    0.12
  -4  16  -4    0.74    0.19
  16  -4  -4    0.67    0.34
  -4  16  -4    0.77    0.20
  -4 -16   4    0.89    0.26
  16  -4  -4    1.05    0.34
  16   4   4    1.03    0.32
 -16  -4   4    1.20    0.34
  16   4   6    2.97    0.28
  16   4   6    2.49    0.35
 -16  -4   6    2.83    0.39
  16  -4  -6    2.62    0.13
  -4  16  -6    2.91    0.25
  -4  16  -6    3.06    0.26
   4 -16  -6    3.18    0.31
  16   4   8   18.24    0.67
  16   4   8   17.56    0.75
  -4  16  -8   17.96    0.65
  -4  16  -8   17.10    0.63
   4 -16  -8   17.35    0.69
 -16  -4   8   18.09    0.84
  16   4  10   10.57    0.49
  16   4  10    9.53    0.54
  -4  16 -10    9.61    0.45
  -4  16 -10    9.02    0.44
 -16  -4  10    9.49    0.62
   4 -16 -10   10.25    0.50
   4 -16 -12   13.18    0.61
  16   4  12   12.84    0.63
  -4  16 -12   12.39    0.54
  -4  16 -12   12.33    0.52
 -16  -4  12   14.62    0.80
   4 -16 -14    5.38    0.42
  -4  16 -16    0.58    0.24
 -16  -4  16    1.11    0.43
  -4  16 -18    7.44    0.45
 -16  -4  18    6.33    0.65
  -4  16 -20    1.55    0.31
 -16  -4  20    0.97    0.47
   5 -16  23    5.80    0.44
   5  16 -23    5.38    0.41
   5 -16  21    0.48    0.28
   5  16 -21    0.64    0.26
 -16  -5 -21    0.60    0.48
 -16   5  21    0.68    0.36
  -5 -16 -19    2.63    0.45
   5 -16  19    2.10    0.35
   5  16 -19    1.90    0.28
 -16  -5 -19    1.80    0.58
 -16   5  19    2.56    0.43
  -5 -16 -17   17.99    0.88
   5  16 -17   15.79    0.65
  16  -5  17   14.72    0.67
 -16   5  17   15.50    0.81
 -16  -5 -17   16.83    1.04
  -5 -16 -15   17.40    0.85
   5 -16  15   18.38    0.73
  16  -5  15   20.61    0.73
  16   5 -15   18.64    0.54
   5  16 -15   19.16    0.71
  16  -5  15   18.74    0.73
  -5  16  15   17.92    0.58
 -16   5  15   17.56    0.84
 -16  -5 -15   18.74    1.05
  -5 -16 -13   16.60    0.79
  16  -5  13   15.58    0.65
   5 -16  13   16.64    0.67
  -5  16  13   15.87    0.63
   5  16 -13   15.78    0.56
   5  16 -13   16.57    0.63
  16  -5  13   14.55    0.65
  16   5 -13   16.31    0.49
  16  -5  13   16.08    0.66
  -5  16  13   15.97    0.53
 -16   5  13   16.22    0.76
 -16  -5 -13   14.41    0.93
  -5 -16 -11   10.47    0.64
  -5  16  11   11.01    0.50
   5 -16  11   11.48    0.53
  16  -5  11   11.22    0.50
   5  16 -11   11.51    0.50
  16  -5  11   11.04    0.56
  -5 -16 -11   11.66    0.43
  16  -5  11   11.37    0.52
   5  16 -11   11.28    0.45
  -5  16  11   11.79    0.43
  16   5 -11   10.96    0.39
 -16   5  11   11.27    0.62
 -16  -5 -11   12.41    0.86
  16   5 -11   10.31    0.70
  16  -5  11   12.02    0.56
  -5  16   9   13.93    0.56
  16  -5   9   14.06    0.56
   5 -16   9   14.84    0.59
   5  16  -9   13.48    0.56
  -5  16   9   14.74    0.50
  16  -5   9   13.50    0.63
  16  -5   9   14.22    0.58
   5  16  -9   14.65    0.52
 -16  -5  -9   15.01    0.92
  16   5  -9   13.62    0.77
  16  -5   9   15.24    0.67
  -5 -16  -9   14.09    0.71
  16  -5   7   64.42    1.71
  -5  16   7   63.81    1.66
 -16  -5  -7   66.60    1.68
   5  16  -7   66.14    1.75
 -16   5   7   62.83    1.85
  16  -5   7   65.72    1.74
  16  -5   7   63.98    1.85
 -16  -5  -7   66.33    2.20
  16   5  -7   61.44    1.98
   5  16  -7   65.18    1.70
  16  -5   7   63.30    1.88
  -5 -16  -7   67.43    1.91
  -5  16   7   65.47    1.74
   5 -16   5    6.22    0.24
  16  -5   5    6.25    0.33
 -16   5   5    6.82    0.45
  -5  16   5    7.12    0.32
  16  -5   5    7.51    0.37
 -16  -5  -5    6.59    0.65
  16  -5   5    7.42    0.49
 -16  -5  -5    7.64    0.38
  16   5  -5    7.25    0.56
  16  -5   5    7.62    0.52
   5  16  -5    7.00    0.35
  -5  16   5    7.37    0.38
  -5 -16  -5    6.63    0.47
   5  16  -3    0.71    0.18
  16  -5   3    0.61    0.16
 -16  -5  -3    0.47    0.23
  -5  16   3    0.49    0.16
 -16   5   3    0.48    0.24
  16  -5   3    0.30    0.28
  16  -5   3    0.72    0.18
  16  -5   3    0.20    0.28
  16   5  -3    0.48    0.32
  -5  16   3    0.36    0.18
  -5 -16  -3    0.44    0.27
  16  -5   1    9.45    0.56
   5  16  -1    9.72    0.43
 -16  -5  -1    8.99    0.51
  16  -5   1    9.61    0.37
  -5  16   1    9.63    0.40
  16  -5   1   10.02    0.64
  16  -5   1   10.19    0.41
  -5  16   1   10.20    0.44
  16   5  -1    9.26    0.59
  -5 -16  -1   10.08    0.55
   5  16   1    9.17    0.42
  16  -5  -1    8.98    0.34
  -5  16  -1    9.52    0.41
  16  -5  -1   10.30    0.59
 -16  -5   1    9.01    0.53
  16  -5  -1    7.80    0.59
  -5 -16   1    9.08    0.52
  16  -5  -1   10.07    0.39
  16   5   1    8.89    0.56
  16  -5  -3    0.40    0.15
 -16  -5   3    0.67    0.28
  16  -5  -3    0.74    0.33
  16  -5  -3    0.52    0.11
  -5  16  -3    0.40    0.16
  16  -5  -3    0.57    0.36
  -5 -16   3    0.55    0.27
  16  -5  -5    7.71    0.31
  -5  16  -5    7.54    0.38
  16  -5  -5    7.05    0.54
  16  -5  -5    7.03    0.25
   5 -16  -5    6.98    0.42
  -5  16  -5    8.04    0.39
  -5 -16   5    7.27    0.47
 -16  -5   5    7.41    0.52
  16   5   7   60.88    1.82
  16  -5  -7   57.96    1.90
  -5  16  -7   65.94    1.70
  -5  16  -7   62.14    1.68
   5 -16  -7   62.27    1.74
 -16  -5   7   65.31    1.94
 -16  -5   9   13.95    0.77
  16   5   9   14.33    0.59
  -5  16  -9   14.80    0.57
  -5  16  -9   13.52    0.56
   5 -16  -9   15.43    0.63
  16   5  11   11.43    0.54
   5 -16 -11   12.69    0.58
 -16  -5  11   11.10    0.71
  16   5  11   11.66    0.59
  -5  16 -11   11.36    0.52
  -5  16 -11   11.45    0.50
 -16  -5  13   14.88    0.84
  -5  16 -13   16.07    0.64
   5 -16 -13   16.02    0.70
   5 -16 -15   18.55    0.79
  -5  16 -17   13.41    0.61
 -16  -5  17   14.06    0.87
  -5  16 -19    2.89    0.34
 -16  -5  19    1.91    0.53
  -5  16 -21    0.53    0.29
 -16  -5  21    0.38    0.44
   6 -16  22    2.00    0.35
   6  16 -22    1.89    0.28
 -16   6  22    2.03    0.42
 -16  -6 -22    1.23    0.57
  -6 -16 -20    5.16    0.58
   6  16 -20    5.03    0.38
 -16   6  20    5.81    0.52
 -16  -6 -20    5.23    0.69
   6 -16  20    5.01    0.42
   6 -16  18   29.82    1.03
   6  16 -18   30.36    0.99
  16  -6  18   30.14    1.07
 -16   6  18   31.58    1.18
 -16  -6 -18   29.99    1.43
  -6 -16 -18   30.70    1.24
  -6 -16 -16    1.97    0.40
   6 -16  16    2.12    0.31
   6  16 -16    2.27    0.27
  16  -6  16    2.40    0.32
 -16   6  16    2.69    0.41
 -16  -6 -16    1.95    0.57
   6 -16  14    6.96    0.45
  16  -6  14    7.54    0.45
   6  16 -14    9.18    0.39
   6  16 -14    8.29    0.44
  16   6 -14    8.11    0.32
  -6  16  14    8.01    0.33
  16  -6  14    8.90    0.49
 -16   6  14    8.55    0.56
  16   6 -14    6.40    0.59
 -16  -6 -14    8.16    0.77
  -6 -16 -14    8.37    0.61
  16  -6  12   67.76    1.88
  -6  16  12   68.96    1.83
   6 -16  12   69.16    1.87
  16  -6  12   64.25    1.88
   6  16 -12   67.73    1.84
   6  16 -12   66.90    1.75
  -6  16  12   68.15    1.72
  16   6 -12   70.60    1.71
 -16   6  12   70.57    2.02
  16  -6  12   66.44    1.86
  -6 -16 -12   67.22    1.70
 -16  -6 -12   68.50    2.29
  -6 -16 -12   68.16    2.07
  16  -6  10   18.78    0.75
  16  -6  10   17.92    0.66
   6  16 -10   19.12    0.69
  -6  16  10   19.36    0.59
 -16   6  10   15.98    0.76
  16  -6  10   18.14    0.69
   6  16 -10   19.01    0.62
  16   6 -10   18.97    0.58
 -16  -6 -10   17.84    1.02
  16   6 -10   17.58    0.89
  -6 -16 -10   18.74    0.84
  -6  16  10   19.08    0.67
   6 -16   8    6.16    0.40
  16  -6   8    6.27    0.35
  16  -6   8    7.37    0.48
 -16  -6  -8    6.30    0.31
  -6  16   8    6.19    0.31
   6  16  -8    6.36    0.37
  16  -6   8    7.06    0.38
   6  16  -8    7.47    0.35
 -16  -6  -8    5.92    0.65
  16   6  -8    6.25    0.56
  16  -6   8    5.90    0.44
  -6 -16  -8    6.74    0.51
  -6  16   8    6.07    0.38
  16  -6   6   49.73    1.33
  16   6  -6   50.61    1.17
 -16   6   6   52.02    1.49
  -6  16   6   48.28    1.29
  16  -6   6   50.97    1.50
   6  16  -6   52.49    1.39
  16  -6   6   49.42    1.36
 -16  -6  -6   47.88    1.34
  16   6  -6   48.29    1.60
   6  16  -6   51.04    1.33
  16  -6   6   51.11    1.54
  -6  16   6   50.42    1.37
  -6 -16  -6   50.53    1.56
  16  -6   4   15.24    0.52
  -6  16   4   15.31    0.52
   6  16  -4   14.14    0.57
  16  -6   4   14.73    0.69
  16  -6   4   15.21    0.56
  16  -6   4   14.58    0.73
  -6  16   4   15.08    0.57
  -6 -16  -4   13.48    0.68
   6  16  -4   14.57    0.54
 -16  -6  -4   15.44    0.61
   6  16  -2    6.45    0.34
  16  -6   2    7.43    0.32
 -16  -6  -2    6.96    0.44
  -6  16   2    7.12    0.34
  16  -6   2    7.15    0.50
  16  -6   2    6.95    0.55
  -6  16   2    7.30    0.37
  -6 -16  -2    7.17    0.50
  16   6  -2    7.24    0.51
   6  16   0   16.39    0.59
  16  -6   0   16.45    0.52
  -6  16   0   16.35    0.57
 -16  -6   0   15.09    0.69
  16  -6   0   15.47    0.80
  -6  16   0   16.16    0.60
  -6 -16   0   16.43    0.73
  16  -6   0   17.17    0.56
  16   6   0   14.63    0.73
  16  -6   0   16.53    0.75
  16  -6  -2    5.99    0.51
  -6  16  -2    6.59    0.34
  16  -6  -2    6.59    0.27
  -6  16  -2    6.65    0.35
  16  -6  -2    5.75    0.52
  -6 -16   2    7.16    0.49
 -16  -6   2    6.81    0.49
  16   6   2    6.49    0.48
  16  -6  -2    6.95    0.32
  16  -6  -4   14.11    0.48
  -6  16  -4   14.13    0.53
  16  -6  -4   13.96    0.42
   6 -16  -4   15.57    0.62
  16  -6  -4   12.21    0.73
  -6 -16   4   13.82    0.69
  16  -6  -4   14.23    0.72
 -16  -6   4   13.87    0.72
 -16  -6   6   46.92    1.57
  16  -6  -6   49.17    1.59
  -6  16  -6   50.38    1.36
  -6  16  -6   47.71    1.36
   6 -16  -6   47.72    1.41
  16   6   8    6.57    0.46
 -16  -6   8    6.83    0.55
  -6  16  -8    6.76    0.38
  -6  16  -8    6.50    0.37
   6 -16  -8    6.49    0.44
  16   6  10   18.99    0.78
  -6  16 -10   18.17    0.67
 -16  -6  10   17.41    0.88
  -6  16 -10   18.32    0.67
   6 -16 -10   18.97    0.76
  16   6  10   18.46    0.70
  -6  16 -12   67.80    1.84
 -16  -6  12   65.29    2.13
   6 -16 -12   68.22    1.94
  -6  16 -14    7.64    0.44
 -16  -6  14    7.28    0.65
   6 -16 -16    2.67    0.41
 -16  -6  18   32.83    1.38
  -6  16 -20    4.95    0.41
 -16  -6  20    5.08    0.60
   7  16 -23    3.30    0.34
   7 -16  21    0.77    0.29
   7  16 -21    0.93    0.24
 -16   7  21    0.36    0.32
 -16  -7 -21    0.83    0.55
  -7 -16 -19    0.50    0.39
   7 -16  19    0.48    0.30
   7  16 -19    1.04    0.25
 -16   7  19    0.35    0.33
 -16  -7 -19    0.85    0.50
   7  16 -17   18.20    0.71
 -16   7  17   17.46    0.85
  16  -7  17   17.51    0.75
 -16  -7 -17   18.16    1.10
  -7 -16 -17   19.50    0.97
   7 -16  17   18.42    0.75
   7 -16  15   12.27    0.58
   7  16 -15   11.41    0.53
  16   7 -15   11.47    0.42
 -16   7  15   12.27    0.67
  16  -7  15   11.08    0.56
 -16  -7 -15   11.63    0.87
  -7 -16 -15   12.34    0.75
  16  -7  13   10.19    0.54
   7 -16  13   11.87    0.56
  16  -7  13   12.60    0.55
   7  16 -13   12.13    0.46
   7  16 -13   12.05    0.53
  -7  16  13   10.83    0.40
 -16   7  13   12.27    0.66
  16   7 -13   12.19    0.43
  16  -7  13   11.61    0.56
 -16  -7 -13   11.76    0.86
  16   7 -13   12.24    0.73
  -7 -16 -13   10.50    0.69
  -7  16  13   12.54    0.53
  16  -7  11    6.60    0.44
   7 -16  11    6.06    0.41
  16  -7  11    6.08    0.39
  -7  16  11    6.58    0.29
 -16   7  11    7.14    0.49
   7  16 -11    6.81    0.39
   7  16 -11    7.14    0.34
  16   7 -11    6.79    0.32
  16  -7  11    6.78    0.41
  16   7 -11    7.43    0.61
 -16  -7 -11    6.74    0.68
  -7 -16 -11    6.99    0.55
  -7  16  11    6.58    0.39
  16  -7  11    6.93    0.43
  16  -7   9    9.41    0.52
   7 -16   9    8.88    0.47
  -7  16   9    8.95    0.36
   7  16  -9   10.07    0.47
  16  -7   9    9.95    0.47
   7  16  -9   10.11    0.41
 -16  -7  -9    9.22    0.76
  16   7  -9    7.97    0.61
  16  -7   9   10.62    0.55
  -7  16   9    9.90    0.45
  -7 -16  -9    9.79    0.63
  16  -7   7   31.78    1.02
   7 -16   7   28.80    0.91
  16  -7   7   32.67    0.88
  -7  16   7   32.30    0.81
   7  16  -7   32.99    0.91
  16  -7   7   31.95    0.90
 -16  -7  -7   32.96    0.84
   7  16  -7   33.69    0.85
  16   7  -7   32.93    1.15
  16  -7   7   33.79    1.05
  -7  16   7   32.38    0.89
  -7 -16  -7   32.97    1.12
 -16  -7  -5    0.67    0.22
  16  -7   5    0.70    0.20
  -7  16   5    0.94    0.17
   7  16  -5    0.83    0.22
  16  -7   5    1.26    0.30
  16  -7   5    0.70    0.22
  16  -7   5    0.74    0.33
  16   7  -5    0.82    0.34
  -7  16   5    0.77    0.21
  -7 -16  -5    1.08    0.30
   7  16  -5    1.06    0.20
   7  16  -3    1.50    0.22
  16  -7   3    1.61    0.20
  -7  16   3    1.71    0.19
 -16  -7  -3    1.10    0.47
 -16  -7  -3    1.56    0.28
  16  -7   3    1.80    0.37
  -7  16   3    1.73    0.23
  16  -7   3    1.59    0.20
  -7 -16  -3    1.56    0.35
  16   7  -3    1.96    0.38
  16  -7   3    2.09    0.36
   7  16  -1    6.10    0.34
  16  -7   1    6.48    0.50
  -7  16   1    6.38    0.32
  16  -7   1    6.60    0.30
 -16  -7  -1    6.22    0.45
  -7  16   1    5.84    0.36
  16  -7   1    6.07    0.51
  -7 -16  -1    5.74    0.49
  16  -7   1    6.76    0.34
  16   7  -1    6.16    0.49
  -7  16  -1    6.12    0.33
  16  -7  -1    6.13    0.28
   7 -16  -1    6.49    0.43
 -16  -7   1    5.90    0.46
  16  -7  -1    5.85    0.48
  -7  16  -1    5.77    0.35
  16  -7  -1    5.98    0.53
  -7 -16   1    6.75    0.50
  16   7   1    6.32    0.47
  16  -7  -1    6.30    0.32
  16   7   3    1.29    0.30
  16  -7  -3    1.31    0.19
  -7  16  -3    1.33    0.20
  16  -7  -3    1.10    0.13
   7 -16  -3    1.19    0.27
  -7  16  -3    1.21    0.22
  16  -7  -3    1.31    0.35
  -7 -16   3    1.02    0.33
 -16  -7   3    1.15    0.34
  16  -7  -3    1.28    0.34
 -16  -7   5    0.84    0.37
  -7  16  -5    0.95    0.21
  -7 -16   5    0.81    0.34
  16  -7  -5    1.07    0.36
   7 -16  -5    0.71    0.24
  -7  16  -7   31.88    0.96
  -7  16  -7   28.94    0.95
 -16  -7   7   30.91    1.21
   7 -16  -7   32.04    1.04
  -7  16  -9    9.68    0.45
  -7  16  -9    9.22    0.44
 -16  -7   9    9.15    0.65
  16  -7  -9    9.06    0.62
  -7  16 -11    6.14    0.38
   7 -16 -11    6.41    0.47
 -16  -7  11    6.91    0.61
  -7  16 -13   11.08    0.52
 -16  -7  13   10.67    0.76
   7 -16 -15   11.72    0.66
  -7  16 -15   11.78    0.56
 -16  -7  19    0.73    0.45
   8  16 -22    1.41    0.29
   8 -16  20    0.81    0.32
   8  16 -20    0.27    0.21
 -16   8  20    0.56    0.35
 -16  -8 -20    0.78    0.51
   8 -16  18    2.27    0.35
   8  16 -18    2.09    0.29
 -16   8  18    1.96    0.42
  16  -8  18    1.43    0.31
 -16  -8 -18    1.83    0.58
  -8 -16 -18    2.00    0.46
   8 -16  16    2.54    0.34
   8  16 -16    2.16    0.28
 -16   8  16    2.34    0.39
  16  -8  16    2.05    0.33
 -16  -8 -16    2.69    0.58
  -8 -16 -16    2.09    0.46
   8 -16  14   -0.27    0.25
  16  -8  14   -0.06    0.24
   8  16 -14   -0.03    0.22
  16   8 -14    0.11    0.16
 -16   8  14    0.08    0.29
  16  -8  14   -0.19    0.23
 -16  -8 -14    0.53    0.46
  -8 -16 -14   -0.35    0.37
   8 -16  12    6.55    0.42
  -8  16  12    7.07    0.29
 -16   8  12    7.30    0.52
   8  16 -12    6.81    0.40
   8  16 -12    7.18    0.33
  16   8 -12    6.85    0.33
  16  -8  12    7.58    0.44
 -16  -8 -12    7.47    0.71
  16   8 -12    6.70    0.59
  -8 -16 -12    7.89    0.61
  -8  16  12    6.34    0.37
  16  -8  10    0.58    0.24
   8 -16  10    1.01    0.25
  16  -8  10    0.73    0.28
  16  -8  10    0.70    0.23
  -8  16  10    0.90    0.15
   8  16 -10    0.60    0.22
  16   8 -10    0.51    0.17
   8  16 -10    0.79    0.16
  16  -8  10    0.64    0.23
 -16  -8 -10    0.59    0.46
  -8 -16 -10    0.78    0.40
  -8  16  10    0.45    0.21
  16  -8   8    5.58    0.42
   8 -16   8    4.42    0.36
  16  -8   8    5.43    0.33
  -8  16   8    5.35    0.27
   8  16  -8    5.69    0.36
 -16  -8  -8    5.68    0.29
  16  -8   8    5.92    0.36
   8  16  -8    5.56    0.30
  -8  16   8    5.38    0.35
  16   8  -8    5.47    0.53
  16  -8   8    5.77    0.44
  -8 -16  -8    5.47    0.51
 -16  -8  -6    0.46    0.20
  16   8  -6    0.29    0.09
  -8  16   6    0.29    0.15
  16  -8   6    0.22    0.18
  16  -8   6    0.05    0.27
   8  16  -6    0.07    0.21
  16  -8   6    0.37    0.20
  16  -8   6    0.35    0.29
  -8  16   6    0.08    0.20
  16   8  -6    0.20    0.31
  -8 -16  -6    0.03    0.30
   8  16  -6    0.32    0.18
  -8  16   4    4.91    0.27
 -16  -8  -4    5.18    0.37
  16  -8   4    4.59    0.27
 -16  -8  -4    3.25    0.58
  16  -8   4    4.73    0.42
  -8  16   4    4.32    0.31
  16  -8   4    5.03    0.32
  16  -8   4    4.64    0.45
  -8 -16  -4    4.31    0.47
  16   8  -4    5.31    0.49
   8  16  -4    4.26    0.29
   8  16  -2   14.53    0.55
  -8  16   2   14.96    0.53
  16  -8   2   14.48    0.51
  16  -8   2   15.05    0.73
  -8  16   2   14.57    0.57
 -16  -8  -2   15.15    0.66
  16  -8   2   14.72    0.76
  -8 -16  -2   15.42    0.77
  16  -8   2   15.71    0.56
  16   8  -2   15.41    0.74
  16  -8   0    2.28    0.24
  16  -8   0    1.91    0.36
  -8  16   0    2.11    0.22
   8  16   0    2.13    0.23
  16  -8   0    2.29    0.19
   8 -16   0    2.72    0.32
 -16  -8   0    2.01    0.36
  16  -8   0    2.36    0.38
  -8  16   0    2.43    0.26
  -8 -16   0    2.32    0.41
  16   8   0    2.50    0.36
 -16  -8   2   14.60    0.73
  -8  16  -2   15.01    0.55
  16  -8  -2   14.90    0.47
   8 -16  -2   15.66    0.65
  -8  16  -2   14.81    0.57
  16  -8  -2   12.58    0.73
  -8 -16   2   15.91    0.78
  16  -8  -2   14.31    0.73
  16   8   2   15.54    0.71
  -8  16  -4    4.59    0.30
  16  -8  -4    4.97    0.28
  -8  16  -4    4.55    0.32
  16  -8  -4    4.54    0.21
 -16  -8   4    4.96    0.48
  -8 -16   4    5.13    0.49
   8 -16  -4    4.52    0.38
  16  -8  -4    4.40    0.45
 -16  -8   6    0.61    0.34
  16   8   6    0.28    0.26
  -8  16  -6    0.13    0.18
   8 -16  -6   -0.02    0.26
  -8  16  -8    4.75    0.32
   8 -16  -8    4.87    0.40
 -16  -8   8    4.31    0.50
  16  -8  -8    4.38    0.50
  -8  16 -10    0.47    0.22
 -16  -8  10    0.92    0.41
  -8  16 -12    6.73    0.41
 -16  -8  12    6.74    0.63
   8 -16 -12    7.28    0.50
  -8  16 -14   -0.07    0.20
 -16  -8  14   -0.16    0.43
   8 -16 -14    0.29    0.34
  -8  16 -16    2.16    0.33
 -16  -8  20    0.14    0.42
   9  16 -21    2.17    0.30
   9 -16  19    3.08    0.38
   9  16 -19    3.00    0.31
 -16  -9 -19    2.74    0.63
  -9 -16 -19    2.55    0.50
   9 -16  17    1.55    0.33
   9  16 -17    2.05    0.28
  16  -9  17    2.03    0.32
 -16  -9 -17    1.68    0.55
  -9 -16 -17    0.94    0.43
   9 -16  15    3.95    0.38
   9  16 -15    4.52    0.35
  16   9 -15    4.35    0.28
  16  -9  15    4.21    0.37
 -16  -9 -15    3.60    0.61
  -9 -16 -15    4.26    0.54
  16  -9  13    0.77    0.27
   9 -16  13    0.35    0.24
   9  16 -13    0.60    0.21
  16   9 -13    0.74    0.19
  16  -9  13    0.80    0.25
 -16  -9 -13    0.29    0.44
  16   9 -13    0.92    0.38
  -9 -16 -13    1.14    0.39
  16  -9  11    1.08    0.24
  16  -9  11    0.97    0.26
   9 -16  11    0.83    0.26
  -9  16  11    0.89    0.14
   9  16 -11    0.49    0.21
  16   9 -11    0.85    0.18
   9  16 -11    1.05    0.17
 -16  -9 -11    1.42    0.47
  16  -9  11    1.29    0.25
  16   9 -11    0.95    0.35
  -9  16  11    1.03    0.23
  -9 -16 -11    0.56    0.36
   9  16  -9    9.81    0.43
  -9  16   9   10.32    0.38
  16  -9   9    9.29    0.46
 -16  -9  -9   10.97    0.38
   9  16  -9   10.62    0.50
   9  16  -9   10.17    0.41
  16  -9   9   10.28    0.50
  -9  16   9   10.40    0.46
  16   9  -9    9.50    0.62
  -9 -16  -9   10.46    0.68
  16  -9   9   11.18    0.55
  16  -9   9    9.68    0.54
   9  16  -7    5.05    0.31
  -9  16   7    5.64    0.27
  16  -9   7    5.66    0.34
  16  -9   7    4.80    0.41
   9  16  -7    6.46    0.37
  16  -9   7    5.07    0.35
  -9  16   7    5.34    0.34
   9  16  -7    5.10    0.30
   9 -16   7    4.79    0.24
  16  -9   7    6.36    0.46
 -16  -9  -7    5.61    0.33
  16   9  -7    4.60    0.45
  -9 -16  -7    4.47    0.50
  16   9  -7    4.80    0.18
  16  -9   5   15.56    0.72
  -9  16   5   15.63    0.53
   9 -16   5   15.07    0.62
 -16  -9  -5   15.92    0.63
  16  -9   5   15.52    0.56
   9  16  -5   15.41    0.60
   9 -16   5   15.46    0.63
 -16  -9  -5   16.89    0.98
  -9  16   5   15.87    0.60
  16  -9   5   16.15    0.77
  -9 -16  -5   14.58    0.80
  16  -9   5   14.76    0.59
   9  16  -5   16.63    0.56
   9  16  -3   40.29    1.12
  16  -9   3   40.45    1.34
  -9  16   3   39.86    1.10
  16  -9   3   40.21    1.10
 -16  -9  -3   39.43    1.60
  -9  16   3   38.95    1.16
  16  -9   3   38.44    1.37
 -16  -9  -3   39.69    1.24
  -9 -16  -3   39.84    1.42
  16  -9   3   40.27    1.16
  16   9  -3   39.09    1.34
 -16  -9  -1    6.07    0.46
   9  16  -1    5.27    0.32
  -9  16   1    5.88    0.32
   9 -16   1    6.45    0.44
  16  -9   1    6.28    0.29
  16  -9   1    6.94    0.51
  -9  16   1    4.85    0.34
  16  -9   1    5.52    0.52
  -9 -16  -1    6.63    0.56
  16  -9   1    5.80    0.34
  16   9   1    5.92    0.48
  16  -9  -1    6.42    0.34
  -9  16  -1    6.80    0.35
 -16  -9   1    6.70    0.52
  16  -9  -1    5.79    0.28
   9 -16  -1    6.23    0.44
  -9  16  -1    6.22    0.36
  16  -9  -1    6.18    0.49
  16  -9  -1    5.54    0.51
  -9 -16   1    6.32    0.57
  16   9   3   38.52    1.29
  -9  16  -3   39.46    1.13
  16  -9  -3   40.53    1.11
  -9  16  -3   38.58    1.14
  16  -9  -3   38.89    1.01
   9 -16  -3   38.93    1.24
  -9 -16   3   38.62    1.40
 -16  -9   3   36.28    1.32
  16   9   5   13.55    0.67
  -9  16  -5   14.67    0.56
  -9  16  -5   14.52    0.58
   9 -16  -5   15.07    0.67
 -16  -9   5   13.90    0.75
   9 -16  -7    5.16    0.43
  -9  16  -7    5.39    0.34
 -16  -9   7    5.12    0.52
   9 -16  -9    9.03    0.56
 -16  -9   9    9.30    0.67
  -9  16  -9   10.07    0.47
  -9  16 -11    0.88    0.23
 -16  -9  11    1.13    0.42
  -9  16 -13    0.83    0.24
 -16  -9  13    0.32    0.43
  -9  16 -15    4.10    0.36
 -16  -9  15    4.69    0.59
  -9  16 -17    1.46    0.31
 -16  -9  19    2.49    0.57
  10  16 -20    2.79    0.31
  10  16 -18    3.85    0.34
 -16 -10 -18    4.36    0.67
 -10 -16 -18    3.25    0.58
  10  16 -16    6.36    0.40
  16 -10  16    7.05    0.46
 -16 -10 -16    6.35    0.72
 -10 -16 -16    5.84    0.62
  10 -16  16    6.45    0.46
  10 -16  14    2.56    0.33
  10  16 -14    2.40    0.29
  16  10 -14    2.69    0.24
 -16 -10 -14    2.35    0.59
  16 -10  14    2.53    0.33
 -10 -16 -14    2.25    0.50
  16 -10  12    1.55    0.28
  10  16 -12    1.48    0.24
  16  10 -12    1.41    0.21
  16 -10  12    1.70    0.27
  16  10 -12    2.38    0.41
 -10  16  12    1.50    0.22
 -10 -16 -12    1.72    0.42
  16 -10  10    3.70    0.38
 -10  16  10    3.94    0.21
  10  16 -10    4.47    0.34
  16  10 -10    4.18    0.29
  10  16 -10    4.09    0.25
  16 -10  10    4.75    0.35
 -10  16  10    3.72    0.31
  16  10 -10    3.96    0.45
 -10 -16 -10    4.13    0.52
  10  16  -8    4.87    0.32
  16 -10   8    4.94    0.43
 -10  16   8    4.78    0.25
 -16  10   8    5.24    0.28
  16 -10   8    5.12    0.33
  10  16  -8    5.44    0.37
 -10  16   8    5.33    0.34
 -16 -10  -8    4.17    0.60
  10  16  -8    5.28    0.29
  16 -10   8    5.03    0.36
 -16 -10  -8    4.96    0.29
 -10 -16  -8    6.03    0.58
  16  10  -8    4.92    0.49
  16 -10   8    4.85    0.40
  16 -10   6   19.91    0.84
  16  10  -6   19.39    0.56
  10  16  -6   19.09    0.70
  10 -16   6   19.80    0.74
 -10  16   6   20.24    0.63
 -16 -10  -6   21.39    0.73
  16 -10   6   20.49    0.69
  10  16  -6   21.10    0.73
 -16 -10  -6   20.20    1.10
 -10  16   6   18.90    0.70
  10 -16   6   20.87    0.69
  16 -10   6   20.60    0.85
 -10 -16  -6   20.92    0.99
  16 -10   6   21.15    0.74
  16  10  -6   19.02    0.87
  10  16  -6   20.07    0.65
  10  16  -4    5.90    0.32
  16 -10   4    6.98    0.51
 -10  16   4    6.25    0.31
  10 -16   4    5.70    0.38
  16 -10   4    5.75    0.32
  10 -16   4    6.85    0.46
 -10  16   4    6.01    0.36
 -16 -10  -4    7.79    0.72
 -16 -10  -4    6.18    0.43
  16 -10   4    6.30    0.53
 -10 -16  -4    6.22    0.58
  16 -10   4    5.77    0.37
  16  10  -4    5.82    0.49
 -16 -10  -2   18.62    0.77
  10  16  -2   18.16    0.62
 -10  16   2   17.99    0.60
  16 -10   2   18.08    0.81
 -10  16   2   18.35    0.66
 -16 -10  -2   16.37    1.01
  16 -10   2   17.57    0.85
 -10 -16  -2   17.52    0.90
  16  10  -2   17.11    0.80
  16 -10   2   18.99    0.67
  16 -10   0   24.24    0.78
 -10  16   0   22.85    0.73
  16 -10   0   21.53    0.92
  16 -10   0   24.45    0.70
 -16 -10   0   22.88    0.93
 -10  16   0   22.08    0.77
  10 -16   0   24.24    0.88
  16 -10   0   20.54    0.96
 -10 -16   0   23.79    1.05
  16  10   0   23.05    0.93
  16  10   2   18.69    0.79
 -10  16  -2   17.35    0.63
  16 -10  -2   17.97    0.62
 -10  16  -2   17.50    0.66
  16 -10  -2   18.05    0.55
  16 -10  -2   17.52    0.81
 -10 -16   2   18.75    0.93
  10 -16  -2   18.59    0.75
 -16 -10   2   18.33    0.84
  16  10   4    7.05    0.49
 -10  16  -4    6.19    0.36
 -10  16  -4    6.04    0.37
  10 -16  -4    7.16    0.47
 -16 -10   4    6.21    0.55
 -10  16  -6   18.69    0.67
 -16 -10   6   19.25    0.91
  10 -16  -6   18.74    0.79
 -10  16  -8    4.55    0.34
 -16 -10   8    4.81    0.54
 -10  16 -10    3.55    0.31
 -16 -10  10    3.45    0.52
 -10  16 -12    1.24    0.26
 -16 -10  12    0.71    0.41
 -10  16 -14    2.43    0.31
 -16 -10  14    1.85    0.50
 -10  16 -16    6.23    0.45
 -16 -10  16    5.82    0.67
 -10  16 -18    3.22    0.37
  11  16 -19    3.45    0.33
  11 -16  17    0.74    0.29
  11  16 -17    0.47    0.23
 -16 -11 -17    0.11    0.49
  16 -11  17    0.41    0.29
 -11 -16 -17    0.82    0.50
  11 -16  15    0.19    0.27
  11  16 -15   -0.11    0.23
  16  11 -15    0.06    0.17
 -16 -11 -15    0.42    0.52
  16 -11  15    0.13    0.25
 -11 -16 -15    0.48    0.42
  11 -16  13    1.91    0.31
  11  16 -13    1.85    0.28
  16  11 -13    2.09    0.24
  16 -11  13    2.10    0.33
 -11 -16 -13    1.42    0.47
  11  16 -11    3.40    0.33
  16  11 -11    3.26    0.28
  16 -11  11    3.72    0.35
 -11 -16 -11    3.56    0.54
  16  11 -11    3.78    0.43
  11  16  -9    0.19    0.20
 -11  16   9    0.15    0.12
 -16  11   9    0.35    0.17
  11  16  -9    0.10    0.25
 -16 -11  -9    0.78    0.44
  11  16  -9    0.41    0.16
 -11  16   9    0.07    0.20
 -11 -16  -9   -0.12    0.38
  16 -11   9    0.11    0.24
  16  11  -9    0.17    0.32
  16 -11   9    0.06    0.25
 -11  16   7    2.44    0.20
  11  16  -7    2.04    0.25
  11 -16   7    1.86    0.29
 -16  11   7    2.31    0.21
  16 -11   7    2.71    0.27
 -16 -11  -7    2.41    0.26
  11  16  -7    2.80    0.29
 -16 -11  -7    3.26    0.60
 -11  16   7    1.88    0.25
 -11 -16  -7    2.27    0.46
  11  16  -7    2.53    0.22
  16  11  -7    2.84    0.39
  16 -11   7    2.20    0.28
  11  16  -5    8.21    0.44
 -11  16   5    8.23    0.35
  16  11  -5    8.75    0.32
  11 -16   5    8.73    0.47
 -16  11   5    8.37    0.38
  16 -11   5    7.99    0.39
 -11  16   5    7.64    0.41
  11 -16   5    9.04    0.49
 -16 -11  -5    8.84    0.49
 -16 -11  -5    8.29    0.76
  16 -11   5    9.00    0.57
 -11 -16  -5    9.40    0.69
  16 -11   5    8.22    0.44
  16  11  -5    8.13    0.56
  11  16  -5    8.16    0.37
  16  11  -3    4.86    0.45
 -11  16   3    5.51    0.29
  11  16  -3    4.96    0.36
  16 -11   3    4.70    0.29
  11  16  -3    4.93    0.31
 -11  16   3    5.17    0.34
  11 -16   3    4.81    0.44
 -16 -11  -3    5.96    0.68
  16 -11   3    5.24    0.50
 -11 -16  -3    3.81    0.51
 -16 -11  -3    4.64    0.43
  16 -11   3    4.97    0.33
  16  11  -1    4.20    0.42
 -11  16   1    3.86    0.27
  16 -11   1    2.95    0.29
  11  16  -1    3.28    0.28
  16 -11   1    3.78    0.24
 -11  16   1    3.59    0.31
  16 -11   1    4.60    0.48
 -11 -16  -1    4.81    0.58
 -16 -11  -1    3.41    0.40
  16  11   1    4.39    0.42
 -11  16  -1    4.02    0.27
  16 -11  -1    4.13    0.30
  16 -11  -1    3.83    0.23
 -11  16  -1    3.43    0.30
  16 -11  -1    3.47    0.44
 -16 -11   1    4.00    0.44
 -11 -16   1    4.07    0.53
 -11  16  -3    4.98    0.33
 -16 -11   3    5.83    0.51
 -11 -16   3    4.68    0.57
 -16  11  -3    4.56    0.33
 -11  16  -5    8.50    0.42
 -16 -11   5    8.09    0.63
 -16  11  -5    8.87    0.45
 -16  11  -7    2.27    0.29
 -11  16  -7    2.52    0.28
 -16 -11   7    2.39    0.43
 -11  16  -9    0.07    0.22
 -16  11  -9   -0.02    0.22
 -16 -11   9   -0.18    0.41
 -11  16 -11    3.03    0.33
 -16 -11  11    3.42    0.57
 -11  16 -13    1.84    0.29
 -16 -11  13    1.34    0.49
 -11  16 -15    0.02    0.26
 -16 -11  15    0.97    0.50
 -11  16 -17    0.39    0.28
 -16 -11  17    1.16    0.51
  12  16 -18    1.76    0.29
  12 -16  16    1.23    0.33
  12  16 -16    1.41    0.29
 -16 -12 -16    0.54    0.50
  16 -12  16    0.93    0.31
 -12 -16 -16    0.38    0.49
  12  16 -14    6.06    0.40
  16  12 -14    6.38    0.36
  16 -12  14    6.39    0.46
 -12 -16 -14    6.30    0.68
  12 -16  14    6.43    0.46
  16  12 -12    3.85    0.30
  12  16 -12    3.36    0.34
 -12 -16 -12    3.14    0.55
  16 -12  12    4.26    0.38
  12  16 -10    5.81    0.39
  16  12 -10    5.56    0.35
 -16 -12 -10    5.58    0.68
  16 -12  10    5.43    0.40
 -12 -16 -10    5.30    0.61
  16  12 -10    6.00    0.51
 -12  16   8    1.90    0.18
  12  16  -8    1.85    0.28
  12 -16   8    2.33    0.30
 -16 -12  -8    1.99    0.23
 -16  12   8    1.65    0.21
  12  16  -8    1.85    0.27
 -12  16   8    1.90    0.26
 -16 -12  -8    1.08    0.49
 -12 -16  -8    1.99    0.47
  16  12  -8    1.91    0.37
  16 -12   8    1.98    0.30
 -16 -12  -6    0.48    0.25
  16 -12   6    0.32    0.23
 -12  16   6    0.70    0.16
  12  16  -6    0.34    0.21
  12 -16   6    0.31    0.24
 -16  12   6    0.57    0.18
  16 -12   6    0.59    0.21
 -12  16   6    0.72    0.22
 -16 -12  -6    0.59    0.44
 -12 -16  -6    0.16    0.43
  16 -12   6    0.39    0.30
  12  16  -6    0.55    0.17
  16  12  -6    0.39    0.29
  16  12  -4    1.73    0.34
  16 -12   4    1.42    0.27
  12  16  -4    1.49    0.21
 -12  16   4    1.44    0.20
  12  16  -4    1.15    0.25
  12 -16   4    1.15    0.26
 -16  12   4    1.46    0.21
  16 -12   4    1.62    0.21
 -12  16   4    1.29    0.24
 -16 -12  -4    1.52    0.52
  12 -16   4    1.29    0.33
  16 -12   4    1.57    0.35
 -12 -16  -4    1.36    0.49
 -16 -12  -4    1.74    0.33
  16  12  -2    2.71    0.36
 -12  16   2    2.57    0.23
  16 -12   2    2.15    0.27
  12  16  -2    2.07    0.27
  12  16  -2    2.38    0.24
  16 -12   2    2.39    0.22
 -12  16   2    1.83    0.24
 -16 -12  -2    2.28    0.55
  16 -12   2    2.21    0.41
 -12 -16  -2    2.54    0.52
 -16 -12  -2    2.25    0.36
 -16  12   0    1.73    0.22
 -12  16   0    1.74    0.22
  16 -12   0    1.88    0.27
  16 -12   0    1.64    0.19
  16 -12   0    1.15    0.36
 -12 -16   0    1.89    0.48
 -16 -12   0    1.94    0.38
 -16  12  -2    2.23    0.25
 -12  16  -2    2.18    0.24
 -12 -16   2    2.04    0.54
 -16 -12   2    2.18    0.40
 -16  12  -4    1.77    0.26
 -12  16  -4    1.78    0.26
 -16 -12   4    1.69    0.43
 -16  12  -6    0.85    0.22
 -12  16  -6    0.45    0.20
 -16 -12   6    0.44    0.42
 -16  12  -8    1.59    0.27
 -12  16  -8    1.95    0.26
 -12  16 -10    5.70    0.41
 -16  12 -10    6.14    0.44
 -16  12 -12    3.38    0.37
 -16 -12  12    4.28    0.58
 -12  16 -12    4.24    0.37
 -12  16 -14    6.05    0.45
 -16 -12  14    6.34    0.71
 -12  16 -16    1.13    0.31
 -16 -12  16    1.16    0.54
  13  16 -17    3.25    0.34
  13  16 -15    4.69    0.37
  16  13 -15    4.78    0.33
 -13 -16 -15    4.89    0.66
  16 -13  15    5.22    0.43
  13  16 -13    1.34    0.27
  16  13 -13    1.28    0.25
 -16 -13 -13    1.86    0.58
 -13 -16 -13    1.63    0.51
  16 -13  13    1.30    0.31
  13 -16  11    0.97    0.29
  13  16 -11    0.93    0.27
  16  13 -11    1.46    0.27
 -16 -13 -11    2.43    0.59
 -13 -16 -11    2.18    0.56
  16 -13  11    1.17    0.31
  16 -13   9    3.29    0.36
  13 -16   9    2.78    0.34
  13  16  -9    3.59    0.34
  16  13  -9    3.28    0.29
 -16 -13  -9    3.75    0.62
 -13 -16  -9    2.65    0.56
  13  16  -7    6.41    0.42
  13 -16   7    6.28    0.42
 -16  13   7    6.18    0.35
 -16 -13  -7    6.10    0.38
  13  16  -7    7.34    0.42
 -16 -13  -7    5.42    0.69
 -13 -16  -7    7.06    0.68
  16 -13   7    6.95    0.44
  16 -13   5    4.39    0.37
  16  13  -5    2.97    0.38
  13  16  -5    3.69    0.26
 -13  16   5    3.48    0.24
  13  16  -5    2.85    0.34
 -16  13   5    3.72    0.29
  13 -16   5    3.89    0.35
  16 -13   5    4.02    0.30
 -16 -13  -5    3.97    0.66
 -13 -16  -5    3.40    0.59
 -16 -13  -5    3.52    0.37
  16 -13   5    3.84    0.44
 -13  16   3    1.96    0.23
  16 -13   3    1.63    0.28
  13  16  -3    1.39    0.28
  13  16  -3    1.32    0.20
 -16  13   3    1.95    0.26
  16 -13   3    1.45    0.21
 -16 -13  -3    2.00    0.57
 -13 -16  -3    1.38    0.52
  16 -13   3    1.25    0.35
 -16 -13  -3    1.69    0.34
 -16  13   1    1.18    0.21
 -13  16   1    0.71    0.19
  16 -13   1    1.13    0.24
 -16 -13  -1    1.39    0.56
  16 -13   1    1.18    0.38
 -13 -16  -1    2.01    0.53
 -16 -13  -1    0.72    0.35
 -16  13  -1    1.07    0.22
 -16 -13   1    0.68    0.35
 -13  16  -1    0.73    0.21
  16 -13  -1    0.74    0.36
 -13 -16   1    1.51    0.48
 -16  13  -3    1.61    0.25
 -13  16  -3    1.47    0.24
 -16 -13   3    1.57    0.44
 -16  13  -5    3.47    0.32
 -13  16  -5    3.92    0.31
 -16  13  -7    6.02    0.40
 -13  16  -7    5.90    0.39
 -16  13  -9    3.04    0.35
 -13  16  -9    2.73    0.31
 -16  13 -11    1.47    0.32
 -13  16 -11    1.39    0.29
 -16  13 -13    1.15    0.30
 -13  16 -13    1.03    0.29
 -16  13 -15    4.61    0.42
 -13  16 -15    5.27    0.44
 -16 -13  15    5.14    0.68
  14  16 -16    0.25    0.24
  14  16 -14    0.96    0.25
  16  14 -14    1.04    0.24
 -16 -14 -14    1.10    0.51
 -14 -16 -14    1.30    0.53
  16 -14  14    1.06    0.29
  14 -16  12    0.07    0.26
  14  16 -12    0.22    0.23
  16  14 -12    0.35    0.20
 -16 -14 -12    0.97    0.54
 -14 -16 -12    0.10    0.48
  16 -14  10    1.85    0.31
  14 -16  10    1.76    0.31
  14  16 -10    1.98    0.30
  16  14 -10    1.84    0.29
 -16 -14 -10    2.16    0.60
 -14 -16 -10    1.60    0.54
  14  16  -8    9.55    0.49
  16  14  -8    9.54    0.47
 -16 -14  -8    9.25    0.85
 -14 -16  -8    9.31    0.82
  16 -14   6    3.38    0.34
  14  16  -6    3.00    0.35
  14 -16   6    3.47    0.36
 -16  14   6    3.06    0.29
 -16 -14  -6    2.97    0.33
 -14 -16  -6    3.31    0.38
 -16 -14  -6    3.63    0.62
 -14 -16  -6    3.40    0.61
 -14  16   4    0.40    0.18
  14  16  -4    0.49    0.27
  16 -14   4    0.16    0.25
  14 -16   4    0.48    0.28
 -16  14   4    0.31    0.22
  16 -14   4    0.21    0.24
 -16 -14  -4    0.57    0.58
 -14 -16  -4    0.09    0.46
 -16 -14  -4    0.76    0.33
 -16  14   2    8.75    0.40
 -14  16   2    8.45    0.39
 -16 -14  -2    7.04    0.55
  16 -14   2    9.92    0.50
  14  16  -2    8.68    0.41
  16 -14   2    8.08    0.39
  16 -14   2    8.23    0.61
 -16 -14  -2    8.75    0.80
 -14 -16  -2    8.67    0.79
 -16  14   0   24.83    0.79
 -14  16   0   25.28    0.79
 -14 -16   0   24.42    1.25
  16 -14   0   22.21    1.02
 -16 -14   0   23.11    0.99
 -16  14  -2    8.71    0.44
 -14  16  -2    7.75    0.42
 -16  14  -4    0.23    0.23
 -14  16  -4    0.67    0.25
 -16  14  -6    3.62    0.34
 -14  16  -6    3.40    0.33
 -16  14  -8    8.75    0.50
 -14  16  -8    9.48    0.50
 -16  14 -10    1.85    0.32
 -14  16 -10    1.71    0.30
 -16  14 -12    0.27    0.26
 -14  16 -12    0.67    0.27
 -16  14 -14    0.76    0.31
 -14  16 -14    0.63    0.29
  15  16 -15    4.10    0.34
  16 -15  13    1.09    0.31
  15 -16  13    1.53    0.31
  15  16 -13    0.84    0.25
  16  15 -13    1.18    0.25
 -16 -15 -13    1.46    0.56
 -15 -16 -13    0.54    0.51
  16 -15  11    3.84    0.39
  15 -16  11    3.91    0.38
  15  16 -11    3.39    0.33
  16  15 -11    3.93    0.34
 -16 -15 -11    3.61    0.64
 -15 -16 -11    3.65    0.64
  16 -15   9   17.33    0.73
  15 -16   9   17.08    0.73
  15  16  -9   16.69    0.68
  16  15  -9   17.11    0.67
 -16 -15  -9   16.46    1.08
 -15 -16  -9   17.69    1.10
  16 -15   7    0.29    0.26
  15 -16   7    0.52    0.28
  15  16  -7    0.67    0.27
 -16 -15  -7   -0.21    0.56
 -15 -16  -7    0.15    0.55
  16 -15   5   18.48    0.74
  15 -16   5   17.76    0.74
 -15 -16  -5   18.09    0.77
 -16 -15  -5   16.92    0.75
 -16 -15  -5   19.60    1.15
 -15 -16  -5   18.47    1.12
 -15  16   3   59.27    1.54
 -16 -15  -3   52.43    1.72
  16 -15   3   57.55    1.66
  15 -16   3   57.87    1.65
 -16 -15  -3   58.28    2.15
 -16  15   1   11.40    0.48
 -15  16   1   10.69    0.48
 -16 -15  -1   12.98    0.99
 -15 -16  -1   12.30    0.93
 -16 -15  -1   10.83    0.67
 -16  15  -1   11.62    0.51
 -15  16  -1   11.36    0.51
 -16  15  -3   58.16    1.59
 -15  16  -3   56.49    1.59
 -16  15  -5   18.13    0.70
 -15  16  -5   17.54    0.69
 -16  15  -7    0.29    0.26
 -15  16  -7    0.67    0.27
 -16  15  -9   16.81    0.71
 -15  16  -9   17.34    0.71
 -16  15 -11    4.29    0.40
 -15  16 -11    3.77    0.39
 -16  15 -13    0.66    0.28
 -15  16 -13    1.28    0.29
  16  16 -14    1.26    0.27
  16  16 -12    2.94    0.32
  16 -16  10   -0.07    0.27
  16  16 -10    0.24    0.24
 -16 -16 -10    0.78    0.59
  16 -16   8   26.33    0.97
  16  16  -8   26.87    0.92
 -16 -16  -8   27.25    1.38
  16 -16   6   16.97    0.72
 -16 -16  -6   18.80    1.14
  16 -16   4    6.58    0.46
 -16 -16  -4    6.92    0.81
 -16 -16  -2   30.37    1.46
 -16 -16  -2   29.71    1.12
 -16  16   0   52.71    1.46
 -16  16  -2   30.99    0.98
 -16  16  -4    6.68    0.42
 -16  16  -6   18.04    0.71
 -16  16  -8   26.56    0.93
 -16  16 -10    0.51    0.28
 -16  16 -12    3.57    0.36
   0 -17   1    2.35    0.25
   0  17   1    2.22    0.26
  17   0  -1    2.30    0.21
   0 -17  -1    2.35    0.27
  17   0   1    2.15    0.20
  17   0  -1    2.73    0.20
   0  17  -1    2.19    0.24
   0  17   1    2.45    0.24
 -17   0  -1    2.32    0.29
  17   0  -1    1.77    0.37
  17   0   1    2.67    0.41
 -17   0   1    1.93    0.30
   0  17  -1    2.49    0.24
  17   0  -3    2.36    0.20
   0 -17  -3    2.27    0.29
   0  17   3    2.24    0.25
  17   0   3    2.59    0.23
   0  17  -3    2.26    0.26
 -17   0  -3    2.27    0.28
   0  17   3    2.33    0.23
  17   0  -3    2.47    0.17
   0  17  -3    2.25    0.25
  17   0   3    2.67    0.40
   0 -17   3    2.35    0.24
 -17   0   3    2.71    0.34
  17   0  -5    0.14    0.10
  17   0  -5    0.14    0.13
  17   0   5   -0.04    0.18
 -17   0   5    0.16    0.27
   0 -17  -5    0.05    0.22
  17   0   5    0.01    0.17
   0  17  -5    0.13    0.18
   0  17   5   -0.06    0.16
   0 -17   5    0.04    0.15
   0  17  -5    0.01    0.17
  17   0  -7   11.52    0.36
  17   0   7   11.20    0.48
   0 -17  -7   10.67    0.54
   0  17   7   10.87    0.50
  17   0   7   11.18    0.47
   0  17  -7   10.39    0.48
   0  17  -7   11.70    0.49
  17   0  -7    9.24    0.66
  17   0   7   11.88    0.62
 -17   0   7   11.27    0.64
 -17   0   9   15.13    0.77
  17   0   9   17.27    0.64
  17   0  -9   16.31    0.45
   0 -17  -9   17.24    0.71
  17   0   9   16.18    0.62
   0 -17  -9   17.23    0.63
   0  17  -9   16.05    0.60
  17   0  -9   14.99    0.84
  17   0   9   16.09    0.73
  17   0  11    4.90    0.35
  17   0  11    5.25    0.42
   0 -17 -11    4.19    0.40
  17   0  11    4.43    0.34
   0  17 -11    4.78    0.33
 -17   0  11    4.67    0.48
   0 -17 -13    5.74    0.37
   0 -17 -13    5.68    0.46
   0  17 -13    5.28    0.37
   0  17 -13    6.20    0.36
 -17   0 -13    4.48    0.61
  17   0  13    5.38    0.42
 -17   0  15   13.64    0.78
   0 -17 -15   12.71    0.68
   0  17 -15   13.47    0.57
 -17   0 -15   14.10    0.95
   0  17 -17    6.19    0.42
   0 -17 -17    5.08    0.48
  17   0  17    6.52    0.45
 -17   0  17    6.09    0.59
 -17   0 -17    5.71    0.70
   0  17 -19   -0.04    0.25
   0 -17 -19    0.03    0.33
  17   0  19    0.19    0.24
 -17   0  19    0.36    0.37
 -17   0 -19    0.69    0.53
   0  17 -21    2.45    0.33
   0 -17 -21    2.63    0.43
  17   0  21    2.71    0.35
 -17   0  21    3.36    0.55
 -17   0 -21    2.25    0.63
   1 -17  22    0.25    0.24
 -17  -1 -22    0.71    0.55
  -1 -17 -20    1.42    0.37
   1  17 -20    2.00    0.32
 -17   1  20    1.97    0.46
   1 -17  20    1.77    0.30
  17  -1  20    1.67    0.34
 -17  -1 -20    1.75    0.57
  -1 -17 -18    3.62    0.46
   1  17 -18    3.52    0.34
 -17   1  18    4.40    0.55
  17  -1  18    3.65    0.37
 -17  -1 -18    3.94    0.65
  -1 -17 -16    0.25    0.32
   1  17 -16    1.02    0.25
 -17   1  16    0.97    0.38
 -17  -1 -16    0.53    0.53
  -1 -17 -14    2.52    0.38
  17  -1  14    3.51    0.36
 -17   1  14    2.96    0.43
   1  17 -14    3.27    0.31
   1  17 -14    2.98    0.28
  17  -1  14    2.76    0.31
 -17  -1 -14    3.10    0.60
  -1 -17 -12   18.12    0.73
  17  -1  12   19.06    0.65
   1  17 -12   18.75    0.62
   1  17 -12   18.39    0.58
 -17  -1 -12   18.88    1.03
  -1 -17 -12   17.94    0.58
  17  -1  12   16.39    0.61
  17   1 -10    9.12    0.29
  17  -1  10    8.99    0.45
  -1 -17 -10   10.03    0.55
  -1  17  10    9.28    0.46
  17  -1  10    9.81    0.46
   1  17 -10    9.75    0.43
  -1 -17 -10    9.66    0.44
  17   1 -10    9.34    0.29
  17   1 -10    7.61    0.64
  17  -1  10    8.11    0.48
 -17   1  10    9.51    0.60
  17  -1  10    9.00    0.52
  17   1  -8    0.39    0.12
 -17   1   8    0.03    0.29
  17  -1   8    0.21    0.21
  17  -1   8    0.73    0.27
  -1 -17  -8   -0.13    0.24
  -1  17   8    0.52    0.22
   1  17  -8    0.39    0.19
  17   1  -8    0.58    0.38
  17  -1   8    0.59    0.30
  17   1  -6    9.51    0.35
  17  -1   6    9.77    0.55
  -1 -17  -6   10.14    0.51
  17  -1   6    9.82    0.43
  -1  17   6    9.97    0.45
  17  -1   6    9.52    0.42
   1  17  -6    8.80    0.44
  -1  17   6    9.83    0.42
   1 -17   6    8.06    0.28
  17   1  -6    7.64    0.59
   1  17  -6    9.61    0.44
 -17   1   6    8.40    0.53
  17  -1   6    9.27    0.58
  17   1  -4    8.11    0.34
  -1 -17  -4    7.86    0.46
  17  -1   4    8.65    0.39
  17  -1   4    8.17    0.38
 -17  -1  -4    8.37    0.43
   1  17  -4    8.31    0.42
  -1  17   4    8.29    0.40
 -17   1   4    8.74    0.50
   1  17  -4    8.07    0.40
  17  -1   4    8.06    0.56
   1 -17   4    8.68    0.36
   1 -17   2    0.66    0.19
  17   1  -2    0.63    0.18
  -1 -17  -2    0.55    0.23
  17  -1   2    0.51    0.17
   1  17  -2    0.35    0.19
  17  -1   2    0.47    0.17
  -1  17   2    0.59    0.20
  17   1  -2    0.65    0.14
 -17  -1  -2    0.60    0.23
 -17   1   2    0.29    0.25
  17  -1   2    0.38    0.32
   1  17  -2    0.71    0.20
  -1 -17   0    2.97    0.30
  17   1   0    3.77    0.26
  17  -1   0    3.61    0.25
   1 -17   0    3.11    0.28
  17   1   0    3.22    0.23
  -1  17   0    3.46    0.28
   1  17   0    3.92    0.29
  17  -1   0    3.86    0.24
 -17   1   0    4.04    0.36
  17  -1   0    3.48    0.46
  17   1   0    3.21    0.42
  -1  17   0    3.63    0.29
 -17  -1   0    3.32    0.34
   1  17   0    4.02    0.31
  17   1   2    0.48    0.18
 -17  -1   2    0.68    0.27
  17  -1  -2    0.54    0.15
   1  17   2    0.55    0.21
   1 -17  -2    0.39    0.20
  17   1   2    0.59    0.16
  -1  17  -2    0.50    0.20
 -17   1  -2    0.82    0.25
   1  17   2    0.43    0.18
  17  -1  -2    0.62    0.14
  17  -1  -2   -0.16    0.34
  17   1   2    0.25    0.32
  -1  17  -2    0.52    0.20
  -1 -17   2    0.43    0.21
  17   1   4    9.23    0.42
  17  -1  -4    9.18    0.35
   1  17   4    8.86    0.44
   1 -17  -4    9.83    0.48
  17   1   4    9.68    0.41
  -1  17  -4    9.44    0.44
  17  -1  -4    8.13    0.62
  -1  17  -4    9.72    0.44
  -1 -17   4    9.30    0.43
  17  -1  -4   10.12    0.34
  17   1   4    8.71    0.58
 -17  -1   4    9.77    0.56
 -17  -1   6    9.85    0.59
  17   1   6   10.34    0.45
  17  -1  -6    9.45    0.33
  17  -1  -6    9.76    0.31
   1 -17  -6    9.79    0.50
  -1  17  -6   10.40    0.46
  -1 -17   6    9.66    0.39
  -1  17  -6    9.49    0.44
  17   1   6    9.47    0.58
  17   1   8    0.17    0.26
  17   1   8    0.45    0.22
  17  -1  -8    0.38    0.08
   1 -17  -8    0.62    0.25
  -1  17  -8    0.31    0.20
 -17  -1   8    0.74    0.33
   1 -17  -8    0.68    0.23
  -1  17  -8    0.42    0.18
  17  -1  -8    0.42    0.36
  17   1  10    9.91    0.54
  17   1  10    8.79    0.46
 -17  -1  10    9.82    0.63
   1 -17 -10    9.01    0.52
  -1  17 -10    9.50    0.44
   1 -17 -10   10.14    0.46
  17   1  12   18.83    0.79
   1 -17 -12   17.94    0.80
  -1  17 -12   20.83    0.71
   1 -17 -12   19.67    0.73
   1 -17 -14    3.23    0.38
  -1  17 -14    3.63    0.32
  -1  17 -14    3.09    0.28
   1 -17 -14    3.27    0.32
  -1  17 -16    0.87    0.24
   1 -17 -16    0.82    0.31
 -17   1 -16    0.98    0.50
 -17  -1  16    0.74    0.40
  -1  17 -18    3.30    0.35
   1 -17 -18    3.94    0.45
 -17  -1  18    4.21    0.55
 -17   1 -18    2.66    0.58
  -1  17 -20    1.80    0.32
   1 -17 -20    1.62    0.37
 -17  -1  20    1.82    0.46
 -17   1 -20    2.04    0.58
 -17   1 -22    0.54    0.52
   2 -17  23    0.19    0.26
 -17  -2 -23    0.16    0.53
 -17   2  21    1.77    0.43
  -2 -17 -21    2.39    0.43
   2  17 -21    1.73    0.31
   2 -17  21    1.67    0.31
 -17  -2 -21    2.35    0.57
 -17   2  19    4.78    0.53
  -2 -17 -19    4.57    0.50
   2  17 -19    4.48    0.39
   2 -17  19    4.69    0.41
  17  -2  19    4.50    0.40
 -17  -2 -19    5.00    0.71
 -17   2  17    2.39    0.43
  -2 -17 -17    1.81    0.39
   2  17 -17    1.73    0.28
   2 -17  17    1.87    0.29
  17  -2  17    2.19    0.30
 -17  -2 -17    1.42    0.58
 -17   2  15    0.76    0.34
  -2 -17 -15   -0.25    0.32
  17  -2  15    0.34    0.23
   2  17 -15   -0.03    0.20
   2 -17  15    0.05    0.25
  17  -2  15    0.15    0.25
 -17  -2 -15    0.82    0.55
  17  -2  13    3.72    0.37
  -2 -17 -13    4.61    0.44
  -2 -17 -13    3.69    0.30
   2  17 -13    3.99    0.34
  17  -2  13    3.12    0.32
  17  -2  13    3.86    0.34
   2  17 -13    3.57    0.28
 -17  -2 -13    3.53    0.62
  17   2 -11    8.05    0.28
  -2 -17 -11    8.42    0.54
  17  -2  11    8.41    0.44
  -2  17  11    7.74    0.44
  17  -2  11    8.07    0.43
   2  17 -11    8.02    0.43
   2  17 -11    8.30    0.40
  17   2 -11    8.44    0.27
 -17  -2 -11    8.20    0.75
  17   2 -11    6.63    0.62
  17  -2  11    7.51    0.46
  17  -2   9    1.33    0.30
  17   2  -9    0.98    0.15
 -17   2   9    1.65    0.33
  -2 -17  -9    1.37    0.30
  17  -2   9    1.27    0.24
  -2  17   9    0.81    0.23
  17  -2   9    1.14    0.22
  -2  17   9    1.56    0.21
 -17  -2  -9    1.22    0.50
   2  17  -9    1.46    0.22
  17   2  -9    0.73    0.37
  -2 -17  -7    6.84    0.46
  -2  17   7    6.69    0.39
  17  -2   7    6.82    0.37
  17  -2   7    6.70    0.36
  -2  17   7    6.93    0.34
   2  17  -7    7.28    0.38
  17   2  -7    6.74    0.58
 -17   2   7    6.96    0.49
  17  -2   7    7.52    0.51
  17  -2   7    6.68    0.47
  -2 -17  -5    7.49    0.46
  -2  17   5    7.76    0.41
  17  -2   5    7.68    0.37
  17  -2   5    8.49    0.53
 -17  -2  -5    8.43    0.41
  17  -2   5    8.36    0.38
   2  17  -5    7.18    0.40
  -2  17   5    7.80    0.38
 -17   2   5    7.06    0.48
  17   2  -5    8.46    0.26
   2  17  -5    7.19    0.38
  17   2  -5    6.24    0.55
   2 -17   5    7.58    0.30
  17  -2   5    7.73    0.54
  17  -2   3   22.06    0.70
  17  -2   3   20.78    0.68
   2  17  -3   21.05    0.73
  -2  17   3   20.95    0.70
  17   2  -3   22.42    0.61
  17  -2   3   21.69    0.86
 -17  -2  -3   21.71    0.76
 -17   2   3   21.42    0.81
  17  -2   3   22.09    0.94
   2  17  -3   21.76    0.73
   2 -17   3   21.90    0.67
  -2 -17  -3   20.52    0.79
  17   2  -3   21.19    0.67
  17   2  -1    3.24    0.25
  17  -2   1    3.88    0.45
   2  17  -1    2.99    0.28
  17  -2   1    3.57    0.24
   2 -17   1    3.14    0.26
  17   2  -1    3.30    0.21
  -2  17   1    3.58    0.26
  17  -2   1    3.32    0.24
   2  17  -1    3.01    0.28
 -17   2   1    3.01    0.34
  17  -2   1    3.06    0.44
 -17  -2  -1    3.43    0.34
  -2 -17  -1    2.90    0.31
  17   2   1    3.30    0.27
 -17  -2   1    3.47    0.36
  17  -2  -1    3.41    0.23
   2  17   1    2.87    0.28
   2 -17  -1    3.35    0.27
  17   2   1    3.11    0.23
  -2  17  -1    2.82    0.25
 -17   2  -1    3.07    0.32
   2  17   1    3.54    0.28
  17  -2  -1    3.29    0.23
  17  -2  -1    3.11    0.45
  17   2   1    3.27    0.43
  -2  17  -1    3.45    0.28
  -2 -17   1    2.88    0.31
 -17  -2   3   19.04    0.82
  17   2   3   21.36    0.70
  17  -2  -3   20.14    0.61
   2  17   3   21.77    0.72
   2 -17  -3   20.19    0.72
  -2  17  -3   20.39    0.70
  17  -2  -3   20.31    0.94
  -2  17  -3   21.84    0.72
  -2 -17   3   21.60    0.74
  17   2   3   20.65    0.88
  17   2   5    7.98    0.39
  17  -2  -5    7.99    0.30
 -17  -2   5    7.81    0.54
  17  -2  -5    7.96    0.29
   2  17   5    7.69    0.41
   2 -17  -5    8.22    0.44
  -2  17  -5    7.77    0.40
  -2  17  -5    7.96    0.40
  -2 -17   5    7.53    0.39
  17  -2  -5    6.97    0.59
  17   2   5    8.00    0.54
  17   2   7    6.28    0.37
  17  -2  -7    6.01    0.22
 -17  -2   7    6.78    0.51
  -2  17  -7    6.44    0.37
   2 -17  -7    6.67    0.39
  -2  17  -7    6.65    0.36
  17   2   7    6.87    0.49
  17   2   9    1.07    0.29
  17   2   9    1.24    0.25
  -2  17  -9    1.46    0.24
  -2  17  -9    1.70    0.24
 -17  -2   9    1.42    0.37
  17   2  11    8.39    0.45
  17   2  11    9.17    0.53
  -2  17 -11    8.07    0.42
 -17  -2  11    8.34    0.61
   2 -17 -11    8.40    0.45
   2 -17 -13    4.00    0.35
  -2  17 -15    0.37    0.20
  -2  17 -17    2.09    0.29
 -17  -2  17    2.42    0.47
  -2  17 -19    3.73    0.36
 -17  -2  19    4.50    0.55
  -2  17 -21    2.02    0.33
   2 -17 -21    1.71    0.39
 -17   2 -21    2.15    0.64
 -17  -2  21    2.54    0.52
   3 -17  22    5.91    0.43
   3  17 -22    5.67    0.42
  -3 -17 -20    2.07    0.43
   3  17 -20    1.32    0.29
   3 -17  20    1.31    0.29
  17  -3  20    1.69    0.36
 -17  -3 -20    1.83    0.58
 -17   3  20    2.62    0.49
 -17   3  18    1.80    0.42
  -3 -17 -18    1.36    0.37
   3  17 -18    2.20    0.30
   3 -17  18    2.12    0.33
  17  -3  18    1.71    0.31
 -17  -3 -18    2.66    0.66
 -17   3  16    5.74    0.55
  -3 -17 -16    6.56    0.55
   3 -17  16    6.52    0.42
  17  -3  16    6.40    0.42
   3  17 -16    6.90    0.41
  17  -3  16    6.85    0.44
 -17  -3 -16    5.49    0.71
  -3 -17 -14    7.15    0.53
  17  -3  14    6.91    0.44
   3 -17  14    7.17    0.43
   3  17 -14    7.12    0.38
   3  17 -14    6.94    0.42
  17  -3  14    5.96    0.42
 -17  -3 -14    6.85    0.74
 -17   3  14    6.90    0.54
  17  -3  12    2.03    0.30
  17  -3  12    2.25    0.31
  -3 -17 -12    2.53    0.37
   3 -17  12    2.05    0.28
   3  17 -12    2.45    0.29
  17   3 -12    2.47    0.15
  17  -3  12    2.34    0.29
   3  17 -12    2.01    0.24
  -3  17  12    2.40    0.22
 -17  -3 -12    2.80    0.61
  -3 -17 -12    2.52    0.24
  17  -3  10    4.20    0.37
  -3 -17 -10    5.25    0.44
  -3  17  10    4.43    0.34
  17  -3  10    4.30    0.32
   3  17 -10    4.23    0.33
  17  -3  10    4.50    0.33
  -3 -17 -10    4.69    0.30
   3  17 -10    4.58    0.30
  -3  17  10    4.59    0.28
  17   3 -10    4.77    0.22
 -17  -3 -10    4.41    0.61
  17   3 -10    4.56    0.52
  17  -3  10    5.07    0.40
  -3 -17  -8   20.75    0.84
  -3  17   8   21.56    0.74
  17  -3   8   20.38    0.70
  17  -3   8   20.25    0.81
  17  -3   8   21.10    0.72
   3  17  -8   18.60    0.71
  -3  17   8   21.57    0.68
 -17  -3  -8   22.83    1.15
   3  17  -8   20.55    0.69
  17   3  -8   18.80    0.94
 -17   3   8   20.58    0.85
  17  -3   8   21.18    0.85
  -3 -17  -6    9.01    0.53
  -3  17   6    8.45    0.43
  17  -3   6    9.45    0.41
 -17  -3  -6    9.16    0.42
  17  -3   6    8.85    0.41
  -3  17   6    8.94    0.39
 -17   3   6    8.34    0.51
  17   3  -6    9.06    0.62
   3  17  -6    8.79    0.42
  17  -3   6    8.93    0.56
  -3 -17  -4    3.67    0.36
  17  -3   4    4.27    0.29
  17  -3   4    4.53    0.43
  -3  17   4    4.28    0.28
   3  17  -4    4.02    0.31
  17   3  -4    4.54    0.20
  17  -3   4    4.36    0.29
 -17   3   4    4.54    0.37
 -17  -3  -4    4.03    0.32
  17   3  -4    4.59    0.49
   3  17  -4    4.02    0.29
  17  -3   4    4.84    0.46
   3 -17   4    4.01    0.23
  -3  17   4    4.80    0.32
   3 -17   2   32.12    0.93
  17  -3   2   31.74    0.93
  17   3  -2   33.31    0.88
 -17   3   2   34.32    1.08
  -3  17   2   32.48    0.96
   3  17  -2   32.11    0.99
  17  -3   2   32.45    0.94
  17  -3   2   33.26    1.22
 -17  -3  -2   33.49    1.04
  17   3  -2   32.49    1.21
  -3 -17  -2   33.19    1.08
   3  17  -2   33.19    0.99
  17  -3   2   31.87    1.15
   3  17   0   36.88    1.08
  17  -3   0   35.72    1.00
   3 -17   0   36.49    1.05
  17   3   0   36.15    1.00
 -17   3   0   38.69    1.16
  -3  17   0   37.55    1.06
  17  -3   0   35.18    1.25
   3  17   0   35.89    1.08
  17  -3   0   37.91    1.02
  17  -3   0   34.56    1.30
  -3 -17   0   37.12    1.16
 -17  -3   0   36.84    1.18
 -17  -3   2   33.97    1.13
   3  17   2   33.17    1.00
  17  -3  -2   32.04    0.89
  17  -3  -2   32.33    1.19
  -3  17  -2   32.19    0.97
  17  -3  -2   30.02    1.22
  -3  17  -2   33.49    1.00
  -3 -17   2   34.69    1.06
  17  -3  -2   33.16    0.91
  17   3   2   30.95    1.17
  17   3   2   32.90    0.97
  17   3   4    3.40    0.28
  17  -3  -4    3.23    0.19
   3  17   4    3.46    0.30
  -3  17  -4    3.22    0.27
 -17  -3   4    3.41    0.41
  -3  17  -4    4.02    0.29
  17  -3  -4    3.14    0.44
  -3 -17   4    3.42    0.32
  17   3   4    3.92    0.41
  17  -3  -4    4.02    0.22
  17   3   6    8.52    0.43
  17  -3  -6    8.57    0.28
  -3  17  -6    8.34    0.41
 -17  -3   6    8.15    0.57
   3 -17  -6    9.00    0.46
  -3  17  -6    9.11    0.43
  17  -3  -6    7.13    0.60
  17   3   6    7.77    0.52
  17   3   8   21.63    0.87
  17   3   8   22.55    0.77
  -3  17  -8   21.99    0.76
  -3  17  -8   21.73    0.75
 -17  -3   8   21.44    0.95
   3 -17  -8   22.87    0.79
  17   3  10    4.99    0.35
  17   3  10    4.99    0.43
  -3  17 -10    4.41    0.33
  -3  17 -10    4.27    0.31
 -17  -3  10    4.60    0.49
   3 -17 -10    4.54    0.36
   3 -17 -12    2.47    0.31
 -17  -3  12    2.90    0.47
   3 -17 -14    7.19    0.46
  -3  17 -16    6.04    0.41
 -17  -3  16    6.20    0.61
  -3  17 -18    1.84    0.30
 -17  -3  18    2.21    0.49
  -3  17 -20    1.86    0.32
 -17  -3  20    1.01    0.48
   4  17 -21    6.45    0.45
 -17  -4 -21    6.07    0.75
 -17   4  21    5.78    0.59
  -4 -17 -19    5.93    0.56
   4 -17  19    5.75    0.42
   4  17 -19    5.79    0.40
  17  -4  19    6.07    0.45
 -17  -4 -19    6.28    0.75
 -17   4  19    6.53    0.58
  -4 -17 -17    3.03    0.43
   4 -17  17    2.88    0.35
   4  17 -17    3.63    0.33
  17  -4  17    3.36    0.37
 -17  -4 -17    3.99    0.67
 -17   4  17    2.90    0.43
  -4 -17 -15    0.64    0.34
   4 -17  15    0.60    0.25
   4  17 -15    0.93    0.21
   4  17 -15    0.63    0.24
  17  -4  15    0.64    0.25
  -4  17  15    0.61    0.17
 -17  -4 -15   -0.05    0.49
 -17   4  15    0.68    0.34
  -4 -17 -13    9.42    0.61
  17  -4  13    9.04    0.51
   4 -17  13    8.38    0.47
   4  17 -13    9.23    0.47
   4  17 -13    9.20    0.42
  17   4 -13    9.24    0.31
  17  -4  13    9.37    0.49
  -4  17  13    8.99    0.38
 -17   4  13    9.06    0.59
 -17  -4 -13    8.84    0.81
  17  -4  13    8.11    0.47
  17  -4  11    8.57    0.50
  -4 -17 -11    7.25    0.53
  17  -4  11    8.94    0.45
   4 -17  11    8.86    0.46
   4  17 -11    8.52    0.44
  17  -4  11    8.04    0.45
   4  17 -11    8.77    0.40
  17   4 -11    8.20    0.31
  -4  17  11    8.67    0.38
 -17  -4 -11    8.94    0.79
  17   4 -11    7.53    0.65
  17  -4  11    7.95    0.48
  -4  17   9    3.73    0.31
  -4 -17  -9    3.28    0.38
  17  -4   9    3.29    0.28
   4  17  -9    3.70    0.31
  -4  17   9    3.23    0.25
  17  -4   9    3.53    0.30
   4  17  -9    3.59    0.28
  17  -4   9    3.62    0.38
 -17  -4  -9    3.23    0.59
  17   4  -9    2.83    0.45
  17  -4   9    3.41    0.38
  17  -4   7   12.46    0.64
  17  -4   7   14.88    0.55
   4  17  -7   12.85    0.57
  -4  17   7   14.29    0.52
  17  -4   7   14.36    0.57
 -17   4   7   14.21    0.66
 -17  -4  -7   15.76    0.96
   4  17  -7   14.34    0.54
  17   4  -7   13.65    0.79
  17  -4   7   15.35    0.71
  -4 -17  -7   14.66    0.70
  -4  17   7   13.93    0.57
  17  -4   5   11.78    0.61
  17  -4   5   12.67    0.50
  -4  17   5   12.89    0.49
 -17   4   5   13.51    0.63
  17  -4   5   12.87    0.51
 -17  -4  -5   12.91    0.52
  17   4  -5   12.20    0.71
   4  17  -5   13.72    0.52
  17  -4   5   12.68    0.68
   4 -17   5   11.51    0.39
  -4  17   5   12.91    0.53
  -4 -17  -5   13.76    0.65
   4 -17   3   38.68    1.05
  17  -4   3   38.23    1.09
  17   4  -3   41.08    1.02
  17  -4   3   39.79    1.31
 -17   4   3   40.27    1.24
  -4  17   3   39.82    1.11
  17  -4   3   39.14    1.11
  17  -4   3   38.10    1.36
  17   4  -3   36.52    1.36
 -17  -4  -3   38.19    1.18
  -4  17   3   39.51    1.15
   4  17  -3   38.75    1.13
  -4 -17  -3   39.75    1.27
   4  17  -1    3.49    0.29
  17  -4   1    3.57    0.42
  17  -4   1    3.90    0.24
   4 -17   1    4.00    0.26
 -17  -4  -1    4.17    0.37
  -4  17   1    4.25    0.28
   4  17  -1    3.51    0.30
  17  -4   1    3.86    0.26
  17  -4   1    3.63    0.45
  17   4  -1    3.37    0.43
  -4  17   1    3.21    0.28
  -4 -17  -1    3.83    0.37
   4  17   1    4.72    0.32
  17  -4  -1    3.29    0.21
  -4  17  -1    3.84    0.27
 -17  -4   1    3.32    0.38
  17  -4  -1    3.12    0.44
  17  -4  -1    3.63    0.45
  -4 -17   1    3.75    0.37
  17  -4  -3   36.03    0.96
   4  17   3   39.24    1.10
 -17  -4   3   38.12    1.26
  -4  17  -3   37.12    1.08
  -4  17  -3   36.68    1.09
  17  -4  -3   37.07    1.30
  -4 -17   3   36.80    1.17
  17  -4  -3   37.02    1.01
  17  -4  -5   12.49    0.42
  17  -4  -5   12.95    0.39
  -4  17  -5   13.51    0.53
 -17  -4   5   11.94    0.66
  -4  17  -5   12.74    0.52
  17  -4  -5   11.91    0.75
  -4 -17   5   12.72    0.59
  17   4   5   12.20    0.65
  17   4   5   12.36    0.53
  17   4   7   15.51    0.60
  -4  17  -7   14.50    0.58
  -4  17  -7   14.84    0.58
   4 -17  -7   15.47    0.63
 -17  -4   7   15.28    0.77
  17   4   7   14.63    0.70
  17   4   9    3.39    0.31
  17   4   9    3.15    0.37
 -17  -4   9    3.44    0.45
  -4  17  -9    3.65    0.29
  -4  17  -9    4.01    0.31
   4 -17  -9    3.96    0.35
  -4  17 -11    8.48    0.44
 -17  -4  11    7.83    0.62
   4 -17 -11    9.08    0.50
   4 -17 -13    9.42    0.53
 -17  -4  13    8.46    0.66
 -17  -4  17    4.68    0.56
  -4  17 -17    3.30    0.33
 -17  -4  19    6.40    0.66
  -4  17 -19    5.67    0.42
   5 -17  22    5.10    0.43
  -5 -17 -20    2.59    0.46
   5 -17  20    3.26    0.36
   5  17 -20    3.49    0.35
  17  -5  20    3.10    0.38
 -17  -5 -20    3.90    0.67
 -17   5  20    2.60    0.43
  -5 -17 -18    7.64    0.63
   5 -17  18    8.32    0.50
   5  17 -18    8.37    0.46
  17  -5  18    8.43    0.51
 -17   5  18    8.32    0.61
 -17  -5 -18    7.42    0.80
  -5 -17 -16    3.53    0.48
   5 -17  16    3.13    0.34
   5  17 -16    3.39    0.34
  17  -5  16    3.73    0.37
 -17  -5 -16    3.61    0.67
 -17   5  16    3.51    0.47
  -5 -17 -14    5.60    0.54
  17  -5  14    5.57    0.41
   5 -17  14    5.87    0.42
   5  17 -14    5.73    0.33
   5  17 -14    5.40    0.37
  17  -5  14    5.28    0.40
  -5  17  14    5.74    0.30
 -17  -5 -14    4.89    0.67
 -17   5  14    5.42    0.49
  17  -5  12   21.83    0.83
   5 -17  12   21.88    0.79
   5  17 -12   22.22    0.78
   5  17 -12   21.68    0.71
  17   5 -12   20.86    0.63
  17  -5  12   22.21    0.80
  -5  17  12   21.63    0.67
 -17   5  12   21.60    0.92
  17  -5  12   20.15    0.80
 -17  -5 -12   22.65    1.19
  -5 -17 -12   21.87    0.95
  -5  17  10    6.86    0.40
  17  -5  10    7.69    0.41
   5 -17  10    7.63    0.43
   5  17 -10    7.65    0.42
  -5  17  10    7.47    0.34
  17  -5  10    7.31    0.41
   5  17 -10    7.27    0.37
 -17  -5 -10    7.53    0.73
  17   5 -10    6.65    0.59
  17  -5  10    7.74    0.48
  -5 -17 -10    7.07    0.52
  17  -5   8   13.64    0.54
   5  17  -8   13.78    0.57
  -5  17   8   13.84    0.50
 -17   5   8   12.23    0.64
  17  -5   8   13.00    0.56
 -17  -5  -8   13.97    0.94
   5  17  -8   15.31    0.54
  17   5  -8   13.90    0.78
  17  -5   8   14.60    0.67
  17  -5   8   13.68    0.67
  -5 -17  -8   14.05    0.72
  -5  17   8   14.11    0.57
  17  -5   6    7.80    0.38
  -5  17   6    8.37    0.37
 -17   5   6    8.90    0.50
   5  17  -6    7.57    0.42
 -17  -5  -6    8.21    0.40
  17  -5   6    7.92    0.40
 -17  -5  -6    7.90    0.73
  17   5  -6    8.06    0.60
   5  17  -6    7.92    0.39
  17  -5   6    7.36    0.51
  -5  17   6    9.07    0.43
  -5 -17  -6    8.11    0.53
   5 -17   4   12.55    0.42
  17  -5   4   12.58    0.49
  17   5  -4   13.23    0.40
 -17   5   4   13.44    0.62
  -5  17   4   12.38    0.48
  17  -5   4   13.08    0.51
  17  -5   4   12.40    0.70
  17   5  -4   11.22    0.69
 -17  -5  -4   12.99    0.55
  -5  17   4   12.18    0.52
   5  17  -4   12.21    0.50
  -5 -17  -4   12.68    0.65
  17  -5   4   13.08    0.67
  17  -5   2   24.25    0.94
  17  -5   2   23.39    0.71
  -5  17   2   23.68    0.74
  17  -5   2   23.85    0.74
  17  -5   2   23.48    1.00
  -5  17   2   21.56    0.77
  17   5  -2   22.00    0.97
  -5 -17  -2   23.82    0.91
 -17  -5  -2   22.99    0.84
   5  17  -2   23.95    0.77
   5  17   0   -0.08    0.21
  17  -5   0    0.17    0.14
  -5  17   0    0.15    0.16
 -17  -5   0    0.17    0.27
  17  -5   0    0.11    0.34
  17  -5   0    0.35    0.33
  -5  17   0    0.28    0.18
  -5 -17   0   -0.11    0.27
  17  -5   0    0.25    0.16
  17   5   0    0.11    0.32
   5  17   2   24.04    0.78
  17  -5  -2   23.35    0.67
  -5  17  -2   23.72    0.76
 -17  -5   2   24.32    0.94
  -5 -17   2   23.87    0.91
  17  -5  -2   23.29    0.97
  17  -5  -2   25.30    0.73
  17  -5  -4   12.20    0.44
  -5  17  -4   12.51    0.51
  17  -5  -4   12.25    0.38
  -5  17  -4   11.69    0.50
 -17  -5   4   12.75    0.67
  17  -5  -4   10.25    0.69
  -5 -17   4   11.81    0.61
  -5  17  -6    8.33    0.42
  17  -5  -6    7.67    0.25
  -5  17  -6    7.70    0.40
   5 -17  -6    9.01    0.47
  17  -5  -6    6.91    0.58
  17  -5  -6    6.93    0.56
 -17  -5   6    7.73    0.57
  17   5   6    8.21    0.53
  17   5   6    7.41    0.41
  17   5   8   15.26    0.61
  17   5   8   15.92    0.71
  -5  17  -8   14.28    0.58
  -5  17  -8   14.28    0.58
   5 -17  -8   15.13    0.64
 -17  -5   8   13.90    0.78
  -5  17 -10    7.17    0.41
 -17  -5  10    6.95    0.60
   5 -17 -10    8.54    0.50
   5 -17 -12   22.01    0.83
  -5  17 -12   20.92    0.76
 -17  -5  12   20.70    1.00
   5 -17 -14    5.95    0.48
  -5  17 -14    4.62    0.37
 -17  -5  14    5.20    0.57
  -5  17 -18    7.76    0.48
 -17  -5  18    7.19    0.70
  -5  17 -20    3.01    0.35
 -17  -5  20    3.09    0.57
   6  17 -21   -0.15    0.23
  -6 -17 -19    2.75    0.45
   6 -17  19    2.60    0.34
   6  17 -19    2.80    0.33
 -17   6  19    2.80    0.43
 -17  -6 -19    3.89    0.69
   6 -17  17   21.77    0.84
   6  17 -17   22.01    0.82
 -17   6  17   21.84    0.96
 -17  -6 -17   21.34    1.20
  -6 -17 -17   21.77    1.03
  -6 -17 -15    6.58    0.58
   6 -17  15    5.78    0.43
   6  17 -15    6.62    0.41
  17  -6  15    6.31    0.43
 -17   6  15    6.88    0.54
 -17  -6 -15    6.54    0.76
  17  -6  13   25.24    0.87
   6 -17  13   23.78    0.86
   6  17 -13   23.86    0.84
   6  17 -13   23.34    0.76
  17  -6  13   22.61    0.86
  17   6 -13   23.64    0.69
  -6  17  13   23.52    0.71
 -17   6  13   23.99    0.98
 -17  -6 -13   24.44    1.26
  -6 -17 -13   24.48    1.03
   6 -17  11   14.16    0.61
   6  17 -11   14.58    0.59
  -6  17  11   14.04    0.49
  17  -6  11   14.13    0.65
 -17   6  11   14.82    0.72
   6  17 -11   14.60    0.53
  17   6 -11   14.36    0.49
  17  -6  11   14.77    0.62
 -17  -6 -11   14.58    0.98
  17   6 -11   12.40    0.79
  -6 -17 -11   15.24    0.78
  17  -6  11   14.51    0.65
  17  -6   9    8.79    0.43
   6 -17   9    9.03    0.46
  -6  17   9    9.03    0.38
   6  17  -9    9.47    0.46
  17  -6   9    8.69    0.52
  17  -6   9    9.27    0.46
   6  17  -9    8.79    0.40
 -17  -6  -9    9.03    0.78
  17   6  -9    8.24    0.63
  17  -6   9    9.48    0.53
  -6 -17  -9    8.81    0.58
  -6  17   9    8.58    0.43
  17  -6   7   52.09    1.43
 -17   6   7   52.87    1.59
  -6  17   7   51.93    1.38
   6  17  -7   52.83    1.48
 -17  -6  -7   52.24    1.40
 -17  -6  -7   50.22    1.91
  17  -6   7   51.29    1.46
   6  17  -7   52.50    1.42
  17  -6   7   54.05    1.63
  -6  17   7   52.62    1.46
  -6 -17  -7   52.01    1.66
   6 -17   5   13.43    0.42
  17  -6   5   13.60    0.51
  17   6  -5   13.75    0.40
  -6  17   5   13.20    0.49
   6  17  -5   13.80    0.57
  17  -6   5   14.45    0.55
  17  -6   5   13.92    0.68
 -17  -6  -5   13.68    0.55
  17   6  -5   13.12    0.75
  17  -6   5   12.84    0.70
  -6  17   5   13.04    0.55
   6  17  -5   14.09    0.53
  -6 -17  -5   13.66    0.69
   6  17  -3    1.27    0.23
  17  -6   3    1.18    0.18
 -17  -6  -3    1.55    0.29
  -6  17   3    1.28    0.20
  17  -6   3    1.36    0.35
  17  -6   3    0.95    0.35
  17  -6   3    1.18    0.20
  -6  17   3    1.17    0.23
  17   6  -3    1.78    0.38
  -6 -17  -3    1.50    0.34
  17  -6   1   28.26    1.07
   6  17  -1   27.58    0.88
 -17  -6  -1   29.48    1.00
  17  -6   1   28.87    0.82
  -6  17   1   28.55    0.87
  17  -6   1   27.91    1.13
  -6  17   1   28.32    0.90
  -6 -17  -1   30.33    1.08
  17  -6   1   29.32    0.87
  17   6  -1   28.08    1.09
   6  17   1   27.55    0.89
  17  -6  -1   28.05    0.80
  -6  17  -1   28.57    0.87
  17  -6  -1   28.60    1.09
 -17  -6   1   28.68    1.04
  -6  17  -1   28.53    0.90
  -6 -17   1   28.48    1.05
  17   6   1   28.73    1.08
  17  -6  -1   29.62    0.85
  17  -6  -3    1.15    0.37
 -17  -6   3    1.84    0.34
  17  -6  -3    1.28    0.18
  -6  17  -3    1.18    0.20
  17  -6  -3    1.22    0.15
   6 -17  -3    1.17    0.27
  17  -6  -3    0.46    0.35
  -6 -17   3    1.17    0.33
  17  -6  -5   14.35    0.76
  -6  17  -5   14.23    0.55
  17  -6  -5   13.47    0.40
   6 -17  -5   13.28    0.60
  17  -6  -5   11.81    0.73
  -6 -17   5   12.87    0.66
 -17  -6   5   13.52    0.72
  17   6   7   50.53    1.57
  -6  17  -7   50.96    1.43
  -6  17  -7   51.59    1.44
   6 -17  -7   52.78    1.52
 -17  -6   7   50.08    1.66
  17  -6  -7   48.77    1.67
  -6  17  -9    9.28    0.45
   6 -17  -9    8.79    0.51
 -17  -6   9    9.52    0.66
 -17  -6  11   13.98    0.81
   6 -17 -11   13.35    0.65
  -6  17 -11   13.61    0.58
 -17  -6  13   23.62    1.08
  -6  17 -13   22.96    0.82
  -6  17 -15    6.10    0.41
   6 -17 -15    5.71    0.48
  -6  17 -19    3.40    0.37
 -17  -6  19    2.48    0.53
   7 -17  20    1.15    0.33
   7  17 -20    1.90    0.29
 -17   7  20    1.83    0.40
 -17  -7 -20    2.50    0.63
   7 -17  18    6.01    0.47
   7  17 -18    7.76    0.46
 -17   7  18    7.64    0.59
  17  -7  18    7.98    0.51
 -17  -7 -18    7.21    0.79
  -7 -17 -18    8.29    0.66
  -7 -17 -16    3.16    0.50
   7 -17  16    3.49    0.38
   7  17 -16    4.25    0.37
 -17   7  16    4.15    0.47
  17  -7  16    4.13    0.38
 -17  -7 -16    4.17    0.66
  -7 -17 -14    0.63    0.38
   7 -17  14    0.92    0.28
   7  17 -14    1.28    0.27
  17   7 -14    1.40    0.19
 -17   7  14    1.11    0.34
  17  -7  14    1.22    0.27
 -17  -7 -14    1.26    0.49
  17  -7  12   27.58    0.96
  17  -7  12   24.98    0.97
  -7  17  12   28.21    0.79
   7  17 -12   27.78    0.92
 -17   7  12   27.52    1.05
   7  17 -12   28.85    0.85
  17   7 -12   27.97    0.81
  17  -7  12   27.11    0.94
 -17  -7 -12   30.10    1.39
  -7 -17 -12   27.39    1.14
   7 -17  10    6.32    0.42
  17  -7  10    6.28    0.38
  17  -7  10    5.61    0.43
  -7  17  10    6.21    0.30
   7  17 -10    6.09    0.39
   7  17 -10    6.42    0.33
  17   7 -10    6.21    0.31
 -17  -7 -10    5.84    0.68
  17   7 -10    5.03    0.55
  -7  17  10    6.15    0.38
  17  -7  10    6.76    0.44
  -7 -17 -10    6.54    0.55
  17  -7   8   11.63    0.50
   7 -17   8   11.88    0.55
  -7  17   8   12.52    0.45
  17  -7   8   12.30    0.63
 -17  -7  -8   12.39    0.46
   7  17  -8   12.14    0.53
 -17  -7  -8   11.76    0.88
  17  -7   8   11.55    0.52
   7  17  -8   12.38    0.48
  17   7  -8   10.71    0.71
  -7  17   8   11.89    0.52
  17  -7   8   12.68    0.64
  -7 -17  -8   12.84    0.72
   7 -17   6   12.20    0.37
  17   7  -6   11.51    0.35
  17  -7   6   13.57    0.52
  -7  17   6   13.79    0.48
  17  -7   6   15.11    0.69
   7  17  -6   14.18    0.56
  17  -7   6   13.02    0.54
 -17  -7  -6   14.44    0.54
  17   7  -6   13.62    0.74
   7  17  -6   14.41    0.52
  17  -7   6   13.92    0.69
  -7  17   6   13.96    0.55
  -7 -17  -6   14.20    0.74
  17  -7   4   23.21    0.72
  -7  17   4   22.89    0.71
   7  17  -4   22.39    0.77
  17  -7   4   24.00    0.93
  17  -7   4   23.12    0.76
  -7  17   4   21.82    0.76
  17   7  -4   21.48    0.95
  -7 -17  -4   21.33    0.94
   7  17  -4   22.28    0.74
 -17  -7  -4   22.89    0.81
   7  17  -2   14.98    0.56
 -17  -7  -2   15.39    0.67
  17  -7   2   15.41    0.52
  -7  17   2   14.89    0.54
  -7  17   2   15.12    0.59
  17  -7   2   14.60    0.79
  17  -7   2   15.64    0.74
  -7 -17  -2   14.73    0.76
  17  -7   2   15.28    0.56
  17   7  -2   14.81    0.76
  17  -7   0    2.48    0.25
   7  17   0    2.62    0.27
  17  -7   0    2.53    0.20
  -7  17   0    2.87    0.23
  17  -7   0    2.95    0.40
  17  -7   0    2.96    0.43
  -7  17   0    2.62    0.26
  -7 -17   0    2.80    0.40
  17   7   0    3.10    0.40
 -17  -7   0    2.56    0.36
  17  -7  -2   15.80    0.55
  17  -7  -2   14.92    0.77
  -7  17  -2   15.76    0.57
  17  -7  -2   15.45    0.49
   7 -17  -2   16.56    0.68
  -7  17  -2   14.54    0.59
  -7 -17   2   16.07    0.76
 -17  -7   2   15.90    0.76
  17   7   2   15.94    0.75
  17  -7  -4   22.49    0.68
  -7  17  -4   20.96    0.73
   7 -17  -4   21.61    0.81
  17  -7  -4   23.02    0.96
  -7 -17   4   22.47    0.92
 -17  -7   4   21.78    0.92
  17   7   4   22.12    0.89
  17  -7  -6   13.36    0.74
 -17  -7   6   13.36    0.74
  -7  17  -6   12.79    0.53
   7 -17  -6   14.00    0.62
 -17  -7   8   12.59    0.73
  -7  17  -8   12.56    0.54
   7 -17  -8   12.16    0.60
   7 -17 -10    6.93    0.48
 -17  -7  10    6.32    0.60
  -7  17 -10    6.21    0.38
  -7  17 -12   25.72    0.89
 -17  -7  12   26.67    1.17
   7 -17 -12   26.75    1.01
 -17  -7  14    1.03    0.42
  -7  17 -14    1.09    0.25
   7 -17 -14    1.27    0.39
  -7  17 -16    3.22    0.34
   8  17 -21    2.26    0.32
   8 -17  19    0.33    0.30
   8  17 -19    0.67    0.26
 -17   8  19    0.88    0.38
 -17  -8 -19    0.05    0.50
   8 -17  17    8.57    0.52
   8  17 -17    9.58    0.50
 -17   8  17    8.62    0.61
  17  -8  17    9.37    0.54
 -17  -8 -17    7.71    0.83
  -8 -17 -17    8.44    0.69
   8 -17  15    0.02    0.26
   8  17 -15   -0.15    0.27
 -17   8  15   -0.09    0.33
  17  -8  15    0.12    0.25
 -17  -8 -15    0.21    0.47
  -8 -17 -15    0.19    0.36
   8 -17  13    5.94    0.42
   8  17 -13    5.33    0.39
  17   8 -13    5.66    0.30
  17  -8  13    5.23    0.44
 -17   8  13    5.54    0.49
  17  -8  13    5.70    0.40
 -17  -8 -13    5.38    0.67
  -8 -17 -13    5.69    0.59
  17  -8  11    1.78    0.29
   8 -17  11    1.42    0.27
  -8  17  11    1.36    0.18
   8  17 -11    1.46    0.26
  17  -8  11    1.76    0.31
  17   8 -11    1.42    0.20
   8  17 -11    1.58    0.20
 -17  -8 -11    1.60    0.52
  17  -8  11    1.03    0.27
  -8 -17 -11    1.87    0.43
   8 -17   9    0.09    0.22
  17  -8   9    0.58    0.20
  -8  17   9    0.32    0.16
   8  17  -9    0.31    0.21
 -17  -8  -9    0.30    0.45
   8  17  -9    0.27    0.16
  17  -8   9    0.17    0.21
  17   8  -9    0.47    0.36
  -8 -17  -9    0.93    0.37
  17  -8   9    0.27    0.28
  17  -8   7   21.13    0.83
  17  -8   7   20.64    0.67
  -8  17   7   21.42    0.62
   8  17  -7   21.96    0.73
 -17  -8  -7   21.79    0.66
  17  -8   7   19.48    0.69
   8  17  -7   20.36    0.64
  -8  17   7   19.96    0.68
  17   8  -7   19.34    0.89
  17  -8   7   20.73    0.84
  -8 -17  -7   20.75    0.93
  -8  17   5   17.56    0.59
  17  -8   5   18.26    0.61
  17  -8   5   18.34    0.80
   8  17  -5   18.32    0.67
  -8  17   5   17.86    0.65
  17  -8   5   16.56    0.64
  17  -8   5   17.48    0.82
  -8 -17  -5   15.84    0.82
  17   8  -5   15.42    0.81
   8  17  -5   17.30    0.61
 -17  -8  -5   17.88    0.68
   8  17  -3   14.07    0.55
  -8  17   3   14.11    0.52
 -17  -8  -3   14.34    0.63
  17  -8   3   13.95    0.51
  17  -8   3   13.93    0.71
  -8  17   3   13.67    0.57
  17  -8   3   13.58    0.74
  -8 -17  -3   14.35    0.75
  17  -8   3   14.30    0.56
  17   8  -3   13.05    0.71
   8  17  -1   23.13    0.77
  -8  17   1   23.28    0.74
  17  -8   1   23.55    0.71
 -17  -8  -1   23.62    0.90
  -8  17   1   23.49    0.79
  17  -8   1   21.58    0.99
  17  -8   1   23.31    0.97
  -8 -17  -1   21.87    0.98
  17   8  -1   24.64    0.99
  17  -8  -1   24.72    0.76
  -8  17  -1   22.65    0.74
   8  17   1   23.36    0.77
  17  -8  -1   23.44    0.68
   8 -17  -1   24.78    0.89
  -8  17  -1   22.68    0.79
  17  -8  -1   20.15    0.97
  -8 -17   1   22.82    0.99
 -17  -8   1   23.57    0.94
  17  -8  -1   22.59    0.97
  17   8   1   24.10    0.96
 -17  -8   3   13.63    0.74
  17  -8  -3   14.77    0.77
  17  -8  -3   15.81    0.55
  -8  17  -3   14.72    0.57
  17  -8  -3   15.26    0.47
  -8  17  -3   16.18    0.61
   8 -17  -3   16.16    0.68
  17  -8  -3   12.53    0.76
  -8 -17   3   16.21    0.81
  17   8   3   15.99    0.74
 -17  -8   5   16.15    0.81
  -8  17  -5   17.27    0.64
  17  -8  -5   17.16    0.48
   8 -17  -5   16.51    0.71
  -8  17  -7   20.87    0.72
 -17  -8   7   19.73    0.94
   8 -17  -7   19.16    0.79
  -8  17  -9    0.39    0.19
   8 -17  -9    0.26    0.28
 -17  -8   9    0.31    0.36
  -8  17 -11    1.23    0.26
 -17  -8  11    2.50    0.49
  -8  17 -13    5.68    0.39
 -17  -8  13    5.84    0.60
  -8  17 -15    0.35    0.26
 -17  -8  15    0.13    0.42
  -8  17 -17    9.47    0.53
   9  17 -20    1.77    0.29
   9 -17  18    3.31    0.39
   9  17 -18    3.08    0.32
  17  -9  18    2.79    0.36
 -17  -9 -18    3.49    0.68
  -9 -17 -18    2.46    0.52
   9 -17  16   12.34    0.62
   9  17 -16   12.21    0.57
  17  -9  16   10.22    0.58
 -17  -9 -16   12.26    0.96
  -9 -17 -16   11.10    0.82
   9 -17  14    3.72    0.38
   9  17 -14    4.06    0.36
  17   9 -14    3.90    0.27
  -9 -17 -14    4.18    0.54
   9 -17  12    1.63    0.30
  17  -9  12    1.59    0.34
   9  17 -12    1.38    0.27
  17   9 -12    1.28    0.20
 -17  -9 -12    1.28    0.50
  17  -9  12    1.29    0.28
  -9 -17 -12    1.62    0.44
   9 -17  10   10.65    0.54
  -9  17  10   11.36    0.41
   9  17 -10   10.73    0.53
  17   9 -10   11.77    0.46
   9  17 -10   11.60    0.45
  17  -9  10   11.11    0.53
  -9 -17 -10   11.57    0.74
  17  -9  10   11.02    0.57
  17  -9   8   22.61    0.90
  -9  17   8   22.76    0.68
  17  -9   8   22.71    0.76
   9  17  -8   23.19    0.80
 -17  -9  -8   21.74    0.69
   9  17  -8   21.59    0.71
  17  -9   8   21.71    0.79
  17   9  -8   20.85    0.95
  -9 -17  -8   24.01    1.05
  17  -9   8   23.52    0.90
  17  -9   6   13.29    0.68
  -9  17   6   13.68    0.48
  17  -9   6   13.12    0.52
  17   9  -6   12.61    0.38
   9  17  -6   13.90    0.58
 -17  -9  -6   13.03    0.93
  -9  17   6   13.47    0.55
  17  -9   6   12.73    0.55
  -9 -17  -6   13.79    0.79
   9  17  -6   13.52    0.52
 -17  -9  -6   13.88    0.56
  -9  17   4   30.15    0.88
 -17  -9  -4   30.13    1.00
  17  -9   4   30.43    0.89
  17  -9   4   27.81    1.09
 -17  -9  -4   31.22    1.42
  -9  17   4   29.30    0.95
  17  -9   4   29.75    1.15
  -9 -17  -4   30.05    1.20
  17  -9   4   30.48    0.95
  17   9  -4   29.04    1.14
   9  17  -4   29.69    0.90
   9  17  -2   34.89    1.04
  -9  17   2   34.99    1.01
  17  -9   2   34.78    0.99
  -9  17   2   34.47    1.07
 -17  -9  -2   34.85    1.17
  17  -9   2   33.54    1.29
  -9 -17  -2   35.89    1.34
  17   9  -2   35.53    1.25
  17  -9   2   36.86    1.06
  17  -9   0   23.36    0.78
  -9  17   0   24.30    0.76
   9  17   0   23.27    0.77
  17  -9   0   23.68    0.70
  -9  17   0   24.62    0.81
  17  -9   0   21.64    1.00
  17  -9   0   22.94    0.97
  -9 -17   0   23.24    1.02
 -17  -9   0   23.51    0.93
  17   9   0   24.68    0.96
 -17  -9   2   34.66    1.25
  17  -9  -2   36.73    1.03
  -9  17  -2   35.31    1.04
  17  -9  -2   34.59    0.94
   9 -17  -2   37.72    1.18
  -9 -17   2   36.89    1.35
  17  -9  -2   34.48    1.27
  17   9   2   34.01    1.22
  -9  17  -4   30.49    0.94
 -17  -9   4   30.19    1.16
  17  -9  -4   30.06    0.80
  -9 -17   4   31.02    1.20
   9 -17  -4   29.53    1.06
  -9  17  -6   13.75    0.57
 -17  -9   6   14.14    0.79
  -9  17  -8   21.57    0.76
 -17  -9   8   21.38    1.01
  -9  17 -10   11.59    0.53
 -17  -9  10   10.94    0.74
  -9  17 -12    1.72    0.27
 -17  -9  12    1.75    0.46
 -17  -9  14    3.49    0.57
  -9  17 -14    4.27    0.38
  -9  17 -16   11.13    0.59
 -17  -9  16   13.19    0.89
  -9  17 -18    3.29    0.36
  10  17 -19    5.40    0.39
  10 -17  17    6.10    0.46
  10  17 -17    4.62    0.38
 -17 -10 -17    5.59    0.75
  17 -10  17    5.13    0.44
 -10 -17 -17    5.08    0.61
  10 -17  15    0.97    0.31
  10  17 -15    1.52    0.29
 -17 -10 -15    2.23    0.58
  17 -10  15    1.76    0.33
 -10 -17 -15    1.74    0.47
  10 -17  13    4.95    0.41
  10  17 -13    4.66    0.36
  17  10 -13    4.75    0.30
  17 -10  13    5.62    0.43
 -17 -10 -13    4.41    0.66
 -10 -17 -13    6.11    0.63
  10 -17  11    9.41    0.53
  10  17 -11    9.27    0.49
  17  10 -11    9.90    0.43
  17 -10  11    9.82    0.52
 -10 -17 -11    9.49    0.71
 -10  17   9    5.35    0.27
  10  17  -9    4.89    0.37
  10  17  -9    5.65    0.31
  17 -10   9    4.91    0.38
 -10 -17  -9    5.29    0.59
 -10  17   7    7.57    0.34
  17 -10   7    7.52    0.39
  10  17  -7    7.94    0.43
 -17 -10  -7    7.18    0.75
  10  17  -7    7.55    0.36
  17 -10   7    7.04    0.42
  17 -10   7    8.73    0.54
 -10 -17  -7    7.93    0.65
 -17 -10  -7    7.31    0.38
 -10  17   5   21.13    0.65
 -17 -10  -5   19.85    0.75
  17 -10   5   20.40    0.69
  10  17  -5   20.88    0.74
 -17 -10  -5   21.41    1.17
  17 -10   5   20.75    0.90
 -10 -17  -5   22.29    1.02
  17 -10   5   19.89    0.73
  17  10  -5   19.11    0.88
  10  17  -5   20.53    0.68
  10  17  -3   27.83    0.86
 -10  17   3   28.73    0.84
  17 -10   3   27.37    0.84
 -17 -10  -3   28.87    1.36
 -17 -10  -3   27.17    0.98
  17 -10   3   25.50    1.08
 -10 -17  -3   28.67    1.20
  17  10  -3   27.73    1.07
  17 -10   3   28.32    0.91
  10  17  -1   12.78    0.52
 -10  17   1   12.74    0.50
  17 -10   1   13.18    0.47
  17 -10   1   11.63    0.72
 -10 -17  -1   14.09    0.81
 -17 -10  -1   12.71    0.65
  17 -10  -1   13.53    0.53
 -10  17  -1   12.99    0.52
 -17 -10   1   13.48    0.70
  17 -10  -1   11.90    0.44
  17 -10  -1   12.42    0.73
 -10 -17   1   13.40    0.79
 -10  17  -3   27.26    0.86
 -17 -10   3   29.47    1.12
  17 -10  -3   26.63    0.74
 -10 -17   3   29.00    1.19
 -10  17  -5   20.90    0.72
 -17 -10   5   21.29    0.95
 -10  17  -7    6.86    0.39
 -17 -10   7    7.58    0.63
 -10  17  -9    5.70    0.38
 -17 -10   9    4.04    0.53
 -10  17 -11    9.10    0.48
 -17 -10  11    8.99    0.70
 -10  17 -13    5.33    0.42
 -17 -10  13    4.07    0.59
 -10  17 -15    1.73    0.30
 -17 -10  15    0.80    0.49
 -10  17 -17    4.58    0.41
 -17 -10  17    7.48    0.72
  11  17 -20    1.95    0.31
  11  17 -18    0.53    0.25
  11 -17  16    2.16    0.35
  11  17 -16    2.32    0.29
 -17 -11 -16    2.36    0.64
  17 -11  16    2.21    0.35
 -11 -17 -16    3.32    0.57
  11 -17  14    5.59    0.42
  11  17 -14    5.85    0.40
  17  11 -14    5.04    0.33
 -17 -11 -14    4.43    0.69
 -11 -17 -14    5.94    0.66
  11 -17  12    0.60    0.28
  11  17 -12    0.46    0.25
  17  11 -12    0.71    0.23
  17 -11  12    0.34    0.26
 -11 -17 -12    1.02    0.46
  11  17 -10   12.32    0.56
  17  11 -10   11.40    0.50
  17 -11  10   11.67    0.57
 -11 -17 -10   12.91    0.86
 -11  17   8   10.46    0.39
  11  17  -8   10.81    0.51
 -17 -11  -8    9.91    0.85
 -11 -17  -8   10.97    0.78
  17 -11   8   10.67    0.52
 -11  17   6    0.35    0.15
  11  17  -6    0.65    0.22
  11 -17   6    0.46    0.26
  17 -11   6    0.65    0.20
 -17 -11  -6    0.41    0.24
  11  17  -6    0.76    0.25
 -17 -11  -6   -0.21    0.51
 -11 -17  -6   -0.19    0.42
  17 -11   6    0.65    0.31
  11  17  -6    0.74    0.18
 -11  17   4    5.57    0.31
  17 -11   4    5.70    0.32
 -17 -11  -4    5.75    0.42
 -17 -11  -4    6.56    0.72
  17 -11   4    6.36    0.53
 -11 -17  -4    5.87    0.57
  17 -11   4    6.52    0.39
  11  17  -4    5.82    0.33
  17 -11   2   17.90    0.66
  11  17  -2   16.66    0.62
 -11  17   2   17.43    0.60
  17 -11   2   17.76    0.59
  17 -11   2   16.71    0.84
 -11 -17  -2   17.62    0.95
 -17 -11  -2   17.31    0.77
  17 -11   0    5.26    0.35
 -11  17   0    5.21    0.32
 -17 -11   0    5.49    0.48
  11  17   0    5.04    0.34
  17 -11   0    5.41    0.28
  17 -11   0    4.91    0.52
 -11 -17   0    4.56    0.59
 -11  17  -2   16.26    0.60
  17 -11  -2   16.65    0.61
  17 -11  -2   15.99    0.51
 -11 -17   2   17.15    0.92
 -17 -11   2   16.20    0.81
 -11  17  -4    5.79    0.35
 -17 -11   4    6.41    0.54
 -11  17  -6    0.69    0.23
 -17 -11   6    0.24    0.40
 -11  17  -8   10.38    0.50
 -17 -11   8   10.25    0.74
 -11  17 -10   10.98    0.54
 -17 -11  10   11.43    0.79
 -17 -11  12    1.05    0.50
 -11  17 -12    0.81    0.30
 -11  17 -14    6.27    0.43
 -17 -11  14    6.17    0.67
 -11  17 -16    1.97    0.33
 -17 -11  16    2.05    0.57
  12  17 -19    4.94    0.38
  12  17 -17    6.64    0.43
  12 -17  15    9.49    0.56
  12  17 -15    9.64    0.51
 -17 -12 -15    8.90    0.88
  17 -12  15    8.98    0.55
 -12 -17 -15    8.47    0.79
  12 -17  13    6.34    0.48
  12  17 -13    7.41    0.43
  17  12 -13    7.05    0.38
  17 -12  13    6.83    0.46
 -12 -17 -13    7.39    0.71
  12  17 -11   12.84    0.59
  17  12 -11   13.03    0.54
 -12 -17 -11   11.76    0.87
  17 -12  11   12.55    0.61
  12 -17   9    7.84    0.49
  12  17  -9    8.07    0.46
  17  12  -9    8.65    0.42
 -17 -12  -9    8.41    0.80
 -12 -17  -9    9.22    0.77
  17 -12   9    7.82    0.47
 -12  17   7   11.09    0.41
  12 -17   7   11.50    0.55
  12  17  -7   11.61    0.54
 -12 -17  -7   11.49    0.83
  17 -12   7    9.86    0.51
 -12  17   5    4.08    0.27
  12  17  -5    4.95    0.36
  12 -17   5    4.16    0.37
  17 -12   5    4.23    0.31
 -17 -12  -5    4.05    0.66
 -12 -17  -5    4.50    0.60
  17 -12   5    4.87    0.47
  12  17  -5    4.75    0.30
  17 -12   5    4.60    0.35
 -17 -12  -5    4.36    0.38
  17 -12   3    2.83    0.29
 -12  17   3    3.02    0.25
  12  17  -3    2.71    0.26
  17 -12   3    2.88    0.25
 -17 -12  -3    2.14    0.59
 -17 -12  -3    2.90    0.37
 -12  17   1    3.13    0.25
  17 -12   1    3.51    0.32
  12  17  -1    2.73    0.27
 -17 -12  -1    3.06    0.41
  17 -12   1    2.81    0.23
  17 -12   1    2.73    0.43
 -12 -17  -1    2.84    0.54
 -17 -12   1    3.12    0.44
 -12  17  -1    2.70    0.26
  17 -12  -1    1.84    0.40
 -12 -17   1    2.20    0.54
 -12  17  -3    3.16    0.29
 -17 -12   3    3.44    0.47
 -12  17  -5    4.63    0.34
 -17 -12   5    4.03    0.51
 -12  17  -7    9.77    0.49
 -17 -12   7    9.82    0.72
 -12  17  -9    7.83    0.45
 -17 -12   9    8.55    0.72
 -12  17 -11   12.55    0.59
 -17 -12  11   13.19    0.89
 -12  17 -13    7.08    0.46
 -17 -12  13    6.92    0.70
 -12  17 -15    8.50    0.51
 -17 -12  15    7.55    0.76
  13  17 -18    3.84    0.37
  13  17 -16    3.27    0.34
  13  17 -14    9.15    0.48
  17  13 -14    9.84    0.46
  17 -13  14    9.12    0.54
 -13 -17 -14    9.27    0.80
  13  17 -12    8.90    0.50
  17  13 -12    8.99    0.47
 -17 -13 -12    8.68    0.89
 -13 -17 -12    7.82    0.77
  17 -13  12    9.23    0.54
  13 -17  10    8.68    0.53
  13  17 -10   10.14    0.52
  17  13 -10    9.49    0.48
 -17 -13 -10   10.82    0.92
 -13 -17 -10    9.79    0.84
  13 -17   8    5.60    0.44
  13  17  -8    6.30    0.42
 -17 -13  -8    7.27    0.76
 -13 -17  -8    7.80    0.74
  17 -13   8    5.98    0.43
  17 -13   6    2.17    0.30
  13 -17   6    1.83    0.31
  13  17  -6    2.61    0.31
 -17 -13  -6    1.30    0.56
 -13 -17  -6    2.76    0.54
 -13  17   4    3.37    0.27
  17 -13   4    3.67    0.36
  13  17  -4    3.45    0.34
  17 -13   4    3.36    0.28
 -17 -13  -4    3.23    0.39
 -17 -13  -4    2.09    0.62
 -13 -17  -4    3.85    0.61
 -13  17   2    5.16    0.31
  17 -13   2    5.05    0.37
  13  17  -2    4.63    0.31
 -17 -13  -2    5.57    0.47
 -17 -13  -2    4.54    0.70
 -13 -17  -2    4.97    0.64
  17 -13   2    5.31    0.52
 -13  17   0    0.21    0.19
 -17 -13   0    0.47    0.35
  17 -13   0    0.37    0.24
 -13 -17   0    0.36    0.48
 -13  17  -2    5.54    0.36
 -17 -13   2    5.57    0.52
 -17  13  -4    3.87    0.34
 -13  17  -4    3.80    0.33
 -17 -13   4    4.17    0.50
 -17  13  -6    2.62    0.31
 -17 -13   6    2.01    0.46
 -13  17  -6    2.56    0.30
 -13  17  -8    5.91    0.42
 -17 -13   8    6.00    0.61
 -17  13  -8    5.93    0.42
 -13  17 -10    9.05    0.51
 -17 -13  10    9.58    0.76
 -17  13 -10    9.04    0.54
 -13  17 -12    8.98    0.53
 -17 -13  12    8.37    0.77
 -13  17 -14    9.44    0.54
 -17 -13  14    9.38    0.81
  14  17 -15    1.60    0.28
  17  14 -13    4.40    0.34
  14  17 -13    3.58    0.36
 -14 -17 -13    4.37    0.69
  17 -14  13    3.96    0.41
  17 -14  11    2.61    0.36
  14 -17  11    2.38    0.34
  14  17 -11    2.56    0.33
  17  14 -11    2.97    0.32
 -17 -14 -11    2.61    0.60
 -14 -17 -11    2.50    0.61
  17 -14   9    0.14    0.28
  14 -17   9   -0.17    0.27
  14  17  -9    0.27    0.27
  17  14  -9    0.09    0.23
 -17 -14  -9    0.06    0.53
 -14 -17  -9    0.30    0.47
  17 -14   7    8.60    0.50
  14 -17   7    8.45    0.51
  14  17  -7    7.15    0.44
 -17 -14  -7    7.79    0.83
 -14 -17  -7    8.24    0.77
  14 -17   5    5.46    0.44
 -17 -14  -5    5.88    0.74
 -14 -17  -5    5.19    0.67
 -14  17   3    9.28    0.40
  17 -14   3    7.35    0.46
 -17 -14  -3    7.42    0.55
 -17 -14  -3    9.27    0.87
 -14 -17  -3    7.98    0.79
 -14  17   1    2.35    0.26
  17 -14   1    2.51    0.32
 -17 -14  -1    2.48    0.44
 -14 -17  -1    2.40    0.62
 -17  14  -1    2.46    0.28
 -17 -14   1    2.00    0.43
 -14  17  -1    2.83    0.29
 -14 -17   1    2.26    0.58
 -14  17  -3    7.79    0.43
 -17 -14   3    8.64    0.64
 -17  14  -3    8.16    0.44
 -17  14  -5    5.97    0.41
 -14  17  -5    6.17    0.39
 -17 -14   5    6.68    0.63
 -17  14  -7    8.37    0.48
 -14  17  -7    7.36    0.45
 -17  14  -9    0.26    0.28
 -14  17  -9   -0.02    0.24
 -17 -14   9    0.04    0.46
 -17  14 -11    2.59    0.37
 -14  17 -11    2.68    0.34
 -17 -14  11    3.05    0.61
 -17  14 -13    3.46    0.41
 -14  17 -13    3.40    0.38
 -17 -14  13    3.55    0.62
  15  17 -14    1.90    0.28
  15  17 -12    0.23    0.25
  17  15 -12    0.15    0.22
  17 -15  10    0.26    0.29
  15 -17  10   -0.02    0.26
  15  17 -10    0.22    0.25
  17  15 -10    0.25    0.26
 -17 -15 -10   -0.17    0.54
 -15 -17 -10   -0.11    0.49
  17 -15   8   13.85    0.65
  15  17  -8   13.69    0.61
  17  15  -8   13.50    0.59
 -17 -15  -8   14.38    1.06
 -15 -17  -8   13.23    1.00
  17 -15   6    8.92    0.51
  15 -17   6    8.48    0.52
 -17 -15  -6    9.45    0.89
 -15 -17  -6    9.93    0.86
 -17 -15  -4    4.03    0.68
 -15 -17  -4    3.12    0.67
 -15  17   2   23.53    0.76
  17 -15   2   23.79    0.86
 -17 -15  -2   22.56    1.29
 -15 -17  -2   23.02    1.27
 -17 -15  -2   23.14    0.96
 -15  17   0   31.13    0.96
 -17 -15   0   30.94    1.20
 -15 -17   0   30.48    1.47
 -17  15   0   31.76    0.97
 -17  15  -2   23.46    0.81
 -15  17  -2   25.08    0.82
 -17  15  -4    3.15    0.33
 -15  17  -4    3.45    0.32
 -17 -15   4    4.11    0.56
 -17  15  -6    7.71    0.46
 -15  17  -6    8.69    0.47
 -17  15  -8   14.86    0.66
 -15  17  -8   14.40    0.64
 -17  15 -10    0.15    0.30
 -15  17 -10    0.46    0.28
 -17  15 -12    0.38    0.31
 -15  17 -12   -0.02    0.27
  16  17 -13    2.12    0.29
  17  16 -13    2.07    0.30
  16  17 -11    0.51    0.24
  17  16 -11    0.35    0.23
  17 -16   9    6.44    0.47
  16 -17   9    6.36    0.47
  16  17  -9    6.98    0.44
  17  16  -9    6.65    0.43
 -17 -16  -9    6.18    0.81
 -16 -17  -9    6.61    0.77
  17 -16   7    2.11    0.35
  16 -17   7    2.82    0.35
  16  17  -7    2.27    0.32
  17  16  -7    2.91    0.33
 -17 -16  -7    2.51    0.66
 -16 -17  -7    3.95    0.67
  17 -16   5    8.02    0.48
  16 -17   5    8.03    0.50
 -17 -16  -5    7.43    0.83
 -16 -17  -5    7.57    0.81
 -17 -16  -3   31.03    1.56
 -16 -17  -3   33.89    1.58
 -17 -16  -1    3.51    0.47
 -16 -17  -1    2.60    0.65
 -17  16  -1    3.61    0.32
 -16  17  -1    3.48    0.31
 -17 -16   1    4.54    0.52
 -17  16  -3   33.76    1.06
 -16  17  -3   32.98    1.04
 -17 -16   3   32.13    1.30
 -17  16  -5    7.38    0.44
 -16  17  -5    7.65    0.45
 -17  16  -7    2.76    0.35
 -16  17  -7    2.93    0.34
 -17  16  -9    6.68    0.45
 -16  17  -9    6.60    0.45
 -17  16 -11    0.79    0.30
 -16  17 -11    0.28    0.27
  17  17 -12    2.88    0.32
  17  17 -10   -0.27    0.25
  17  17  -8    5.44    0.38
  17 -17   6    0.70    0.29
 -17 -17  -6    0.42    0.60
 -17 -17  -4    1.65    0.63
 -17 -17  -2    9.01    0.88
 -17 -17   0    2.50    0.43
 -17  17  -4    3.01    0.32
 -17  17  -6    0.68    0.27
 -17  17  -8    5.43    0.42
 -17  17 -10    0.15    0.25
  18   0   0    9.98    0.41
   0  18   0    9.69    0.46
  18   0   0    9.96    0.39
 -18   0   0    9.11    0.51
  18   0   0   10.03    0.66
   0  18   0   10.24    0.48
   0 -18   0   10.56    0.48
  18   0  -2    3.37    0.24
   0  18   2    3.38    0.29
   0 -18  -2    3.79    0.33
  18   0   2    3.03    0.26
   0  18  -2    2.97    0.28
  18   0   2    3.04    0.24
   0  18   2    3.69    0.30
 -18   0  -2    3.11    0.32
  18   0  -2    3.16    0.21
  18   0  -2    2.89    0.43
  18   0   2    3.04    0.44
 -18   0   2    3.24    0.35
   0  18  -2    3.02    0.28
   0 -18   2    2.79    0.28
  18   0  -4    1.63    0.18
  18   0   4    1.24    0.21
   0 -18  -4    1.39    0.27
  18   0   4    1.28    0.20
   0  18  -4    1.74    0.23
   0  18   4    1.59    0.23
   0  18  -4    1.26    0.24
   0 -18   4    1.67    0.22
  18   0   4    1.45    0.39
 -18   0   4    1.78    0.33
 -18   0   6    0.10    0.27
  18   0  -6    0.09    0.13
  18   0   6    0.04    0.19
   0 -18  -6    0.08    0.25
  18   0  -6    0.09    0.08
  18   0   6    0.09    0.17
   0  18  -6   -0.03    0.18
   0  18   6    0.07    0.17
   0  18  -6    0.01    0.20
  18   0   6   -0.03    0.30
  18   0   8    4.61    0.43
  18   0   8    5.06    0.34
  18   0  -8    4.34    0.20
 -18   0   8    4.03    0.42
   0 -18  -8    3.90    0.36
  18   0   8    5.00    0.33
   0  18  -8    4.53    0.33
   0 -18  -8    4.96    0.34
   0  18  -8    4.91    0.33
  18   0  -8    3.82    0.49
  18   0  10    4.62    0.43
  18   0  10    4.51    0.34
   0 -18 -10    4.33    0.41
 -18   0  10    5.08    0.51
  18   0  10    4.73    0.34
   0  18 -10    4.90    0.33
  18   0 -10    4.08    0.15
   0 -18 -10    4.67    0.33
   0 -18 -12    4.36    0.43
  18   0  12    4.60    0.37
   0  18 -12    4.40    0.33
   0 -18 -12    5.05    0.35
   0 -18 -14    5.21    0.45
   0  18 -14    4.89    0.37
  18   0  14    5.36    0.40
   0 -18 -16    0.43    0.34
   0  18 -16    0.22    0.24
  18   0  16    0.26    0.27
 -18   0  16    0.53    0.37
 -18   0 -16    0.35    0.48
   0 -18 -18    1.25    0.40
   0  18 -18    0.81    0.27
 -18   0  18    1.83    0.49
  18   0  18    1.26    0.31
 -18   0 -18    1.70    0.59
   0  18 -20    2.05    0.30
   0 -18 -20    2.06    0.41
 -18   0  20    2.19    0.49
  18   0  20    2.01    0.33
 -18   0 -22    2.88    0.68
 -18  -1 -21    0.81    0.58
 -18   1  19    2.10    0.45
  -1 -18 -19    1.46    0.38
   1  18 -19    1.60    0.28
  18  -1  19    1.38    0.32
 -18  -1 -19    1.59    0.57
 -18   1  17    1.30    0.44
  -1 -18 -17    0.95    0.38
   1  18 -17    1.08    0.29
  18  -1  17    0.97    0.33
 -18  -1 -17    0.99    0.59
  -1 -18 -15    1.91    0.39
   1  18 -15    2.43    0.30
  18  -1  15    3.06    0.32
 -18  -1 -15    2.65    0.61
  -1 -18 -13    0.93    0.32
   1  18 -13    1.04    0.25
  18  -1  13    0.60    0.23
   1  18 -13    0.86    0.21
 -18  -1 -13    1.49    0.57
  18  -1  11    3.10    0.38
 -18   1  11    3.17    0.45
  -1 -18 -11    2.83    0.38
   1  18 -11    2.47    0.30
  18   1 -11    2.76    0.12
   1  18 -11    3.17    0.28
  -1 -18 -11    3.07    0.29
  18  -1   9    0.59    0.28
 -18   1   9    0.52    0.30
  18   1  -9    0.51    0.11
  18  -1   9    0.50    0.21
  -1 -18  -9    0.42    0.27
  18  -1   9    0.49    0.22
  -1 -18  -9    0.49    0.21
   1  18  -9    0.80    0.22
  18   1  -7    6.27    0.27
  -1 -18  -7    6.19    0.45
  18  -1   7    6.22    0.36
  -1  18   7    6.53    0.39
  18  -1   7    6.31    0.36
   1  18  -7    5.01    0.36
  -1  18   7    6.59    0.36
   1  18  -7    6.58    0.36
  18   1  -7    5.21    0.53
 -18   1   7    6.82    0.50
  18  -1   7    7.74    0.52
  18   1  -5    7.04    0.32
  -1 -18  -5    7.76    0.47
  18  -1   5    7.44    0.38
  18  -1   5    8.18    0.39
   1  18  -5    7.14    0.40
  -1  18   5    6.59    0.37
   1  18  -5    7.85    0.40
   1 -18   5    6.95    0.31
 -18   1   5    7.67    0.51
  18   1  -5    7.65    0.26
  18  -1   5    7.17    0.55
  -1 -18  -3   12.12    0.57
  18   1  -3   12.93    0.45
  18  -1   3   12.79    0.49
 -18  -1  -3   11.67    0.54
  18  -1   3   11.92    0.47
   1  18  -3   12.53    0.53
  -1  18   3   11.66    0.49
  18   1  -3   12.25    0.41
 -18   1   3   12.36    0.62
   1  18  -3   11.96    0.51
  18  -1   3   11.65    0.69
   1 -18   3   11.82    0.47
  -1 -18  -1    2.60    0.33
   1 -18   1    3.11    0.28
  18   1  -1    2.51    0.23
  18  -1   1    3.57    0.25
  18   1  -1    2.60    0.21
  -1  18   1    2.75    0.28
  18  -1   1    3.02    0.24
   1  18  -1    2.45    0.27
 -18   1   1    3.09    0.34
 -18  -1  -1    3.05    0.33
  18   1  -1    3.13    0.44
  18  -1   1    2.70    0.43
   1  18  -1    2.75    0.28
  -1  18   1    3.37    0.29
  18   1   1    3.19    0.25
   1  18   1    2.70    0.29
   1 -18  -1    2.97    0.29
  18  -1  -1    2.83    0.23
  18   1   1    2.93    0.24
  -1  18  -1    2.97    0.28
 -18   1  -1    3.32    0.32
   1  18   1    2.78    0.27
  18  -1  -1    2.65    0.21
  18  -1  -1    2.25    0.43
  18   1   1    3.37    0.45
  -1  18  -1    2.68    0.29
 -18  -1   1    3.06    0.35
  -1 -18   1    2.76    0.31
  18   1   3   11.68    0.48
   1  18   3   11.68    0.52
   1 -18  -3   11.93    0.54
  18  -1  -3   11.70    0.42
  -1  18  -3   11.81    0.51
   1  18   3   12.55    0.51
  18  -1  -3    9.73    0.68
  -1  18  -3   11.71    0.51
  18  -1  -3   12.27    0.41
  -1 -18   3   11.45    0.50
 -18  -1   3   11.76    0.61
  18   1   3   10.37    0.65
  18   1   5    7.67    0.41
  18  -1  -5    7.90    0.30
   1 -18  -5    7.22    0.45
   1  18   5    6.72    0.40
  18   1   5    7.72    0.39
  -1  18  -5    7.67    0.40
  -1  18  -5    7.69    0.41
  -1 -18   5    7.49    0.38
  18   1   5    8.11    0.56
 -18  -1   5    7.30    0.52
  18  -1  -5    8.12    0.29
 -18  -1   7    7.10    0.54
  18   1   7    7.19    0.40
  18  -1  -7    6.80    0.25
   1 -18  -7    6.75    0.44
  18   1   7    6.93    0.38
  -1  18  -7    6.85    0.39
   1 -18  -7    8.18    0.44
  -1  18  -7    7.16    0.39
  18   1   7    7.06    0.51
  18   1   9    0.66    0.31
  18   1   9    0.31    0.21
   1 -18  -9    0.23    0.26
  -1  18  -9    0.64    0.23
 -18  -1   9    0.44    0.32
  -1  18  -9    0.27    0.20
   1 -18  -9    0.54    0.22
   1 -18 -11    2.72    0.35
 -18  -1  11    2.55    0.44
  -1  18 -11    2.82    0.30
   1 -18 -11    3.04    0.32
   1 -18 -13    1.15    0.32
   1 -18 -15    2.25    0.36
  -1  18 -15    1.85    0.29
  -1  18 -17    1.56    0.29
   1 -18 -17    0.89    0.34
 -18  -1  17    1.29    0.47
  -1  18 -19    1.71    0.30
   1 -18 -19    2.00    0.40
  18   1  19    1.99    0.32
 -18  -1  19    2.37    0.49
 -18   1 -19    2.39    0.64
 -18   1 -21    1.86    0.60
   2 -18  22    6.01    0.42
 -18  -2 -22    4.59    0.72
 -18   2  20    0.78    0.39
   2  18 -20    0.26    0.26
   2 -18  20    0.15    0.27
 -18   2  18    4.55    0.53
  -2 -18 -18    3.87    0.48
   2  18 -18    4.36    0.38
  18  -2  18    4.96    0.42
 -18  -2 -18    5.48    0.74
 -18   2  16    3.19    0.46
  -2 -18 -16    4.50    0.48
   2  18 -16    3.97    0.36
  18  -2  16    4.09    0.36
 -18  -2 -16    4.29    0.73
 -18   2  14    3.87    0.48
  -2 -18 -14    3.90    0.44
   2  18 -14    3.65    0.33
   2  18 -14    3.71    0.32
  18  -2  14    4.05    0.36
 -18  -2 -14    3.79    0.69
  -2 -18 -12    2.48    0.37
  18  -2  12    1.93    0.32
   2  18 -12    2.39    0.29
  18  -2  12    2.66    0.31
   2  18 -12    2.48    0.25
 -18  -2 -12    2.75    0.58
  18   2 -10    5.89    0.24
  -2 -18 -10    6.93    0.49
  18  -2  10    5.65    0.37
  18  -2  10    4.75    0.40
   2  18 -10    5.11    0.36
  18  -2  10    5.21    0.36
   2  18 -10    5.90    0.34
  18   2 -10    5.58    0.23
  -2  18  10    5.80    0.33
 -18   2  10    5.36    0.48
  18  -2  10    5.90    0.45
  18   2  -8   23.83    0.69
  -2 -18  -8   24.83    0.93
  18  -2   8   24.19    0.81
  18  -2   8   23.92    0.91
  -2  18   8   24.94    0.77
   2  18  -8   24.32    0.79
 -18   2   8   24.32    0.96
  18  -2   8   25.31    0.97
  18   2  -6   22.77    0.67
  -2 -18  -6   22.09    0.86
  -2  18   6   22.72    0.78
  18  -2   6   22.22    0.75
  18  -2   6   22.26    0.74
  -2  18   6   21.51    0.73
  18  -2   6   22.08    0.88
 -18   2   6   21.07    0.87
   2  18  -6   23.25    0.76
  18   2  -6   20.10    0.98
  18  -2   6   22.92    0.93
  18   2  -4    7.44    0.34
  18  -2   4    6.80    0.37
 -18  -2  -4    7.60    0.42
   2  18  -4    7.44    0.40
  18  -2   4    7.62    0.38
  -2  18   4    7.92    0.39
 -18   2   4    7.82    0.50
  18   2  -4    7.65    0.28
   2  18  -4    6.94    0.39
  18   2  -4    7.29    0.58
  18  -2   4    7.72    0.56
   2 -18   4    6.89    0.32
  -2  18   4    7.07    0.40
  18  -2   4    7.07    0.53
  -2 -18  -4    7.02    0.47
  18   2  -2   29.92    0.91
  18  -2   2   31.19    0.93
  -2  18   2   31.39    0.96
  18   2  -2   33.65    0.88
 -18   2   2   31.50    1.07
   2  18  -2   30.56    0.98
  18  -2   2   32.61    0.94
 -18  -2  -2   32.33    1.03
  18  -2   2   32.19    1.22
   2  18  -2   31.12    0.98
  -2 -18  -2   32.97    1.07
   2 -18   2   32.35    0.94
  18   2   0   51.74    1.41
   2 -18   0   49.99    1.44
  18  -2   0   52.62    1.38
  18   2   0   52.41    1.37
 -18   2   0   52.79    1.53
  -2  18   0   52.69    1.44
   2  18   0   50.54    1.45
  18  -2   0   55.43    1.39
  18  -2   0   51.73    1.72
 -18  -2   0   52.91    1.54
  18   2   0   46.33    1.66
  -2  18   0   53.06    1.46
  -2 -18   0   53.35    1.52
   2  18   0   51.97    1.46
  18   2   2   32.12    0.95
   2  18   2   30.21    0.97
   2 -18  -2   32.92    0.99
  18  -2  -2   30.01    0.87
  18   2   2   31.33    0.91
  -2  18  -2   31.72    0.97
   2  18   2   32.38    0.98
  18  -2  -2   28.53    1.21
  -2  18  -2   31.69    0.98
  18  -2  -2   31.90    0.89
  -2 -18   2   32.58    1.02
  18   2   2   31.37    1.18
 -18  -2   2   31.96    1.10
  18   2   4    7.29    0.40
   2  18   4    7.03    0.40
   2 -18  -4    6.83    0.42
  18   2   4    7.38    0.37
  -2  18  -4    6.73    0.38
  -2  18  -4    7.31    0.40
  -2 -18   4    8.04    0.42
  18  -2  -4    5.69    0.55
  18  -2  -4    7.22    0.30
  18   2   4    6.16    0.53
 -18  -2   4    6.87    0.51
  18   2   6   22.14    0.74
 -18  -2   6   22.58    0.92
  18  -2  -6   21.18    0.58
   2 -18  -6   20.58    0.78
   2  18   6   19.79    0.74
  -2  18  -6   22.21    0.75
  -2  18  -6   21.15    0.74
  18  -2  -6   18.37    0.94
  18   2   6   22.07    0.90
  18   2   8   25.06    0.83
 -18  -2   8   22.85    0.99
   2 -18  -8   23.74    0.88
  -2  18  -8   23.81    0.82
   2 -18  -8   25.30    0.84
  -2  18  -8   23.71    0.81
  18   2   8   24.08    0.95
  -2  18 -10    5.72    0.38
 -18  -2  10    5.72    0.53
   2 -18 -10    5.61    0.40
   2 -18 -12    2.20    0.30
 -18  -2  12    1.87    0.41
  -2  18 -16    3.73    0.35
   2 -18 -16    4.05    0.44
  -2  18 -18    4.64    0.40
   2 -18 -18    5.13    0.49
 -18  -2  18    5.06    0.59
   3 -18  21    8.74    0.52
 -18  -3 -21    9.96    0.92
  -3 -18 -19    7.33    0.60
   3  18 -19    8.31    0.49
   3 -18  19    9.34    0.51
 -18  -3 -19    7.88    0.83
 -18   3  19    8.88    0.66
  -3 -18 -17    0.43    0.35
   3  18 -17    0.96    0.28
   3 -18  17    0.98    0.28
  18  -3  17    0.85    0.29
 -18  -3 -17    0.32    0.52
 -18   3  17    0.94    0.38
  -3 -18 -15   10.68    0.69
   3  18 -15   11.33    0.54
  18  -3  15   12.07    0.58
  -3  18  15   10.98    0.45
 -18  -3 -15   11.59    0.93
 -18   3  15   11.60    0.69
  -3 -18 -13    1.99    0.37
  18  -3  13    2.78    0.34
   3  18 -13    2.89    0.32
   3  18 -13    2.70    0.26
  18  -3  13    3.04    0.33
  -3  18  13    3.24    0.25
 -18  -3 -13    2.56    0.61
  18  -3  11   12.73    0.61
  -3 -18 -11   10.93    0.64
   3  18 -11   10.93    0.52
  18  -3  11   11.59    0.54
   3  18 -11   11.60    0.49
  18   3 -11   11.72    0.37
  -3  18  11   11.36    0.46
  18  -3  11   10.60    0.57
 -18  -3 -11   10.46    0.87
  -3 -18  -9   29.45    1.07
   3  18  -9   28.11    0.92
  18  -3   9   28.19    0.91
  -3  18   9   27.92    0.85
   3  18  -9   28.29    0.88
 -18   3   9   27.66    1.05
  18  -3   9   24.63    0.97
  18  -3   9   27.28    1.02
  -3 -18  -7    0.41    0.30
  -3  18   7    0.76    0.23
  18  -3   7    0.88    0.21
  18  -3   7    1.09    0.32
  -3  18   7    0.94    0.20
  18  -3   7    0.83    0.22
   3  18  -7    0.77    0.21
  18   3  -7    0.34    0.35
 -18   3   7    0.87    0.31
  18  -3   7    1.03    0.33
  18  -3   5   22.28    0.73
 -18  -3  -5   23.65    0.78
  -3  18   5   22.71    0.73
 -18   3   5   21.89    0.87
   3  18  -5   22.97    0.76
   3 -18   5   21.02    0.62
  18  -3   5   22.41    0.95
  18  -3   5   21.40    0.90
  -3  18   5   23.19    0.78
  -3 -18  -5   23.58    0.89
  18  -3   3   91.52    2.35
  18  -3   3   90.49    2.60
  -3  18   3   96.79    2.39
 -18   3   3   96.48    2.53
  18   3  -3  100.98    2.28
   3  18  -3   94.40    2.43
  18  -3   3   94.31    2.37
 -18  -3  -3   94.21    2.45
  18   3  -3   87.07    2.66
  18  -3   3   95.89    2.67
   3  18  -3   95.90    2.41
  -3  18   3   91.06    2.41
  -3 -18  -3   90.91    2.53
   3 -18   3   90.59    2.32
  18   3  -3   88.78    2.34
   3 -18   1    7.32    0.36
  18  -3   1    7.47    0.34
  18   3  -1    6.51    0.31
 -18   3   1    7.74    0.46
  -3  18   1    6.58    0.37
   3  18  -1    6.88    0.39
  18  -3   1    7.43    0.53
  18  -3   1    7.11    0.58
 -18  -3  -1    7.68    0.46
  -3 -18  -1    7.41    0.48
   3  18  -1    7.17    0.40
  18   3   1    7.03    0.37
   3  18   1    6.83    0.39
   3 -18  -1    6.48    0.37
  18  -3  -1    6.52    0.31
  18   3   1    6.93    0.33
  -3  18  -1    7.08    0.37
   3  18   1    6.39    0.38
  18  -3  -1    7.56    0.57
  -3  18  -1    6.34    0.38
  18  -3  -1    7.31    0.34
  18  -3  -1    6.80    0.59
  -3 -18   1    7.58    0.47
 -18  -3   1    7.04    0.49
  18   3   3   88.41    2.33
 -18  -3   3   97.65    2.54
   3  18   3   91.37    2.36
  18  -3  -3   90.94    2.22
   3 -18  -3   90.84    2.36
  -3  18  -3   90.10    2.34
  -3  18  -3   91.69    2.36
  -3 -18   3   92.38    2.41
  18   3   3   92.69    2.58
  18  -3  -3   92.87    2.25
  18   3   5   23.01    0.78
  18  -3  -5   24.36    0.66
 -18  -3   5   25.22    0.97
  18  -3  -5   22.68    0.63
   3  18   5   22.37    0.79
  -3  18  -5   21.77    0.77
  -3  18  -5   23.64    0.79
  -3 -18   5   22.61    0.81
  18  -3  -5   19.97    0.99
  18   3   5   24.56    0.97
  18   3   7    1.04    0.24
  18  -3  -7    0.98    0.09
  -3  18  -7    0.72    0.22
  -3  18  -7    0.44    0.21
   3 -18  -7    0.91    0.27
  18  -3  -7    0.85    0.39
 -18  -3   7    1.22    0.35
  18   3   9   27.04    0.90
  -3  18  -9   26.79    0.90
 -18  -3   9   25.52    1.09
   3 -18  -9   27.95    0.93
  -3  18 -11   10.55    0.51
 -18  -3  11   10.49    0.69
   3 -18 -11   10.69    0.54
   3 -18 -13    2.91    0.36
 -18  -3  13    2.33    0.44
  -3  18 -17    0.86    0.26
 -18  -3  17    0.20    0.41
  -3  18 -19    9.19    0.53
 -18  -3  19   10.01    0.74
   4  18 -20    0.98    0.29
   4 -18  20    1.34    0.30
 -18  -4 -20    1.67    0.61
  -4 -18 -18    2.31    0.47
   4  18 -18    2.12    0.31
  18  -4  18    1.98    0.32
 -18  -4 -18    1.85    0.64
 -18   4  18    1.97    0.44
  -4 -18 -16    5.34    0.56
   4 -18  16    5.63    0.41
   4  18 -16    5.76    0.42
  18  -4  16    5.80    0.43
 -18  -4 -16    5.49    0.77
 -18   4  16    5.97    0.54
  -4 -18 -14    6.51    0.55
  18  -4  14    7.95    0.49
   4 -18  14    7.49    0.45
   4  18 -14    8.08    0.40
   4  18 -14    6.93    0.42
  18  -4  14    7.36    0.46
  -4  18  14    7.49    0.36
 -18   4  14    7.33    0.57
 -18  -4 -14    7.23    0.77
  -4 -18 -12    1.14    0.34
  18  -4  12    0.87    0.27
   4  18 -12    1.11    0.25
  18   4 -12    1.09    0.14
   4  18 -12    1.07    0.22
  18  -4  12    1.14    0.25
  -4  18  12    0.68    0.18
 -18  -4 -12    0.93    0.53
  18  -4  12    0.76    0.28
  18  -4  10    2.24    0.34
  18  -4  10    3.03    0.36
  -4 -18 -10    2.46    0.39
   4  18 -10    2.26    0.27
  -4 -18 -10    2.69    0.27
  -4  18  10    2.09    0.23
  18  -4  10    2.57    0.29
   4  18 -10    2.17    0.25
 -18  -4 -10    1.52    0.54
  18  -4   8   19.57    0.69
  18  -4   8   19.86    0.82
   4  18  -8   20.13    0.73
  -4  18   8   19.91    0.65
  18  -4   8   19.14    0.70
 -18   4   8   19.46    0.83
 -18  -4  -8   20.35    1.12
   4  18  -8   20.08    0.68
  -4 -18  -8   18.09    0.82
  18  -4   6   12.51    0.51
  18  -4   6   12.48    0.65
 -18  -4  -6   13.70    0.53
  -4  18   6   13.08    0.50
 -18   4   6   13.29    0.64
  18  -4   6   13.24    0.53
   4  18  -6   12.79    0.53
  18   4  -6   12.72    0.75
  18  -4   6   12.47    0.68
  -4  18   6   12.86    0.55
  -4 -18  -6   12.35    0.64
  18  -4   4    6.18    0.34
 -18   4   4    6.95    0.46
  -4  18   4    6.53    0.36
  18   4  -4    7.24    0.26
  18  -4   4    7.07    0.37
 -18  -4  -4    6.04    0.39
  18  -4   4    6.95    0.53
  18  -4   4    7.07    0.57
  18   4  -4    5.64    0.54
   4  18  -4    6.55    0.38
  -4  18   4    6.59    0.39
  -4 -18  -4    5.63    0.46
   4 -18   4    6.81    0.30
   4 -18   2   40.87    1.12
  18  -4   2   39.04    1.12
  18   4  -2   42.25    1.08
 -18   4   2   42.51    1.29
  -4  18   2   40.29    1.16
   4  18  -2   40.77    1.20
  18  -4   2   40.16    1.15
  18  -4   2   41.92    1.44
 -18  -4  -2   39.63    1.24
  18   4  -2   38.83    1.41
  -4  18   2   40.37    1.19
  -4 -18  -2   40.57    1.31
   4  18  -2   40.75    1.19
   4  18   0   29.24    0.94
   4 -18   0   29.03    0.91
  18  -4   0   30.11    1.15
  -4  18   0   28.67    0.91
   4  18   0   30.94    0.95
  18  -4   0   31.28    0.89
  -4 -18   0   29.04    1.04
 -18  -4   0   31.78    1.05
 -18  -4   2   40.90    1.33
   4  18   2   40.20    1.19
  18  -4  -2   39.53    1.07
  -4  18  -2   40.90    1.18
  18  -4  -2   36.52    1.42
  -4 -18   2   41.97    1.30
  18  -4  -2   40.69    1.41
  18  -4  -2   44.31    1.12
  18   4   2   38.33    1.16
  18   4   4    6.99    0.39
  18  -4  -4    6.26    0.30
   4  18   4    6.08    0.38
 -18  -4   4    6.98    0.53
  18  -4  -4    6.16    0.26
  -4  18  -4    6.68    0.38
  -4  18  -4    6.37    0.37
  -4 -18   4    6.90    0.45
  18  -4  -4    6.05    0.59
  18   4   4    6.32    0.50
  18   4   6   12.40    0.54
  -4  18  -6   13.41    0.55
  18  -4  -6   12.79    0.37
 -18  -4   6   12.92    0.70
   4 -18  -6   13.60    0.59
  -4  18  -6   12.01    0.53
  18  -4  -6   11.04    0.74
  18   4   6   12.93    0.67
  18   4   8   21.68    0.76
  -4  18  -8   19.78    0.73
 -18  -4   8   20.48    0.93
   4 -18  -8   20.09    0.78
   4 -18 -10    1.82    0.30
  -4  18 -10    2.20    0.27
 -18  -4  10    2.08    0.41
 -18  -4  12    1.13    0.39
  -4  18 -12    0.88    0.23
   4 -18 -12    0.88    0.28
 -18  -4  14    6.99    0.63
  -4  18 -18    2.24    0.33
 -18  -4  18    3.01    0.54
  -5 -18 -19    0.67    0.39
   5  18 -19    0.89    0.28
   5 -18  19    0.68    0.30
  18  -5  19    0.53    0.27
 -18  -5 -19    0.50    0.54
 -18   5  19    0.35    0.35
  -5 -18 -17    7.01    0.61
   5  18 -17    7.14    0.46
  18  -5  17    6.86    0.47
 -18   5  17    7.88    0.61
 -18  -5 -17    7.16    0.81
  -5 -18 -15    0.13    0.35
   5 -18  15    0.25    0.29
   5  18 -15    0.34    0.23
  18  -5  15    0.34    0.27
 -18  -5 -15    0.64    0.56
 -18   5  15    0.27    0.31
  -5 -18 -13    6.47    0.57
   5 -18  13    6.74    0.44
   5  18 -13    7.41    0.44
   5  18 -13    6.51    0.36
  -5  18  13    6.61    0.32
  18  -5  13    7.03    0.44
 -18   5  13    6.95    0.53
 -18  -5 -13    6.37    0.74
  -5 -18 -11    2.58    0.41
  18  -5  11    3.08    0.36
   5  18 -11    2.70    0.31
  18  -5  11    3.31    0.37
  -5  18  11    2.74    0.23
  18   5 -11    2.85    0.21
   5  18 -11    3.12    0.28
  18  -5  11    2.45    0.29
 -18  -5 -11    2.33    0.59
  -5 -18  -9    1.62    0.33
   5  18  -9    1.12    0.24
  -5  18   9    1.28    0.20
  18  -5   9    1.03    0.23
  18  -5   9    1.10    0.31
 -18  -5  -9    1.02    0.50
   5  18  -9    1.29    0.22
  18  -5   9    1.31    0.31
  18  -5   7    6.82    0.38
 -18  -5  -7    7.73    0.38
  -5  18   7    6.55    0.34
 -18   5   7    7.59    0.49
   5  18  -7    7.11    0.41
  18  -5   7    6.78    0.38
 -18  -5  -7    7.09    0.70
   5  18  -7    7.19    0.38
  18  -5   7    6.99    0.52
  -5 -18  -7    6.84    0.53
  18  -5   7    6.53    0.49
  18  -5   5    3.63    0.27
  -5  18   5    3.85    0.27
 -18   5   5    3.82    0.38
 -18  -5  -5    4.19    0.32
  18  -5   5    3.64    0.30
   5  18  -5    3.95    0.30
  18   5  -5    2.88    0.46
  18  -5   5    3.44    0.43
   5 -18   5    3.49    0.18
  -5  18   5    3.32    0.30
  -5 -18  -5    3.30    0.41
  18  -5   5    3.46    0.42
   5 -18   3   18.59    0.59
  18  -5   3   17.55    0.61
  18  -5   3   18.74    0.84
  -5  18   3   18.16    0.63
  18  -5   3   19.94    0.66
  18  -5   3   18.82    0.89
 -18  -5  -3   18.93    0.71
  18   5  -3   16.80    0.85
  -5  18   3   18.46    0.68
  -5 -18  -3   18.09    0.81
   5  18  -3   18.54    0.66
   5  18  -1    2.66    0.29
  18  -5   1    2.97    0.23
   5 -18   1    2.91    0.25
 -18  -5  -1    2.82    0.35
  -5  18   1    2.88    0.26
   5  18  -1    2.51    0.28
  -5  18   1    2.82    0.28
  18  -5   1    2.94    0.25
  -5 -18  -1    2.87    0.38
  18   5  -1    2.21    0.39
  18  -5   1    2.81    0.42
   5  18   1    2.95    0.28
  18  -5  -1    2.84    0.20
  -5  18  -1    2.54    0.25
 -18  -5   1    2.45    0.37
  18  -5  -1    2.32    0.43
  18  -5  -1    2.45    0.41
  -5 -18   1    2.78    0.38
  18   5   1    2.43    0.39
  18  -5  -1    3.05    0.24
   5  18   3   18.00    0.66
  -5  18  -3   18.10    0.64
 -18  -5   3   17.15    0.79
  18  -5  -3   17.02    0.85
  18  -5  -3   16.40    0.87
  -5 -18   3   17.75    0.77
  18   5   5    3.15    0.29
  18   5   5    4.00    0.42
  18  -5  -5    4.31    0.50
  18  -5  -5    3.13    0.22
  -5  18  -5    3.40    0.30
   5 -18  -5    3.89    0.37
  -5 -18   5    3.66    0.39
  18  -5  -5    2.69    0.46
 -18  -5   5    2.92    0.41
  18   5   7    6.99    0.41
 -18  -5   7    7.24    0.57
  -5  18  -7    6.49    0.39
   5 -18  -7    7.23    0.46
 -18  -5   9    1.44    0.41
  -5  18  -9    1.11    0.23
   5 -18  -9    1.28    0.29
 -18  -5  11    2.20    0.45
  -5  18 -11    3.12    0.32
   5 -18 -11    2.74    0.36
  -5  18 -13    5.86    0.39
 -18  -5  13    6.12    0.60
   5 -18 -13    6.15    0.48
 -18  -5  15   -0.16    0.39
   6  18 -20    0.99    0.28
  -6 -18 -18    4.58    0.55
   6  18 -18    5.68    0.43
  18  -6  18    5.24    0.44
 -18   6  18    5.23    0.53
 -18  -6 -18    6.48    0.79
  -6 -18 -16    3.18    0.46
   6 -18  16    2.62    0.34
   6  18 -16    2.60    0.32
  18  -6  16    2.51    0.35
 -18   6  16    3.51    0.45
 -18  -6 -16    3.34    0.68
  -6 -18 -14    1.07    0.40
   6 -18  14    1.18    0.31
   6  18 -14    0.97    0.25
  18  -6  14    0.80    0.29
 -18   6  14    1.01    0.35
 -18  -6 -14    1.41    0.58
  18  -6  12   19.49    0.80
   6 -18  12   20.45    0.79
   6  18 -12   21.27    0.78
  -6  18  12   21.19    0.66
   6  18 -12   21.05    0.70
 -18   6  12   20.78    0.90
  18   6 -12   21.33    0.64
  18  -6  12   21.01    0.80
 -18  -6 -12   20.66    1.20
  18  -6  12   20.26    0.81
  -6 -18 -12   21.56    0.98
  18  -6  10    2.94    0.34
  18  -6  10    2.31    0.35
  -6  18  10    2.38    0.22
   6  18 -10    2.24    0.28
   6  18 -10    2.44    0.25
 -18  -6 -10    2.35    0.58
  -6 -18 -10    2.56    0.43
  18  -6   8    6.45    0.36
 -18   6   8    6.07    0.47
  -6  18   8    6.33    0.32
   6  18  -8    6.73    0.40
  18  -6   8    6.29    0.39
 -18  -6  -8    6.87    0.74
   6  18  -8    6.52    0.36
  18  -6   8    6.77    0.49
  18  -6   8    7.18    0.51
  -6 -18  -8    5.48    0.51
  18  -6   6    9.48    0.43
  -6  18   6    9.58    0.41
   6  18  -6    9.94    0.49
 -18  -6  -6   10.05    0.45
  18  -6   6    9.84    0.47
   6  18  -6   10.00    0.44
  18  -6   6    9.44    0.60
  18  -6   6   10.33    0.60
  -6 -18  -6   10.69    0.62
   6 -18   4   11.99    0.40
  18  -6   4   12.22    0.47
  -6  18   4   10.78    0.46
  18  -6   4   11.79    0.49
  18  -6   4   12.30    0.68
  -6  18   4   11.16    0.51
 -18  -6  -4   11.32    0.53
  18   6  -4   11.40    0.69
  -6 -18  -4   11.07    0.65
   6  18  -4   11.83    0.49
  18  -6   4   11.87    0.65
  18  -6   2   15.59    0.77
  18  -6   2   16.05    0.54
  -6  18   2   15.62    0.56
  18  -6   2   14.26    0.77
  -6  18   2   14.96    0.60
  18  -6   2   14.87    0.57
  -6 -18  -2   15.95    0.76
  18   6  -2   13.26    0.75
   6  18  -2   14.88    0.58
 -18  -6  -2   16.27    0.68
   6  18   0    3.32    0.29
  18  -6   0    3.33    0.23
  -6  18   0    3.44    0.27
 -18  -6   0    3.10    0.37
  18  -6   0    3.30    0.44
  18  -6   0    3.19    0.42
  -6  18   0    2.81    0.28
  -6 -18   0    4.07    0.43
  18  -6   0    3.91    0.27
  18   6   0    3.85    0.44
   6  18   2   14.51    0.59
  -6  18  -2   14.67    0.57
  18  -6  -2   14.97    0.48
   6 -18  -2   15.67    0.67
 -18  -6   2   14.41    0.72
  18  -6  -2   12.31    0.75
  -6 -18   2   15.37    0.75
  18  -6  -2   16.90    0.82
  18   6   2   14.35    0.74
  18  -6  -2   16.49    0.55
  18  -6  -4   12.64    0.45
  18  -6  -4   11.93    0.71
  -6  18  -4   11.83    0.51
  18  -6  -4   11.93    0.38
   6 -18  -4   11.74    0.58
 -18  -6   4   12.20    0.66
  -6 -18   4   12.12    0.64
  -6  18  -6    9.69    0.46
   6 -18  -6    9.59    0.53
 -18  -6   6    9.29    0.63
  -6  18  -8    6.11    0.38
 -18  -6   8    5.80    0.53
   6 -18  -8    6.41    0.45
   6 -18 -10    2.76    0.37
  -6  18 -10    1.89    0.27
 -18  -6  10    2.36    0.47
  -6  18 -12   21.33    0.79
   6 -18 -12   21.88    0.89
 -18  -6  12   20.49    1.02
  -6  18 -14    1.17    0.26
 -18  -6  14    1.09    0.45
   7 -18  19    0.31    0.33
   7  18 -19   -0.02    0.23
   7 -18  17    8.93    0.53
   7  18 -17    9.54    0.51
 -18   7  17    9.23    0.62
  18  -7  17    9.15    0.55
 -18  -7 -17    9.42    0.91
  -7 -18 -17    9.09    0.71
   7 -18  15    1.96    0.32
   7  18 -15    1.65    0.28
 -18   7  15    1.62    0.40
 -18  -7 -15    1.48    0.54
  -7 -18 -15    1.53    0.42
   7 -18  13    9.89    0.53
   7  18 -13   10.04    0.51
 -18   7  13   10.52    0.63
  18  -7  13    9.99    0.53
 -18  -7 -13   11.45    0.89
  -7 -18 -13   10.56    0.72
   7 -18  11    4.45    0.37
  -7  18  11    4.80    0.27
   7  18 -11    4.69    0.37
   7  18 -11    4.99    0.31
 -18   7  11    4.46    0.44
  18   7 -11    4.73    0.27
 -18  -7 -11    4.38    0.69
  18  -7  11    4.39    0.37
  18  -7  11    4.42    0.41
  -7 -18 -11    5.20    0.54
  -7  18   9    1.72    0.19
   7  18  -9    1.26    0.26
 -18  -7  -9    2.05    0.54
   7  18  -9    1.54    0.21
  18  -7   9    1.56    0.26
  -7 -18  -9    1.76    0.40
  18  -7   9    2.11    0.33
  18  -7   9    1.06    0.32
  18  -7   7   21.98    0.73
  -7  18   7   20.37    0.68
   7  18  -7   22.36    0.79
 -18  -7  -7   22.61    0.72
  18  -7   7   21.86    0.77
   7  18  -7   21.26    0.71
  18  -7   7   21.51    0.91
  -7 -18  -7   22.94    0.99
   7 -18   5    6.17    0.26
  18  -7   5    7.04    0.35
  -7  18   5    6.51    0.33
   7  18  -5    6.89    0.41
   7 -18   5    6.61    0.35
  18  -7   5    6.29    0.37
  18  -7   5    6.76    0.52
 -18  -7  -5    6.67    0.40
   7  18  -5    6.50    0.36
  18  -7   5    5.97    0.51
  -7 -18  -5    6.48    0.57
 -18  -7  -3    6.40    0.43
  18  -7   3    5.68    0.31
  -7  18   3    5.61    0.32
  18  -7   3    5.01    0.47
  18  -7   3    5.93    0.35
  18  -7   3    5.39    0.52
  -7 -18  -3    6.32    0.54
  18   7  -3    5.85    0.51
   7  18  -3    5.56    0.33
  18  -7   1   13.81    0.75
   7  18  -1   14.85    0.57
 -18  -7  -1   13.40    0.65
  -7  18   1   14.84    0.54
  18  -7   1   12.85    0.76
  -7 -18  -1   15.18    0.77
  18  -7   1   14.90    0.56
  18   7  -1   12.63    0.72
   7  18   1   15.01    0.58
  -7  18  -1   14.30    0.56
  18  -7  -1   14.41    0.78
   7 -18  -1   15.76    0.70
 -18  -7   1   15.44    0.73
  18  -7  -1   13.97    0.78
  -7 -18   1   14.90    0.76
  18  -7  -1   15.36    0.55
 -18  -7   3    6.00    0.52
  18  -7  -3    6.77    0.33
  -7  18  -3    6.10    0.36
  18  -7  -3    6.09    0.27
   7 -18  -3    6.87    0.45
  18  -7  -3    6.53    0.56
  -7 -18   3    6.25    0.53
  -7  18  -5    6.62    0.37
 -18  -7   5    5.76    0.54
  18  -7  -5    6.55    0.24
   7 -18  -5    7.24    0.47
  -7  18  -7   21.17    0.75
   7 -18  -7   21.42    0.84
 -18  -7   7   19.60    0.95
   7 -18  -9    1.49    0.36
  -7  18  -9    1.62    0.26
 -18  -7   9    1.31    0.41
  -7  18 -11    3.95    0.34
 -18  -7  11    2.98    0.47
  -7  18 -13   10.04    0.52
 -18  -7  13   11.70    0.77
  -7  18 -15    1.35    0.27
 -18  -7  15    2.02    0.52
  -7  18 -17    8.64    0.51
   8 -18  18    1.43    0.34
   8  18 -18    1.59    0.30
 -18   8  18    1.40    0.41
   8  18 -16    4.18    0.37
 -18   8  16    3.11    0.45
  18  -8  16    3.82    0.39
 -18  -8 -16    3.32    0.65
  -8 -18 -16    3.76    0.53
   8 -18  14    0.68    0.30
   8  18 -14    0.64    0.26
  18  -8  14    0.48    0.28
 -18  -8 -14    0.50    0.54
  -8 -18 -14    1.16    0.46
   8 -18  12    4.44    0.38
   8  18 -12    4.25    0.36
  18   8 -12    4.71    0.28
 -18  -8 -12    5.11    0.69
  18  -8  12    4.07    0.40
  18  -8  12    4.25    0.37
  -8 -18 -12    4.62    0.56
  18  -8  10    4.15    0.38
   8 -18  10    2.95    0.33
  -8  18  10    3.80    0.24
   8  18 -10    2.80    0.32
  18   8 -10    3.79    0.26
   8  18 -10    3.60    0.27
 -18  -8 -10    4.41    0.66
  18  -8  10    3.73    0.33
  18  -8  10    4.24    0.43
  -8 -18 -10    3.13    0.46
  18  -8   8   16.97    0.63
  -8  18   8   16.42    0.57
 -18  -8  -8   17.69    0.59
  18  -8   8   17.75    0.80
   8  18  -8   17.34    0.68
   8  18  -8   16.37    0.60
  18  -8   8   16.57    0.66
  -8 -18  -8   16.28    0.88
  -8  18   6   -0.01    0.16
  18  -8   6    0.01    0.20
   8  18  -6    0.02    0.22
  18  -8   6    0.22    0.20
  18  -8   6    0.14    0.30
  -8 -18  -6    0.46    0.35
   8  18  -6    0.27    0.19
 -18  -8  -6    0.21    0.22
  18  -8   6    0.11    0.30
  -8  18   4   20.63    0.69
  18  -8   4   21.50    0.70
   8  18  -4   21.50    0.77
  18  -8   4   19.26    0.89
  18  -8   4   22.12    0.95
  -8 -18  -4   22.18    0.99
  18  -8   4   20.97    0.74
   8  18  -4   22.03    0.72
 -18  -8  -4   21.51    0.79
   8  18  -2   20.19    0.71
 -18  -8  -2   21.38    0.83
  -8  18   2   22.22    0.71
  18  -8   2   20.53    0.66
  18  -8   2   20.74    0.94
  -8 -18  -2   21.95    0.97
  18  -8   2   21.72    0.93
  18  -8   2   20.42    0.73
  18  -8   0    2.98    0.27
   8  18   0    3.15    0.30
  -8  18   0    2.78    0.26
  18  -8   0    3.21    0.23
  18  -8   0    2.79    0.43
  -8 -18   0    2.92    0.45
 -18  -8   0    3.10    0.40
  -8  18  -2   21.60    0.72
   8  18   2   21.79    0.75
  18  -8  -2   21.35    0.63
  18  -8  -2   18.37    0.94
  -8 -18   2   20.59    0.95
 -18  -8   2   20.34    0.90
  -8  18  -4   20.87    0.73
  18  -8  -4   21.33    0.60
  -8 -18   4   21.09    0.94
 -18  -8   4   21.14    0.93
  -8  18  -6    0.06    0.21
 -18  -8   6   -0.03    0.34
 -18  -8   8   16.12    0.85
  -8  18  -8   15.41    0.63
  -8  18 -10    4.16    0.33
 -18  -8  10    2.75    0.47
 -18  -8  12    4.22    0.56
  -8  18 -12    4.26    0.36
  -8  18 -14    0.57    0.25
 -18  -8  14    1.24    0.46
  -8  18 -16    4.34    0.39
 -18  -8  16    2.65    0.54
   9  18 -19    1.49    0.29
   9 -18  17    2.25    0.34
   9  18 -17    2.05    0.30
 -18  -9 -17    1.75    0.62
  -9 -18 -17    2.80    0.55
   9 -18  15    1.24    0.30
   9  18 -15    1.56    0.29
 -18  -9 -15    1.76    0.59
  18  -9  15    1.77    0.33
  -9 -18 -15    1.25    0.48
   9 -18  13    1.33    0.32
   9  18 -13    1.08    0.28
  18   9 -13    1.01    0.20
 -18  -9 -13    1.45    0.54
  18  -9  13    0.72    0.27
  -9 -18 -13    0.76    0.43
   9 -18  11    1.02    0.27
   9  18 -11    1.02    0.25
  18   9 -11    1.19    0.22
  18  -9  11    1.25    0.28
  -9 -18 -11    1.30    0.44
   9 -18   9    6.82    0.45
  -9  18   9    7.45    0.34
   9  18  -9    7.05    0.44
   9  18  -9    7.52    0.37
  18  -9   9    7.20    0.44
  -9 -18  -9    7.24    0.61
  18  -9   9    8.15    0.50
  -9  18   7    9.92    0.41
  18  -9   7   10.39    0.47
   9  18  -7    9.78    0.50
 -18  -9  -7   10.40    0.45
   9  18  -7    9.98    0.44
  18  -9   7    9.84    0.49
  -9 -18  -7   10.30    0.70
  18  -9   7   10.71    0.61
  -9  18   5   14.20    0.52
  18  -9   5   14.26    0.54
   9  18  -5   13.48    0.59
 -18  -9  -5   15.13    1.00
  18  -9   5   13.91    0.74
  -9 -18  -5   14.89    0.82
  18  -9   5   14.66    0.59
   9  18  -5   14.19    0.54
 -18  -9  -5   13.97    0.59
  -9  18   3   35.85    1.04
 -18  -9  -3   36.33    1.18
  18  -9   3   35.64    1.03
  18  -9   3   35.18    1.32
  -9 -18  -3   36.36    1.38
  18  -9   3   37.92    1.10
   9  18  -3   36.47    1.08
   9  18  -1   12.96    0.54
  -9  18   1   14.43    0.53
  18  -9   1   12.74    0.47
 -18  -9  -1   13.12    0.66
  18  -9   1   12.15    0.72
  -9 -18  -1   13.37    0.79
  18  -9   1   13.10    0.54
  18  -9  -1   13.20    0.53
  -9  18  -1   13.25    0.53
   9  18   1   12.94    0.54
  18  -9  -1   12.11    0.44
  -9 -18   1   13.76    0.80
 -18  -9   1   12.86    0.69
  -9  18  -3   38.16    1.11
  18  -9  -3   38.32    1.08
  -9 -18   3   36.09    1.38
 -18  -9   3   34.32    1.29
 -18  -9   5   13.01    0.76
  -9  18  -5   13.34    0.56
  -9  18  -7    9.44    0.47
 -18  -9   7    9.15    0.68
  -9  18  -9    7.92    0.44
 -18  -9   9    8.53    0.68
  -9  18 -11    1.19    0.26
 -18  -9  11    1.21    0.45
  -9  18 -13    1.27    0.28
 -18  -9  13    0.54    0.48
  -9  18 -15    1.54    0.29
 -18  -9  15    1.45    0.47
  10  18 -18    0.30    0.25
  10 -18  16    1.09    0.32
  10  18 -16    1.28    0.26
 -18 -10 -16    1.41    0.60
  10 -18  14    1.05    0.30
  10  18 -14    1.15    0.29
 -18 -10 -14    1.71    0.57
 -10 -18 -14    1.35    0.50
  10 -18  12    0.50    0.27
  10  18 -12    0.52    0.26
  18  10 -12    0.66    0.20
 -18 -10 -12    0.45    0.57
  18 -10  12    0.39    0.27
 -10 -18 -12    0.29    0.40
  10 -18  10    3.14    0.35
  10  18 -10    4.05    0.35
  18  10 -10    4.22    0.30
  18 -10  10    4.42    0.37
 -10 -18 -10    4.26    0.59
 -10  18   8   13.85    0.48
  10  18  -8   12.59    0.58
  18 -10   8   13.01    0.59
 -10 -18  -8   14.54    0.85
 -18 -10  -6    1.63    0.27
 -10  18   6    1.89    0.20
  18 -10   6    1.72    0.23
  10  18  -6    1.61    0.27
 -18 -10  -6    1.14    0.55
 -10 -18  -6    1.93    0.46
  18 -10   6    1.75    0.36
  10  18  -6    1.82    0.22
  18 -10   6    1.70    0.26
  18 -10   4    2.99    0.30
  10  18  -4    2.85    0.27
 -10  18   4    2.68    0.24
  18 -10   4    3.00    0.26
  10  18  -4    2.24    0.30
 -18 -10  -4    2.65    0.33
 -18 -10  -4    2.14    0.57
  18 -10   4    2.85    0.44
 -10 -18  -4    2.45    0.48
  10  18  -2   13.56    0.54
 -10  18   2   12.97    0.51
  18 -10   2   13.40    0.49
 -18 -10  -2   13.67    0.67
  18 -10   2   12.55    0.74
 -10 -18  -2   14.06    0.84
  18 -10   2   13.04    0.57
  18 -10   0   17.82    0.66
  10  18   0   17.91    0.65
 -10  18   0   18.06    0.64
  18 -10   0   17.71    0.57
  18 -10   0   15.14    0.84
 -10 -18   0   18.08    0.94
 -18 -10   0   18.56    0.82
 -18 -10   2   13.64    0.74
 -10  18  -2   13.93    0.56
  18 -10  -2   13.68    0.55
 -10 -18   2   13.84    0.84
 -18 -10   4    1.63    0.39
 -10  18  -4    2.60    0.27
 -10  18  -6    1.48    0.24
 -18 -10   6    1.85    0.44
 -10  18  -8   14.38    0.61
 -18 -10   8   13.54    0.82
 -10  18 -10    4.81    0.37
 -18 -10  10    3.20    0.52
 -10  18 -12    0.56    0.27
 -18 -10  12    1.00    0.44
 -10  18 -14    1.71    0.31
 -18 -10  14    0.97    0.51
 -10  18 -16    1.16    0.31
  11  18 -17    2.72    0.32
  11 -18  15    4.90    0.43
  11  18 -15    4.70    0.40
  18 -11  15    3.98    0.42
 -11 -18 -15    5.05    0.66
  11  18 -13    4.28    0.39
 -18 -11 -13    4.22    0.70
  18 -11  13    3.97    0.39
 -11 -18 -13    3.42    0.57
  11  18 -11    3.62    0.35
  18  11 -11    3.55    0.29
 -11 -18 -11    3.80    0.57
  18 -11  11    3.25    0.35
  11  18  -9    3.03    0.33
 -18 -11  -9    3.90    0.70
 -11 -18  -9    3.23    0.56
  18 -11   9    3.25    0.35
 -11  18   7   12.04    0.45
  11 -18   7   12.25    0.59
  11  18  -7   12.96    0.58
 -18 -11  -7   11.83    0.96
 -11 -18  -7   11.33    0.82
  18 -11   7   12.46    0.58
  18 -11   5    2.99    0.32
 -11  18   5    2.82    0.24
  18 -11   5    2.53    0.27
 -18 -11  -5    3.09    0.34
  11  18  -5    2.61    0.30
 -18 -11  -5    2.20    0.60
 -11 -18  -5    3.31    0.53
  11  18  -5    2.60    0.26
  18 -11   3    1.14    0.25
  11  18  -3    0.85    0.22
 -11  18   3    1.03    0.20
  18 -11   3    1.00    0.21
 -11 -18  -3    1.79    0.49
  18 -11   3    1.16    0.37
 -18 -11  -3    0.77    0.29
 -11  18   1    0.84    0.20
  18 -11   1    0.85    0.23
  11  18  -1    0.89    0.25
 -18 -11  -1    0.47    0.31
  18 -11   1    0.80    0.18
 -11 -18  -1    0.98    0.46
  18 -11   1    0.88    0.38
 -11  18  -1    0.75    0.22
  18 -11  -1    1.07    0.25
  11  18   1    0.75    0.24
 -11 -18   1    0.87    0.47
  18 -11  -1    0.37    0.35
 -18 -11   1    1.07    0.36
 -11  18  -3    0.92    0.22
 -18 -11   3    1.49    0.40
 -11  18  -5    3.00    0.30
 -18 -11   5    2.94    0.49
 -11  18  -7   13.08    0.58
 -18 -11   7   11.97    0.79
 -11  18  -9    3.17    0.32
 -18 -11   9    3.42    0.57
 -11  18 -11    4.01    0.38
 -18 -11  11    3.85    0.60
 -11  18 -13    3.04    0.35
 -18 -11  13    2.95    0.59
 -18 -11  15    4.96    0.67
 -11  18 -15    4.95    0.43
  12  18 -16    1.50    0.31
  12  18 -14   10.00    0.52
  18 -12  14    9.25    0.56
 -12 -18 -14    9.42    0.85
  12  18 -12   25.25    0.89
  18  12 -12   23.40    0.80
 -12 -18 -12   25.67    1.27
  18 -12  12   23.74    0.92
  12  18 -10   11.75    0.54
  18  12 -10   10.23    0.49
 -18 -12 -10    9.77    0.93
 -12 -18 -10   10.57    0.85
  18 -12  10    9.58    0.54
  12  18  -8    1.94    0.31
 -18 -12  -8    1.66    0.60
 -12 -18  -8    1.69    0.51
  18 -12   8    1.78    0.34
 -12  18   6   15.09    0.53
  12  18  -6   16.02    0.65
 -18 -12  -6   13.63    1.04
 -12 -18  -6   14.95    0.95
  18 -12   6   14.94    0.64
 -12  18   4    7.57    0.37
  18 -12   4    7.97    0.39
 -18 -12  -4    7.92    0.49
 -18 -12  -4    7.41    0.80
 -12 -18  -4    9.17    0.76
  18 -12   4    7.22    0.57
 -12  18   2    1.65    0.22
  12  18  -2    1.61    0.25
  18 -12   2    1.12    0.26
 -18 -12  -2    1.40    0.35
 -12 -18  -2    0.73    0.49
 -12  18   0    4.91    0.32
  18 -12   0    4.99    0.35
 -12 -18   0    5.52    0.64
  18 -12   0    4.74    0.52
 -18 -12   0    4.75    0.48
 -12  18  -2    0.91    0.23
 -18 -12   2    1.11    0.39
 -12 -18   2    1.43    0.49
 -12  18  -4    9.51    0.46
 -18 -12   4    9.29    0.65
 -12  18  -6   15.65    0.63
 -18 -12   6   14.49    0.87
 -12  18  -8    2.14    0.30
 -18 -12   8    1.77    0.50
 -12  18 -10   10.46    0.55
 -18 -12  10    8.26    0.75
 -12  18 -12   24.28    0.91
 -18 -12  12   25.47    1.23
 -12  18 -14    9.45    0.54
 -18 -12  14   10.52    0.86
  13  18 -15   12.79    0.60
  13  18 -13    9.27    0.51
 -13 -18 -13    9.57    0.86
  13  18 -11    6.44    0.45
  18  13 -11    5.07    0.36
 -18 -13 -11    5.42    0.76
 -13 -18 -11    6.25    0.76
  13 -18   9   16.61    0.74
  13  18  -9   16.73    0.70
  18  13  -9   17.32    0.65
 -18 -13  -9   17.48    1.16
 -13 -18  -9   17.74    1.07
  18 -13   9   17.65    0.74
  13 -18   7   13.09    0.63
  13  18  -7   14.29    0.62
 -18 -13  -7   12.87    0.99
 -13 -18  -7   15.37    0.98
  18 -13   7   13.88    0.63
  18 -13   5    0.48    0.26
  13  18  -5    0.95    0.26
 -18 -13  -5    0.86    0.58
 -13 -18  -5    0.88    0.48
  18 -13   3    7.32    0.46
 -13  18   3    8.01    0.38
 -13 -18  -3    7.40    0.75
 -18 -13  -3    7.63    0.52
 -13  18   1    3.05    0.27
  18 -13   1    3.44    0.34
 -13 -18  -1    2.96    0.59
 -18 -13  -1    3.53    0.42
 -13  18  -1    3.66    0.30
 -18 -13   1    3.09    0.44
 -13 -18   1    3.69    0.63
 -13  18  -3    8.21    0.43
 -18 -13   3    8.01    0.63
 -13  18  -5    0.72    0.25
 -18 -13   5    0.78    0.41
 -18 -13   7   14.57    0.88
 -13  18  -7   14.15    0.62
 -13  18  -9   17.52    0.72
 -18 -13   9   17.41    0.99
 -18 -13  11    6.90    0.73
 -13  18 -11    5.56    0.45
 -13  18 -13    8.47    0.54
 -18 -13  13   11.15    0.84
  14  18 -14    3.21    0.35
  14  18 -12   11.67    0.58
  18  14 -12   12.37    0.54
  18 -14  10    5.20    0.45
  14 -18  10    4.98    0.43
  14  18 -10    5.76    0.43
  18  14 -10    5.66    0.39
 -18 -14 -10    5.60    0.79
 -14 -18 -10    5.46    0.71
  18 -14   8    0.55    0.30
  14  18  -8    0.83    0.30
  18  14  -8    0.62    0.24
 -18 -14  -8    0.90    0.62
 -14 -18  -8    0.05    0.54
  18 -14   6    6.98    0.45
  14  18  -6    7.37    0.46
 -18 -14  -6    7.43    0.86
 -14 -18  -6    6.92    0.76
 -18 -14  -4    4.72    0.76
 -14 -18  -4    3.04    0.63
 -14  18   2    2.14    0.25
  18 -14   2    1.38    0.31
 -18 -14  -2    1.79    0.37
 -14  18   0    2.12    0.25
 -18 -14   0    1.52    0.40
 -14 -18   0    1.22    0.53
 -14  18  -2    2.03    0.26
 -18 -14   2    1.69    0.42
 -14  18  -4    3.47    0.31
 -18 -14   4    2.83    0.49
 -14  18  -6    6.82    0.42
 -18 -14   6    7.55    0.67
 -14  18  -8    1.17    0.30
 -18 -14   8    0.65    0.45
 -14  18 -10    5.29    0.41
 -18 -14  10    5.49    0.66
 -14  18 -12   11.31    0.60
  15  18 -13    1.51    0.31
  15  18 -11    0.39    0.27
  18  15 -11    0.62    0.25
  18 -15   9    0.11    0.30
  15  18  -9    0.19    0.25
  18  15  -9    0.12    0.24
 -18 -15  -9    0.61    0.55
 -15 -18  -9    0.77    0.52
  15 -18   7    1.59    0.34
  15  18  -7    1.69    0.30
 -18 -15  -7    2.91    0.67
 -15 -18  -7    1.83    0.58
  18 -15   5    1.67    0.30
 -18 -15  -5    1.68    0.65
 -15 -18  -5    1.65    0.58
  18 -15   3    5.84    0.44
 -18 -15  -3    6.23    0.77
 -15 -18  -3    6.82    0.79
 -18 -15  -1   -0.20    0.35
 -15 -18  -1   -0.21    0.53
 -15  18  -1    0.01    0.21
 -18 -15   1    0.41    0.38
 -15  18  -3    6.26    0.38
 -18 -15   3    5.39    0.56
 -18  15  -5    1.51    0.29
 -15  18  -5    1.40    0.26
 -18 -15   5    0.86    0.45
 -18  15  -7    2.31    0.35
 -15  18  -7    2.04    0.32
 -18 -15   7    1.60    0.47
 -18  15  -9    0.31    0.26
 -15  18  -9    0.26    0.27
 -18 -15   9    0.64    0.49
 -15  18 -11    0.28    0.28
  16  18 -10    0.27    0.25
  18  16 -10    0.42    0.25
  16  18  -8    2.64    0.33
  18  16  -8    2.48    0.32
 -16 -18  -8    2.30    0.62
  18 -16   6    0.34    0.30
  16 -18   6    0.19    0.26
  16  18  -6    0.19    0.25
 -18 -16  -6    1.54    0.64
 -16 -18  -6    0.52    0.57
  18 -16   4    0.95    0.29
 -18 -16  -4   -0.06    0.59
 -16 -18  -4    0.63    0.54
 -16 -18  -2    5.83    0.79
 -18 -16   0    0.40    0.35
 -16  18  -2    5.91    0.38
 -18 -16   2    5.66    0.56
 -18  16  -4    0.82    0.27
 -16  18  -4    1.18    0.26
 -18 -16   4    1.69    0.47
 -18  16  -6    0.61    0.27
 -16  18  -6    0.28    0.25
 -18 -16   6    0.12    0.42
 -18  16  -8    2.65    0.34
 -16  18  -8    2.75    0.34
 -18 -16   8    2.25    0.53
 -18  16 -10    0.68    0.29
 -16  18 -10    0.43    0.27
  18  17  -9    1.49    0.29
  17  18  -7    6.65    0.44
  18  17  -7    6.90    0.45
 -17 -18  -5   -0.54    0.64
 -17 -18  -3    1.44    0.67
 -18 -17   1    2.31    0.43
 -18 -17   3    1.19    0.44
 -17  18  -5    0.24    0.25
 -18 -17   5    0.23    0.39
 -18  17  -7    6.38    0.48
 -17  18  -7    6.98    0.46
 -18 -17   7    6.89    0.69
 -18  17  -9    1.09    0.30
 -17  18  -9    1.34    0.32
 -18 -18   4    1.66    0.47
   0 -19  -1    4.04    0.35
  19   0  -1    4.69    0.28
  19   0   1    5.01    0.29
   0  19  -1    4.37    0.33
   0  19   1    4.19    0.32
  19   0   1    4.84    0.28
 -19   0   1    5.47    0.42
  19   0  -1    5.06    0.27
 -19   0  -1    4.86    0.39
  19   0  -1    3.82    0.48
   0  19  -1    4.65    0.34
  19   0   1    4.40    0.49
   0  19   1    4.30    0.33
   0 -19   1    3.72    0.33
   0 -19  -3   11.09    0.55
  19   0  -3   10.35    0.41
  19   0   3   11.28    0.46
  19   0   3   11.11    0.45
   0  19  -3   11.38    0.51
   0  19   3   11.00    0.49
 -19   0   3    9.66    0.57
  19   0  -3   10.62    0.70
  19   0  -3   11.53    0.39
   0  19  -3   10.65    0.49
   0 -19   3   10.79    0.48
  19   0  -5    3.87    0.23
  19   0   5    3.66    0.30
   0 -19  -5    4.02    0.37
  19   0   5    4.33    0.30
   0  19  -5    4.06    0.32
   0  19   5    3.97    0.30
   0 -19   5    3.48    0.25
   0  19  -5    3.69    0.31
  19   0   5    3.30    0.42
 -19   0   5    4.16    0.41
   0 -19  -7    5.93    0.45
  19   0   7    6.61    0.39
  19   0  -7    6.09    0.26
  19   0   7    6.60    0.37
   0  19  -7    6.33    0.38
   0  19   7    7.08    0.38
   0  19  -7    6.78    0.38
 -19   0   7    6.82    0.53
 -19   0   9    0.18    0.29
   0 -19  -9    0.05    0.26
   0  19  -9    0.10    0.21
  19   0   9    0.19    0.19
   0 -19  -9    0.32    0.26
 -19   0  11   -0.03    0.33
   0 -19 -11    0.25    0.31
  19   0  11    0.05    0.22
   0 -19 -11    0.19    0.24
   0 -19 -13   -0.11    0.29
   0  19 -13    0.13    0.23
  19   0  13   -0.13    0.23
   0 -19 -15    2.02    0.38
   0  19 -15    2.48    0.31
  19   0  15    2.92    0.33
   0 -19 -17    4.11    0.48
 -19   0  17    4.47    0.56
   0  19 -17    3.78    0.37
  19   0  17    3.78    0.41
 -19   0 -21    0.17    0.56
 -19  -1 -20    0.91    0.57
 -19   1  18   -0.14    0.42
  -1 -19 -18    0.56    0.36
   1  19 -18    0.60    0.29
  19  -1  18    0.38    0.30
 -19  -1 -18    0.67    0.56
 -19   1  16   -0.03    0.37
  -1 -19 -16    0.03    0.35
   1  19 -16   -0.11    0.26
  19  -1  16    0.50    0.27
 -19  -1 -16   -0.22    0.58
  -1 -19 -14    0.75    0.35
   1  19 -14    1.03    0.27
  19  -1  14    1.34    0.27
 -19   1  12    1.06    0.38
  -1 -19 -12    0.70    0.33
   1  19 -12    1.04    0.25
  19  -1  12    0.79    0.24
 -19   1  10    5.62    0.49
  -1 -19 -10    5.08    0.45
  19  -1  10    5.73    0.38
  -1 -19 -10    5.22    0.37
  -1  19  10    5.40    0.34
  -1 -19  -8   16.72    0.75
  19  -1   8   17.78    0.66
  -1 -19  -8   17.59    0.67
  19  -1   8   17.48    0.65
  -1  19   8   16.22    0.62
   1  19  -8   18.22    0.66
 -19   1   8   16.49    0.79
  -1 -19  -6    2.93    0.36
  19  -1   6    3.25    0.29
   1  19  -6    3.34    0.30
  19  -1   6    3.33    0.29
  -1  19   6    3.54    0.29
   1  19  -6    3.09    0.29
 -19   1   6    3.10    0.40
  19  -1   6    3.46    0.42
  -1 -19  -4    0.65    0.28
  19   1  -4    0.36    0.16
  19  -1   4    0.47    0.19
   1  19  -4    0.35    0.22
  19  -1   4    0.69    0.21
  -1  19   4    0.20    0.20
 -19   1   4    0.23    0.28
   1  19  -4    0.89    0.23
   1 -19   4    0.64    0.20
  19   1  -4    0.56    0.13
  19  -1   4    0.33    0.34
  19   1  -2   12.38    0.47
  19  -1   2   13.06    0.50
 -19  -1  -2   13.09    0.59
   1  19  -2   12.50    0.54
  -1  19   2   12.80    0.53
  19  -1   2   13.05    0.49
 -19   1   2   13.67    0.63
  19   1  -2   13.16    0.45
  19  -1   2   12.74    0.74
   1  19  -2   12.41    0.54
   1 -19   2   13.54    0.53
  -1  19   2   12.69    0.55
  -1 -19  -2   12.04    0.59
  19   1   0   33.31    0.98
  19  -1   0   32.71    0.95
 -19   1   0   34.04    1.11
  -1  19   0   34.23    1.03
   1  19   0   34.05    1.04
 -19  -1   0   35.13    1.12
  19  -1   0   31.40    1.27
  19   1   0   34.37    1.28
  -1  19   0   33.53    1.04
   1  19   0   33.71    1.04
  -1 -19   0   32.55    1.07
   1 -19   0   33.88    1.03
   1 -19  -2   13.61    0.59
  19   1   2   13.69    0.53
  19   1   2   13.30    0.50
  -1  19  -2   13.38    0.55
   1  19   2   13.35    0.56
 -19  -1   2   12.98    0.63
  19  -1  -2   13.65    0.47
  19  -1  -2   12.76    0.76
  -1  19  -2   14.13    0.58
  -1 -19   2   13.35    0.58
  19   1   2   11.72    0.71
   1  19   2   13.37    0.57
  19  -1  -4    0.59    0.14
 -19  -1   4    0.49    0.32
  19   1   4    0.54    0.20
  19  -1  -4    0.51    0.15
   1 -19  -4    0.28    0.24
  19   1   4    0.37    0.19
  -1  19  -4    0.45    0.21
   1  19   4    0.60    0.23
  -1  19  -4    0.38    0.22
  -1 -19   4    0.65    0.22
  19   1   6    3.01    0.28
 -19  -1   6    2.43    0.39
   1 -19  -6    2.81    0.33
  19   1   6    3.15    0.28
  -1  19  -6    2.53    0.28
  19   1   8   18.08    0.67
   1 -19  -8   16.88    0.74
  -1  19  -8   17.14    0.67
   1 -19  -8   17.83    0.69
 -19  -1   8   17.25    0.84
   1 -19 -10    4.95    0.43
  19   1  10    5.55    0.36
  -1  19 -10    5.17    0.37
 -19  -1  10    5.69    0.52
   1 -19 -10    5.50    0.38
   1 -19 -12    0.73    0.33
  19   1  12    1.09    0.24
 -19  -1  12    1.53    0.42
   1 -19 -14    0.95    0.33
  -1  19 -14    1.06    0.26
  19   1  14    0.84    0.25
   1 -19 -16    0.64    0.35
  -1  19 -16   -0.06    0.25
  -1  19 -18    0.16    0.26
   1 -19 -18    0.56    0.34
  19   1  18    0.45    0.29
 -19  -1  18    0.42    0.41
 -19  -2 -19    5.43    0.79
 -19   2  17   -0.27    0.38
  -2 -19 -17   -0.36    0.37
   2  19 -17    0.04    0.27
 -19  -2 -17   -0.06    0.58
  -2 -19 -15    3.58    0.45
   2  19 -15    3.37    0.35
 -19  -2 -15    3.63    0.65
 -19   2  15    3.22    0.46
  -2 -19 -13    0.64    0.33
   2  19 -13    0.92    0.26
  19  -2  13    0.87    0.25
  -2  19  13    1.54    0.23
 -19  -2 -13    1.23    0.52
  -2 -19 -11    4.16    0.43
   2  19 -11    4.32    0.36
  19  -2  11    5.15    0.37
  -2  19  11    4.61    0.32
 -19   2  11    5.01    0.48
  19  -2   9   14.96    0.69
  -2 -19  -9   15.68    0.74
  19  -2   9   15.77    0.63
  -2  19   9   15.15    0.57
   2  19  -9   15.77    0.61
 -19   2   9   14.81    0.76
  -2 -19  -7    0.36    0.29
  19  -2   7    0.56    0.21
  19  -2   7    0.52    0.22
  -2  19   7    0.23    0.20
  19  -2   7    0.40    0.29
   2  19  -7    0.04    0.21
 -19   2   7    0.88    0.32
  19  -2   7    0.47    0.31
  19   2  -5   23.33    0.70
   2  19  -5   23.75    0.81
  19  -2   5   22.34    0.76
  -2  19   5   23.36    0.77
 -19   2   5   25.00    0.92
   2  19  -5   23.45    0.78
   2 -19   5   21.06    0.65
  19  -2   5   24.65    1.00
  -2 -19  -5   22.95    0.88
  19   2  -3   67.30    1.76
  19  -2   3   69.00    1.79
 -19  -2  -3   70.75    1.88
  -2  19   3   68.58    1.81
   2  19  -3   67.92    1.85
 -19   2   3   68.08    1.95
  19  -2   3   68.24    1.79
   2  19  -3   67.97    1.83
   2 -19   3   67.61    1.76
  -2 -19  -3   66.47    1.92
  19   2  -1   11.49    0.47
  19  -2   1   11.24    0.44
 -19   2   1   12.29    0.60
  -2  19   1   11.94    0.50
  19   2  -1   11.51    0.42
   2  19  -1   10.55    0.51
  19  -2   1   11.32    0.46
 -19  -2  -1   12.05    0.58
  19  -2   1   10.83    0.70
   2  19  -1   11.83    0.52
  -2 -19  -1   11.38    0.58
   2 -19   1   11.23    0.49
   2 -19  -1   11.67    0.52
  19  -2  -1   11.24    0.43
  19   2   1   11.92    0.46
  -2  19  -1   11.91    0.51
   2  19   1   11.78    0.52
  19  -2  -1   12.85    0.45
  19  -2  -1   10.97    0.72
 -19  -2   1   11.90    0.59
  -2  19  -1   11.31    0.52
  19   2   1   10.57    0.68
  -2 -19   1   12.74    0.58
   2  19   1   11.62    0.53
  19   2   3   68.17    1.81
   2 -19  -3   67.19    1.86
  19  -2  -3   64.95    1.70
  19   2   3   70.34    1.78
  -2  19  -3   69.42    1.83
   2  19   3   69.45    1.83
  -2  19  -3   69.81    1.85
  -2 -19   3   68.63    1.86
 -19  -2   3   70.53    1.99
  19   2   3   70.06    2.07
  19   2   5   24.08    0.81
  19  -2  -5   24.31    0.67
   2 -19  -5   23.36    0.85
  19   2   5   23.68    0.78
  -2  19  -5   24.06    0.81
  -2 -19   5   23.34    0.80
 -19  -2   5   24.58    0.98
  19   2   7    0.28    0.20
   2 -19  -7    0.38    0.26
 -19  -2   7    0.43    0.31
  -2  19  -7    0.32    0.21
   2 -19  -7    0.79    0.28
 -19  -2   9   15.38    0.81
   2 -19  -9   16.19    0.70
  -2  19  -9   15.00    0.63
   2 -19  -9   15.50    0.64
   2 -19 -11    4.55    0.39
   2 -19 -11    4.52    0.42
  -2  19 -11    3.97    0.34
 -19  -2  11    4.55    0.52
   2 -19 -13    0.97    0.30
 -19  -2  13    0.95    0.39
   2 -19 -15    4.30    0.45
  -2  19 -15    2.84    0.33
  -2  19 -17    0.20    0.26
   2 -19 -17    0.24    0.33
 -19  -2  17    0.58    0.44
 -19  -3 -20    0.70    0.59
  -3 -19 -18    5.60    0.55
   3  19 -18    5.57    0.41
 -19  -3 -18    6.17    0.81
 -19   3  18    5.16    0.55
  -3 -19 -16    7.46    0.59
   3  19 -16    7.16    0.46
  19  -3  16    7.94    0.49
 -19  -3 -16    6.22    0.85
 -19   3  16    7.23    0.60
  -3 -19 -14    4.70    0.50
   3  19 -14    3.76    0.35
  19  -3  14    3.38    0.36
  -3  19  14    3.40    0.28
 -19  -3 -14    3.92    0.67
 -19   3  14    3.59    0.47
  -3 -19 -12    5.83    0.51
   3  19 -12    6.46    0.40
  19  -3  12    6.38    0.41
  -3  19  12    5.96    0.34
 -19  -3 -12    6.76    0.79
  -3 -19 -10    3.80    0.43
   3  19 -10    4.15    0.33
   3  19 -10    3.96    0.31
  -3  19  10    3.92    0.28
  19  -3  10    4.01    0.33
  19   3 -10    3.60    0.20
  19  -3  10    3.62    0.40
 -19   3  10    3.72    0.43
  19  -3   8   16.00    0.75
  19  -3   8   17.40    0.65
  19  -3   8   16.79    0.65
  -3  19   8   17.77    0.62
 -19   3   8   17.78    0.79
   3  19  -8   16.39    0.63
  -3 -19  -8   17.55    0.79
  19  -3   6   34.09    1.03
  19  -3   6   32.71    1.19
  -3  19   6   34.52    1.02
  19  -3   6   34.70    1.05
 -19   3   6   35.85    1.20
   3  19  -6   35.48    1.06
  19  -3   6   35.07    1.25
  -3 -19  -6   34.01    1.20
  19   3  -6   34.30    0.97
  19   3  -4   14.09    0.52
  19  -3   4   13.48    0.53
  -3  19   4   14.45    0.57
 -19   3   4   14.78    0.69
 -19  -3  -4   14.75    0.61
   3  19  -4   13.20    0.59
  19  -3   4   14.21    0.55
  19   3  -4   15.80    0.45
  19  -3   4   15.11    0.75
   3  19  -4   14.91    0.58
  19  -3   4   14.56    0.78
   3 -19   4   14.03    0.49
  -3 -19  -4   14.09    0.69
  19   3  -2   31.82    0.94
  19  -3   2   31.94    1.19
  19  -3   2   31.10    0.93
 -19   3   2   32.99    1.10
  -3  19   2   32.12    0.98
  19   3  -2   32.35    0.88
   3  19  -2   32.04    1.01
  19  -3   2   33.12    0.96
 -19  -3  -2   31.91    1.05
  19  -3   2   30.32    1.22
   3  19  -2   31.79    0.99
  -3 -19  -2   31.73    1.11
   3 -19   2   31.22    0.93
  19   3   0   46.84    1.35
   3 -19   0   49.11    1.38
  -3  19   0   50.21    1.39
   3  19   0   49.50    1.41
  19  -3   0   51.31    1.34
  19  -3   0   45.15    1.64
 -19  -3   0   51.17    1.50
  -3 -19   0   50.45    1.50
   3  19   0   49.44    1.41
  19   3   2   29.92    0.95
   3  19   2   31.39    0.99
   3 -19  -2   30.11    0.98
  19  -3  -2   30.69    0.87
  -3  19  -2   31.03    0.97
   3  19   2   33.30    1.00
  19  -3  -2   27.45    1.19
  -3 -19   2   31.57    1.06
  19  -3  -2   33.61    0.90
 -19  -3   2   32.13    1.12
 -19  -3   4   12.99    0.69
  19  -3  -4   13.77    0.47
  19   3   4   13.69    0.56
   3 -19  -4   13.21    0.59
  -3  19  -4   14.68    0.58
  -3 -19   4   13.80    0.62
  19   3   6   32.88    1.03
 -19  -3   6   33.11    1.22
   3 -19  -6   32.92    1.08
  -3  19  -6   33.97    1.04
 -19  -3   8   17.13    0.85
  -3  19  -8   16.60    0.66
   3 -19  -8   17.82    0.70
  -3  19 -10    3.74    0.33
 -19  -3  10    4.49    0.49
   3 -19 -10    4.80    0.38
  -3  19 -12    5.82    0.39
 -19  -3  12    5.98    0.58
 -19  -3  14    3.17    0.49
  -3  19 -18    5.64    0.43
   3 -19 -18    4.24    0.48
 -19  -3  18    5.64    0.59
   4 -19  19    2.33    0.33
 -19  -4 -19    2.30    0.68
  -4 -19 -17    1.52    0.41
   4  19 -17    1.50    0.29
 -19  -4 -17    0.64    0.61
 -19   4  17    1.08    0.39
  -4 -19 -15   10.71    0.69
   4  19 -15    9.77    0.52
  19  -4  15    9.83    0.54
 -19   4  15    8.24    0.61
 -19  -4 -15    8.84    0.89
  -4 -19 -13    0.54    0.37
   4  19 -13    0.38    0.24
  -4  19  13    0.46    0.19
  19  -4  13    0.46    0.26
 -19  -4 -13    0.56    0.57
  -4 -19 -11    1.40    0.38
   4  19 -11    1.40    0.27
  -4  19  11    1.91    0.22
   4  19 -11    1.70    0.23
  19  -4  11    1.77    0.28
 -19  -4 -11    1.47    0.56
   4  19  -9   16.33    0.66
  -4  19   9   16.50    0.60
  19  -4   9   16.60    0.66
 -19   4   9   17.57    0.79
   4  19  -9   17.47    0.63
  19  -4   9   16.60    0.76
  19  -4   9   17.69    0.78
  -4 -19  -9   17.32    0.82
  -4 -19  -7    1.05    0.33
  19  -4   7    1.96    0.33
  19  -4   7    1.67    0.24
  -4  19   7    1.58    0.22
  19  -4   7    2.08    0.25
 -19   4   7    1.06    0.32
   4  19  -7    1.42    0.22
  19  -4   7    2.01    0.37
  19  -4   5   14.39    0.54
 -19   4   5   15.53    0.70
  -4  19   5   13.85    0.53
 -19  -4  -5   14.99    0.58
  19  -4   5   14.17    0.56
   4  19  -5   14.01    0.56
   4 -19   5   11.90    0.40
  19  -4   5   12.74    0.72
  -4 -19  -5   13.60    0.71
  19  -4   3   57.36    1.79
  19  -4   3   55.52    1.52
 -19   4   3   62.81    1.73
  -4  19   3   55.45    1.55
  19   4  -3   59.82    1.45
   4  19  -3   55.92    1.61
 -19  -4  -3   57.52    1.63
  19  -4   3   56.54    1.83
   4  19  -3   57.03    1.58
  -4 -19  -3   56.15    1.73
   4 -19   3   57.45    1.49
 -19  -4  -1    4.87    0.39
   4 -19   1    4.65    0.31
  19  -4   1    5.00    0.28
  19   4  -1    4.98    0.27
  -4  19   1    4.70    0.31
   4  19  -1    5.35    0.36
  19  -4   1    5.47    0.52
  19  -4   1    5.75    0.32
  -4 -19  -1    5.05    0.45
   4  19  -1    5.17    0.36
  19   4  -1    4.68    0.31
   4  19   1    4.70    0.34
   4 -19  -1    4.59    0.32
 -19  -4   1    5.39    0.45
  19  -4  -1    4.34    0.25
  19   4   1    4.28    0.28
  -4  19  -1    4.92    0.34
   4  19   1    4.65    0.34
  -4 -19   1    4.78    0.44
  19  -4  -1    4.80    0.29
  19  -4  -1    4.78    0.52
  19   4   1    4.85    0.32
  19   4   3   54.07    1.54
 -19  -4   3   58.50    1.74
   4 -19  -3   54.02    1.56
  19  -4  -3   54.72    1.42
  -4  19  -3   57.75    1.56
  -4 -19   3   56.29    1.66
  19  -4  -3   59.38    1.47
  19   4   5   14.57    0.59
 -19  -4   5   14.76    0.75
  19  -4  -5   14.71    0.48
  19  -4  -5   14.42    0.44
  -4  19  -5   14.30    0.59
   4 -19  -5   16.48    0.68
  -4 -19   5   14.18    0.64
  -4  19  -7    1.42    0.25
 -19  -4   7    1.46    0.38
   4 -19  -7    1.97    0.31
  -4  19  -9   17.11    0.68
 -19  -4   9   18.33    0.89
   4 -19  -9   17.48    0.73
   4 -19 -11    1.73    0.33
  -4  19 -11    2.08    0.27
 -19  -4  11    2.28    0.45
  -4  19 -13    0.47    0.24
 -19  -4  13    0.33    0.37
 -19  -4  15    8.94    0.71
   5  19 -18    0.02    0.24
   5 -19  18    0.06    0.27
 -19  -5 -18    0.12    0.57
  -5 -19 -16    5.91    0.58
   5 -19  16    5.80    0.43
   5  19 -16    6.38    0.43
  19  -5  16    6.04    0.46
 -19  -5 -16    4.81    0.73
 -19   5  16    5.04    0.52
  -5 -19 -14    2.05    0.44
   5  19 -14    2.01    0.32
  19  -5  14    2.27    0.33
 -19  -5 -14    3.37    0.71
 -19   5  14    2.30    0.41
  -5 -19 -12    3.48    0.45
   5  19 -12    3.01    0.32
  -5  19  12    3.24    0.25
   5  19 -12    3.11    0.29
 -19  -5 -12    3.63    0.65
  -5 -19 -10    3.44    0.44
  19  -5  10    2.93    0.38
   5  19 -10    3.33    0.33
  -5  19  10    3.43    0.26
   5  19 -10    3.93    0.31
  19  -5  10    3.81    0.33
 -19  -5 -10    3.96    0.65
  19  -5  10    3.34    0.38
  19  -5   8    4.17    0.31
  -5  19   8    4.30    0.29
   5  19  -8    4.20    0.34
  19  -5   8    4.41    0.34
 -19   5   8    4.61    0.43
   5  19  -8    4.04    0.30
  19  -5   8    4.90    0.45
  -5 -19  -8    3.96    0.44
  19  -5   6   -0.03    0.19
  19  -5   6   -0.13    0.31
  -5  19   6    0.18    0.17
 -19   5   6    0.12    0.25
 -19  -5  -6   -0.07    0.21
  19  -5   6    0.06    0.19
   5  19  -6   -0.03    0.19
  19  -5   6   -0.12    0.31
  -5 -19  -6    0.34    0.33
  19  -5   4    3.91    0.27
  -5  19   4    3.47    0.28
  19   5  -4    3.76    0.19
  19  -5   4    3.30    0.29
 -19  -5  -4    3.75    0.32
  19  -5   4    3.20    0.45
  19  -5   4    3.23    0.43
   5  19  -4    3.27    0.29
  -5 -19  -4    3.79    0.42
   5 -19   4    3.29    0.21
   5 -19   2   17.85    0.60
  19  -5   2   18.43    0.61
  -5  19   2   17.21    0.64
   5  19  -2   17.67    0.69
  19  -5   2   18.92    0.64
  19  -5   2   18.89    0.90
  19  -5   2   19.40    0.89
 -19  -5  -2   19.40    0.75
  -5 -19  -2   18.86    0.83
   5  19  -2   18.50    0.68
   5  19   0    0.36    0.22
 -19  -5   0    0.45    0.29
   5 -19   0    0.46    0.20
  19  -5   0    0.39    0.15
  -5  19   0    0.33    0.20
   5  19   0    0.74    0.22
  19  -5   0    0.20    0.32
  -5 -19   0    0.35    0.31
  19  -5   0    0.64    0.36
  19  -5   0    0.48    0.18
 -19  -5   2   19.31    0.83
  19  -5  -2   18.25    0.57
  -5  19  -2   18.75    0.67
  -5 -19   2   18.26    0.80
  19  -5  -2   18.65    0.62
  19   5   4    3.03    0.29
  19  -5  -4    3.83    0.25
  19  -5  -4    3.25    0.19
  -5  19  -4    3.43    0.30
   5 -19  -4    3.98    0.38
 -19  -5   4    3.69    0.44
  -5 -19   4    3.17    0.39
  -5  19  -6    0.13    0.21
   5 -19  -6   -0.04    0.27
 -19  -5   6    0.09    0.33
  -5  19  -8    4.82    0.36
   5 -19  -8    4.49    0.40
 -19  -5   8    4.74    0.50
   5 -19 -10    3.58    0.38
  -5  19 -10    3.07    0.32
 -19  -5  10    3.88    0.50
  -5  19 -12    3.14    0.33
   5 -19 -12    3.81    0.42
 -19  -5  12    2.50    0.48
 -19  -5  14    1.40    0.44
  -5  19 -14    1.83    0.29
  -6 -19 -17    6.45    0.60
   6  19 -17    6.25    0.44
   6 -19  17    6.00    0.48
 -19   6  17    5.97    0.56
 -19  -6 -17    6.96    0.84
  -6 -19 -15    0.04    0.37
   6 -19  15    0.35    0.30
   6  19 -15    0.34    0.26
 -19   6  15    0.09    0.32
  19  -6  15    0.32    0.27
 -19  -6 -15    0.82    0.56
   6  19 -13    8.72    0.50
 -19   6  13   10.62    0.65
  19  -6  13    9.09    0.52
 -19  -6 -13    8.71    0.86
  -6 -19 -13    9.69    0.70
   6  19 -11    5.79    0.40
  -6  19  11    5.58    0.31
   6  19 -11    6.20    0.36
  19   6 -11    5.61    0.29
  19  -6  11    5.93    0.40
 -19  -6 -11    6.81    0.81
  -6 -19 -11    6.02    0.56
  19  -6  11    5.96    0.44
  -6  19   9    1.09    0.19
   6  19  -9    0.88    0.23
 -19   6   9    0.56    0.30
  19  -6   9    1.28    0.34
 -19  -6  -9    1.38    0.52
   6  19  -9    1.02    0.21
  19  -6   9    1.32    0.26
  -6 -19  -9    1.28    0.39
  19  -6   9    1.57    0.32
  19  -6   7    6.57    0.37
 -19   6   7    7.24    0.50
  -6  19   7    6.91    0.35
 -19  -6  -7    6.74    0.37
   6  19  -7    6.43    0.41
  19  -6   7    7.30    0.39
   6  19  -7    6.77    0.38
  19  -6   7    7.49    0.53
  -6 -19  -7    6.68    0.54
  19  -6   7    7.43    0.53
   6 -19   5    0.56    0.10
  19  -6   5    0.74    0.19
  -6  19   5    0.81    0.20
  19  -6   5    0.48    0.19
 -19  -6  -5    0.67    0.24
   6  19  -5    0.43    0.21
  -6 -19  -5    0.47    0.33
  19  -6   5    0.45    0.30
 -19  -6  -3    1.23    0.27
   6 -19   3    0.89    0.17
  19  -6   3    0.99    0.19
  19  -6   3    1.46    0.40
  19   6  -3    1.09    0.15
  -6  19   3    0.90    0.19
  19  -6   3    1.22    0.38
  19  -6   3    1.20    0.22
  -6 -19  -3    1.07    0.34
   6  19  -3    1.49    0.25
   6 -19   1    7.40    0.37
  19  -6   1    7.82    0.34
  -6  19   1    7.70    0.39
   6  19  -1    8.02    0.44
  -6 -19  -1    7.29    0.55
  19  -6   1    7.06    0.57
  19  -6   1    7.03    0.37
  19  -6   1    7.88    0.61
 -19  -6  -1    7.68    0.49
   6  19  -1    8.40    0.43
   6  19   1    7.31    0.41
 -19  -6   1    6.44    0.49
  19  -6  -1    6.70    0.30
  -6  19  -1    7.10    0.38
  -6 -19   1    7.59    0.54
  19  -6  -3    1.18    0.20
  -6  19  -3    1.25    0.24
  19  -6  -3    1.06    0.15
  -6 -19   3    0.95    0.36
 -19  -6   3    1.76    0.39
  19   6   5    0.59    0.22
  -6  19  -5    0.78    0.21
 -19  -6   5    0.65    0.34
 -19  -6   7    6.11    0.55
  -6  19  -7    6.06    0.38
 -19  -6   9    0.89    0.36
  -6  19  -9    1.18    0.25
 -19  -6  11    6.23    0.59
  -6  19 -11    4.91    0.37
  -6  19 -13    8.90    0.49
 -19  -6  13    9.04    0.72
 -19  -6  15    0.29    0.43
  -6  19 -15    0.06    0.24
   7  19 -18    2.89    0.36
   7 -19  16    0.41    0.30
   7  19 -16    0.59    0.28
 -19   7  16    1.00    0.37
  19  -7  16    0.83    0.28
 -19  -7 -16    0.78    0.60
  -7 -19 -16    0.88    0.43
   7 -19  14    1.06    0.30
   7  19 -14    1.20    0.29
 -19   7  14    1.09    0.34
  19  -7  14    0.87    0.27
 -19  -7 -14    1.71    0.61
  -7 -19 -14    0.91    0.41
   7 -19  12   14.20    0.64
 -19   7  12   13.83    0.75
   7  19 -12   14.80    0.64
 -19  -7 -12   14.66    1.04
  -7 -19 -12   14.99    0.86
  19  -7  10    0.97    0.31
  -7  19  10    0.66    0.18
   7  19 -10    0.76    0.24
  19   7 -10    0.90    0.18
   7  19 -10    0.70    0.19
 -19  -7 -10    1.08    0.56
  -7 -19 -10    1.15    0.42
  19  -7   8    2.03    0.36
  -7  19   8    1.83    0.21
   7  19  -8    2.42    0.29
 -19  -7  -8    1.67    0.59
   7  19  -8    2.17    0.26
  19  -7   8    2.34    0.29
  -7 -19  -8    1.96    0.42
  19  -7   8    2.73    0.39
  19  -7   6    4.88    0.32
  -7  19   6    4.53    0.29
   7  19  -6    4.03    0.33
  19  -7   6    4.44    0.46
 -19  -7  -6    4.39    0.33
  19  -7   6    4.47    0.34
   7  19  -6    4.26    0.32
  19  -7   6    4.38    0.46
  -7 -19  -6    3.68    0.49
 -19  -7  -4    1.57    0.27
   7 -19   4    1.30    0.15
  19  -7   4    1.35    0.19
  19   7  -4    1.41    0.15
  -7  19   4    1.34    0.21
   7  19  -4    1.09    0.25
  19  -7   4    1.13    0.35
  19  -7   4    1.36    0.23
  -7 -19  -4    1.24    0.38
   7  19  -4    1.53    0.24
  -7  19   2    5.09    0.32
  19  -7   2    5.28    0.29
  -7 -19  -2    5.82    0.55
  19  -7   2    5.22    0.33
   7  19  -2    5.38    0.35
 -19  -7  -2    5.89    0.43
   7  19   0    2.06    0.28
  -7  19   0    2.06    0.23
  19  -7   0    2.09    0.19
 -19  -7   0    2.11    0.36
  19  -7   0    1.77    0.40
  -7 -19   0    2.75    0.44
  19  -7  -2    5.88    0.33
  -7  19  -2    5.41    0.34
  19  -7  -2    5.31    0.26
  -7 -19   2    5.78    0.53
 -19  -7   2    5.61    0.50
  -7  19  -4    1.70    0.25
  -7 -19   4    1.79    0.39
 -19  -7   4    1.48    0.36
 -19  -7   6    3.93    0.48
  -7  19  -6    4.30    0.34
  -7  19  -8    2.09    0.27
 -19  -7   8    1.77    0.42
  -7  19 -10    1.05    0.25
 -19  -7  10    1.13    0.44
  -7  19 -12   14.74    0.64
 -19  -7  12   13.74    0.86
  -7  19 -14    1.69    0.30
 -19  -7  14    1.02    0.44
  -7  19 -16    1.19    0.30
 -19  -7  16    1.42    0.48
   8  19 -17    2.51    0.32
   8 -19  15    0.24    0.28
   8  19 -15    0.45    0.25
 -19  -8 -15    0.18    0.56
  19  -8  15    0.09    0.29
  -8 -19 -15    0.45    0.46
   8 -19  13    3.65    0.38
   8  19 -13    2.65    0.33
 -19  -8 -13    3.15    0.67
  19  -8  13    3.43    0.37
  -8 -19 -13    2.80    0.53
   8 -19  11    0.22    0.25
   8  19 -11    0.29    0.23
  19   8 -11    0.21    0.18
 -19  -8 -11    0.23    0.52
  -8 -19 -11    0.19    0.42
  -8  19   9    0.09    0.16
   8  19  -9    0.25    0.22
 -19  -8  -9   -0.11    0.54
   8  19  -9    0.36    0.20
  19  -8   9    0.24    0.21
  -8 -19  -9    0.87    0.42
  19  -8   9    0.38    0.31
  -8  19   7   10.24    0.44
   8  19  -7   12.12    0.55
 -19  -8  -7   11.81    0.48
   8  19  -7   11.39    0.48
  19  -8   7   11.14    0.53
  -8 -19  -7   10.44    0.71
  19  -8   7   11.46    0.66
  -8  19   5    3.49    0.26
  19  -8   5    3.48    0.27
   8  19  -5    3.24    0.32
  19  -8   5    3.32    0.43
  -8 -19  -5    3.17    0.48
  19  -8   5    3.46    0.31
   8  19  -5    3.35    0.28
 -19  -8  -5    3.49    0.33
  -8  19   3   10.04    0.44
  19  -8   3    9.70    0.42
   8  19  -3   10.61    0.52
  19  -8   3   11.26    0.68
  -8 -19  -3    9.71    0.68
  19  -8   3   10.68    0.47
   8  19  -3    9.61    0.47
 -19  -8  -3   10.43    0.55
  19  -8   1    0.62    0.21
   8  19  -1    0.52    0.22
  -8  19   1    0.58    0.20
  19  -8   1    0.41    0.16
 -19  -8  -1    0.44    0.30
  19  -8   1    0.40    0.35
  -8 -19  -1   -0.16    0.36
  19  -8  -1    0.57    0.19
  -8  19  -1    0.53    0.21
  -8 -19   1    0.73    0.40
 -19  -8   1    0.62    0.32
  19  -8  -3   11.06    0.45
  -8  19  -3   10.09    0.48
  -8 -19   3   11.24    0.70
 -19  -8   3    9.76    0.64
  -8  19  -5    3.10    0.29
 -19  -8   5    2.49    0.42
  -8  19  -7   10.20    0.49
 -19  -8   7   11.26    0.71
  -8  19  -9    0.16    0.21
 -19  -8   9    0.47    0.40
  -8  19 -11    0.28    0.23
 -19  -8  11    0.42    0.44
  -8  19 -13    3.32    0.35
 -19  -8  13    3.76    0.58
  -8  19 -15    0.27    0.24
 -19  -8  15    0.30    0.43
   9  19 -16    0.79    0.28
   9 -19  14    0.22    0.29
   9  19 -14    0.08    0.27
 -19  -9 -14    0.79    0.61
  19  -9  14    0.18    0.26
  -9 -19 -14    0.51    0.45
   9 -19  12    0.11    0.27
   9  19 -12    0.15    0.24
 -19  -9 -12    0.60    0.56
  19  -9  12   -0.06    0.24
  -9 -19 -12   -0.04    0.42
   9 -19  10    0.32    0.26
   9  19 -10    0.09    0.23
  19   9 -10    0.40    0.19
 -19  -9 -10    1.00    0.59
  19  -9  10    0.27    0.26
  -9 -19 -10    0.20    0.42
  -9  19   8   14.56    0.53
   9  19  -8   15.06    0.64
  19  -9   8   15.00    0.63
  -9 -19  -8   14.27    0.87
  -9  19   6    2.32    0.23
  19  -9   6    2.63    0.26
   9  19  -6    2.91    0.32
  -9 -19  -6    2.95    0.48
  19  -9   6    2.56    0.42
   9  19  -6    2.91    0.27
  19  -9   6    2.51    0.28
 -19  -9  -6    2.90    0.30
 -19  -9  -4    1.87    0.30
  -9  19   4    1.82    0.22
  19  -9   4    1.45    0.21
   9  19  -4    1.80    0.27
  -9 -19  -4    1.47    0.40
  19  -9   4    2.08    0.40
  19  -9   4    1.85    0.27
   9  19  -4    2.11    0.26
   9  19  -2   12.68    0.54
 -19  -9  -2   13.14    0.64
  -9  19   2   12.18    0.51
  19  -9   2   12.41    0.48
  19  -9   2   12.36    0.74
  -9 -19  -2   12.73    0.79
  19  -9   2   13.51    0.55
  19  -9   0   25.44    0.84
  -9  19   0   25.29    0.83
 -19  -9   0   26.43    1.01
  -9 -19   0   25.61    1.12
  -9  19  -2   11.25    0.51
  -9 -19   2   12.85    0.78
 -19  -9   2   13.38    0.71
  -9  19  -4    2.11    0.27
 -19  -9   4    2.04    0.43
  -9  19  -6    2.79    0.29
 -19  -9   6    2.19    0.46
 -19  -9   8   13.53    0.82
  -9  19  -8   13.64    0.59
  -9  19 -10    0.15    0.23
 -19  -9  10    0.23    0.43
  -9  19 -12    0.10    0.26
 -19  -9  12    0.04    0.43
  -9  19 -14    0.37    0.26
 -19  -9  14    0.34    0.46
  10  19 -15    2.51    0.33
  10 -19  13    1.46    0.35
  10  19 -13    1.79    0.30
 -19 -10 -13    1.83    0.62
  19 -10  13    1.70    0.32
 -10 -19 -13    2.24    0.51
  10 -19  11    0.32    0.26
  10  19 -11    0.32    0.25
  19  10 -11    0.14    0.18
  19 -10  11    0.42    0.26
 -10 -19 -11   -0.04    0.44
  10  19  -9    0.19    0.25
 -10 -19  -9    0.21    0.44
  19 -10   9    0.23    0.24
 -10  19   7   10.90    0.43
  10  19  -7   10.49    0.54
 -19 -10  -7   12.01    0.98
 -10 -19  -7   11.11    0.79
  19 -10   7   10.63    0.54
 -10  19   5    6.35    0.34
  10  19  -5    6.60    0.42
 -10 -19  -5    6.65    0.65
  19 -10   5    6.56    0.54
  10  19  -5    6.84    0.38
  19 -10   5    6.72    0.42
 -19 -10  -5    6.89    0.44
 -19 -10  -3   11.48    0.60
 -10  19   3   11.81    0.49
  19 -10   3   11.48    0.47
  10  19  -3   12.16    0.56
 -10 -19  -3   12.97    0.83
  19 -10   3   12.09    0.53
  10  19  -3   12.12    0.53
  19 -10   1    3.72    0.32
 -10  19   1    2.76    0.28
 -10 -19  -1    3.64    0.55
 -19 -10   1    3.40    0.45
 -10  19  -1    3.26    0.29
  19 -10  -1    3.37    0.29
 -10 -19   1    3.14    0.52
 -10  19  -3   11.46    0.50
 -10 -19   3   11.00    0.75
 -19 -10   3   10.60    0.68
 -10  19  -5    5.91    0.39
 -19 -10   5    6.35    0.58
 -19 -10   7   11.79    0.75
 -10  19  -7   10.42    0.51
 -19 -10   9    0.42    0.41
 -10  19  -9    0.05    0.25
 -19 -10  11    0.65    0.47
 -10  19 -11    0.45    0.26
 -19 -10  13    0.82    0.52
 -10  19 -13    1.30    0.28
  11  19 -14    4.04    0.37
  11 -19  12    8.65    0.54
  11  19 -12    9.64    0.54
  19 -11  12    9.63    0.55
 -11 -19 -12    9.32    0.79
  11  19 -10   10.50    0.55
  19  11 -10   10.00    0.46
 -11 -19 -10   10.37    0.83
  19 -11  10   10.31    0.55
  11  19  -8    3.49    0.36
 -19 -11  -8    2.93    0.65
 -11 -19  -8    3.80    0.58
  19 -11   8    2.86    0.35
  19 -11   6    3.56    0.35
 -11  19   6    3.94    0.27
  11  19  -6    3.65    0.36
 -19 -11  -6    3.06    0.67
 -11 -19  -6    2.20    0.52
 -19 -11  -4    8.57    0.51
 -11  19   4    8.38    0.40
  11  19  -4    9.40    0.49
 -11 -19  -4    8.67    0.73
  19 -11   4    7.63    0.62
  11  19  -4    8.58    0.43
  19 -11   4    9.02    0.49
 -11  19   2    3.48    0.29
 -11 -19  -2    3.25    0.55
 -19 -11  -2    2.84    0.39
 -11  19   0    1.12    0.23
 -19 -11   0    0.90    0.35
  19 -11   0    1.34    0.25
 -11 -19   0    1.44    0.52
 -11  19  -2    2.91    0.29
 -19 -11   2    2.94    0.44
 -11 -19   2    3.45    0.58
 -19 -11   4    7.41    0.59
 -11  19  -4    7.11    0.41
 -19 -11   6    3.85    0.54
 -11  19  -6    4.21    0.36
 -11  19  -8    2.59    0.33
 -19 -11   8    2.84    0.51
 -11  19 -10   10.02    0.54
 -19 -11  10   10.04    0.79
 -11  19 -12    9.71    0.55
 -19 -11  12    9.94    0.83
  12  19 -13    4.40    0.39
  12  19 -11    4.67    0.41
  19  12 -11    4.73    0.34
 -12 -19 -11    3.90    0.64
  19 -12  11    4.05    0.41
  12 -19   9   20.56    0.84
  12  19  -9   23.00    0.85
  19  12  -9   22.29    0.77
 -12 -19  -9   22.80    1.20
  12  19  -7   14.10    0.63
 -19 -12  -7   13.51    1.08
 -12 -19  -7   12.95    0.91
  19 -12   5    1.78    0.30
  12  19  -5    2.18    0.32
 -19 -12  -5    2.08    0.61
 -12 -19  -5    1.88    0.54
  19 -12   3    9.29    0.48
 -12  19   3    9.25    0.42
 -19 -12  -3    9.56    0.55
 -12 -19  -3    9.15    0.78
 -12  19   1    4.29    0.31
 -19 -12  -1    3.99    0.43
  19 -12   1    3.57    0.34
 -12 -19  -1    3.78    0.61
 -12  19  -1    4.36    0.33
 -19 -12   1    3.73    0.45
 -12 -19   1    3.42    0.61
 -12  19  -3    9.82    0.47
 -19 -12   3    8.74    0.66
 -12  19  -5    2.13    0.30
 -19 -12   5    2.05    0.50
 -12  19  -7   14.30    0.62
 -19 -12   7   12.99    0.85
 -12  19  -9   22.10    0.84
 -19 -12   9   23.22    1.13
 -12  19 -11    4.14    0.38
 -19 -12  11    4.66    0.64
  13  19 -12   22.87    0.85
  13  19 -10   13.11    0.62
  19  13 -10   13.12    0.56
 -19 -13 -10   12.99    1.06
 -13 -19 -10   14.13    0.97
  19 -13  10   13.67    0.67
  19 -13   8    0.71    0.28
  13  19  -8    0.98    0.27
 -19 -13  -8    1.00    0.64
 -13 -19  -8    0.45    0.56
  19 -13   6   14.72    0.65
  13  19  -6   14.85    0.66
 -19 -13  -6   12.98    1.06
 -13 -19  -6   14.87    0.99
  19 -13   4   10.19    0.53
 -13 -19  -4    9.83    0.84
 -13  19   2    0.44    0.19
 -19 -13  -2    0.05    0.29
  19 -13   2    0.55    0.27
 -13 -19  -2    0.38    0.50
 -13  19   0    8.92    0.43
 -13 -19   0    7.42    0.74
 -19 -13   0    7.61    0.57
 -19 -13   2   -0.28    0.36
 -13  19  -2    0.16    0.21
 -13  19  -4    9.58    0.47
 -19 -13   4    8.03    0.65
 -13  19  -6   14.21    0.62
 -19 -13   6   14.43    0.87
 -19 -13   8    0.92    0.51
 -13  19  -8    0.74    0.28
 -13  19 -10   14.15    0.65
 -19 -13  10   12.50    0.89
  14  19 -11    2.73    0.35
  14  19  -9   10.26    0.56
  19  14  -9   10.45    0.51
 -14 -19  -9   10.87    0.90
  19 -14   9   11.41    0.59
  19 -14   7    4.86    0.43
  14  19  -7    5.46    0.41
 -19 -14  -7    5.22    0.81
 -14 -19  -7    5.73    0.72
  19 -14   5    0.41    0.27
  14  19  -5    0.27    0.26
 -19 -14  -5    0.31    0.53
 -14 -19  -5    0.61    0.51
  19 -14   3    3.23    0.35
 -14 -19  -3    2.71    0.62
 -14  19   1    3.37    0.28
 -19 -14  -1    2.75    0.42
 -14 -19  -1    3.25    0.64
 -19 -14   1    3.73    0.46
 -14  19  -1    3.33    0.30
 -14  19  -3    2.88    0.30
 -19 -14   3    3.40    0.48
 -19 -14   5    0.37    0.43
 -14  19  -5    0.19    0.25
 -14  19  -7    5.45    0.39
 -19 -14   7    4.38    0.58
 -14  19  -9   11.08    0.57
 -19 -14   9   10.45    0.82
  19  15 -10    0.20    0.26
  15  19  -8    0.14    0.27
  19  15  -8    0.02    0.23
 -15 -19  -8   -0.34    0.55
  19 -15   6    0.35    0.28
  15  19  -6    0.23    0.25
 -19 -15  -6    0.19    0.58
 -15 -19  -6    0.33    0.51
  19 -15   4    0.36    0.28
 -15 -19  -4    0.44    0.54
 -15 -19  -2    1.85    0.63
 -19 -15   0    0.03    0.33
 -15  19  -2    2.17    0.27
 -19 -15   2    2.11    0.46
 -15  19  -4    0.07    0.22
 -19 -15   4    0.33    0.40
 -15  19  -6    0.13    0.25
 -19 -15   6    0.16    0.44
 -15  19  -8    0.36    0.26
 -19 -15   8    0.13    0.46
 -15  19 -10    0.42    0.27
  19  16  -9    0.31    0.24
  19  16  -7    3.68    0.37
  19 -16   5    1.20    0.32
 -16 -19  -5    0.47    0.61
 -16 -19  -3    2.49    0.66
 -19 -16   1    1.03    0.40
 -19 -16   3    1.92    0.46
 -16  19  -5    0.83    0.27
 -19 -16   5    0.81    0.41
 -16  19  -7    2.54    0.33
 -19 -16   7    3.31    0.56
 -19 -17   4    0.42    0.46
 -20   0   0   12.45    0.61
   0  20   0   12.98    0.55
  20   0   0   13.41    0.49
   0 -20   0   11.99    0.55
   0 -20  -2    2.39    0.31
  20   0   2    2.21    0.23
   0  20  -2    2.31    0.27
 -20   0  -2    2.42    0.31
   0  20   2    2.19    0.27
 -20   0   2    2.46    0.34
   0 -20   2    2.33    0.28
   0 -20  -4    3.27    0.35
  20   0  -4    2.92    0.22
  20   0   4    2.91    0.27
   0  20  -4    3.00    0.29
  20   0   4    2.77    0.26
   0  20   4    2.33    0.28
   0 -20   4    3.01    0.27
 -20   0   4    2.98    0.38
  20   0  -4    3.25    0.20
   0 -20  -6    1.44    0.30
  20   0   6    1.45    0.24
   0  20  -6    1.69    0.27
  20   0   6    1.68    0.25
   0  20   6    1.67    0.24
 -20   0   6    1.73    0.37
 -20   0   8    1.10    0.34
   0 -20  -8    1.72    0.32
   0  20  -8    1.55    0.25
  20   0   8    1.20    0.22
   0 -20  -8    1.38    0.28
   0  20   8    1.49    0.25
   0 -20 -10    8.01    0.56
  20   0  10    8.13    0.45
   0  20  10    7.73    0.41
 -20   0  10    8.25    0.61
 -20   0  12    4.60    0.51
   0 -20 -12    6.15    0.50
  20   0  12    5.13    0.39
   0 -20 -14    9.42    0.61
   0  20 -14    9.39    0.51
  20   0  14    8.36    0.50
   0 -20 -16    0.12    0.33
   0  20 -16    0.59    0.27
  20   0  16    0.55    0.31
  -1 -20 -17    2.15    0.43
   1  20 -17    1.86    0.32
  20  -1  17    1.77    0.34
  -1 -20 -15    7.36    0.58
   1  20 -15    6.92    0.45
  20  -1  15    7.28    0.47
  -1 -20 -13    0.82    0.35
   1  20 -13    1.45    0.29
  20  -1  13    0.79    0.28
  -1  20  13    0.95    0.22
  -1 -20 -11    1.76    0.37
  -1  20  11    1.89    0.26
 -20   1  11    1.30    0.39
  -1 -20  -9    0.93    0.29
  20  -1   9    1.43    0.24
  -1  20   9    1.13    0.22
  -1 -20  -9    1.40    0.25
 -20   1   9    1.22    0.36
  -1 -20  -7   10.34    0.58
  20  -1   7   10.35    0.48
   1  20  -7    9.78    0.50
  -1  20   7   10.50    0.47
 -20   1   7   10.61    0.63
  -1 -20  -5   10.28    0.57
  20   1  -5    9.70    0.38
  20  -1   5    9.88    0.46
   1  20  -5    9.96    0.49
  -1  20   5   10.33    0.47
 -20   1   5    9.33    0.58
  20   1  -3    5.02    0.28
  20  -1   3    4.69    0.31
 -20  -1  -3    4.71    0.38
   1  20  -3    4.82    0.35
  -1  20   3    4.75    0.35
  20  -1   3    5.40    0.32
  20   1  -3    4.53    0.24
 -20   1   3    5.34    0.43
   1 -20   3    4.66    0.32
  -1 -20  -3    5.01    0.41
  20   1  -1    3.13    0.24
  20  -1   1    3.04    0.25
  -1  20   1    2.58    0.28
   1  20  -1    3.10    0.30
  20   1  -1    3.05    0.23
  20  -1   1    3.03    0.25
 -20   1   1    2.73    0.34
 -20  -1  -1    2.58    0.33
  -1 -20  -1    3.03    0.34
   1 -20   1    3.15    0.29
   1 -20  -1    2.80    0.31
  20   1   1    2.97    0.26
  20  -1  -1    3.35    0.23
  20   1   1    3.55    0.25
  -1  20  -1    3.12    0.28
 -20   1  -1    3.05    0.34
   1  20   1    3.37    0.30
 -20  -1   1    2.77    0.35
  -1 -20   1    2.67    0.32
  20   1   3    4.45    0.32
   1 -20  -3    4.59    0.37
  20  -1  -3    4.44    0.25
  20   1   3    4.95    0.31
  -1  20  -3    4.95    0.35
   1  20   3    4.97    0.35
  -1 -20   3    4.62    0.36
  20  -1  -3    4.70    0.25
 -20  -1   3    4.17    0.42
  20  -1  -5   10.52    0.35
   1 -20  -5    9.75    0.54
  20   1   5   10.07    0.47
  20   1   5   10.47    0.46
  -1  20  -5    9.73    0.49
   1  20   5   10.37    0.48
  -1 -20   5    8.93    0.43
 -20  -1   5    9.01    0.59
   1 -20  -7    9.80    0.57
  20   1   7   10.91    0.49
  -1  20  -7   11.64    0.54
   1 -20  -7   12.27    0.58
   1  20   7   11.37    0.50
 -20  -1   7   10.30    0.64
 -20  -1   9    1.78    0.39
   1 -20  -9    0.89    0.30
  -1  20  -9    1.93    0.28
   1 -20  -9    1.28    0.27
   1 -20 -11    1.00    0.32
 -20  -1  11    0.83    0.37
  20   1  11    1.44    0.28
   1 -20 -13    1.26    0.33
 -20  -1  13    1.02    0.41
  20   1  13    1.18    0.27
   1 -20 -15    7.45    0.55
  -1  20 -15    6.77    0.45
  20   1  15    6.52    0.46
   1 -20 -17    2.95    0.46
 -20  -2 -18    0.84    0.63
  -2 -20 -16    0.40    0.37
   2  20 -16    0.86    0.27
  20  -2  16    0.39    0.29
 -20   2  16    0.69    0.41
  -2 -20 -14    0.75    0.35
   2  20 -14    0.08    0.25
  20  -2  14    0.36    0.27
  -2  20  14    0.19    0.20
  -2 -20 -12    0.32    0.32
   2  20 -12    0.68    0.24
  20  -2  12    0.83    0.25
  -2  20  12    1.13    0.22
 -20   2  12    0.68    0.33
  -2 -20 -10    0.44    0.33
  20  -2  10    0.80    0.25
  -2  20  10    0.80    0.22
  -2 -20  -8   10.72    0.61
  20  -2   8   11.18    0.50
  -2  20   8   10.35    0.47
 -20   2   8   10.97    0.63
   2  20  -6    6.74    0.42
  20  -2   6    7.38    0.40
  -2  20   6    7.28    0.39
 -20   2   6    7.34    0.52
  -2 -20  -6    7.62    0.52
  -2 -20  -4    0.37    0.28
  20   2  -4    0.34    0.18
  20  -2   4    0.33    0.18
   2  20  -4    0.31    0.24
 -20  -2  -4    0.48    0.26
  -2  20   4    0.29    0.20
  20  -2   4    0.24    0.20
 -20   2   4    0.46    0.28
  20   2  -4    0.36    0.12
   2 -20   4    0.18    0.16
  20   2  -2    9.87    0.44
  20  -2   2   11.23    0.45
 -20   2   2   11.71    0.60
  -2  20   2   10.07    0.48
   2  20  -2   10.66    0.51
 -20  -2  -2   10.78    0.55
  20  -2   2   11.39    0.46
  -2 -20  -2   11.68    0.59
   2 -20   2   10.43    0.46
  20   2   0   24.56    0.81
  20  -2   0   25.78    0.78
  -2  20   0   25.71    0.85
  20   2   0   26.25    0.78
   2  20   0   26.14    0.87
 -20  -2   0   25.20    0.94
  20  -2   0   27.25    0.80
  -2 -20   0   26.36    0.94
   2 -20   0   25.75    0.86
  20   2   2    9.75    0.46
   2 -20  -2   10.26    0.51
  20  -2  -2   10.56    0.41
  20   2   2   11.34    0.45
  -2  20  -2   11.06    0.50
   2  20   2   11.64    0.52
 -20  -2   2   11.06    0.60
  -2 -20   2   10.25    0.54
  20  -2  -2   11.26    0.42
 -20  -2   4   -0.16    0.30
  20   2   4    0.28    0.21
  20  -2  -4    0.40    0.15
   2 -20  -4    0.19    0.24
  -2  20  -4    0.18    0.22
  20   2   4    0.05    0.18
   2  20   4    0.21    0.21
  -2 -20   4    0.56    0.25
  20   2   6    7.18    0.42
   2 -20  -6    7.28    0.46
  20   2   6    7.42    0.40
  -2  20  -6    7.27    0.42
   2 -20  -6    8.76    0.49
 -20  -2   6    7.85    0.56
   2 -20  -8   10.25    0.57
  20   2   8   10.22    0.49
  -2  20  -8   10.47    0.52
 -20  -2   8   11.22    0.68
   2 -20 -10    0.81    0.28
  -2  20 -10    1.10    0.26
  20   2  10    0.58    0.23
 -20  -2  10    0.16    0.33
   2 -20 -12    0.59    0.28
  -2  20 -12    0.24    0.22
 -20  -2  12    0.31    0.35
   2 -20 -14    0.17    0.30
 -20  -2  14    0.30    0.37
   2 -20 -16    0.77    0.37
  -2  20 -16    0.60    0.27
  20   2  16    0.56    0.27
  -3 -20 -17    0.92    0.39
   3  20 -17    0.79    0.27
  20  -3  17    1.17    0.30
 -20  -3 -17    1.39    0.68
  -3 -20 -15    3.51    0.49
   3  20 -15    4.03    0.37
 -20  -3 -15    3.73    0.74
 -20   3  15    4.35    0.51
  -3 -20 -13   -0.16    0.32
   3  20 -13    0.33    0.24
  -3  20  13    0.48    0.21
  -3 -20 -11    2.62    0.40
   3  20 -11    1.97    0.28
  -3  20  11    2.01    0.25
  20  -3  11    2.48    0.29
 -20   3  11    2.00    0.38
  20  -3   9    7.11    0.41
  -3  20   9    7.07    0.38
 -20   3   9    7.02    0.53
  20  -3   9    6.60    0.49
  -3 -20  -9    6.56    0.51
  -3 -20  -7    1.23    0.33
  20  -3   7    1.59    0.25
  20  -3   7    1.17    0.35
  -3  20   7    1.16    0.23
  20  -3   7    0.98    0.20
 -20   3   7    1.00    0.32
  20   3  -5   12.53    0.48
  20  -3   5   12.61    0.70
  20  -3   5   12.55    0.52
 -20  -3  -5   13.64    0.57
   3  20  -5   12.99    0.58
  -3  20   5   13.37    0.53
 -20   3   5   13.29    0.66
  20  -3   5   12.79    0.54
  -3 -20  -5   13.34    0.69
  20   3  -3   34.65    1.01
  20  -3   3   34.41    1.02
 -20   3   3   36.29    1.20
  -3  20   3   34.60    1.05
   3  20  -3   35.36    1.10
 -20  -3  -3   36.01    1.12
  20  -3   3   35.39    1.04
  -3 -20  -3   34.56    1.20
   3 -20   3   34.30    1.00
   3 -20   1    5.33    0.34
  20  -3   1    5.36    0.30
  -3  20   1    5.00    0.33
  20   3  -1    5.52    0.28
   3  20  -1    4.93    0.36
 -20  -3  -1    5.83    0.43
  -3 -20  -1    4.82    0.45
   3 -20  -1    5.74    0.37
  20  -3  -1    5.44    0.29
  -3  20  -1    6.52    0.37
   3  20   1    5.97    0.39
 -20  -3   1    5.81    0.44
  -3 -20   1    5.68    0.44
  20   3   3   34.40    1.06
   3 -20  -3   34.66    1.11
  20  -3  -3   33.40    0.94
  20   3   3   36.28    1.04
  -3  20  -3   34.55    1.08
   3  20   3   35.58    1.10
  -3 -20   3   34.80    1.15
 -20  -3   3   34.57    1.22
  20  -3  -3   37.86    0.99
  20   3   5   11.65    0.53
   3 -20  -5   12.46    0.59
  20  -3  -5   12.97    0.43
  20   3   5   13.47    0.53
  -3  20  -5   12.47    0.56
   3 -20  -5   14.82    0.65
  -3 -20   5   14.34    0.59
 -20  -3   5   13.13    0.70
   3 -20  -7    1.14    0.29
  -3  20  -7    1.42    0.24
 -20  -3   7    1.82    0.40
   3 -20  -7    1.39    0.29
   3 -20  -9    5.99    0.47
  -3  20  -9    7.49    0.43
 -20  -3   9    7.05    0.59
   3 -20  -9    7.44    0.48
   3 -20 -11    1.97    0.34
  -3  20 -11    2.44    0.28
 -20  -3  11    2.26    0.41
   3 -20 -13    0.81    0.30
  -3  20 -13    0.52    0.25
 -20  -3  13    0.84    0.42
   3 -20 -15    4.24    0.47
 -20  -3  15    3.91    0.55
   3 -20 -17    0.93    0.36
  -4 -20 -16    6.76    0.61
   4  20 -16    7.48    0.47
  20  -4  16    6.74    0.48
 -20  -4 -16    7.72    0.91
 -20   4  16    7.15    0.59
  -4 -20 -14    6.08    0.58
   4  20 -14    7.50    0.45
  20  -4  14    5.64    0.44
 -20  -4 -14    6.03    0.81
 -20   4  14    5.87    0.54
  -4 -20 -12    0.42    0.37
   4  20 -12    0.36    0.24
  -4  20  12    0.84    0.20
  20  -4  12    0.33    0.26
   4  20 -10    7.89    0.45
  -4  20  10    7.01    0.37
 -20   4  10    7.82    0.54
  20  -4  10    7.65    0.44
  -4 -20 -10    6.83    0.56
  20  -4   8   13.06    0.69
  -4  20   8   13.70    0.54
 -20   4   8   13.71    0.70
  20  -4   8   13.66    0.59
  -4 -20  -8   13.42    0.72
  20  -4   6    9.48    0.62
  20  -4   6    9.73    0.46
 -20   4   6    9.56    0.57
  -4  20   6    9.38    0.43
  20  -4   6    9.29    0.46
  -4 -20  -6   10.09    0.63
  20  -4   4   13.00    0.51
 -20   4   4   13.98    0.68
  -4  20   4   12.41    0.52
   4  20  -4   12.53    0.57
 -20  -4  -4   13.08    0.57
  20   4  -4   13.56    0.41
  20  -4   4   13.15    0.54
  -4 -20  -4   13.07    0.70
  20   4  -4   12.27    0.50
  20   4  -2   24.63    0.82
   4 -20   2   26.48    0.81
  -4  20   2   25.98    0.86
   4  20  -2   26.56    0.90
 -20  -4  -2   26.64    0.94
  20  -4   2   28.41    0.85
  20  -4   2   26.57    1.08
  -4 -20  -2   27.63    1.03
  20   4   0   10.36    0.45
   4 -20   0   10.25    0.47
  20  -4   0   10.39    0.42
  20   4   0   11.47    0.43
  -4  20   0   11.17    0.49
   4  20   0    9.93    0.50
  -4 -20   0   11.46    0.61
 -20  -4   0   10.43    0.58
  20  -4   0   11.12    0.45
  20   4   2   23.72    0.83
   4 -20  -2   24.65    0.87
  20  -4  -2   25.43    0.75
  20   4   2   27.76    0.82
  -4  20  -2   26.86    0.87
   4  20   2   27.43    0.90
  -4 -20   2   27.35    1.00
 -20  -4   2   27.99    1.02
  20  -4  -2   28.02    0.81
 -20  -4   4   13.72    0.72
  20   4   4   12.27    0.54
   4 -20  -4   12.79    0.58
  -4  20  -4   13.51    0.56
  -4 -20   4   12.57    0.64
 -20  -4   6    9.87    0.64
   4 -20  -6    8.27    0.48
  -4  20  -6    9.15    0.47
 -20  -4   8   12.60    0.75
  -4  20  -8   13.66    0.58
  -4  20 -10    7.69    0.45
 -20  -4  10    7.05    0.62
  -4  20 -12    0.51    0.24
 -20  -4  12    0.51    0.42
  -4  20 -14    6.13    0.42
 -20  -4  14    5.81    0.60
 -20  -4  16    6.69    0.65
  -5 -20 -15    0.47    0.38
   5  20 -15    0.18    0.27
  20  -5  15    0.26    0.28
 -20  -5 -15    0.49    0.65
 -20   5  15    0.29    0.34
   5  20 -13   11.90    0.58
  20  -5  13   12.16    0.60
 -20  -5 -13   10.47    0.99
  -5 -20 -13   10.68    0.73
   5  20 -11   12.78    0.58
  -5  20  11   11.04    0.47
  20  -5  11   11.57    0.56
 -20  -5 -11   11.14    0.97
  -5 -20 -11   10.76    0.70
   5  20  -9    0.13    0.21
  -5  20   9   -0.04    0.16
 -20   5   9   -0.14    0.32
  20  -5   9    0.10    0.22
  -5 -20  -9   -0.10    0.35
 -20   5   7   13.80    0.69
  -5  20   7   12.49    0.50
  20  -5   7   13.14    0.56
  20  -5   7   12.39    0.69
  -5 -20  -7   13.90    0.74
  20  -5   5   13.74    0.54
  -5  20   5   13.36    0.54
 -20  -5  -5   14.13    0.59
  20  -5   5   14.93    0.58
  20  -5   5   13.48    0.74
  -5 -20  -5   14.55    0.76
   5 -20   3    2.82    0.23
  20  -5   3    2.93    0.25
  -5  20   3    2.94    0.27
  20   5  -3    2.87    0.19
   5  20  -3    2.66    0.30
 -20  -5  -3    2.86    0.32
  -5 -20  -3    3.07    0.43
   5 -20   1   18.45    0.64
  20  -5   1   17.60    0.61
  20   5  -1   19.75    0.60
  -5  20   1   18.68    0.68
   5  20  -1   17.57    0.70
  -5 -20  -1   18.99    0.85
  20  -5   1   19.72    0.66
 -20  -5  -1   18.46    0.77
   5 -20  -1   16.12    0.63
  20   5   1   18.24    0.60
  20  -5  -1   17.25    0.56
  -5  20  -1   17.93    0.66
   5  20   1   17.82    0.69
  -5 -20   1   17.93    0.80
  20  -5  -1   17.92    0.61
 -20  -5   1   17.08    0.78
  20   5   1   17.30    0.64
  20   5   3    2.27    0.26
  20  -5  -3    3.04    0.24
   5 -20  -3    2.45    0.28
  -5  20  -3    2.86    0.29
 -20  -5   3    3.07    0.43
  -5 -20   3    2.78    0.40
 -20  -5   5   13.71    0.74
  -5  20  -5   13.86    0.59
  -5  20  -7   15.09    0.62
 -20  -5   7   14.40    0.78
  -5  20  -9    0.09    0.23
 -20  -5   9    0.07    0.39
  -5  20 -11   11.23    0.55
 -20  -5  11    9.25    0.71
  -5  20 -13   11.20    0.56
 -20  -5  13   10.86    0.77
  -5  20 -15    0.19    0.24
 -20  -5  15    0.20    0.42
   6  20 -16    3.10    0.36
 -20  -6 -16    3.01    0.68
   6  20 -14    4.51    0.38
 -20   6  14    5.13    0.51
 -20  -6 -14    5.12    0.81
  20  -6  14    4.31    0.39
  -6 -20 -14    4.78    0.54
   6  20 -12   11.49    0.57
 -20  -6 -12   13.59    1.04
  -6 -20 -12   11.68    0.77
  -6  20  10    4.94    0.29
   6  20 -10    5.20    0.39
  20  -6  10    5.54    0.39
  -6 -20 -10    6.01    0.57
  -6  20   8    6.72    0.35
   6  20  -8    6.34    0.42
  20  -6   8    6.82    0.41
  -6 -20  -8    6.62    0.58
  20  -6   6    3.14    0.29
  -6  20   6    3.36    0.28
   6  20  -6    3.34    0.32
 -20  -6  -6    3.31    0.31
  20  -6   6    3.47    0.32
  -6 -20  -6    3.20    0.44
  20  -6   4    5.83    0.33
  -6  20   4    6.32    0.36
 -20  -6  -4    6.24    0.40
  20  -6   4    5.53    0.35
  -6 -20  -4    5.99    0.54
   6 -20   2   12.23    0.47
  20  -6   2   12.04    0.47
  20   6  -2   11.90    0.43
  -6  20   2   12.10    0.51
   6  20  -2   11.33    0.55
  -6 -20  -2   11.81    0.70
  20  -6   2   12.16    0.51
 -20  -6  -2   12.71    0.60
 -20  -6   0    4.19    0.42
   6 -20   0    3.81    0.30
  20  -6   0    4.18    0.25
  -6  20   0    4.04    0.32
   6  20   0    3.76    0.34
  -6 -20   0    3.64    0.44
  20  -6   0    4.11    0.29
  20  -6  -2   13.20    0.49
 -20  -6   2   12.37    0.67
  -6  20  -2   12.12    0.53
  -6 -20   2   12.43    0.69
  20  -6  -4    6.86    0.33
 -20  -6   4    6.89    0.54
  -6  20  -4    6.11    0.37
  -6 -20   4    6.27    0.52
  -6  20  -6    3.52    0.31
 -20  -6   6    2.69    0.45
  -6  20  -8    6.68    0.42
 -20  -6   8    8.20    0.66
  -6  20 -10    4.90    0.37
 -20  -6  10    5.15    0.56
  -6  20 -12   11.71    0.58
 -20  -6  12   12.06    0.79
  -6  20 -14    4.59    0.39
 -20  -6  14    4.51    0.58
   7  20 -15    1.46    0.30
 -20  -7 -15    0.95    0.62
  20  -7  15    0.89    0.31
  -7 -20 -15    1.34    0.48
   7  20 -13    6.96    0.45
 -20   7  13    7.12    0.57
 -20  -7 -13    5.63    0.80
  -7 -20 -13    7.26    0.66
   7  20 -11    3.93    0.36
  20  -7  11    3.78    0.36
  -7 -20 -11    3.83    0.51
  -7  20   9    1.69    0.21
   7  20  -9    2.33    0.31
 -20  -7  -9    1.78    0.56
  20  -7   9    1.87    0.29
  -7 -20  -9    1.89    0.45
  -7  20   7   13.48    0.52
 -20  -7  -7   14.17    0.55
   7  20  -7   13.54    0.61
  -7 -20  -7   13.63    0.80
  20  -7   5    4.93    0.31
  -7  20   5    4.29    0.30
   7  20  -5    4.25    0.36
 -20  -7  -5    4.67    0.35
  -7 -20  -5    5.02    0.51
 -20  -7  -3    1.05    0.28
  20  -7   3    1.31    0.20
  -7  20   3    1.17    0.22
  -7 -20  -3    1.63    0.40
  20  -7   3    1.23    0.23
  -7  20   1    8.58    0.42
  -7 -20  -1    8.51    0.62
  20  -7   1    8.71    0.42
 -20  -7  -1    9.10    0.54
 -20  -7   1    8.50    0.56
  -7  20  -1    8.72    0.43
  -7 -20   1    8.42    0.63
  -7  20  -3    1.18    0.24
  20  -7  -3    1.34    0.21
  -7 -20   3    0.80    0.40
 -20  -7   3    1.60    0.37
  -7  20  -5    4.69    0.34
 -20  -7   5    3.78    0.46
  -7  20  -7   13.66    0.60
 -20  -7   7   13.58    0.78
 -20  -7   9    1.40    0.41
  -7  20  -9    1.38    0.28
 -20  -7  11    3.98    0.57
  -7  20 -11    4.32    0.37
 -20  -7  13    7.10    0.66
  -7  20 -13    6.34    0.44
   8 -20  14    1.72    0.32
   8  20 -14    1.41    0.31
 -20  -8 -14    1.33    0.59
  20  -8  14    1.74    0.34
  -8 -20 -14    1.30    0.49
   8  20 -12    2.62    0.33
 -20  -8 -12    2.12    0.63
  20  -8  12    2.17    0.34
  -8 -20 -12    2.61    0.51
   8  20 -10    3.73    0.35
 -20  -8 -10    3.79    0.68
  20  -8  10    3.66    0.36
  -8 -20 -10    3.79    0.54
  -8  20   8   14.38    0.53
   8  20  -8   14.26    0.63
  -8 -20  -8   12.78    0.82
  -8  20   6    0.31    0.17
   8  20  -6    0.30    0.24
 -20  -8  -6    0.51    0.23
  -8 -20  -6    0.51    0.38
  20  -8   6    0.20    0.23
 -20  -8  -4    3.93    0.35
  -8  20   4    3.08    0.27
  20  -8   4    3.45    0.28
   8  20  -4    3.71    0.36
  -8 -20  -4    3.54    0.50
  -8  20   2   10.33    0.47
  -8 -20  -2   10.61    0.72
  20  -8   2   10.62    0.49
 -20  -8  -2   10.63    0.58
  20  -8   0    8.99    0.45
 -20  -8   0    9.87    0.60
  -8  20   0    9.12    0.44
  -8 -20   0    9.64    0.68
  20  -8  -2   10.63    0.45
  -8  20  -2    9.74    0.48
 -20  -8   2   10.20    0.64
  -8 -20   2    9.87    0.69
  -8  20  -4    3.33    0.30
  -8 -20   4    3.18    0.48
 -20  -8   4    2.52    0.40
 -20  -8   6    0.33    0.39
  -8  20  -6    0.30    0.24
  -8  20  -8   12.85    0.59
 -20  -8   8   13.32    0.82
  -8  20 -10    3.39    0.34
 -20  -8  10    3.80    0.55
  -8  20 -12    2.06    0.32
 -20  -8  12    2.26    0.50
  -8  20 -14    1.80    0.32
 -20  -8  14    0.94    0.47
   9 -20  13    2.73    0.36
   9  20 -13    2.71    0.33
 -20  -9 -13    3.33    0.70
  20  -9  13    2.40    0.36
  -9 -20 -13    2.46    0.52
   9  20 -11    3.08    0.35
 -20  -9 -11    3.78    0.73
  20  -9  11    2.70    0.36
  -9 -20 -11    3.37    0.55
   9  20  -9    2.53    0.32
  20  -9   9    2.94    0.35
  -9 -20  -9    3.38    0.52
  -9  20   7    8.79    0.39
   9  20  -7    8.38    0.48
  20  -9   7    7.58    0.45
  -9 -20  -7    8.13    0.68
  -9  20   5   16.55    0.60
   9  20  -5   17.71    0.71
 -20  -9  -5   17.17    0.68
  -9 -20  -5   15.97    0.92
  -9  20   3   24.85    0.81
   9  20  -3   24.97    0.90
  -9 -20  -3   24.66    1.13
  20  -9   3   26.28    0.87
 -20  -9  -3   25.63    0.93
  20  -9   1   14.29    0.58
 -20  -9  -1   14.48    0.70
  -9  20   1   13.38    0.55
  -9 -20  -1   14.91    0.87
  20  -9  -1   14.72    0.58
  -9  20  -1   14.42    0.58
 -20  -9   1   14.07    0.75
  -9 -20   1   14.12    0.84
  -9  20  -3   23.53    0.82
 -20  -9   3   24.06    1.02
  -9 -20   3   25.17    1.11
  -9  20  -5   16.53    0.66
 -20  -9   5   16.51    0.87
  -9  20  -7    7.28    0.44
 -20  -9   7    7.78    0.64
  -9  20  -9    2.98    0.32
 -20  -9   9    2.52    0.50
  -9  20 -11    3.21    0.34
 -20  -9  11    1.97    0.47
  -9  20 -13    2.37    0.35
 -20  -9  13    3.10    0.54
  10 -20  12    0.45    0.29
  10  20 -12    0.35    0.26
 -10 -20 -12    0.36    0.50
  10  20 -10    8.66    0.51
  20 -10  10    8.70    0.52
 -10 -20 -10    9.29    0.76
  10  20  -8   17.96    0.73
 -10 -20  -8   17.63    1.02
  20 -10   8   18.47    0.74
 -10  20   6    2.71    0.25
  10  20  -6    2.89    0.33
 -10 -20  -6    2.56    0.55
 -10  20   4   12.08    0.50
  10  20  -4   12.04    0.59
 -10 -20  -4   10.64    0.78
 -20 -10  -4   12.29    0.60
  20 -10   4   13.10    0.57
  20 -10   2   21.62    0.77
 -20 -10  -2   20.63    0.85
 -10  20   2   21.44    0.73
  10  20  -2   21.13    0.80
 -10 -20  -2   22.03    1.08
 -10  20   0   29.15    0.93
 -20 -10   0   29.04    1.10
 -10 -20   0   30.47    1.29
 -10  20  -2   20.01    0.73
  20 -10  -2   21.76    0.73
 -10 -20   2   19.44    1.02
 -20 -10   2   19.36    0.90
 -10  20  -4   11.53    0.53
 -20 -10   4   11.84    0.72
 -10  20  -6    2.42    0.31
 -20 -10   6    1.97    0.46
 -10  20  -8   16.61    0.69
 -20 -10   8   16.62    0.93
 -10  20 -10    8.48    0.50
 -20 -10  10    8.02    0.71
 -10  20 -12    0.46    0.26
 -20 -10  12    0.59    0.44
  11  20 -11   10.61    0.55
 -11 -20 -11   10.58    0.84
  20 -11  11    9.24    0.54
  11  20  -9    1.56    0.32
 -11 -20  -9    2.20    0.57
  20 -11   9    1.67    0.33
  11  20  -7   18.78    0.76
 -20 -11  -7   18.48    1.22
 -11 -20  -7   19.59    1.07
  20 -11   7   18.43    0.75
  11  20  -5   20.31    0.79
 -11 -20  -5   19.64    1.09
  20 -11   5   19.77    0.77
  20 -11   3    1.99    0.31
 -11  20   3    1.65    0.23
 -20 -11  -3    2.03    0.35
  11  20  -3    1.93    0.31
 -11 -20  -3    1.04    0.51
  20 -11   1   15.85    0.63
 -11  20   1   15.65    0.60
 -20 -11  -1   15.29    0.75
 -11 -20  -1   14.36    0.91
 -11  20  -1   15.98    0.63
  20 -11  -1   16.28    0.65
 -11 -20   1   16.67    0.97
 -20 -11   1   16.02    0.81
 -11  20  -3    2.43    0.29
 -20 -11   3    2.49    0.42
 -11  20  -5   17.82    0.70
 -20 -11   5   18.41    0.93
 -20 -11   7   16.97    0.95
 -11  20  -7   18.97    0.74
 -11  20  -9    1.67    0.30
 -20 -11   9    2.14    0.50
 -11  20 -11    8.69    0.51
 -20 -11  11    7.42    0.73
  12  20 -10   10.18    0.57
 -12 -20 -10   11.51    0.91
  20 -12  10   11.75    0.60
  12  20  -8    7.04    0.46
 -20 -12  -8    6.64    0.85
 -12 -20  -8    8.00    0.75
  20 -12   6    4.80    0.41
  12  20  -6    5.46    0.43
 -12 -20  -6    5.42    0.68
  20 -12   4   13.70    0.61
  12  20  -4   11.97    0.59
 -12 -20  -4   13.02    0.92
  20 -12   2   12.05    0.56
 -12  20   2   10.04    0.47
 -20 -12  -2   11.76    0.62
 -12 -20  -2   11.30    0.84
 -20 -12   0   -0.11    0.35
 -12  20   0    0.27    0.23
 -12 -20   0   -0.14    0.49
 -12  20  -2   10.59    0.50
 -20 -12   2    9.52    0.64
 -12  20  -4   13.99    0.61
 -20 -12   4   13.41    0.79
 -12  20  -6    6.14    0.42
 -20 -12   6    5.96    0.61
 -20 -12   8    6.82    0.67
 -12  20  -8    6.59    0.45
 -20 -12  10    9.76    0.81
 -12  20 -10   11.56    0.59
  13  20  -9    6.98    0.47
  20  13  -9    6.30    0.40
  20 -13   9    7.48    0.49
  13  20  -7    5.49    0.43
 -13 -20  -7    5.52    0.71
  20 -13   7    5.46    0.44
  20 -13   5    1.11    0.29
  13  20  -5    0.98    0.28
 -13 -20  -5    1.24    0.51
 -13 -20  -3    1.38    0.54
 -20 -13  -1    1.63    0.36
 -13  20   1    1.81    0.25
 -13 -20  -1    1.67    0.55
 -13  20  -1    1.53    0.24
 -20 -13   1    1.45    0.40
 -13 -20   1    2.42    0.59
 -13  20  -3    0.89    0.23
 -20 -13   3    1.34    0.41
 -13  20  -5    1.08    0.27
 -20 -13   5    1.11    0.41
 -13  20  -7    5.05    0.40
 -20 -13   7    5.94    0.62
 -13  20  -9    7.14    0.47
 -20 -13   9    7.60    0.73
  20  14  -8    0.33    0.24
 -14 -20  -8    0.22    0.51
  14  20  -6    0.24    0.28
 -14 -20  -6    0.32    0.54
  20 -14   4    0.77    0.27
  14  20  -4    1.10    0.28
 -14 -20  -4    1.16    0.56
  20 -14   2    0.28    0.25
 -14 -20  -2    0.26    0.53
 -20 -14   0    1.38    0.36
 -14 -20   0    1.18    0.54
 -14  20  -2    0.18    0.21
 -20 -14   2    0.64    0.38
 -20 -14   4    1.09    0.41
 -14  20  -4    1.25    0.28
 -14  20  -6    0.73    0.26
 -20 -14   6    0.84    0.46
 -14  20  -8    0.10    0.25
 -20 -14   8    1.04    0.46
  20 -15   5    2.03    0.34
 -15 -20  -5    2.21    0.64
  20 -15   3    3.65    0.39
 -15 -20  -3    4.99    0.74
 -15 -20  -1    0.66    0.54
 -20 -15   3    4.23    0.55
 -15  20  -5    2.27    0.31
 -20 -15   5    2.49    0.49
 -15  20  -7   -0.06    0.26
 -20 -15   7    0.25    0.46
 -16 -20  -2    4.38    0.72
 -20 -16   4    0.04    0.41
  21   0   1    0.35    0.18
  21   0  -1    0.42    0.18
   0  21  -1    0.24    0.22
   0  21   1    0.41    0.22
 -21   0  -1    0.15    0.24
 -21   0   1   -0.02    0.24
  21   0   1    0.37    0.17
   0 -21   1    0.26    0.23
   0 -21  -1    0.39    0.24
  21   0   3    7.99    0.41
   0  21  -3    8.97    0.46
   0  21   3    8.89    0.46
  21   0   3    9.32    0.42
 -21   0   3    8.37    0.53
   0 -21   3    8.59    0.44
  21   0  -3    9.41    0.35
   0 -21  -3    8.15    0.49
   0 -21  -5    1.13    0.30
  21   0   5    1.57    0.25
   0  21  -5    1.16    0.26
   0  21   5    1.22    0.25
 -21   0   5    1.67    0.36
   0 -21  -7   16.92    0.79
   0 -21  -7   20.45    0.76
   0  21  -7   18.22    0.72
  21   0   7   18.30    0.68
   0  21   7   17.47    0.68
 -21   0   7   18.82    0.86
   0 -21  -9   30.90    1.16
   0  21  -9   32.89    1.07
  21   0   9   32.28    1.03
   0  21   9   32.21    1.01
 -21   0   9   31.08    1.21
 -21   0  11    0.75    0.37
   0 -21 -11    1.08    0.36
  21   0  11    1.21    0.28
   0  21  11    1.13    0.26
 -21   0  13    3.89    0.51
   0 -21 -13    4.05    0.48
  21   0  13    3.71    0.37
   0 -21 -15   36.30    1.36
   0  21 -15   37.16    1.21
  21   0  15   37.29    1.22
  -1 -21 -16    4.19    0.50
  21  -1  16    5.09    0.45
  -1 -21 -14    8.28    0.63
   1  21 -14    8.78    0.50
  21  -1  14    7.31    0.49
  -1  21  14    8.38    0.44
  -1 -21 -12   14.73    0.80
  21  -1  12   15.86    0.67
  -1  21  12   15.78    0.62
 -21   1  12   16.89    0.85
  21  -1  10   20.34    0.77
  -1  21  10   21.35    0.73
 -21   1  10   22.10    0.96
  -1 -21  -8    0.42    0.34
   1  21  -8    0.39    0.25
  21  -1   8    0.35    0.22
  -1  21   8    0.61    0.22
 -21   1   8    0.44    0.33
   1  21  -6    8.39    0.47
  21  -1   6    8.06    0.42
  -1  21   6    7.39    0.42
 -21   1   6    8.52    0.57
  -1 -21  -6    7.56    0.52
  21  -1   4   15.19    0.58
   1  21  -4   14.60    0.62
  -1  21   4   15.60    0.62
  21  -1   4   14.47    0.58
 -21   1   4   14.92    0.72
  -1 -21  -4   15.74    0.71
  21   1  -2    1.16    0.18
  21  -1   2    1.39    0.21
   1  21  -2    1.23    0.25
  -1  21   2    1.25    0.23
 -21  -1  -2    1.09    0.27
 -21   1   2    1.27    0.32
  21  -1   2    1.44    0.20
  21   1  -2    1.30    0.18
   1 -21   2    1.16    0.24
  -1 -21  -2    1.60    0.31
  21   1   0    0.01    0.17
  21  -1   0    0.19    0.16
  -1  21   0    0.07    0.22
 -21   1   0    0.31    0.27
   1  21   0    0.10    0.21
  21   1   0   -0.02    0.17
 -21  -1   0    0.04    0.25
  21  -1   0    0.03    0.16
  -1 -21   0    0.02    0.26
   1 -21   0    0.40    0.23
   1 -21  -2    1.35    0.29
  21   1   2    1.34    0.23
  -1  21  -2    1.36    0.25
   1  21   2    1.21    0.25
  21   1   2    1.53    0.20
 -21  -1   2    1.88    0.31
  -1 -21   2    1.10    0.26
  21  -1  -2    1.49    0.19
   1 -21  -4   15.62    0.67
  21   1   4   13.64    0.57
  -1  21  -4   15.01    0.63
   1  21   4   14.98    0.60
 -21  -1   4   13.88    0.72
   1 -21  -6    8.05    0.52
  -1  21  -6    7.40    0.45
  21   1   6    8.84    0.44
   1  21   6    7.64    0.44
 -21  -1   6    7.76    0.57
 -21  -1   8    0.42    0.34
   1 -21  -8    0.39    0.30
  -1  21  -8    0.63    0.26
  21   1   8    0.42    0.22
   1  21   8    1.01    0.25
   1 -21  -8    0.77    0.32
   1 -21 -10   21.06    0.90
  -1  21 -10   21.61    0.81
 -21  -1  10   21.70    0.99
   1 -21 -12   15.68    0.77
  21   1  12   14.80    0.66
 -21  -1  12   16.69    0.86
 -21  -1  14    7.28    0.63
   1 -21 -14    7.67    0.59
  21   1  14    7.36    0.46
   1 -21 -16    5.10    0.54
  -2 -21 -15    6.92    0.60
   2  21 -15    6.86    0.47
  -2 -21 -13    1.75    0.39
   2  21 -13    2.07    0.30
  -2  21  13    1.85    0.26
 -21   2  13    1.64    0.42
  -2 -21 -11    0.51    0.33
  21  -2  11    0.73    0.24
  -2  21  11    0.91    0.23
 -21   2  11    0.78    0.35
  -2 -21  -9    6.84    0.53
  21  -2   9    6.63    0.41
  -2  21   9    5.95    0.37
 -21   2   9    6.01    0.53
   2  21  -7    7.27    0.43
  -2  21   7    6.89    0.40
  21  -2   7    6.67    0.40
 -21   2   7    7.21    0.53
  -2 -21  -7    6.56    0.51
  -2 -21  -5    4.79    0.44
  21  -2   5    4.31    0.32
   2  21  -5    4.37    0.35
  -2  21   5    4.61    0.33
 -21   2   5    4.06    0.44
  21  -2   3    0.58    0.18
  -2  21   3    0.39    0.21
   2  21  -3    0.60    0.24
 -21  -2  -3    0.71    0.26
 -21   2   3    0.80    0.34
  21  -2   3    0.74    0.19
  21   2  -3    0.63    0.15
  -2 -21  -3    0.72    0.30
  21   2  -1    0.75    0.19
  21  -2   1    0.69    0.17
  -2  21   1    0.90    0.23
 -21   2   1    0.80    0.30
   2  21  -1    0.40    0.22
 -21  -2  -1    0.13    0.27
  -2 -21  -1    0.51    0.27
   2 -21   1    0.73    0.23
   2 -21  -1    1.23    0.26
  21   2   1    0.57    0.19
  -2  21  -1    1.00    0.23
   2  21   1    0.70    0.23
  21   2   1    0.40    0.17
 -21  -2   1    0.28    0.28
  -2 -21   1    0.17    0.27
  21  -2  -1    0.68    0.18
  21  -2  -3    0.57    0.16
  21   2   3    0.51    0.21
   2 -21  -3    0.34    0.25
  -2  21  -3    0.54    0.21
  21   2   3    0.45    0.19
   2  21   3    0.65    0.24
  -2 -21   3    0.44    0.26
 -21  -2   3    0.58    0.31
 -21  -2   5    4.38    0.46
   2 -21  -5    3.86    0.37
  -2  21  -5    3.98    0.34
  21   2   5    3.58    0.29
   2  21   5    4.48    0.35
 -21  -2   7    6.49    0.55
   2 -21  -7    5.28    0.43
  21   2   7    6.64    0.39
  -2  21  -7    7.04    0.43
   2  21   7    6.80    0.42
 -21  -2   9    6.42    0.56
   2 -21  -9    5.32    0.45
  -2  21  -9    6.13    0.43
   2 -21 -11    0.63    0.31
 -21  -2  11    1.00    0.40
  -2  21 -11    0.89    0.26
  21   2  11    1.05    0.26
   2 -21 -13    1.43    0.33
 -21  -2  13    1.84    0.43
  21   2  13    1.64    0.30
   2 -21 -15    6.43    0.54
  21   2  15    6.50    0.46
  -3 -21 -14    3.43    0.50
   3  21 -14    2.33    0.32
  21  -3  14    2.69    0.35
  -3 -21 -12    3.98    0.47
   3  21 -12    4.15    0.36
  -3  21  12    4.20    0.31
 -21   3  12    4.64    0.49
  -3 -21 -10    3.57    0.46
   3  21 -10    4.16    0.36
  -3  21  10    4.90    0.33
  21  -3  10    5.14    0.38
 -21   3  10    3.87    0.45
  -3 -21  -8    1.77    0.38
  -3  21   8    2.00    0.26
 -21   3   8    2.09    0.39
   3  21  -6    0.37    0.24
  -3  21   6    0.48    0.21
 -21   3   6    1.20    0.36
  21  -3   6    0.20    0.19
  -3 -21  -6    0.28    0.35
  21  -3   4    0.61    0.21
  -3  21   4    0.90    0.22
   3  21  -4    0.64    0.24
 -21  -3  -4    0.93    0.27
 -21   3   4    0.73    0.30
  21  -3   4    0.85    0.21
  -3 -21  -4    0.63    0.32
  21   3  -2    3.49    0.28
  -3  21   2    3.42    0.31
   3  21  -2    3.63    0.34
 -21  -3  -2    4.01    0.37
  21  -3   2    3.52    0.28
  -3 -21  -2    3.46    0.40
   3 -21   2    3.42    0.28
  21   3   0    2.59    0.25
   3 -21   0    2.31    0.29
  -3  21   0    2.45    0.28
  21   3   0    2.78    0.24
   3  21   0    2.76    0.30
 -21  -3   0    2.99    0.37
  -3 -21   0    2.50    0.38
  21  -3   0    2.42    0.23
  21   3   2    3.37    0.29
   3 -21  -2    4.08    0.34
  21   3   2    4.07    0.28
  -3  21  -2    3.56    0.33
   3  21   2    4.24    0.35
  -3 -21   2    3.74    0.39
 -21  -3   2    4.03    0.42
 -21  -3   4    0.27    0.32
   3 -21  -4    0.69    0.25
  -3  21  -4    0.63    0.22
  21   3   4    0.39    0.19
   3  21   4    0.58    0.24
 -21  -3   6    0.45    0.35
   3 -21  -6    0.74    0.28
  -3  21  -6    0.39    0.23
   3 -21  -8    2.03    0.33
 -21  -3   8    2.32    0.43
  -3  21  -8    1.79    0.28
  21   3   8    1.91    0.25
   3 -21 -10    4.77    0.44
  21   3  10    4.52    0.35
  -3  21 -10    4.79    0.37
 -21  -3  10    4.54    0.51
   3 -21 -12    4.06    0.43
  -3  21 -12    4.63    0.39
 -21  -3  12    4.41    0.57
   3 -21 -14    2.01    0.38
 -21  -3  14    1.85    0.45
   3 -21 -16    1.27    0.39
  -4 -21 -15    0.69    0.38
  21  -4  15    0.29    0.27
  -4 -21 -13    6.08    0.59
   4  21 -13    5.49    0.43
  21  -4  13    6.76    0.45
   4  21 -11   11.30    0.57
  -4  21  11   11.83    0.49
 -21   4  11   12.05    0.70
  21  -4  11   12.09    0.59
  -4 -21 -11   11.74    0.73
  -4 -21  -9    0.47    0.33
   4  21  -9    0.81    0.25
  -4  21   9    0.56    0.20
 -21   4   9    0.46    0.32
  21  -4   9    0.88    0.25
 -21   4   7    8.63    0.58
  -4  21   7    8.61    0.44
  21  -4   7    9.03    0.45
  -4 -21  -7    9.28    0.62
  21  -4   5   10.25    0.47
 -21  -4  -5   11.55    0.52
 -21   4   5   10.98    0.63
  -4  21   5   11.34    0.48
   4  21  -5    9.92    0.52
  21  -4   5   10.79    0.49
  -4 -21  -5   10.50    0.65
  21  -4   3    0.93    0.22
  -4  21   3    0.90    0.24
   4  21  -3    0.71    0.25
 -21  -4  -3    0.99    0.28
  21  -4   3    0.84    0.22
  -4 -21  -3    1.03    0.33
   4 -21   1    9.89    0.46
  21   4  -1   10.90    0.47
  -4  21   1   10.74    0.49
  21   4  -1   11.31    0.42
   4  21  -1   10.78    0.54
 -21  -4  -1   11.16    0.59
  21  -4   1   11.51    0.47
  -4 -21  -1   10.55    0.63
   4 -21  -1   10.33    0.49
  21   4   1   10.36    0.44
  -4  21  -1   10.76    0.49
   4  21   1   10.44    0.52
  -4 -21   1   10.12    0.62
 -21  -4   1    9.87    0.58
 -21  -4   3    1.65    0.38
  21  -4  -3    1.31    0.19
   4 -21  -3    1.40    0.28
  -4  21  -3    1.19    0.25
  21   4   3    1.44    0.22
   4  21   3    1.16    0.28
  -4 -21   3    1.50    0.36
   4 -21  -5   10.31    0.54
  21   4   5   10.25    0.48
  -4  21  -5   10.73    0.52
 -21  -4   5   10.64    0.65
 -21  -4   7    9.41    0.66
   4 -21  -7    8.42    0.51
  -4  21  -7    8.79    0.48
   4 -21  -9    0.60    0.27
  -4  21  -9    0.35    0.23
 -21  -4   9    0.89    0.39
 -21  -4  11   13.26    0.79
   4 -21 -11   12.69    0.66
  -4  21 -11   11.85    0.58
  -4  21 -13    5.08    0.40
   4 -21 -13    5.36    0.48
 -21  -4  13    6.01    0.62
   4 -21 -15    0.29    0.32
  -5 -21 -14    7.06    0.65
   5  21 -14    8.35    0.51
  21  -5  14    8.51    0.53
 -21  -5 -14    7.98    0.91
   5  21 -12   15.45    0.68
  21  -5  12   15.85    0.69
  -5 -21 -12   14.04    0.86
   5  21 -10   10.63    0.54
 -21   5  10    9.95    0.64
  -5  21  10    9.71    0.44
  21  -5  10    9.56    0.52
  -5 -21 -10    8.41    0.65
 -21   5   8   12.77    0.69
  -5  21   8   11.35    0.49
   5  21  -8   11.70    0.56
  21  -5   8   11.38    0.55
  -5 -21  -8   11.81    0.73
  -5  21   6    5.95    0.35
  21  -5   6    5.90    0.37
  -5 -21  -6    5.92    0.54
  21  -5   4   16.69    0.59
  -5  21   4   16.42    0.61
 -21  -5  -4   16.21    0.66
  -5 -21  -4   16.84    0.82
  -5  21   2   17.89    0.66
   5  21  -2   17.19    0.71
 -21  -5  -2   18.61    0.75
  21  -5   2   19.16    0.66
  -5 -21  -2   20.69    0.88
  21   5  -2   16.25    0.63
  21   5   0    6.87    0.38
   5 -21   0    7.14    0.39
  21   5   0    7.59    0.36
  -5  21   0    7.70    0.41
   5  21   0    7.09    0.44
  -5 -21   0    7.48    0.56
 -21  -5   0    6.75    0.49
  21  -5   0    7.66    0.38
  21  -5  -2   20.03    0.64
   5 -21  -2   18.33    0.70
  21   5   2   19.43    0.66
  -5  21  -2   18.35    0.70
   5  21   2   17.69    0.72
  -5 -21   2   19.70    0.87
 -21  -5   2   20.42    0.86
 -21  -5   4   16.95    0.84
   5 -21  -4   15.58    0.67
  21  -5  -4   18.29    0.58
  -5  21  -4   17.61    0.68
   5 -21  -6    5.88    0.43
  -5  21  -6    6.70    0.42
 -21  -5   8   10.17    0.69
  -5  21  -8   11.69    0.55
  -5  21 -10   10.03    0.52
 -21  -5  10    9.88    0.72
  -5  21 -12   14.66    0.65
 -21  -5  12   15.26    0.89
 -21  -5  14    8.11    0.71
   6  21 -13    7.07    0.47
  21  -6  13    6.62    0.49
 -21  -6 -13    7.97    0.89
  -6 -21 -13    7.96    0.67
   6  21 -11    9.86    0.53
  21  -6  11    9.52    0.51
  -6 -21 -11    9.70    0.71
  -6  21   9   11.68    0.48
   6  21  -9   12.85    0.59
  21  -6   9   12.05    0.57
  -6 -21  -9   10.58    0.72
  -6  21   7   13.97    0.55
   6  21  -7   14.12    0.64
  21  -6   7   14.93    0.62
  -6 -21  -7   13.70    0.79
  -6  21   5    9.64    0.45
 -21  -6  -5   10.28    0.50
  -6 -21  -5    9.95    0.67
  -6  21   3    3.79    0.30
 -21  -6  -3    3.88    0.37
  -6 -21  -3    3.34    0.47
  21  -6   3    4.03    0.32
  21   6  -1   13.62    0.48
  -6  21   1   12.25    0.54
   6  21  -1   13.82    0.61
  -6 -21  -1   12.83    0.73
 -21  -6  -1   13.92    0.66
   6 -21  -1   12.12    0.54
  21   6   1   13.73    0.51
  -6  21  -1   12.31    0.55
   6  21   1   12.09    0.58
  -6 -21   1   12.97    0.73
 -21  -6   1   11.67    0.65
  21  -6  -1   14.66    0.53
   6 -21  -3    3.65    0.33
  -6  21  -3    4.37    0.35
 -21  -6   3    3.89    0.45
  -6 -21   3    3.75    0.46
 -21  -6   5   10.28    0.67
  -6  21  -5   10.24    0.50
  -6  21  -7   14.18    0.63
 -21  -6   7   15.14    0.84
  -6  21  -9   11.08    0.54
 -21  -6   9   10.70    0.74
  -6  21 -11    9.77    0.53
 -21  -6  11    7.99    0.69
  -6  21 -13    7.49    0.48
 -21  -6  13    8.41    0.70
  -7 -21 -14    3.19    0.56
   7  21 -12   11.55    0.58
  21  -7  12   11.31    0.57
  -7 -21 -12   10.40    0.76
   7  21 -10    3.65    0.37
  21  -7  10    3.39    0.35
  -7 -21 -10    3.85    0.56
  -7  21   8    2.83    0.25
   7  21  -8    2.56    0.32
  -7 -21  -8    2.74    0.48
  -7  21   6    7.54    0.39
   7  21  -6    6.99    0.46
  21  -7   6    7.92    0.44
  -7 -21  -6    8.04    0.64
  -7  21   4    7.82    0.40
 -21  -7  -4    7.48    0.45
  21  -7   4    8.01    0.42
  -7 -21  -4    7.45    0.64
 -21  -7  -2    2.64    0.35
  -7  21   2    2.81    0.28
  -7 -21  -2    2.46    0.45
  21  -7   2    2.36    0.27
 -21  -7   0    3.43    0.41
   7 -21   0    3.72    0.29
  -7  21   0    3.46    0.29
   7  21   0    3.50    0.35
  -7 -21   0    3.93    0.48
  21  -7   0    3.79    0.30
  -7  21  -2    3.11    0.30
 -21  -7   2    3.10    0.43
  -7 -21   2    2.79    0.47
 -21  -7   4    8.34    0.61
  -7  21  -4    8.45    0.45
  -7  21  -6    7.91    0.46
 -21  -7   6    7.08    0.60
  -7  21  -8    3.18    0.34
 -21  -7   8    3.46    0.52
  -7  21 -10    2.78    0.34
 -21  -7  10    3.17    0.53
  -7  21 -12   11.15    0.58
 -21  -7  12   11.58    0.80
  21  -8  13    1.15    0.31
  -8 -21 -13    0.72    0.43
   8  21 -11    0.50    0.28
 -21  -8 -11    0.65    0.60
  21  -8  11    0.56    0.31
  -8 -21 -11    0.04    0.45
   8  21  -9    1.06    0.29
  -8 -21  -9    1.30    0.45
  -8  21   7    8.98    0.43
   8  21  -7    9.81    0.52
  21  -8   7    9.42    0.49
  -8 -21  -7   10.32    0.74
  -8  21   5    5.32    0.33
   8  21  -5    5.26    0.39
 -21  -8  -5    5.13    0.37
  21  -8   5    4.80    0.36
  -8 -21  -5    5.76    0.58
 -21  -8  -3    4.54    0.38
  -8  21   3    3.46    0.30
  -8 -21  -3    4.03    0.53
  21  -8   3    4.28    0.34
  21  -8   1    2.70    0.29
 -21  -8  -1    2.65    0.36
  -8  21   1    3.05    0.30
  -8 -21  -1    3.24    0.51
  21  -8  -1    2.73    0.27
  -8  21  -1    2.45    0.29
 -21  -8   1    2.58    0.41
  -8 -21   1    3.26    0.48
  -8  21  -3    3.63    0.34
  21  -8  -3    3.98    0.30
  -8 -21   3    3.12    0.47
 -21  -8   3    3.80    0.48
  -8  21  -5    5.41    0.39
 -21  -8   5    5.23    0.55
  -8  21  -7    9.19    0.49
 -21  -8   7    8.20    0.67
  -8  21  -9    0.84    0.26
 -21  -8   9    0.82    0.43
 -21  -8  11    1.07    0.45
  -8  21 -11    0.48    0.26
  21  -9  12    0.15    0.26
  -9 -21 -12    0.27    0.46
   9  21 -10    1.62    0.30
 -21  -9 -10    1.12    0.60
  21  -9  10    1.71    0.33
  -9 -21 -10    1.58    0.48
   9  21  -8    8.06    0.49
  21  -9   8    8.33    0.48
  -9 -21  -8    8.06    0.71
  -9  21   6    3.54    0.27
   9  21  -6    3.17    0.36
  -9 -21  -6    3.96    0.59
  21  -9   4    4.66    0.36
  -9  21   4    4.72    0.31
   9  21  -4    5.04    0.40
  -9 -21  -4    5.70    0.60
  -9  21   2    9.66    0.46
  -9 -21  -2   11.18    0.75
 -21  -9  -2    9.20    0.57
  21  -9   2   10.53    0.51
  21  -9   0   23.14    0.78
 -21  -9   0   22.37    0.93
  -9  21   0   21.85    0.77
  -9 -21   0   22.30    1.07
  -9  21  -2    9.52    0.48
  21  -9  -2   10.08    0.46
 -21  -9   2    9.84    0.65
  -9 -21   2    9.35    0.72
  -9  21  -4    4.27    0.35
 -21  -9   4    5.21    0.53
  -9  21  -6    3.81    0.36
 -21  -9   6    4.47    0.54
 -21  -9   8    7.04    0.63
  -9  21  -8    7.79    0.47
 -21  -9  10    1.54    0.49
  -9  21 -10    2.10    0.32
  21 -10  11    6.49    0.46
 -10 -21 -11    4.88    0.65
  10  21  -9   -0.06    0.27
 -10 -21  -9   -0.09    0.50
  21 -10   9    0.14    0.29
  10  21  -7    9.32    0.53
 -10 -21  -7    9.94    0.78
  21 -10   7    9.72    0.54
  10  21  -5   16.05    0.69
 -10 -21  -5   17.73    0.99
  21 -10   5   15.88    0.67
 -10  21   3    8.44    0.42
  10  21  -3    7.59    0.47
 -10 -21  -3    7.88    0.71
 -21 -10  -3    8.54    0.52
  21 -10   3    9.03    0.48
 -21 -10  -1   11.88    0.66
 -10  21   1   12.24    0.53
 -10 -21  -1   12.13    0.84
 -10  21  -1   12.33    0.54
  21 -10  -1   12.16    0.53
 -21 -10   1   12.78    0.71
 -10 -21   1   12.29    0.81
 -10  21  -3    8.19    0.45
 -21 -10   3    8.36    0.63
 -10  21  -5   15.35    0.65
 -21 -10   5   15.98    0.86
 -10  21  -7    8.10    0.47
 -21 -10   7    7.81    0.66
 -10  21  -9    0.08    0.26
 -21 -10   9    0.47    0.46
 -11 -21 -10   17.24    1.05
  21 -11  10   15.48    0.71
  11  21  -8   13.85    0.64
 -11 -21  -8   12.92    0.92
  21 -11   8   13.81    0.64
  11  21  -6    1.43    0.29
 -11 -21  -6    1.19    0.53
  21 -11   4   14.37    0.62
  11  21  -4   12.79    0.62
 -11 -21  -4   14.06    0.94
  21 -11   2   21.07    0.76
 -21 -11  -2   19.05    0.83
 -11  21   2   18.78    0.69
  11  21  -2   18.42    0.76
 -11 -21  -2   20.43    1.09
 -11  21   0   14.89    0.60
  21 -11   0   16.11    0.63
 -21 -11   0   15.53    0.77
 -11 -21   0   14.99    0.94
 -11  21  -2   19.50    0.73
 -21 -11   2   19.34    0.92
 -11 -21   2   20.34    1.05
 -11  21  -4   12.69    0.57
 -21 -11   4   12.62    0.78
 -11  21  -6    1.80    0.30
 -21 -11   6    1.25    0.46
 -11  21  -8   12.19    0.59
 -21 -11   8   11.84    0.81
 -11  21 -10   15.12    0.69
 -12 -21  -9    5.60    0.73
 -12 -21  -7    5.91    0.72
  21 -12   7    6.14    0.45
  12  21  -5    5.20    0.42
 -12 -21  -5    5.66    0.69
  12  21  -3    0.33    0.25
 -12 -21  -3    0.09    0.48
 -12  21   1    5.12    0.34
  21 -12   1    5.94    0.40
 -12 -21  -1    5.84    0.69
 -21 -12  -1    4.99    0.46
 -12  21  -1    4.91    0.35
 -12 -21   1    4.21    0.64
 -21 -12   1    5.38    0.52
 -21 -12   3   -0.03    0.39
 -12  21  -3    0.10    0.24
 -12  21  -5    5.10    0.38
 -21 -12   5    5.44    0.57
 -12  21  -7    4.99    0.40
 -21 -12   7    5.39    0.62
 -12  21  -9    4.89    0.41
  21 -13   6    0.39    0.29
 -13 -21  -6    0.57    0.53
 -13 -21  -4    2.55    0.62
  21 -13   2    0.86    0.29
 -13 -21  -2    0.56    0.53
 -13 -21   0    1.83    0.56
 -13  21  -2    0.93    0.23
 -21 -13   2    1.13    0.41
 -13  21  -4    2.46    0.32
 -21 -13   4    2.27    0.45
 -13  21  -6    0.65    0.27
 -21 -13   6    0.64    0.42
 -13  21  -8    0.55    0.27
  21 -14   5    4.06    0.40
 -14 -21  -5    5.13    0.74
 -14 -21  -3    1.90    0.61
 -14 -21  -1    1.22    0.56
 -21 -14   3    1.84    0.46
 -14  21  -5    5.10    0.39
 -21 -14   5    4.19    0.55
 -15 -21  -2    5.40    0.77
 -21 -15   4    1.04    0.42
 -15  21  -6   10.42    0.55
 -22   0   0    9.41    0.55
   0  22   0    9.54    0.50
   0 -22   0    8.99    0.51
   0  22  -2    5.34    0.38
   0  22   2    5.54    0.39
  22   0   2    5.77    0.34
 -22   0   2    5.60    0.46
   0 -22  -2    5.02    0.41
   0  22  -4   16.24    0.68
   0  22   4   17.08    0.67
  22   0   4   18.34    0.65
 -22   0   4   16.83    0.79
   0 -22  -4   15.79    0.74
   0 -22  -6   17.64    0.80
   0  22  -6   17.20    0.72
  22   0   6   18.83    0.68
   0  22   6   18.78    0.71
 -22   0   6   17.01    0.84
   0 -22  -8    7.21    0.53
   0  22  -8    6.65    0.44
  22   0   8    7.44    0.43
   0  22   8    7.06    0.44
 -22   0   8    7.02    0.56
   0 -22 -10   15.53    0.80
   0  22 -10   17.23    0.72
  22   0  10   17.72    0.70
   0  22  10   16.82    0.67
 -22   0  10   17.63    0.88
   0 -22 -12   19.82    0.92
  22   0  12   21.12    0.82
   0  22  12   21.52    0.77
 -22   0  12   21.81    1.02
   0 -22 -14   15.97    0.85
  22   0  14   17.40    0.74
   0  22  14   16.60    0.67
  -1 -22 -13    3.46    0.49
  22  -1  13    3.51    0.37
  -1  22  13    3.51    0.32
  -1 -22 -11    1.18    0.37
  22  -1  11    1.59    0.30
  -1  22  11    1.47    0.26
 -22   1  11    1.66    0.42
  -1 -22  -9   30.77    1.20
   1  22  -9   34.22    1.11
  -1  22   9   33.64    1.04
 -22   1   9   33.26    1.25
   1  22  -7   13.88    0.63
  22  -1   7   14.04    0.59
  -1  22   7   14.44    0.60
 -22   1   7   14.51    0.75
  -1 -22  -7   14.27    0.73
  -1 -22  -5    5.09    0.46
   1  22  -5    4.74    0.38
  -1  22   5    5.06    0.38
  22  -1   5    5.78    0.36
 -22   1   5    4.62    0.46
   1  22  -3   13.09    0.59
 -22   1   3   13.59    0.69
  -1  22   3   12.79    0.58
  22  -1   3   12.54    0.52
  -1 -22  -3   13.09    0.65
  -1  22   1    3.84    0.34
   1  22  -1    3.42    0.32
 -22   1   1    3.50    0.41
 -22  -1  -1    4.06    0.39
  22   1  -1    4.18    0.26
  -1 -22  -1    3.21    0.38
  -1  22  -1    3.31    0.33
   1  22   1    3.28    0.34
  22   1   1    3.35    0.26
 -22  -1   1    3.18    0.39
   1 -22  -1    2.99    0.33
  -1  22  -3   13.99    0.61
  22   1   3   13.86    0.55
   1  22   3   13.15    0.59
 -22  -1   3   12.46    0.68
   1 -22  -3   13.91    0.64
   1 -22  -5    4.80    0.43
  -1  22  -5    4.73    0.39
  22   1   5    5.24    0.36
   1  22   5    4.44    0.38
 -22  -1   5    4.23    0.46
   1 -22  -7   12.16    0.66
  -1  22  -7   14.04    0.62
   1  22   7   14.08    0.60
 -22  -1   7   13.30    0.74
   1 -22  -9   33.18    1.20
  -1  22  -9   32.79    1.11
  22   1   9   34.09    1.09
   1  22   9   34.64    1.08
 -22  -1   9   34.28    1.29
 -22  -1  11    1.67    0.42
   1 -22 -11    1.71    0.38
  -1  22 -11    1.23    0.31
  22   1  11    1.63    0.29
   1  22  11    1.43    0.28
   1 -22 -13    2.58    0.44
   1 -22 -15   24.68    1.07
  -2 -22 -14    6.20    0.59
  22  -2  14    6.72    0.47
  -2 -22 -12    8.41    0.63
   2  22 -12    7.63    0.49
  -2  22  12    8.12    0.42
 -22   2  12    8.07    0.62
  22  -2  10    9.47    0.51
  -2  22  10    9.80    0.48
 -22   2  10    9.60    0.65
  -2 -22 -10    8.89    0.63
  -2 -22  -8    2.06    0.39
   2  22  -8    2.13    0.32
  -2  22   8    1.62    0.26
  22  -2   8    1.71    0.28
 -22   2   8    2.36    0.40
  -2 -22  -6    3.00    0.42
   2  22  -6    2.80    0.32
  -2  22   6    3.10    0.29
 -22   2   6    3.34    0.44
 -22   2   4   17.45    0.79
   2  22  -4   16.00    0.67
  -2  22   4   15.79    0.64
  22  -2   4   16.84    0.63
  -2 -22  -4   15.88    0.76
  -2  22   2    2.51    0.29
 -22   2   2    2.85    0.38
   2  22  -2    3.21    0.33
 -22  -2  -2    4.00    0.37
  22  -2   2    3.41    0.27
  -2 -22  -2    3.09    0.39
  -2  22   0    0.15    0.20
   2  22   0   -0.09    0.22
  22   2   0    0.09    0.17
 -22  -2   0   -0.05    0.28
  -2 -22   0    0.25    0.28
   2 -22  -2    2.75    0.33
  22   2   2    3.12    0.28
  -2  22  -2    2.91    0.31
  22   2   2    3.76    0.27
   2  22   2    3.47    0.34
 -22  -2   2    2.78    0.37
   2 -22  -4   14.55    0.69
  -2  22  -4   16.26    0.66
   2  22   4   15.94    0.66
 -22  -2   4   15.29    0.76
   2 -22  -6    2.79    0.36
  -2  22  -6    2.67    0.32
  22   2   6    3.00    0.31
   2  22   6    2.91    0.33
 -22  -2   6    2.75    0.44
 -22  -2   8    1.13    0.39
   2 -22  -8    1.50    0.36
  -2  22  -8    1.07    0.27
  22   2   8    1.84    0.26
   2  22   8    1.74    0.31
   2 -22 -10   10.98    0.62
  -2  22 -10   10.32    0.54
  22   2  10   10.14    0.52
 -22  -2  10   10.15    0.70
   2 -22 -12    7.10    0.55
 -22  -2  12    7.54    0.65
  -2  22 -12    7.24    0.48
  22   2  12    7.37    0.45
   2 -22 -14    7.19    0.57
  22   2  14    7.44    0.48
  -3 -22 -13    0.55    0.40
  22  -3  13    0.46    0.29
  -3 -22 -11    0.59    0.40
   3  22 -11    0.68    0.27
  -3  22  11    0.81    0.24
  22  -3  11    0.80    0.28
 -22   3  11    0.73    0.37
  -3 -22  -9    6.12    0.55
  -3  22   9    6.09    0.38
  22  -3   9    6.68    0.42
 -22   3   9    6.44    0.52
   3  22  -7    2.25    0.32
  -3  22   7    2.47    0.27
 -22   3   7    2.25    0.39
  22  -3   7    2.59    0.28
  -3 -22  -7    2.69    0.43
   3  22  -5    3.52    0.34
  -3  22   5    3.25    0.30
 -22   3   5    3.05    0.41
  22  -3   5    2.99    0.30
  -3 -22  -5    2.69    0.43
  -3  22   3    1.35    0.24
   3  22  -3    1.21    0.28
 -22  -3  -3    1.61    0.31
  22  -3   3    1.79    0.24
  -3 -22  -3    1.42    0.36
  -3  22   1    0.74    0.23
   3  22  -1    0.34    0.23
 -22  -3  -1    0.72    0.29
  22  -3   1    0.77    0.19
  -3 -22  -1    0.48    0.29
   3 -22  -1    0.41    0.23
  -3  22  -1    0.41    0.24
   3  22   1    0.63    0.26
  -3 -22   1    0.40    0.31
 -22  -3   1    0.89    0.30
  22  -3  -1    0.48    0.19
   3 -22  -3    1.02    0.27
  -3  22  -3    1.44    0.25
  22   3   3    1.65    0.22
   3  22   3    1.59    0.29
 -22  -3   3    1.34    0.35
 -22  -3   5    3.58    0.46
   3 -22  -5    3.02    0.37
  -3  22  -5    2.77    0.32
  22   3   5    3.19    0.29
   3  22   5    2.65    0.33
 -22  -3   7    2.20    0.44
   3 -22  -7    2.56    0.37
  -3  22  -7    2.95    0.33
  22   3   7    2.38    0.29
   3  22   7    2.43    0.32
   3 -22  -9    5.70    0.46
 -22  -3   9    5.97    0.57
  -3  22  -9    6.08    0.43
  22   3   9    7.36    0.42
   3 -22 -11    0.67    0.33
 -22  -3  11    0.87    0.42
  -3  22 -11    0.45    0.26
  22   3  11    0.52    0.25
   3 -22 -13    0.63    0.37
  22   3  13    0.43    0.23
  -4 -22 -14    1.60    0.47
  -4 -22 -12    6.56    0.63
   4  22 -12    5.64    0.44
  22  -4  12    5.55    0.44
   4  22 -10    7.22    0.47
  -4  22  10    7.36    0.40
 -22   4  10    8.09    0.60
  -4 -22 -10    8.21    0.64
  -4  22   8    0.76    0.22
 -22   4   8    0.58    0.31
  -4 -22  -8    0.94    0.38
  -4  22   6    0.93    0.23
 -22   4   6    0.72    0.35
  -4 -22  -6    0.65    0.35
  -4  22   4    3.40    0.30
   4  22  -4    3.43    0.34
 -22  -4  -4    3.29    0.33
  22  -4   4    3.85    0.32
  -4 -22  -4    3.35    0.44
  -4  22   2    1.49    0.25
   4  22  -2    1.80    0.28
 -22  -4  -2    1.50    0.30
  22  -4   2    1.99    0.24
  -4 -22  -2    1.92    0.39
  -4  22   0    0.40    0.23
   4  22   0    0.45    0.25
  -4 -22   0    0.90    0.36
 -22  -4   0    0.49    0.28
   4 -22  -2    2.18    0.30
  -4  22  -2    2.07    0.29
  22   4   2    1.82    0.24
   4  22   2    1.84    0.30
 -22  -4   2    1.54    0.34
 -22  -4   4    2.90    0.43
   4 -22  -4    2.63    0.33
  -4  22  -4    2.99    0.33
  22   4   4    2.89    0.27
   4  22   4    3.67    0.34
 -22  -4   6    0.47    0.38
   4 -22  -6    0.92    0.30
  -4  22  -6    0.71    0.27
  22   4   6    1.07    0.24
   4  22   6    0.60    0.26
   4 -22  -8    0.65    0.29
 -22  -4   8    0.90    0.41
  -4  22  -8    0.84    0.27
  22   4   8    0.75    0.23
   4 -22 -10    7.75    0.52
  -4  22 -10    6.63    0.45
 -22  -4  10    7.41    0.62
   4 -22 -12    6.07    0.50
  -4  22 -12    5.18    0.42
 -22  -4  12    6.25    0.61
   4 -22 -14    2.64    0.41
  22  -5  13    5.07    0.43
  -5 -22 -13    4.82    0.60
   5  22 -11    2.67    0.34
 -22   5  11    2.58    0.43
  22  -5  11    3.08    0.35
  -5 -22 -11    2.08    0.45
 -22   5   9    9.66    0.63
   5  22  -9    8.47    0.51
  -5  22   9    9.50    0.45
  -5 -22  -9    9.54    0.70
  -5  22   7    8.91    0.44
  22  -5   7    9.49    0.49
  -5 -22  -7    9.93    0.69
  -5  22   5    2.74    0.28
 -22  -5  -5    3.04    0.33
  22  -5   5    2.54    0.30
  -5 -22  -5    2.86    0.44
  -5  22   3    3.16    0.30
   5  22  -3    2.54    0.33
 -22  -5  -3    3.41    0.34
  -5 -22  -3    3.24    0.44
  22  -5   3    3.44    0.29
  -5  22   1    3.45    0.31
   5  22  -1    2.93    0.33
  -5 -22  -1    3.21    0.44
 -22  -5  -1    3.85    0.40
  22  -5   1    3.67    0.29
  22  -5  -1    3.65    0.28
  22   5   1    4.02    0.28
  -5  22  -1    3.72    0.33
   5  22   1    3.67    0.35
  -5 -22   1    3.84    0.45
 -22  -5   1    3.85    0.41
 -22  -5   3    3.67    0.44
   5 -22  -3    3.36    0.34
  -5  22  -3    3.60    0.33
  22   5   3    3.04    0.28
   5  22   3    2.91    0.33
 -22  -5   5    1.99    0.43
   5 -22  -5    2.91    0.33
  -5  22  -5    2.96    0.32
  22   5   5    2.53    0.27
 -22  -5   7   10.89    0.70
   5 -22  -7    8.86    0.53
  -5  22  -7    9.92    0.52
 -22  -5   9    8.74    0.69
   5 -22  -9    9.95    0.56
  -5  22  -9    9.79    0.52
  -5  22 -11    2.47    0.34
   5 -22 -11    2.24    0.37
 -22  -5  11    2.00    0.48
   5 -22 -13    4.80    0.48
  22  -6  12   11.72    0.60
  -6 -22 -12   11.25    0.79
   6  22 -10    5.49    0.43
  22  -6  10    6.23    0.46
  -6 -22 -10    5.93    0.58
  -6  22   8    0.61    0.23
   6  22  -8    0.33    0.27
  22  -6   8    0.50    0.27
  -6 -22  -8    0.40    0.39
  -6  22   6    6.78    0.38
  22  -6   6    6.96    0.42
  -6 -22  -6    6.89    0.59
  -6  22   4    3.92    0.31
 -22  -6  -4    4.36    0.36
  22  -6   4    5.17    0.36
  -6 -22  -4    4.51    0.52
  -6  22   2   -0.02    0.19
   6  22  -2   -0.10    0.24
  -6 -22  -2    0.03    0.36
 -22  -6  -2    0.30    0.27
  22  -6   0    1.69    0.22
  -6  22   0    1.69    0.27
   6  22   0    1.70    0.29
  -6 -22   0    1.67    0.41
 -22  -6   0    1.63    0.33
 -22  -6   2    0.22    0.30
  22  -6  -2   -0.13    0.19
  -6  22  -2    0.26    0.24
   6  22   2    0.02    0.22
   6 -22  -4    5.38    0.39
  -6  22  -4    5.37    0.38
 -22  -6   4    5.46    0.53
   6 -22  -6    5.72    0.43
  -6  22  -6    6.82    0.42
 -22  -6   6    7.36    0.60
  -6  22  -8    0.61    0.25
 -22  -6   8    0.87    0.40
  -6  22 -10    5.23    0.41
 -22  -6  10    4.63    0.58
  22  -7  11    5.16    0.42
  -7 -22 -11    4.67    0.60
   7  22  -9    7.75    0.48
  22  -7   9    7.66    0.47
  -7 -22  -9    7.01    0.65
  -7  22   7    9.34    0.44
   7  22  -7    9.12    0.53
  22  -7   7    9.84    0.51
  -7 -22  -7    9.34    0.71
  -7  22   5    1.38    0.23
  -7 -22  -5    1.34    0.43
  22  -7   5    1.22    0.26
  -7  22   3    1.10    0.23
  -7 -22  -3    1.16    0.39
 -22  -7  -3    1.20    0.28
  22  -7   3    1.06    0.24
 -22  -7  -1    1.57    0.33
  -7  22   1    2.16    0.27
   7  22  -1    1.84    0.31
  -7 -22  -1    2.71    0.44
 -22  -7   1    1.77    0.35
  22  -7  -1    1.82    0.25
  -7  22  -1    2.25    0.28
   7  22   1    1.65    0.29
  -7 -22   1    1.98    0.44
  -7  22  -3    1.04    0.26
 -22  -7   3    0.99    0.35
  -7  22  -5    1.08    0.27
 -22  -7   5    1.72    0.41
  -7  22  -7    9.27    0.51
 -22  -7   7    9.65    0.70
  -7  22  -9    7.98    0.49
 -22  -7   9    7.20    0.66
  22  -8  10    8.71    0.52
  -8 -22 -10    9.70    0.77
   8  22  -8    7.02    0.47
  22  -8   8    6.46    0.43
  -8 -22  -8    6.58    0.65
  -8  22   6    0.90    0.21
   8  22  -6    1.07    0.30
  -8 -22  -6    0.87    0.47
  22  -8   6    0.98    0.26
  -8  22   4    1.39    0.23
  -8 -22  -4    1.34    0.45
  -8  22   2    5.44    0.36
  -8 -22  -2    5.12    0.58
 -22  -8  -2    5.72    0.44
 -22  -8   0    4.50    0.44
  -8  22   0    4.72    0.35
   8  22   0    4.55    0.40
  -8 -22   0    4.53    0.57
  -8  22  -2    5.43    0.38
 -22  -8   2    5.88    0.52
  -8  22  -4    1.37    0.27
 -22  -8   4    0.81    0.39
  -8  22  -6    0.94    0.28
 -22  -8   6    1.08    0.44
  -8  22  -8    5.84    0.41
 -22  -8   8    6.02    0.58
  -8  22 -10    8.41    0.51
 -22  -8  10    8.51    0.72
  -9 -22 -11    5.35    0.66
  -9 -22  -9   -0.22    0.48
  22  -9   9    0.08    0.27
   9  22  -7    0.34    0.27
  -9 -22  -7    0.68    0.51
  22  -9   7    0.69    0.27
   9  22  -5   11.78    0.59
  -9 -22  -5   11.41    0.82
  22  -9   5   11.68    0.56
  -9  22   3    8.74    0.45
   9  22  -3    8.91    0.51
  -9 -22  -3    8.32    0.70
  22  -9   3    9.66    0.48
  22  -9   1    5.55    0.37
  -9  22   1    4.35    0.34
  -9 -22  -1    4.48    0.57
 -22  -9  -1    5.67    0.48
  -9  22  -1    4.49    0.35
 -22  -9   1    4.97    0.49
  -9  22  -3    8.02    0.45
 -22  -9   3    8.41    0.62
  -9  22  -5   12.38    0.56
 -22  -9   5   11.10    0.73
  -9  22  -7    0.19    0.22
 -22  -9   7    0.04    0.39
  -9  22  -9    0.34    0.26
 -22  -9   9    0.31    0.44
 -10 -22 -10    3.92    0.64
 -10 -22  -8    2.83    0.55
  22 -10   8    2.75    0.33
 -10 -22  -6    5.48    0.65
  22 -10   6    5.87    0.42
  22 -10   4    0.51    0.26
  10  22  -4    0.70    0.30
 -10 -22  -4    0.78    0.47
  22 -10   2    3.73    0.34
 -10  22   2    4.01    0.32
  10  22  -2    4.01    0.37
 -10 -22  -2    4.02    0.59
 -22 -10   0   21.23    0.90
 -10  22   0   19.72    0.73
 -10 -22   0   21.38    1.10
 -10  22  -2    3.15    0.32
 -22 -10   2    3.51    0.47
 -10  22  -4    0.68    0.25
 -22 -10   4    0.46    0.37
 -10  22  -6    5.55    0.40
 -22 -10   6    4.77    0.56
 -10  22  -8    2.19    0.34
 -22 -10   8    3.61    0.54
  22 -11   7    0.79    0.29
 -11 -22  -7    1.73    0.55
 -11 -22  -5   11.85    0.89
  22 -11   5   12.34    0.59
  22 -11   3    3.42    0.35
 -11 -22  -3    3.72    0.61
  22 -11   1    6.37    0.41
 -11  22   1    5.78    0.38
 -11 -22  -1    6.35    0.68
 -11  22  -1    5.88    0.39
 -22 -11   1    5.94    0.53
 -11  22  -3    3.39    0.32
 -22 -11   3    3.25    0.46
 -11  22  -5   10.84    0.54
 -22 -11   5   11.44    0.74
 -22 -11   7    1.79    0.50
 -11  22  -7    1.59    0.28
 -12 -22  -6    1.36    0.56
  22 -12   4    2.67    0.35
 -12 -22  -4    1.81    0.58
  22 -12   2    0.50    0.25
 -12 -22  -2    0.63    0.50
 -12  22  -2    0.84    0.25
 -22 -12   2    0.62    0.38
 -12  22  -4    2.88    0.33
 -22 -12   4    2.19    0.45
 -22 -12   6    0.96    0.42
 -12  22  -6    1.76    0.29
 -13 -22  -5    9.11    0.86
  22 -13   3    3.56    0.37
 -13 -22  -3    3.10    0.69
 -13  22  -3    3.06    0.33
 -22 -13   3    3.07    0.48
 -13  22  -5    8.98    0.51
 -22 -13   5   10.14    0.73
 -22 -14   4    2.25    0.48
   0  23  -1    0.11    0.23
   0  23   1    0.18    0.24
 -23   0   1   -0.02    0.30
   0  23  -3   10.66    0.55
 -23   0   3   11.07    0.65
   0  23   3    9.88    0.53
  23   0   3   11.50    0.49
   0 -23  -3   10.33    0.59
   0 -23  -5    1.33    0.33
   0  23  -5    0.92    0.29
   0  23   5    1.27    0.30
 -23   0   5    1.04    0.37
   0 -23  -7    2.89    0.41
   0  23  -7    2.84    0.35
   0  23   7    3.22    0.35
  23   0   7    3.14    0.30
 -23   0   7    2.07    0.41
   0 -23  -9   20.79    0.95
   0  23  -9   21.31    0.85
   0  23   9   23.88    0.83
 -23   0   9   23.28    1.01
   0 -23 -11    0.09    0.35
  23   0  11    0.06    0.26
   0  23  11    0.09    0.24
   0 -23 -13    1.33    0.40
  23   0  13    1.18    0.30
  -1 -23 -12    6.61    0.59
  -1  23  12    6.94    0.44
   1  23 -10   15.56    0.70
  23  -1  10   15.95    0.67
  -1  23  10   15.56    0.65
 -23   1  10   14.81    0.81
  -1 -23 -10   15.38    0.82
  -1 -23  -8    4.63    0.47
   1  23  -8    4.94    0.40
  23  -1   8    5.15    0.38
  -1  23   8    4.88    0.38
 -23   1   8    4.13    0.50
  -1 -23  -6    0.82    0.35
   1  23  -6    1.10    0.29
  -1  23   6    1.00    0.27
  23  -1   6    1.57    0.26
 -23   1   6    1.47    0.38
   1  23  -4   22.12    0.83
 -23   1   4   22.96    0.95
  -1  23   4   21.13    0.80
  -1 -23  -4   20.88    0.89
 -23   1   2    8.39    0.57
   1  23  -2    8.85    0.51
  -1  23   2    8.78    0.49
  23  -1   2    9.06    0.43
  -1  23   0   -0.05    0.24
   1  23   0    0.19    0.24
 -23  -1   0   -0.35    0.31
  -1  23  -2    8.26    0.47
   1  23   2    8.36    0.47
 -23  -1   2    8.20    0.55
  -1  23  -4   21.08    0.82
   1  23   4   22.77    0.83
  23   1   4   22.29    0.76
 -23  -1   4   21.37    0.93
   1 -23  -4   21.79    0.88
   1 -23  -6    1.36    0.35
  -1  23  -6    1.36    0.30
  23   1   6    1.52    0.27
   1  23   6    1.12    0.30
 -23  -1   6    1.41    0.41
   1 -23  -8    4.25    0.46
  -1  23  -8    4.53    0.40
  23   1   8    5.32    0.39
   1  23   8    5.41    0.39
 -23  -1   8    3.85    0.49
   1 -23 -10   14.92    0.80
  -1  23 -10   15.55    0.70
  23   1  10   16.06    0.67
   1  23  10   15.99    0.67
 -23  -1  10   16.97    0.87
   1 -23 -12    6.02    0.54
  23   1  12    6.23    0.43
   1  23  12    6.29    0.42
  -2 -23 -13    3.70    0.48
  -2 -23 -11    1.31    0.42
  -2  23  11    0.79    0.24
  -2 -23  -9    6.13    0.56
  -2  23   9    6.55    0.41
 -23   2   9    6.81    0.57
   2  23  -7   11.41    0.57
  -2  23   7   11.09    0.53
 -23   2   7   11.37    0.69
  23  -2   7   11.27    0.54
  -2 -23  -7   10.00    0.65
   2  23  -5   11.15    0.57
 -23   2   5   12.60    0.71
  -2  23   5   11.59    0.54
  -2 -23  -5   12.74    0.70
  -2  23   3    1.65    0.29
   2  23  -3    1.76    0.30
 -23   2   3    1.58    0.37
  23  -2   3    1.48    0.24
  -2 -23  -3    1.50    0.36
  -2  23   1    8.48    0.47
 -23  -2  -1    9.00    0.54
   2  23  -1    9.07    0.50
  23  -2   1    9.59    0.44
  -2  23  -1    9.41    0.50
   2  23   1   10.25    0.53
 -23  -2   1    9.02    0.58
  -2  23  -3    1.72    0.29
   2  23   3    1.45    0.30
  23   2   3    1.61    0.25
 -23  -2   3    1.75    0.36
   2 -23  -5   11.01    0.60
  -2  23  -5   11.38    0.57
  23   2   5   11.70    0.52
   2  23   5   11.77    0.57
 -23  -2   5   11.60    0.69
   2 -23  -7    9.04    0.57
  -2  23  -7   11.36    0.57
  23   2   7   10.27    0.51
   2  23   7   10.82    0.55
 -23  -2   7   10.11    0.67
   2 -23  -9    6.72    0.51
  -2  23  -9    6.28    0.44
   2  23   9    6.64    0.44
 -23  -2   9    6.15    0.55
   2 -23 -11    1.26    0.38
  23   2  11    1.25    0.26
   2  23  11    1.02    0.28
   2 -23 -13    4.80    0.50
  23   2  13    5.29    0.40
   2  23  13    4.58    0.37
  -3 -23 -12    3.35    0.50
  23  -3  12    2.81    0.36
  -3  23  10    8.21    0.43
  23  -3  10    8.56    0.49
  -3  23   8    2.87    0.30
 -23   3   8    2.81    0.44
  23  -3   8    3.04    0.33
  -3 -23  -8    3.24    0.47
   3  23  -6    1.36    0.30
  -3  23   6    2.00    0.28
 -23   3   6    1.58    0.39
  23  -3   6    1.63    0.27
  -3 -23  -6    1.76    0.43
  -3  23   4   18.91    0.71
   3  23  -4   18.54    0.76
  -3 -23  -4   17.84    0.85
  -3  23   2    7.51    0.44
 -23  -3  -2    7.69    0.49
   3  23  -2    7.00    0.47
  23  -3   2    7.64    0.39
  -3 -23  -2    7.78    0.55
  -3  23   0    4.20    0.37
   3  23   0    4.46    0.39
 -23  -3   0    4.00    0.41
  -3  23  -2    6.93    0.45
   3  23   2    7.26    0.47
 -23  -3   2    7.13    0.53
   3 -23  -4   18.19    0.76
  -3  23  -4   19.14    0.75
  23   3   4   18.80    0.68
   3  23   4   18.59    0.76
 -23  -3   4   17.08    0.85
   3 -23  -6    2.06    0.35
  -3  23  -6    1.68    0.30
  23   3   6    1.94    0.27
   3  23   6    2.58    0.33
 -23  -3   6    1.91    0.45
 -23  -3   8    2.35    0.46
   3 -23  -8    2.56    0.38
  -3  23  -8    2.59    0.35
  23   3   8    2.88    0.31
   3  23   8    2.63    0.33
 -23  -3  10    7.23    0.63
   3 -23 -10    6.90    0.53
  23   3  10    7.19    0.44
   3  23  10    7.30    0.46
   3 -23 -12    2.90    0.40
  23   3  12    2.73    0.32
  23  -4  11    0.22    0.24
  -4 -23 -11    0.76    0.40
  -4  23   9    2.20    0.26
 -23   4   9    1.46    0.39
  23  -4   9    2.22    0.33
  -4 -23  -9    1.56    0.42
  -4  23   7    4.41    0.34
 -23   4   7    4.73    0.50
  23  -4   7    4.83    0.37
  -4 -23  -7    5.25    0.55
  -4  23   5    3.43    0.33
   4  23  -5    3.51    0.37
  23  -4   5    3.84    0.35
  -4 -23  -5    3.04    0.48
  -4  23   3    1.19    0.26
   4  23  -3    1.01    0.27
 -23  -4  -3    0.98    0.29
  23  -4   3    0.85    0.22
  -4 -23  -3    1.04    0.36
  -4  23   1    1.97    0.28
   4  23  -1    1.68    0.30
 -23  -4  -1    1.72    0.32
  -4  23  -1    1.77    0.28
   4  23   1    1.38    0.31
 -23  -4   1    1.72    0.34
  -4  23  -3    0.77    0.26
   4  23   3    1.12    0.30
 -23  -4   3    1.07    0.33
 -23  -4   5    3.51    0.48
   4 -23  -5    3.83    0.39
  -4  23  -5    3.42    0.37
  23   4   5    3.34    0.32
   4  23   5    3.24    0.37
 -23  -4   7    4.46    0.52
   4 -23  -7    4.22    0.41
  -4  23  -7    4.63    0.37
  23   4   7    3.98    0.33
   4  23   7    4.19    0.39
 -23  -4   9    1.96    0.45
   4 -23  -9    2.04    0.36
  -4  23  -9    2.25    0.33
  23   4   9    2.30    0.30
   4 -23 -11   -0.03    0.30
  23   4  11    0.20    0.24
   4 -23 -13    0.91    0.36
  -5 -23 -12    3.55    0.54
  23  -5  10    5.27    0.41
  -5 -23 -10    3.58    0.53
  -5  23   8    0.51    0.24
  23  -5   8    0.28    0.27
  -5 -23  -8    0.04    0.41
  -5  23   6    1.90    0.27
  23  -5   6    1.55    0.28
  -5 -23  -6    1.73    0.41
  -5  23   4    2.61    0.30
   5  23  -4    2.31    0.34
 -23  -5  -4    2.84    0.32
  23  -5   4    2.99    0.31
  -5 -23  -4    2.51    0.44
  -5  23   2    0.37    0.22
   5  23  -2    0.26    0.24
 -23  -5  -2    0.37    0.27
  -5 -23  -2    0.19    0.35
  -5  23   0    0.74    0.23
   5  23   0    1.19    0.28
 -23  -5   0    0.60    0.29
  -5  23  -2    0.55    0.26
   5  23   2    0.14    0.26
 -23  -5   2    0.56    0.30
 -23  -5   4    2.28    0.42
  -5  23  -4    2.53    0.32
  23   5   4    2.29    0.27
   5  23   4    2.28    0.33
 -23  -5   6    1.19    0.41
   5 -23  -6    1.43    0.31
  -5  23  -6    1.79    0.29
   5  23   6    1.65    0.30
   5 -23  -8    0.31    0.30
 -23  -5   8    0.42    0.39
  -5  23  -8    0.40    0.25
   5 -23 -10    4.17    0.45
   5 -23 -12    4.14    0.45
  23  -6  11    4.86    0.41
  -6 -23 -11    4.35    0.58
  23  -6   9    3.99    0.39
  -6 -23  -9    4.72    0.57
  -6  23   7    8.38    0.43
  -6 -23  -7    9.03    0.70
  -6  23   5    4.58    0.33
  -6 -23  -5    3.79    0.52
  -6  23   3    0.24    0.23
   6  23  -3    0.27    0.26
 -23  -6  -3    0.24    0.27
  23  -6   3    0.16    0.22
  -6  23   1    4.02    0.34
   6  23  -1    4.80    0.40
 -23  -6  -1    4.20    0.41
  -6  23  -1    4.00    0.34
   6  23   1    3.87    0.38
 -23  -6   1    3.90    0.42
 -23  -6   3    0.20    0.39
  -6  23  -3    0.13    0.22
   6  23   3    0.26    0.27
 -23  -6   5    4.17    0.49
  -6  23  -5    4.33    0.37
   6  23   5    4.34    0.39
 -23  -6   7    9.10    0.68
   6 -23  -7    8.54    0.53
  -6  23  -7    9.20    0.52
   6 -23  -9    4.13    0.44
 -23  -6   9    3.84    0.56
   6 -23 -11    4.64    0.46
  23  -7  10   16.88    0.74
  -7 -23 -10   16.18    0.95
  23  -7   8   11.96    0.60
  -7 -23  -8   14.39    0.88
  -7  23   6    1.28    0.24
  -7 -23  -6    0.69    0.43
  -7  23   4    6.97    0.40
  -7 -23  -4    7.48    0.65
  23  -7   4    7.20    0.43
  -7  23   2   10.63    0.52
   7  23  -2   11.16    0.58
 -23  -7  -2   11.78    0.59
  -7 -23  -2   11.46    0.74
  -7  23   0    1.18    0.26
   7  23   0    1.25    0.29
 -23  -7   0    1.02    0.32
  -7  23  -2   10.92    0.54
   7  23   2   11.60    0.59
 -23  -7   2   12.44    0.69
  -7  23  -4    7.51    0.45
 -23  -7   4    8.63    0.61
  -7  23  -6    1.21    0.28
 -23  -7   6    1.04    0.41
 -23  -7   8   11.40    0.78
  -7  23  -8   12.73    0.62
  -8 -23  -9    1.07    0.51
  23  -8   9    0.80    0.31
  -8 -23  -7    9.60    0.79
  -8 -23  -5   15.34    0.92
  23  -8   3    2.82    0.31
  -8  23   3    2.04    0.26
  -8 -23  -3    2.84    0.51
  -8  23   1   13.38    0.59
   8  23  -1   14.90    0.68
 -23  -8  -1   12.77    0.68
  -8  23  -1   13.33    0.59
   8  23   1   14.76    0.67
 -23  -8   1   12.95    0.72
  -8  23  -3    1.73    0.29
   8  23   3    1.76    0.32
 -23  -8   5   18.10    0.90
  -8  23  -5   16.37    0.70
 -23  -8   7    9.15    0.70
  -8  23  -7    9.51    0.53
  -9 -23  -8    6.50    0.69
  23  -9   8    7.17    0.48
  -9 -23  -6    7.24    0.72
  23  -9   6    6.65    0.44
  23  -9   4    4.50    0.37
  -9 -23  -4    3.89    0.63
  23  -9   2    8.84    0.46
  -9  23   2    8.47    0.44
  -9  23   0   12.68    0.58
 -23  -9   0   13.31    0.70
 -23  -9   2    9.72    0.63
  -9  23  -2    8.59    0.47
  -9  23  -4    3.95    0.35
 -23  -9   4    3.40    0.48
  -9  23  -6    6.95    0.46
 -23  -9   6    5.35    0.59
  23 -10   7    1.76    0.31
 -10 -23  -7    2.14    0.56
 -10 -23  -5   10.95    0.87
  23 -10   5    9.77    0.53
 -10  23   1    3.77    0.36
 -10  23  -1    3.50    0.33
 -23 -10   1    3.97    0.48
 -10  23  -3    1.76    0.29
 -23 -10   3    2.37    0.44
 -10  23  -5    9.20    0.51
 -23 -10   5    9.42    0.69
 -11 -23  -6    3.81    0.65
 -11  23  -2    0.58    0.24
 -11  23  -4    1.45    0.28
 -23 -11   4    1.46    0.42
 -12 -23  -5    5.58    0.71
  23 -12   3    0.31    0.27
 -12  23  -3    0.52    0.25
   0  24   0   15.41    0.67
   0  24  -2    1.95    0.32
   0  24   2    1.39    0.32
 -24   0   2    1.63    0.38
   0  24  -4    1.05    0.30
   0  24   4    0.64    0.25
 -24   0   4    0.73    0.37
   0  24  -6   11.71    0.61
   0  24   6   11.68    0.58
 -24   0   6   12.12    0.71
  24   0   6   13.24    0.56
   0 -24  -8    0.20    0.36
   0  24   8    0.22    0.26
   0 -24 -10    1.63    0.39
   0  24  10    2.33    0.32
  24   0  10    2.16    0.30
   0 -24 -12    1.05    0.40
  -1 -24 -11    2.73    0.46
  -1 -24  -9   -0.13    0.34
  -1  24   9    0.12    0.25
  -1 -24  -7    6.54    0.57
  -1  24   7    7.26    0.44
  24  -1   7    6.70    0.43
 -24   1   7    6.02    0.57
   1  24  -5   13.81    0.66
  -1  24   5   15.15    0.65
   1  24  -3    3.85    0.37
  -1  24   3    4.04    0.37
 -24   1   3    3.51    0.43
  -1  24   1   11.17    0.55
   1  24  -1   11.10    0.58
  -1  24  -1   11.56    0.57
 -24  -1   1   12.07    0.66
   1  24   1   11.21    0.58
  -1  24  -3    4.48    0.38
   1  24   3    3.86    0.38
 -24  -1   3    4.44    0.47
  -1  24  -5   14.21    0.66
   1  24   5   14.69    0.66
 -24  -1   5   16.00    0.80
   1 -24  -7    5.88    0.51
  24   1   7    6.66    0.42
   1  24   7    7.01    0.45
 -24  -1   7    7.71    0.60
   1 -24  -9    0.09    0.34
  24   1   9    0.02    0.24
   1  24   9    0.11    0.24
   1 -24 -11    2.55    0.43
  24   1  11    2.84    0.32
   1  24  11    3.46    0.35
  -2 -24 -10    3.50    0.50
  24  -2  10    3.33    0.36
  -2  24   8    5.79    0.40
  -2 -24  -8    4.99    0.52
 -24   2   6   15.63    0.81
  -2  24   6   14.47    0.63
  -2 -24  -6   15.06    0.81
  -2  24   4    6.07    0.41
   2  24  -4    5.21    0.44
 -24   2   4    5.93    0.52
  -2  24   2    7.72    0.47
   2  24  -2    7.13    0.48
  -2  24   0   26.06    0.93
 -24  -2   0   28.48    1.03
   2  24   0   26.30    0.96
  -2  24  -2    8.76    0.50
   2  24   2    8.71    0.52
 -24  -2   2    8.62    0.59
  -2  24  -4    5.71    0.42
   2  24   4    5.94    0.45
 -24  -2   4    5.83    0.53
  -2  24  -6   14.73    0.68
   2  24   6   15.09    0.68
 -24  -2   6   15.87    0.81
   2 -24  -8    6.14    0.51
  24   2   8    5.35    0.40
   2  24   8    5.64    0.42
   2 -24 -10    2.63    0.41
  24   2  10    3.37    0.34
   2  24  10    3.34    0.35
   2 -24 -12    2.16    0.40
   2  24  12    2.68    0.33
  -3 -24 -11    2.85    0.48
  -3  24   9    0.38    0.24
  24  -3   9    0.48    0.24
  -3 -24  -9    0.93    0.41
  -3  24   7    2.08    0.30
  24  -3   7    1.91    0.30
  -3 -24  -7    1.86    0.40
  -3  24   5   14.04    0.61
   3  24  -5   13.98    0.66
  24  -3   5   15.71    0.62
  -3  24   3   11.09    0.55
   3  24  -3   11.49    0.58
  -3  24   1    9.51    0.53
 -24  -3  -1   11.00    0.60
   3  24  -1   11.21    0.59
  -3  24  -1   10.83    0.54
   3  24   1   10.41    0.56
 -24  -3   1   10.93    0.64
  -3  24  -3   11.86    0.58
   3  24   3   12.72    0.61
 -24  -3   3   11.31    0.65
  -3  24  -5   15.37    0.67
   3  24   5   15.93    0.69
 -24  -3   5   14.57    0.79
  24   3   7    1.55    0.29
   3  24   7    1.77    0.30
 -24  -3   7    1.78    0.42
   3 -24  -9    0.76    0.31
   3  24   9    0.91    0.29
   3 -24 -11    2.82    0.43
  24   3  11    2.92    0.31
  24  -4  10    0.49    0.25
  -4 -24 -10    0.56    0.45
  -4  24   8    4.82    0.36
  24  -4   8    4.57    0.37
  -4 -24  -8    5.05    0.56
  -4  24   6    6.20    0.41
  24  -4   6    6.43    0.41
  -4 -24  -6    5.89    0.60
  -4  24   4    0.07    0.24
   4  24  -4    0.02    0.26
  -4  24   2    3.98    0.34
   4  24  -2    3.90    0.38
 -24  -4  -2    4.20    0.40
  -4  24   0   24.56    0.88
   4  24   0   25.17    0.93
 -24  -4   0   24.48    0.97
  -4  24  -2    3.91    0.37
   4  24   2    4.22    0.41
 -24  -4   2    3.51    0.43
  -4  24  -4   -0.02    0.26
   4  24   4   -0.19    0.28
 -24  -4   4   -0.03    0.33
  -4  24  -6    6.01    0.45
   4  24   6    6.73    0.47
 -24  -4   6    6.33    0.55
   4  24   8    5.12    0.43
   4 -24 -10    0.96    0.35
  24   4  10    0.72    0.25
  24  -5   9   -0.02    0.25
  -5 -24  -9    0.80    0.42
  24  -5   7    3.24    0.35
  -5 -24  -7    2.62    0.52
  -5  24   5    7.93    0.45
  24  -5   5    8.61    0.46
  -5  24   3    6.25    0.41
  -5  24   1    3.68    0.34
   5  24  -1    4.61    0.41
 -24  -5  -1    4.36    0.41
  -5  24  -1    4.98    0.38
   5  24   1    4.77    0.41
 -24  -5   1    4.79    0.46
  -5  24  -3    5.54    0.43
   5  24   3    6.29    0.45
 -24  -5   3    6.52    0.54
  -5  24  -5    8.31    0.49
   5  24   5    7.99    0.52
 -24  -5   5    7.47    0.59
 -24  -5   7    3.87    0.54
   5 -24 -11    0.64    0.34
  24  -6   8    3.78    0.37
  -6 -24  -8    4.30    0.57
  -6 -24  -6    0.23    0.41
  -6  24   4    1.62    0.27
  -6  24   2    4.21    0.35
  -6  24   0   10.27    0.52
 -24  -6   0    8.95    0.58
  -6  24  -2    3.47    0.35
 -24  -6   2    4.15    0.45
 -24  -6   4    1.56    0.40
  -6  24  -4    1.57    0.29
 -24  -6   6    0.79    0.40
  -7 -24  -9    0.81    0.50
  -7 -24  -7    9.44    0.77
  24  -7   5   13.43    0.61
  -7  24   3    0.82    0.26
  -7  24   1    8.39    0.46
  -7  24  -1    7.03    0.44
 -24  -7   1    7.79    0.56
 -24  -7   3    0.59    0.37
  -7  24  -3    0.77    0.26
 -24  -7   5   13.37    0.78
  -8 -24  -8    9.23    0.80
  24  -8   6    1.33    0.29
  -8  24   2   13.23    0.58
  -8  24   0    5.19    0.39
  -8  24  -2   13.97    0.62
 -24  -8   2   13.42    0.75
  -8  24  -4   11.00    0.55
 -24  -8   4    9.89    0.69
  -9  24   1    8.05    0.45
  -9  24  -1    8.24    0.46
 -24  -9   3    1.32    0.44
  -9  24  -3    1.08    0.26
 -10  24  -2    2.46    0.31
 -24 -10   4    4.92    0.55
   0  25   1    2.40    0.34
   0  25   3    2.79    0.34
 -25   0   3    3.05    0.43
   0  25   5    7.91    0.48
   0  25   7    2.69    0.32
   0  25   9    0.11    0.23
  -1  25   8    2.56    0.32
  -1  25   6    9.56    0.52
  -1  25   4    2.54    0.32
 -25   1   4    2.45    0.40
  -1  25   2    4.52    0.39
  -1  25   0   14.13    0.66
   1  25   2    4.00    0.40
 -25  -1   2    3.87    0.43
   1  25   4    2.38    0.35
 -25  -1   4    2.71    0.40
   1  25   6   11.12    0.58
  -2  25   7    2.62    0.32
  -2  25   5   12.52    0.59
  -2  25   3    7.40    0.46
  -2  25   1    9.49    0.52
  -2  25  -1   10.44    0.55
 -25  -2   1   10.03    0.62
 -25  -2   3    7.80    0.57
  -3  25   6    8.39    0.47
  -3  25   4    0.38    0.28
  -3  25   2    4.00    0.39
  -3  25   0   22.62    0.85
 -25  -3   0   23.30    0.93
 -25  -3   2    4.18    0.46
 -25  -3   4    0.41    0.37
  -4  25   5   11.69    0.56
  -4  25   3   13.49    0.61
  -4  25   1    6.45    0.43
 -25  -4  -1    6.19    0.50
  -4  25  -1    7.14    0.45
 -25  -4   1    5.77    0.49
 -25  -4   3   13.78    0.74
  -5  25   4    2.80    0.33
  -5  25   2    6.55    0.44
  -5  25   0   17.91    0.73
 -25  -5   0   18.85    0.83
 -25  -5   2    8.43    0.59
 -25  -5   4    2.25    0.43
  -6  25   3    7.62    0.47
  -6  25   1    2.47    0.31
  -6  25  -1    2.07    0.33
 -25  -6   1    2.74    0.41
 -25  -6   3    7.74    0.59
  -7  25   2    5.03    0.40
  -7  25   0    8.16    0.47
 -25  -7   2    4.94    0.50
 -26  -3   1    3.32    0.43
   0   0   0    0.00    0.00
;
_shelx_hkl_checksum              51575
loop_
_space_group_symop_operation_xyz
'x, y, z'
'y, -x, -z'
'-x, -y, z'
'-y, x, -z'
'x, -y, -z'
'-x, y, -z'
'-y, -x, z'
'y, x, z'
'x+1/2, y+1/2, z+1/2'
'y+1/2, -x+1/2, -z+1/2'
'-x+1/2, -y+1/2, z+1/2'
'-y+1/2, x+1/2, -z+1/2'
'x+1/2, -y+1/2, -z+1/2'
'-x+1/2, y+1/2, -z+1/2'
'-y+1/2, -x+1/2, z+1/2'
'y+1/2, x+1/2, z+1/2'
loop_
_atom_site_label
_atom_site_type_symbol
_atom_site_fract_x
_atom_site_fract_y
_atom_site_fract_z
_atom_site_U_iso_or_equiv
_atom_site_adp_type
_atom_site_occupancy
_atom_site_site_symmetry_order
_atom_site_calc_flag
_atom_site_refinement_flags_posn
_atom_site_refinement_flags_adp
_atom_site_refinement_flags_occupancy
_atom_site_disorder_assembly
_atom_site_disorder_group
Ag1 Ag 0.5000 0.5000 0.79565(2) 0.01725(8) Uani 1 4 d S T P . .
Ag2 Ag 0.33999(2) 0.52911(2) 0.83326(2) 0.02446(6) Uani 1 1 d . . . . .
Ag3 Ag 0.41618(3) 0.5000 1.0000 0.02579(13) Uani 0.5 2 d S T P . .
S1 S 0.59944(4) 0.59944(4) 0.79999(5) 0.02023(18) Uani 1 2 d S T P . .
C1 C 0.62452(19) 0.62452(19) 0.7139(2) 0.0291(9) Uani 1 2 d S T P . .
C2 C 0.6067(3) 0.7106(2) 0.7043(2) 0.0428(9) Uani 1 1 d . . . . .
H2A H 0.5515 0.7199 0.7121 0.064 Uiso 1 1 calc GR . . . .
H2B H 0.6198 0.7258 0.6598 0.064 Uiso 1 1 calc GR . . . .
H2C H 0.6374 0.7413 0.7350 0.064 Uiso 1 1 calc GR . . . .
C3 C 0.5769(2) 0.5769(2) 0.6664(3) 0.0403(11) Uani 1 2 d S T P . .
H3A H 0.5747 0.5230 0.6812 0.060 Uiso 0.5 1 calc GR . . A -1
H3B H 0.6010 0.5789 0.6233 0.060 Uiso 0.5 1 calc GR . . A -1
H3C H 0.5242 0.5980 0.6639 0.060 Uiso 0.5 1 calc GR . . A -1
S2 S 0.39843(4) 0.60157(4) 0.92703(5) 0.0254(2) Uani 1 2 d S T P B .
C4 C 0.3302(2) 0.6698(2) 0.9669(2) 0.0396(13) Uani 1 2 d DS T P . .
C5 C 0.2938(7) 0.7214(7) 0.9160(3) 0.025(3) Uani 0.5 1 d . . . B -1
H5A H 0.3340 0.7534 0.8958 0.037 Uiso 0.5 1 calc GR . . B -1
H5B H 0.2550 0.7548 0.9365 0.037 Uiso 0.5 1 calc GR . . B -1
H5C H 0.2689 0.6893 0.8828 0.037 Uiso 0.5 1 calc GR . . B -1
C6 C 0.3824(5) 0.7343(5) 0.9959(5) 0.046(2) Uani 0.5 1 d D U . B -1
H6A H 0.4049 0.7650 0.9606 0.069 Uiso 0.5 1 calc GR . . B -1
H6B H 0.4240 0.7106 1.0215 0.069 Uiso 0.5 1 calc GR . . B -1
H6C H 0.3512 0.7680 1.0239 0.069 Uiso 0.5 1 calc GR . . B -1
C7 C 0.2874(5) 0.6333(6) 1.0227(4) 0.046(2) Uani 0.5 1 d D U . B -1
H7A H 0.2536 0.5921 1.0063 0.070 Uiso 0.5 1 calc GR . . B -1
H7B H 0.2560 0.6727 1.0446 0.070 Uiso 0.5 1 calc GR . . B -1
H7C H 0.3247 0.6113 1.0535 0.070 Uiso 0.5 1 calc GR . . B -1
O1 O 0.30728(18) 0.60069(19) 0.73382(16) 0.0473(8) Uani 1 1 d . . . . .
C8 C 0.34199(19) 0.65801(19) 0.7133(2) 0.0252(8) Uani 1 2 d S T P C .
C9 C 0.3062(2) 0.6938(2) 0.6512(2) 0.0450(13) Uani 1 2 d DS T P . .
F1 F 0.2528(2) 0.7472(2) 0.6677(4) 0.085(3) Uani 0.721(13) 2 d DS T P C 1
F2 F 0.2652(3) 0.6477(3) 0.6157(2) 0.082(3) Uani 0.721(13) 1 d D U . C 1
F1B F 0.3426(6) 0.6574(6) 0.6026(6) 0.099(9) Uani 0.279(13) 2 d DS TU P C 2
F2B F 0.2344(4) 0.6799(5) 0.6378(7) 0.089(6) Uani 0.279(13) 1 d D U . C 2
N1 N 0.20497(13) 0.51505(14) 0.83244(14) 0.0234(5) Uani 1 1 d . . . . .
C10 C 0.16963(16) 0.44894(18) 0.84914(14) 0.0227(6) Uani 1 1 d . . . . .
H10 H 0.2009 0.4060 0.8613 0.027 Uiso 1 1 calc R . . . .
C11 C 0.08990(17) 0.43980(17) 0.84961(14) 0.0215(5) Uani 1 1 d . . . . .
H11 H 0.0675 0.3914 0.8609 0.026 Uiso 1 1 calc R . . . .
C12 C 0.04286(13) 0.50285(17) 0.83330(12) 0.0174(4) Uani 1 1 d . . . . .
C13 C 0.07938(16) 0.57224(16) 0.81583(13) 0.0188(5) Uani 1 1 d . . . . .
H13 H 0.0496 0.6165 0.8046 0.023 Uiso 1 1 calc R . . . .
C14 C 0.15973(17) 0.57528(17) 0.81525(14) 0.0223(5) Uani 1 1 d . . . . .
H14 H 0.1840 0.6221 0.8021 0.027 Uiso 1 1 calc R . . . .
C15 C 0.0000 0.4411(8) 1.0000 0.041(3) Uani 0.25 1 d S TU P D -1
H15A H -0.0080 0.4221 0.9557 0.062 Uiso 0.25 1 d R . . D -1
H15B H -0.0420 0.4221 1.0279 0.062 Uiso 0.25 1 d R . . D -1
H15C H 0.0500 0.4221 1.0164 0.062 Uiso 0.25 1 d R . . D -1
C16 C 0.0000 0.5265(8) 1.0000 0.034(2) Uani 0.25 1 d S TU P D -1
C17 C 0.0670(5) 0.5694(5) 0.9846(3) 0.0384(17) Uani 0.5 1 d . . . . .
H17 H 0.1139 0.5431 0.9749 0.046 Uiso 0.5 1 calc R . . D .
C18 C 0.0652(5) 0.6500(5) 0.9837(3) 0.0402(17) Uani 0.5 1 d . . . D .
H18 H 0.1105 0.6775 0.9713 0.048 Uiso 0.5 1 calc R . . . .
C19 C 0.0000 0.6910(7) 1.0000 0.040(2) Uani 0.25 1 d S TU P D -1
C20 C 0.0000 0.7783(9) 1.0000 0.059(3) Uani 0.25 1 d S TU P D -1
H20A H -0.0387 0.7973 1.0310 0.088 Uiso 0.25 1 d R . . D -1
H20B H -0.0128 0.7973 0.9565 0.088 Uiso 0.25 1 d R . . D -1
H20C H 0.0516 0.7973 1.0125 0.088 Uiso 0.25 1 d R . . D -1
loop_
_atom_site_aniso_label
_atom_site_aniso_U_11
_atom_site_aniso_U_22
_atom_site_aniso_U_33
_atom_site_aniso_U_23
_atom_site_aniso_U_13
_atom_site_aniso_U_12
Ag1 0.01181(9) 0.01181(9) 0.02814(19) 0.000 0.000 -0.00076(13)
Ag2 0.01232(8) 0.02244(10) 0.03863(12) 0.00109(10) 0.00015(9) 0.00210(7)
Ag3 0.0165(2) 0.0280(3) 0.0328(3) 0.0157(3) 0.000 0.000
S1 0.0156(2) 0.0156(2) 0.0295(5) 0.0027(3) 0.0027(3) -0.0033(3)
C1 0.0289(13) 0.0289(13) 0.029(2) 0.0063(12) 0.0063(12) -0.0062(18)
C2 0.055(2) 0.0295(17) 0.043(2) 0.0143(16) 0.0120(19) -0.0053(17)
C3 0.0441(17) 0.0441(17) 0.033(2) 0.0045(16) 0.0045(16) -0.013(2)
S2 0.0276(3) 0.0276(3) 0.0208(4) 0.0025(3) -0.0025(3) 0.0079(4)
C4 0.049(2) 0.049(2) 0.0201(19) -0.0008(12) 0.0008(12) 0.026(3)
C5 0.026(6) 0.022(5) 0.026(2) 0.001(2) 0.000(2) 0.003(5)
C6 0.056(4) 0.063(5) 0.020(3) -0.016(3) -0.005(3) 0.014(4)
C7 0.059(5) 0.063(5) 0.018(3) 0.006(3) 0.011(3) 0.025(4)
O1 0.0358(14) 0.0548(18) 0.0513(16) 0.0270(15) -0.0092(13) -0.0131(14)
C8 0.0262(12) 0.0262(12) 0.0232(18) 0.0011(11) -0.0011(11) 0.0052(17)
C9 0.0468(19) 0.0468(19) 0.042(3) 0.0161(19) -0.0161(19) -0.008(3)
F1 0.077(4) 0.077(4) 0.101(5) 0.022(3) -0.022(3) 0.041(4)
F2 0.123(6) 0.055(3) 0.069(4) 0.009(2) -0.066(4) -0.016(3)
F1B 0.136(13) 0.136(13) 0.025(6) -0.001(6) 0.001(6) 0.025(15)
F2B 0.052(7) 0.126(13) 0.087(10) 0.057(9) -0.032(6) -0.028(7)
N1 0.0140(9) 0.0251(12) 0.0310(11) 0.0026(11) -0.0026(10) 0.0001(8)
C10 0.0187(12) 0.0229(12) 0.0264(13) 0.0048(11) -0.0070(10) 0.0010(10)
C11 0.0190(12) 0.0217(12) 0.0239(13) 0.0074(10) -0.0053(10) -0.0034(10)
C12 0.0157(10) 0.0230(11) 0.0135(9) -0.0004(12) -0.0009(9) -0.0013(9)
C13 0.0153(11) 0.0194(12) 0.0217(12) 0.0001(9) -0.0004(9) 0.0004(9)
C14 0.0165(11) 0.0198(12) 0.0307(14) 0.0035(10) -0.0011(10) -0.0004(10)
C15 0.054(6) 0.040(5) 0.030(4) 0.000(7) 0.001(4) 0.000(7)
C16 0.044(5) 0.045(6) 0.012(3) 0.000(14) -0.003(4) 0.000(14)
C17 0.042(4) 0.054(5) 0.020(3) -0.006(3) -0.002(3) 0.004(3)
C18 0.037(4) 0.060(5) 0.024(3) -0.001(3) 0.001(3) -0.011(4)
C19 0.045(5) 0.050(5) 0.025(4) 0.000(14) 0.000(4) 0.000(14)
C20 0.073(8) 0.065(7) 0.039(5) 0.000(14) -0.008(6) 0.000(14)
loop_
_atom_type_symbol
_atom_type_description
_atom_type_scat_dispersion_real
_atom_type_scat_dispersion_imag
_atom_type_scat_source
C C 0.0033 0.0016 'International Tables Vol C Tables 4.2.6.8 and 6.1.1.4'
H H 0.0000 0.0000 'International Tables Vol C Tables 4.2.6.8 and 6.1.1.4'
Ag Ag -0.8971 1.1015 'International Tables Vol C Tables 4.2.6.8 and 6.1.1.4'
F F 0.0171 0.0103 'International Tables Vol C Tables 4.2.6.8 and 6.1.1.4'
N N 0.0061 0.0033 'International Tables Vol C Tables 4.2.6.8 and 6.1.1.4'
O O 0.0106 0.0060 'International Tables Vol C Tables 4.2.6.8 and 6.1.1.4'
S S 0.1246 0.1234 'International Tables Vol C Tables 4.2.6.8 and 6.1.1.4'
loop_
_exptl_crystal_face_index_h
_exptl_crystal_face_index_k
_exptl_crystal_face_index_l
_exptl_crystal_face_perp_dist
-24 1 -7 0.0685
24 2 6 0.0518
0 -24 4 0.0809
3 0 -29 0.0474
-3 0 29 0.0474
-19 5 18 0.0655
-10 3 -26 0.0537
22 -6 10 0.0632
0 23 8 0.0717
2 -24 -7 0.0725
-1 6 -28 0.0381
2 -19 -18 0.0688
-5 -4 28 0.0507
loop_
_geom_angle_atom_site_label_1
_geom_angle_atom_site_label_2
_geom_angle_atom_site_label_3
_geom_angle
_geom_angle_site_symmetry_1
_geom_angle_site_symmetry_3
Ag2 Ag1 Ag2 149.164(19) . 3_665
Ag2 Ag1 Ag2 149.164(19) 7_665 8
Ag2 Ag1 Ag2 66.549(9) 3_665 8
Ag2 Ag1 Ag2 66.550(9) . 7_665
Ag2 Ag1 Ag2 104.868(10) . 8
Ag2 Ag1 Ag2 104.869(10) 3_665 7_665
S1 Ag1 Ag2 56.078(9) . 7_665
S1 Ag1 Ag2 56.079(9) 3_665 8
S1 Ag1 Ag2 122.581(11) 3_665 3_665
S1 Ag1 Ag2 122.581(11) 3_665 7_665
S1 Ag1 Ag2 56.078(9) . 3_665
S1 Ag1 Ag2 122.582(11) . .
S1 Ag1 Ag2 122.581(11) . 8
S1 Ag1 Ag2 56.078(9) 3_665 .
S1 Ag1 S1 175.78(5) . 3_665
Ag1 Ag2 Ag2 56.726(5) . 7_665
S1 Ag2 Ag1 52.32(2) 3_665 .
S1 Ag2 Ag2 109.01(2) 3_665 7_665
S2 Ag2 Ag1 84.80(2) . .
S2 Ag2 Ag2 50.497(16) . 7_665
S2 Ag2 S1 118.41(3) . 3_665
O1 Ag2 Ag1 94.78(8) . .
O1 Ag2 Ag2 78.86(7) . 7_665
O1 Ag2 S1 107.97(9) . 3_665
O1 Ag2 S2 118.83(8) . .
N1 Ag2 Ag1 157.45(7) . .
N1 Ag2 Ag2 140.94(6) . 7_665
N1 Ag2 S1 108.43(6) . 3_665
N1 Ag2 S2 117.16(7) . .
N1 Ag2 O1 79.49(10) . .
Ag3 Ag3 Ag3 45.0 2_567 3_665
Ag3 Ag3 Ag3 45.0 4_657 3_665
Ag3 Ag3 Ag3 90.0 2_567 4_657
Ag3 Ag3 S2 63.944(16) 2_567 .
Ag3 Ag3 S2 128.71(3) 2_567 4_657
Ag3 Ag3 S2 128.71(3) 4_657 .
Ag3 Ag3 S2 63.944(16) 4_657 4_657
S2 Ag3 Ag3 97.56(2) . 3_665
S2 Ag3 Ag3 97.56(2) 4_657 3_665
S2 Ag3 S2 164.88(4) 4_657 .
Ag1 S1 Ag2 71.60(2) . 7_665
Ag1 S1 Ag2 71.60(2) . 3_665
Ag2 S1 Ag2 130.02(4) 7_665 3_665
C1 S1 Ag1 106.95(16) . .
C1 S1 Ag2 111.13(4) . 7_665
C1 S1 Ag2 111.13(4) . 3_665
C2 C1 S1 107.4(3) 8 .
C2 C1 S1 107.4(3) . .
C2 C1 C2 111.9(4) . 8
C3 C1 S1 111.0(3) . .
C3 C1 C2 109.5(3) . .
C3 C1 C2 109.5(3) . 8
C1 C2 H2A 109.5 . .
C1 C2 H2B 109.5 . .
C1 C2 H2C 109.5 . .
H2A C2 H2B 109.5 . .
H2A C2 H2C 109.5 . .
H2B C2 H2C 109.5 . .
C1 C3 H3A 109.5 . .
C1 C3 H3B 109.5 . .
C1 C3 H3C 109.5 . .
H3A C3 H3B 109.5 . .
H3A C3 H3C 109.5 . .
H3B C3 H3C 109.5 . .
Ag2 S2 Ag2 79.01(3) 7_665 .
Ag3 S2 Ag2 137.10(5) . 7_665
Ag3 S2 Ag2 100.00(2) . .
Ag3 S2 Ag2 137.10(5) 2_567 .
Ag3 S2 Ag2 100.00(2) 2_567 7_665
Ag3 S2 Ag3 52.11(3) . 2_567
C4 S2 Ag2 113.62(11) . .
C4 S2 Ag2 113.62(11) . 7_665
C4 S2 Ag3 106.03(14) . .
C4 S2 Ag3 106.03(14) . 2_567
C5 C4 S2 109.4(3) . .
C5 C4 C6 94.9(7) . .
C6 C4 S2 104.9(4) . .
C7 C4 S2 112.6(4) . .
C7 C4 C5 124.9(6) . .
C7 C4 C6 107.0(8) . .
C4 C5 H5A 109.5 . .
C4 C5 H5B 109.5 . .
C4 C5 H5C 109.5 . .
H5A C5 H5B 109.5 . .
H5A C5 H5C 109.5 . .
H5B C5 H5C 109.5 . .
C4 C6 H6A 109.5 . .
C4 C6 H6B 109.5 . .
C4 C6 H6C 109.5 . .
H6A C6 H6B 109.5 . .
H6A C6 H6C 109.5 . .
H6B C6 H6C 109.5 . .
C4 C7 H7A 109.5 . .
C4 C7 H7B 109.5 . .
C4 C7 H7C 109.5 . .
H7A C7 H7B 109.5 . .
H7A C7 H7C 109.5 . .
H7B C7 H7C 109.5 . .
C8 O1 Ag2 125.3(3) . .
O1 C8 O1 131.6(5) 7_665 .
O1 C8 C9 114.2(2) 7_665 .
O1 C8 C9 114.2(2) . .
F1 C9 C8 109.8(5) . .
F2 C9 C8 116.2(3) 7_665 .
F2 C9 C8 116.2(3) . .
F2 C9 F1 100.9(4) . .
F2 C9 F1 100.9(4) 7_665 .
F2 C9 F2 110.7(6) . 7_665
F1B C9 C8 104.1(8) . .
F2B C9 C8 119.1(6) 7_665 .
F2B C9 C8 119.1(6) . .
F2B C9 F1B 101.7(7) 7_665 .
F2B C9 F1B 101.7(7) . .
F2B C9 F2B 108.0(8) . 7_665
C10 N1 Ag2 122.66(18) . .
C10 N1 C14 117.5(2) . .
C14 N1 Ag2 119.89(19) . .
N1 C10 H10 118.3 . .
N1 C10 C11 123.5(3) . .
C11 C10 H10 118.3 . .
C10 C11 H11 120.4 . .
C10 C11 C12 119.1(3) . .
C12 C11 H11 120.4 . .
C11 C12 C12 121.8(3) . 3_565
C11 C12 C13 117.8(2) . .
C13 C12 C12 120.4(3) . 3_565
C12 C13 H13 120.5 . .
C14 C13 C12 119.0(3) . .
C14 C13 H13 120.5 . .
N1 C14 C13 123.2(3) . .
N1 C14 H14 118.4 . .
C13 C14 H14 118.4 . .
H15A C15 H15B 109.2 . .
H15A C15 H15C 109.4 . .
H15B C15 H15C 109.7 . .
C16 C15 H15A 109.6 . .
C16 C15 H15B 109.5 . .
C16 C15 H15C 109.5 . .
C16 C15 C18 143.3(4) . 5_567
C16 C15 C18 143.3(3) . 3_565
C17 C15 H15A 109.1 5_567 .
C17 C15 H15A 64.7 3_565 .
C17 C15 H15B 120.1 5_567 .
C17 C15 H15B 53.0 3_565 .
C17 C15 H15C 151.3 3_565 .
C17 C15 H15C 12.4 5_567 .
C17 C15 C16 98.6(8) 5_567 .
C17 C15 C16 98.6(8) 3_565 .
C17 C15 C17 162.8(16) 3_565 5_567
C17 C15 C18 118.1(10) 3_565 5_567
C17 C15 C18 44.7(6) 5_567 5_567
C17 C15 C18 44.7(6) 3_565 3_565
C17 C15 C18 118.1(10) 5_567 3_565
C18 C15 H15A 88.4 5_567 .
C18 C15 H15A 59.4 3_565 .
C18 C15 H15B 53.8 3_565 .
C18 C15 H15B 93.2 5_567 .
C18 C15 H15C 107.2 3_565 .
C18 C15 H15C 34.0 5_567 .
C18 C15 C18 73.5(7) 3_565 5_567
C17 C16 C15 121.8(6) 6_557 .
C17 C16 C15 121.8(6) . .
C17 C16 C17 116.5(12) 6_557 .
C16 C17 H17 119.6 . .
C18 C17 C16 120.7(9) . .
C18 C17 H17 119.6 . .
C17 C18 H18 119.0 . .
C19 C18 C17 122.1(8) . .
C19 C18 H18 119.0 . .
C18 C19 C18 117.9(12) 6_557 .
C18 C19 C20 121.1(6) 6_557 .
C18 C19 C20 121.1(6) . .
C19 C20 H20A 109.5 . .
C19 C20 H20B 109.6 . .
C19 C20 H20C 109.5 . .
H20A C20 H20B 109.2 . .
H20A C20 H20C 109.6 . .
H20B C20 H20C 109.4 . .
loop_
_geom_bond_atom_site_label_1
_geom_bond_atom_site_label_2
_geom_bond_distance
_geom_bond_site_symmetry_2
Ag1 Ag2 2.9120(2) 8
Ag1 Ag2 2.9120(2) 7_665
Ag1 Ag2 2.9120(2) 3_665
Ag1 Ag2 2.9119(2) .
Ag1 S1 2.4289(9) .
Ag1 S1 2.4290(9) 3_665
Ag2 Ag2 3.1953(4) 7_665
Ag2 S1 2.5465(5) 3_665
Ag2 S2 2.5116(9) .
Ag2 O1 2.457(3) .
Ag2 N1 2.343(2) .
Ag3 Ag3 2.0459(8) 4_657
Ag3 Ag3 2.8933(12) 3_665
Ag3 Ag3 2.0459(8) 2_567
Ag3 S2 2.3288(9) .
Ag3 S2 2.3288(9) 4_657
S1 Ag2 2.5466(5) 7_665
S1 Ag2 2.5466(5) 3_665
S1 C1 1.875(5) .
C1 C2 1.530(5) 8
C1 C2 1.530(5) .
C1 C3 1.520(8) .
C2 H2A 0.9800 .
C2 H2B 0.9800 .
C2 H2C 0.9800 .
C3 H3A 0.9800 .
C3 H3B 0.9800 .
C3 H3C 0.9800 .
S2 Ag2 2.5116(9) 7_665
S2 Ag3 2.3288(9) 2_567
S2 C4 1.856(5) .
C4 C5 1.511(7) .
C4 C6 1.551(7) .
C4 C7 1.504(7) .
C5 H5A 0.9800 .
C5 H5B 0.9800 .
C5 H5C 0.9800 .
C6 H6A 0.9800 .
C6 H6B 0.9800 .
C6 H6C 0.9800 .
C7 H7A 0.9800 .
C7 H7B 0.9800 .
C7 H7C 0.9800 .
O1 C8 1.232(3) .
C8 O1 1.232(3) 7_665
C8 C9 1.547(7) .
C9 F1 1.348(5) .
C9 F2 1.292(4) 7_665
C9 F2 1.292(4) .
C9 F1B 1.337(6) .
C9 F2B 1.292(6) .
C9 F2B 1.292(6) 7_665
N1 C10 1.339(4) .
N1 C14 1.348(4) .
C10 H10 0.9500 .
C10 C11 1.385(4) .
C11 H11 0.9500 .
C11 C12 1.399(4) .
C12 C12 1.483(5) 3_565
C12 C13 1.400(4) .
C13 H13 0.9500 .
C13 C14 1.388(4) .
C14 H14 0.9500 .
C15 H15A 0.9783 .
C15 H15B 0.9812 .
C15 H15C 0.9824 .
C15 C16 1.47(2) .
C15 C17 1.212(8) 5_567
C15 C17 1.212(8) 3_565
C15 C18 1.962(13) 3_565
C15 C18 1.962(13) 5_567
C16 C17 1.409(11) .
C16 C17 1.409(11) 6_557
C17 H17 0.9500 .
C17 C18 1.391(12) .
C18 H18 0.9500 .
C18 C19 1.370(11) .
C19 C18 1.370(11) 6_557
C19 C20 1.507(19) .
C20 H20A 0.9808 .
C20 H20B 0.9786 .
C20 H20C 0.9827 .
loop_
_geom_torsion_atom_site_label_1
_geom_torsion_atom_site_label_2
_geom_torsion_atom_site_label_3
_geom_torsion_atom_site_label_4
_geom_torsion
_geom_torsion_site_symmetry_1
_geom_torsion_site_symmetry_2
_geom_torsion_site_symmetry_3
_geom_torsion_site_symmetry_4
Ag1 S1 C1 C2 119.7(3) . . . .
Ag1 S1 C1 C2 -119.7(3) . . . 8
Ag1 S1 C1 C3 0.000(1) . . . .
Ag2 S1 C1 C2 -163.9(2) 3_665 . . .
Ag2 S1 C1 C2 -43.4(3) 3_665 . . 8
Ag2 S1 C1 C2 43.4(3) 7_665 . . .
Ag2 S1 C1 C2 163.9(2) 7_665 . . 8
Ag2 S1 C1 C3 -76.35(7) 7_665 . . .
Ag2 S1 C1 C3 76.35(7) 3_665 . . .
Ag2 S2 C4 C5 -51.4(6) . . . .
Ag2 S2 C4 C5 36.5(6) 7_665 . . .
Ag2 S2 C4 C6 -152.2(4) . . . .
Ag2 S2 C4 C6 -64.3(5) 7_665 . . .
Ag2 S2 C4 C7 179.8(5) 7_665 . . .
Ag2 S2 C4 C7 91.9(5) . . . .
Ag2 O1 C8 O1 1.5(9) . . . 7_665
Ag2 O1 C8 C9 -177.1(3) . . . .
Ag2 N1 C10 C11 179.3(2) . . . .
Ag2 N1 C14 C13 -177.6(2) . . . .
Ag3 S2 C4 C5 145.3(6) 2_567 . . .
Ag3 S2 C4 C5 -160.3(6) . . . .
Ag3 S2 C4 C6 44.6(5) 2_567 . . .
Ag3 S2 C4 C6 99.0(5) . . . .
Ag3 S2 C4 C7 -71.3(5) 2_567 . . .
Ag3 S2 C4 C7 -17.0(5) . . . .
O1 C8 C9 F1 -89.4(4) 7_665 . . .
O1 C8 C9 F1 89.4(4) . . . .
O1 C8 C9 F2 -24.2(6) . . . .
O1 C8 C9 F2 24.2(6) 7_665 . . 7_665
O1 C8 C9 F2 157.0(5) 7_665 . . .
O1 C8 C9 F2 -157.0(5) . . . 7_665
O1 C8 C9 F1B -90.6(4) . . . .
O1 C8 C9 F1B 90.6(4) 7_665 . . .
O1 C8 C9 F2B -157.2(7) 7_665 . . .
O1 C8 C9 F2B -21.7(8) 7_665 . . 7_665
O1 C8 C9 F2B 157.2(7) . . . 7_665
O1 C8 C9 F2B 21.7(8) . . . .
N1 C10 C11 C12 -1.5(5) . . . .
C10 N1 C14 C13 1.8(5) . . . .
C10 C11 C12 C12 -179.6(2) . . . 3_565
C10 C11 C12 C13 1.3(4) . . . .
C11 C12 C13 C14 0.2(4) . . . .
C12 C12 C13 C14 -178.9(2) 3_565 . . .
C12 C13 C14 N1 -1.9(4) . . . .
C14 N1 C10 C11 -0.1(5) . . . .
C15 C16 C17 C18 178.7(5) . . . .
C16 C17 C18 C19 2.7(10) . . . .
C17 C15 C16 C17 30.6(6) 3_565 . . 6_557
C17 C15 C16 C17 -149.4(6) 3_565 . . .
C17 C15 C16 C17 30.6(6) 5_567 . . .
C17 C15 C16 C17 -149.4(6) 5_567 . . 6_557
C17 C16 C17 C18 -1.3(5) 6_557 . . .
C17 C18 C19 C18 -1.4(5) . . . 6_557
C17 C18 C19 C20 178.6(5) . . . .
C18 C15 C16 C17 -148.1(4) 3_565 . . .
C18 C15 C16 C17 31.9(4) 5_567 . . .
C18 C15 C16 C17 -148.1(4) 5_567 . . 6_557
C18 C15 C16 C17 31.9(4) 3_565 . . 6_557
loop_
_exptl_oxdiff_crystal_face_indexfrac_h
_exptl_oxdiff_crystal_face_indexfrac_k
_exptl_oxdiff_crystal_face_indexfrac_l
_exptl_oxdiff_crystal_face_x
_exptl_oxdiff_crystal_face_y
_exptl_oxdiff_crystal_face_z
-24.0000 1.0000 -7.0000 -0.0038 -0.2247 0.9915
24.0000 2.0000 6.0000 -0.0115 0.3450 -0.9507
0.0000 -24.0000 4.0000 -0.0102 -0.9518 -0.2913
3.0000 -0.0000 -29.0000 -0.9904 0.1124 0.1424
-3.0000 0.0000 29.0000 0.9904 -0.1124 -0.1424
-19.0000 5.0000 17.9999 0.8034 -0.0754 0.6210
-10.0000 3.0000 -26.0000 -0.7524 0.0690 0.6455
22.0000 -6.0000 10.0000 0.0922 -0.0029 -0.9949
0.0000 23.0000 8.0000 0.4026 0.8807 0.1742
2.0000 -24.0000 -7.0000 -0.3939 -0.8991 -0.2702
-1.0000 6.0000 -28.0000 -0.8844 0.2980 0.3506
2.0000 -19.0000 -18.0000 -0.7292 -0.6737 -0.1194
-5.0000 -4.0000 28.0000 0.9519 -0.2901 -0.0996
