#------------------------------------------------------------------------------
#$Date: 2019-06-14 11:52:56 +0300 (Fri, 14 Jun 2019) $
#$Revision: 215966 $
#$URL: file:///home/coder/svn-repositories/cod/cif/1/55/14/1551428.cif $
#------------------------------------------------------------------------------
#
# This file is available in the Crystallography Open Database (COD),
# http://www.crystallography.net/
#
# All data on this site have been placed in the public domain by the
# contributors.
#
data_1551428
loop_
_publ_author_name
'Ren-Wu Huang'
'Yong-Sheng Wei'
'Xi-Yan Dong'
'Xiao-Hui Wu'
'Chen-Xia Du'
'Shuang-Quan Zang'
'Thomas C. W. Mak'
_publ_section_title
;
 Hypersensitive dual-function luminescence switching of a
 silver-chalcogenolate cluster-based metal-organic framework
;
_journal_name_full               'Nature Chemistry'
_journal_page_first              689
_journal_page_last               697
_journal_paper_doi               10.1038/nchem.2718
_journal_volume                  9
_journal_year                    2017
_chemical_absolute_configuration ad
_chemical_formula_moiety         'C80 H104 Ag12 F12 N8 O8 S8, 3(C6 H12)'
_chemical_formula_sum            'C98 H140 Ag12 F12 N8 O8 S8'
_chemical_formula_weight         3337.09
_space_group_crystal_system      tetragonal
_space_group_IT_number           121
_space_group_name_Hall           'I -4 2'
_space_group_name_H-M_alt        'I -4 2 m'
_atom_sites_solution_hydrogens   geom
_atom_sites_solution_primary     direct
_cell_angle_alpha                90
_cell_angle_beta                 90
_cell_angle_gamma                90
_cell_formula_units_Z            2
_cell_length_a                   17.2498(3)
_cell_length_b                   17.2498(3)
_cell_length_c                   21.1010(16)
_cell_measurement_reflns_used    2521
_cell_measurement_temperature    100.3(5)
_cell_measurement_theta_max      27.2240
_cell_measurement_theta_min      3.6560
_cell_volume                     6278.7(5)
_computing_cell_refinement
;
CrysAlisPro, Agilent Technologies,
Version 1.171.36.32 (release 02-08-2013 CrysAlis171 .NET)
(compiled Aug  2 2013,16:46:58)
;
_computing_data_collection
;
CrysAlisPro, Agilent Technologies,
Version 1.171.36.32 (release 02-08-2013 CrysAlis171 .NET)
(compiled Aug  2 2013,16:46:58)
;
_computing_data_reduction
;
CrysAlisPro, Agilent Technologies,
Version 1.171.36.32 (release 02-08-2013 CrysAlis171 .NET)
(compiled Aug  2 2013,16:46:58)
;
_computing_molecular_graphics    'Olex2 (Dolomanov et al., 2009)'
_computing_publication_material  'Olex2 (Dolomanov et al., 2009)'
_computing_structure_refinement  'ShelXL (Sheldrick, 2015)'
_computing_structure_solution    'ShelXS (Sheldrick, 2008)'
_diffrn_ambient_temperature      100.3(5)
_diffrn_detector_area_resol_mean 16.2312
_diffrn_measured_fraction_theta_full 0.995
_diffrn_measured_fraction_theta_max 0.882
_diffrn_measurement_details
;
#__ type_ start__ end____ width___ exp.time_
  1 omega   48.00   92.00   1.0000   30.0000
omega____ theta____ kappa____ phi______ frames
    -       19.7104   37.0000  -90.0000 44

#__ type_ start__ end____ width___ exp.time_
  2 omega   -2.00   58.00   1.0000   30.0000
omega____ theta____ kappa____ phi______ frames
    -       19.7104  -19.0000  -90.0000 60

#__ type_ start__ end____ width___ exp.time_
  3 omega   50.00   76.00   1.0000   30.0000
omega____ theta____ kappa____ phi______ frames
    -       19.7104  178.0000 -120.0000 26
;
_diffrn_measurement_device_type  'Xcalibur, Eos, Gemini'
_diffrn_measurement_method       '\w scans'
_diffrn_orient_matrix_UB_11      0.0390147000
_diffrn_orient_matrix_UB_12      -0.0128868000
_diffrn_orient_matrix_UB_13      -0.0010380000
_diffrn_orient_matrix_UB_21      -0.0080460000
_diffrn_orient_matrix_UB_22      -0.0273512000
_diffrn_orient_matrix_UB_23      0.0242307000
_diffrn_orient_matrix_UB_31      -0.0101322000
_diffrn_orient_matrix_UB_32      -0.0278495000
_diffrn_orient_matrix_UB_33      -0.0233080000
_diffrn_radiation_monochromator  graphite
_diffrn_radiation_type           MoK\a
_diffrn_radiation_wavelength     0.71073
_diffrn_reflns_av_R_equivalents  0.0476
_diffrn_reflns_av_unetI/netI     0.0724
_diffrn_reflns_Laue_measured_fraction_full 0.995
_diffrn_reflns_Laue_measured_fraction_max 0.882
_diffrn_reflns_limit_h_max       23
_diffrn_reflns_limit_h_min       -22
_diffrn_reflns_limit_k_max       13
_diffrn_reflns_limit_k_min       -21
_diffrn_reflns_limit_l_max       28
_diffrn_reflns_limit_l_min       -25
_diffrn_reflns_number            8193
_diffrn_reflns_point_group_measured_fraction_full 0.948
_diffrn_reflns_point_group_measured_fraction_max 0.803
_diffrn_reflns_theta_full        25.250
_diffrn_reflns_theta_max         29.238
_diffrn_reflns_theta_min         3.051
_diffrn_source                   'Enhance (Mo) X-ray Source'
_exptl_absorpt_coefficient_mu    2.027
_exptl_absorpt_correction_T_max  1.00000
_exptl_absorpt_correction_T_min  0.78691
_exptl_absorpt_correction_type   multi-scan
_exptl_absorpt_process_details
;
CrysAlisPro, Agilent Technologies,
Version 1.171.36.32 (release 02-08-2013 CrysAlis171 .NET)
(compiled Aug  2 2013,16:46:58)
Empirical absorption correction using spherical harmonics,
 implemented in SCALE3 ABSPACK scaling algorithm.
;
_exptl_crystal_colour            colourless
_exptl_crystal_colour_primary    colourless
_exptl_crystal_density_diffrn    1.765
_exptl_crystal_description       block
_exptl_crystal_F_000             3296
_exptl_crystal_size_max          0.21
_exptl_crystal_size_mid          0.16
_exptl_crystal_size_min          0.07
_refine_diff_density_max         2.550
_refine_diff_density_min         -0.695
_refine_diff_density_rms         0.140
_refine_ls_abs_structure_details
;
 Flack x determined using 980 quotients [(I+)-(I-)]/[(I+)+(I-)]
 (Parsons and Flack (2004), Acta Cryst. A60, s61).
;
_refine_ls_abs_structure_Flack   0.00(4)
_refine_ls_extinction_coef       .
_refine_ls_extinction_method     none
_refine_ls_goodness_of_fit_ref   1.044
_refine_ls_hydrogen_treatment    constr
_refine_ls_matrix_type           full
_refine_ls_number_parameters     219
_refine_ls_number_reflns         3586
_refine_ls_number_restraints     63
_refine_ls_restrained_S_all      1.064
_refine_ls_R_factor_all          0.0723
_refine_ls_R_factor_gt           0.0514
_refine_ls_shift/su_max          0.001
_refine_ls_shift/su_mean         0.000
_refine_ls_structure_factor_coef Fsqd
_refine_ls_weighting_details
;
 w=1/[\s^2^(Fo^2^)+(0.0544P)^2^+3.2454P]
 where P=(Fo^2^+2Fc^2^)/3
;
_refine_ls_weighting_scheme      calc
_refine_ls_wR_factor_gt          0.1061
_refine_ls_wR_factor_ref         0.1149
_reflns_Friedel_coverage         0.672
_reflns_Friedel_fraction_full    0.891
_reflns_Friedel_fraction_max     0.708
_reflns_number_gt                2851
_reflns_number_total             3586
_reflns_threshold_expression     'I > 2\s(I)'
_cod_data_source_file            nchem.2718-s15.cif
_cod_data_source_block           ag12bpy_cyclohexane
_cod_database_code               1551428
_chemical_oxdiff_formula         C1H1O1N1S1Ag1
_shelx_space_group_comment
;
The symmetry employed for this shelxl refinement is uniquely defined
by the following loop, which should always be used as a source of
symmetry information in preference to the above space-group names.
They are only intended as comments.
;
_shelx_estimated_absorpt_t_max   0.871
_shelx_estimated_absorpt_t_min   0.676
_reflns_odcompleteness_completeness 99.68
_reflns_odcompleteness_iscentric 1
_reflns_odcompleteness_theta     26.32
_olex2_refinement_description
;
1. Fixed Uiso
 At 1.2 times of:
  All C(H) groups, All C(H,H) groups
 At 1.5 times of:
  All C(H,H,H) groups
2. Restrained distances
 C17_$1-C17 = C15-C16 = C17-C16 = C15_$1-C15
 1.54 with sigma of 0.02
 C4-C7 \\sim C4-C6
 with sigma of 0.02
 O2-C8 \\sim C8-O1
 with sigma of 0.02
 F3-C9 \\sim F1-C9 \\sim F2-C9
 with sigma of 0.01
3. Uiso/Uaniso restraints and constraints
Uanis(C7) \\sim Ueq, Uanis(C5) \\sim Ueq, Uanis(F1) \\sim Ueq, Uanis(F2) \\sim
Ueq, Uanis(F3) \\sim Ueq: with sigma of 0.005 and sigma for terminal atoms of
0.01
Uanis(C6) \\sim Ueq, Uanis(C15) \\sim Ueq, Uanis(C16) \\sim Ueq, Uanis(C17)
\\sim Ueq: with sigma of 0.01 and sigma for terminal atoms of 0.02
Uanis(O1) = Uanis(O2)
4. Others
 Fixed Sof: Ag3(0.25) H3A(0.5) H3B(0.5) H3C(0.5) H5A(0.5) H5B(0.5) H5C(0.5)
 C6(0.5) H6A(0.5) H6B(0.5) H6C(0.5) C7(0.5) H7A(0.5) H7B(0.5) H7C(0.5) O1(0.5)
 O2(0.5) F1(0.5) F2(0.5) F3(0.5) C15(0.75) H15A(0.75) H15B(0.75) C16(0.75)
 H16A(0.75) H16B(0.75) C17(0.75) H17A(0.75) H17B(0.75)
5.a Secondary CH2 refined with riding coordinates:
 C15(H15A,H15B), C16(H16A,H16B), C17(H17A,H17B)
5.b Aromatic/amide H refined with riding coordinates:
 C10(H10), C11(H11), C13(H13), C14(H14)
5.c Idealised Me refined as rotating group:
 C2(H2A,H2B,H2C), C3(H3A,H3B,H3C), C5(H5A,H5B,H5C), C6(H6A,H6B,H6C), C7(H7A,
 H7B,H7C)
Comments: The trifluoroacetate anion was disordered due to the 
symmetry, for which "Part -1" was applied to suppress the 
symmetry according to the chemistry. The three fluorine 
atoms were also involved in disorder; however, they were 
not split but had strict restraints imposed using 
"ISOR 0.005 0.01" and "SADI 0.01" for clarity. The ADPs 
of O1 and O2 were constrained to be the same because their 
equivalent positions are very close to each other. The 
cyclohexane residue could be clearly assigned from the 
difference Fourier map; however, the high symmetry at 
that site caused its disorder over two positions. Their 
geometries were also affected by the high symmetry, so 
the distance restraints "DFIX" and ADP restraints 
"ISOR 0.01 0.02" were used.
;
_shelx_res_file
;
TITL A in I-42m
REM reset to I-42m
CELL 0.71073 17.2498 17.2498 21.101 90 90 90
ZERR 2 0.0003 0.0003 0.0016 0 0 0
LATT -2
SYMM +Y,-X,-Z
SYMM -X,-Y,+Z
SYMM -Y,+X,-Z
SYMM +X,-Y,-Z
SYMM -X,+Y,-Z
SYMM -Y,-X,+Z
SYMM +Y,+X,+Z
SFAC C H Ag F N O S
UNIT 196 280 24 24 16 16 16
EQIV $1 +X,2-Y,-Z
DFIX 1.54 C17_$1 C17 C15 C16 C17 C16 C15_$1 C15
SADI C4 C7 C4 C6
SADI O2 C8 C8 O1
SADI 0.01 F3 C9 F1 C9 F2 C9
ISOR 0.005 0.01 C7 C5 F1 F2 F3
ISOR 0.01 0.02 C6 C15 C16 C17
EADP O1 O2

L.S. 4
PLAN  20
SIZE 0.21 0.16 0.07
TEMP -172.8(5)
BOND
MORE -1
BOND $H
CONF
fmap 2
acta 50.5
OMIT 0 4 0
OMIT 0 0 4
REM <olex2.extras>
REM <HklSrc "%.\\Ag12bpy_cyclohexane.hkl">
REM </olex2.extras>

WGHT    0.054400    3.245400
FVAR       0.06114
AG1   3    0.500000    0.500000    0.195788    10.25000    0.01432    0.01432 =
         0.03637    0.00000    0.00000    0.00115
AG2   3    0.529734    0.660324    0.160164    11.00000    0.02366    0.01492 =
         0.05765    0.00093   -0.00006   -0.00215
AG3   3    0.500000    0.584823    0.000000    10.25000    0.02149    0.01704 =
         0.03757    0.00000   -0.00617    0.00000
S1    7    0.599557    0.400443    0.190641    10.50000    0.01855    0.01855 =
         0.03821    0.00350   -0.00350    0.00367
C1    1    0.625323    0.374677    0.274005    10.50000    0.03270    0.03270 =
         0.02891    0.00625   -0.00625    0.01117
C2    1    0.712279    0.390223    0.281426    11.00000    0.03667    0.06540 =
         0.05391   -0.00236   -0.01068    0.01547
AFIX 137
H2A   2    0.721992    0.446091    0.278588    11.00000   -1.50000
H2B   2    0.740712    0.363458    0.247692    11.00000   -1.50000
H2C   2    0.729766    0.371067    0.322747    11.00000   -1.50000
AFIX   0
C3    1    0.579271    0.420729    0.320253    10.50000    0.05762    0.05762 =
         0.04278    0.00593   -0.00593    0.02561
PART -1
AFIX 137
H3A   2    0.523964    0.410138    0.314104    10.50000   -1.50000
H3B   2    0.589223    0.476077    0.313651    10.50000   -1.50000
H3C   2    0.594298    0.406300    0.363461    10.50000   -1.50000
AFIX   0
PART 0
S2    7    0.602557    0.602557    0.069278    10.50000    0.03211    0.03211 =
         0.02837    0.00112    0.00112   -0.01474
C4    1    0.672761    0.672761    0.031394    10.50000    0.03366    0.03366 =
         0.02713   -0.00166   -0.00166   -0.01527
C5    1    0.714453    0.714453    0.083503    10.50000    0.04512    0.04512 =
         0.04354   -0.00031   -0.00031   -0.03300
PART -1
AFIX 137
H5A   2    0.677977    0.726277    0.117773    10.50000   -1.50000
H5B   2    0.736416    0.762802    0.066997    10.50000   -1.50000
H5C   2    0.756245    0.681560    0.099834    10.50000   -1.50000
AFIX   0
C6    1    0.735859    0.620626    0.002698    10.50000    0.03933    0.04336 =
         0.02868    0.01216    0.00399   -0.00969
AFIX 137
H6A   2    0.768443    0.599717    0.036688    10.50000   -1.50000
H6B   2    0.767909    0.651084   -0.026466    10.50000   -1.50000
H6C   2    0.711477    0.577818   -0.020433    10.50000   -1.50000
AFIX   0
C7    1    0.634143    0.718314   -0.020635    10.50000    0.03904    0.05401 =
         0.02409    0.01533   -0.00477   -0.01334
AFIX 137
H7A   2    0.612942    0.682540   -0.052279    10.50000   -1.50000
H7B   2    0.672263    0.752472   -0.040787    10.50000   -1.50000
H7C   2    0.592084    0.749582   -0.002706    10.50000   -1.50000
AFIX   0
O1    6    0.606560    0.691142    0.248557    10.50000    0.08212    0.04268 =
         0.05699   -0.01349   -0.03215    0.02235
O2    6    0.692347    0.596447    0.265296    10.50000    0.08212    0.04268 =
         0.05699   -0.01349   -0.03215    0.02235
PART 0
C8    1    0.656290    0.656290    0.278335    10.50000    0.02200    0.02200 =
         0.05278    0.00043    0.00043   -0.00437
C9    1    0.686622    0.686622    0.342446    10.50000    0.04756    0.04756 =
         0.05179    0.00844    0.00844   -0.00867
PART -1
F1    4    0.753458    0.658567    0.360455    10.50000    0.04616    0.06765 =
         0.07131   -0.00789   -0.03320    0.00519
F2    4    0.639289    0.667789    0.387757    10.50000    0.07556    0.13616 =
         0.06372    0.00088    0.02442    0.01350
F3    4    0.699941    0.760475    0.340099    10.50000    0.14875    0.07333 =
         0.10501   -0.00593   -0.01523   -0.02234
PART 0
N1    5    0.517660    0.795274    0.164109    11.00000    0.03369    0.02110 =
         0.04692   -0.00358    0.00522   -0.00288
C10   1    0.575961    0.841287    0.183445    11.00000    0.02433    0.02047 =
         0.05170   -0.00315   -0.00371   -0.00366
AFIX  43
H10   2    0.622468    0.817333    0.197517    11.00000   -1.20000
AFIX   0
C11   1    0.572358    0.920607    0.184082    11.00000    0.01827    0.02160 =
         0.05438    0.00069   -0.00057   -0.00641
AFIX  43
H11   2    0.615942    0.950456    0.196812    11.00000   -1.20000
AFIX   0
C12   1    0.503445    0.956930    0.165679    11.00000    0.02898    0.01923 =
         0.04094    0.00063    0.00413   -0.00086
C13   1    0.441286    0.909214    0.147914    11.00000    0.02822    0.01805 =
         0.04874   -0.00093   -0.00116   -0.00101
AFIX  43
H13   2    0.392927    0.931386    0.136271    11.00000   -1.20000
AFIX   0
C14   1    0.450788    0.831153    0.147495    11.00000    0.03046    0.01867 =
         0.04661   -0.01113   -0.00686   -0.00031
AFIX  43
H14   2    0.408176    0.799882    0.134845    11.00000   -1.20000
AFIX   0

C15   1    0.644860    0.960289    0.014379    10.75000    0.11494    0.10028 =
         0.06612   -0.01141    0.00475   -0.02526
AFIX  23
H15A  2    0.596287    0.952249    0.038489    10.75000   -1.20000
H15B  2    0.647299    0.920780   -0.019593    10.75000   -1.20000
AFIX   0
C16   1    0.712490    0.951242    0.057349    10.75000    0.11848    0.08317 =
         0.08566    0.01177   -0.00204    0.02883
AFIX  23
H16A  2    0.712534    0.898958    0.076697    10.75000   -1.20000
H16B  2    0.710525    0.990327    0.091667    10.75000   -1.20000
AFIX   0
C17   1    0.783139    0.962443    0.017997    10.75000    0.12652    0.15997 =
         0.12152   -0.02424   -0.02520    0.03028
AFIX  23
H17A  2    0.787348    0.919010   -0.012477    10.75000   -1.20000
H17B  2    0.829315    0.960817    0.045827    10.75000   -1.20000
AFIX   0
HKLF 4

REM  A in I-42m
REM R1 =  0.0514 for    2851 Fo > 4sig(Fo)  and  0.0723 for all    3586 data
REM    219 parameters refined using     63 restraints

END

WGHT      0.0544      3.2421

REM Highest difference peak  2.550,  deepest hole -0.695,  1-sigma level  0.140
Q1    1   0.5000  0.5000  0.2388  10.25000  0.05    2.55
Q2    1   0.5299  0.6585  0.2058  11.00000  0.05    1.75
Q3    1   0.5000  0.5000  0.1456  10.25000  0.05    1.41
Q4    1   0.5303  0.6610  0.1101  11.00000  0.05    1.16
Q5    1   0.8161  1.0000  0.0000  10.50000  0.05    1.10
Q6    1   0.7468  0.7468  0.3298  10.50000  0.05    0.77
Q7    1   0.5023  0.5823  0.0443  11.00000  0.05    0.66
Q8    1   0.7699  0.9226  0.0173  11.00000  0.05    0.65
Q9    1   0.6575  0.6575  0.2287  10.50000  0.05    0.63
Q10   1   0.4889  0.6557  0.1565  11.00000  0.05    0.60
Q11   1   0.6078  0.3922  0.1412  10.50000  0.05    0.60
Q12   1   0.6595  0.6595  0.0816  10.50000  0.05    0.59
Q13   1   0.5264  0.6824  0.1584  11.00000  0.05    0.58
Q14   1   0.6086  0.3914  0.2308  10.50000  0.05    0.58
Q15   1   0.6341  0.6341  0.3921  10.50000  0.05    0.57
Q16   1   0.6211  0.3789  0.1500  10.50000  0.05    0.53
Q17   1   0.7617  0.6757  0.3491  11.00000  0.05    0.51
Q18   1   0.5634  0.6647  0.1601  11.00000  0.05    0.51
Q19   1   0.6804  0.9410  0.0569  11.00000  0.05    0.50
Q20   1   0.7068  1.0000  0.0000  10.50000  0.05    0.48
;
_shelx_res_checksum              67825
_shelx_hkl_file
;
   0   0   4  101.58    3.94
   0   0   6 5784.18  140.84
   0   0   8  145.86    6.48
   0   0  10  148.61    6.90
   0   0  12  935.38   27.54
   0   0  14   62.66    5.09
   0   0  16   11.54    2.95
   0   0  18   68.82    6.13
   0   0  20   50.86    5.46
   0   0  22   39.88    5.36
   0   0  24   -1.61    2.62
   0   0  26   58.83    6.95
   0  -1   3  961.19   24.69
  -1   0   3  967.64   24.33
   0   1   5  650.16   17.38
  -1   0   5  645.89   17.60
   0  -1   5  660.52   18.16
   1   0  -7  343.11   10.92
  -1   0   7  327.98   10.77
   0   1   7  335.67   10.65
   0  -1   7  337.95   11.26
   0  -1   9  444.06   14.59
   0   1   9  460.36   14.14
  -1   0   9  428.78   14.14
   1   0  11  269.13   10.61
  -1   0  11  267.02   10.34
   0   1  11  284.20   10.48
   0  -1  11  261.81   10.73
   1   0  13  137.90    7.61
  -1   0  13  146.58    7.50
   0   1  13  135.22    7.14
   0  -1  13  149.23    7.93
   1   0  15   13.88    3.14
  -1   0  15    9.31    2.79
   0   1  15   11.75    2.71
   0  -1  15   14.70    3.25
   0  -1  17   -4.95    2.91
  -1   0  17    0.14    2.49
   0   1  17    0.94    2.33
   1   0  17    0.21    2.65
   0  -1  19   65.00    6.10
  -1   0  19   65.49    6.04
   1   0  19   64.00    6.10
   0   1  19   55.47    5.51
   0   1  21    0.04    2.39
  -1   0  21    4.80    3.08
   1   0  21    1.68    2.72
   0  -1  21    0.47    2.65
   0  -1  23   24.30    4.59
   0   1  23   23.80    4.53
  -1   0  23   20.33    4.34
   1   0  23   22.56    4.56
   0  -1  25   53.11    6.47
   0   1  25   62.26    6.91
  -1   0  25   50.20    6.53
   1   0  25   54.05    6.73
  -1   0  27    1.98    2.98
   1   0  27   -0.14    2.95
   0  -1  27    2.47    3.38
   1  -1  28   -0.07    3.25
   1  -1  26   39.81    6.00
   1  -1  24   -0.97    2.91
  -1   1  24    1.59    2.78
  -1   1  22   17.19    3.99
   1  -1  22   14.25    3.90
   1  -1  20   22.76    4.32
  -1   1  20   33.75    4.55
   1  -1  18    7.80    3.36
  -1   1  18   10.07    3.01
  -1   1  16   10.25    2.82
   1  -1  16    9.04    3.09
   1  -1  14   41.55    4.46
  -1   1  14   37.10    3.81
   1  -1  12   77.54    5.52
  -1   1  12   74.57    4.89
  -1   1  10   75.65    4.60
   1  -1  10   82.34    5.29
  -1   1   8   32.72    2.65
   1   1  -8   37.68    3.17
  -1   1   6  325.18    9.85
  -1   1   4   76.38    3.01
   1  -1  -4   76.94    3.10
  -1  -1   4   84.21    3.69
  -1  -1   6  298.58    9.81
   1  -1  -6  300.72    9.33
  -1  -1   8   35.63    3.19
  -1  -1  10   76.82    4.92
   1   1  12   70.62    5.03
  -1  -1  12   74.40    5.23
  -1  -1  14   32.36    3.91
   1   1  14   35.07    3.94
  -1  -1  16    4.39    2.71
   1   1  16   11.79    2.78
   1   1  18    5.37    2.79
  -1  -1  18    5.39    2.96
   1   1  20   26.37    4.22
  -1  -1  20   31.64    4.79
  -1  -1  22    9.78    3.64
   1   1  22   14.82    3.65
   1   1  24    3.38    3.12
  -1  -1  24    5.23    3.23
  -1  -1  26   27.51    5.27
   1   1  26   41.67    5.88
  -1  -1  28   -1.12    3.54
   0  -2  -2   94.38    2.96
   2   0   2   94.05    3.15
   0  -2   2  105.50    3.75
  -2   0  -2   94.40    3.22
   2   0   4   -0.66    1.06
  -2   0   4    2.15    1.19
   0  -2   4    3.42    1.64
   0  -2   6  794.36   22.28
   2   0  -6  812.64   21.70
  -2   0   6  781.54   21.53
   2   0  -8  137.39    6.02
   0  -2   8  144.10    6.60
   0   2   8  133.37    5.57
  -2   0   8  115.78    5.72
   0   2  10   67.26    4.19
   0  -2  10   62.85    4.72
  -2   0  10   69.86    4.55
   0   2  12   54.85    4.13
  -2   0  12   52.22    4.29
   0  -2  12   55.69    4.74
   0  -2  14    7.14    3.06
   2   0  14   13.25    3.45
  -2   0  14    8.23    2.81
   0   2  14    8.95    2.57
   0  -2  16   28.69    4.41
   0   2  16   39.07    4.17
  -2   0  16   37.56    4.40
   2   0  16   34.37    4.43
   0  -2  18   -0.90    2.75
  -2   0  18    0.38    2.45
   2   0  18   -2.19    2.94
   0   2  18    0.10    2.15
  -2   0  20   27.48    4.33
   2   0  20   35.54    4.92
   0   2  20   31.65    4.44
   0  -2  20   21.36    4.17
  -2   0  22   -1.71    2.71
   0  -2  22   -0.39    2.67
   0   2  22    1.19    2.63
   2   0  22    2.20    3.05
   2   0  24   -1.16    2.65
   0   2  24    4.42    3.25
  -2   0  24    0.38    2.59
   0  -2  24    1.14    3.16
   0  -2  26   17.15    4.65
   2   0  26   15.99    4.41
  -2   0  26   15.76    4.42
   0  -2  28    3.32    3.75
   1  -2  27    9.68    4.09
   2  -1  27   -3.14    3.28
  -2   1  25    3.91    3.07
   2  -1  25    9.95    3.85
   1  -2  25    5.36    3.93
   2  -1  23   18.55    4.19
  -2   1  23   12.37    3.59
  -1   2  23   22.45    4.07
   1  -2  23   17.88    4.36
  -1   2  21   26.71    4.32
   2  -1  21   28.73    4.79
   1  -2  21   30.01    4.87
  -2   1  21   24.67    4.32
   1  -2  19    4.03    3.14
   2  -1  19   11.42    3.65
  -2   1  19    5.36    2.81
  -1   2  19    2.42    2.41
  -1   2  17   12.88    3.06
  -2   1  17   12.92    3.38
   1  -2  17   16.56    3.82
   2  -1  17   10.09    3.36
   1  -2  15   88.09    6.75
  -1   2  15   88.01    5.83
  -2   1  15   87.79    6.05
   2  -1  15   91.64    6.94
   2  -1  13    4.14    2.48
  -2   1  13   12.62    2.59
  -1   2  13   12.41    2.58
   1  -2  13    9.97    2.83
  -1   2  11  143.94    6.54
  -2   1  11  142.34    6.78
   1  -2  11  149.14    7.69
   2   1  -9   94.85    5.34
  -1   2   9  103.27    4.90
  -2   1   9  101.34    5.10
   1  -2   9  108.07    6.01
   2   1  -7   30.23    2.75
   1  -2   7   35.39    3.38
  -1   2   7   32.96    2.35
  -2   1   7   31.45    2.51
  -1   2   5  286.39    8.12
  -2   1   5  279.76    8.61
  -1  -2   3   88.20    3.82
  -2   1  -3   82.76    2.72
   1  -2  -3   87.04    3.25
   2  -1  -5  290.34    8.70
  -1  -2   5  275.09    9.51
  -2  -1   5  294.14    9.34
  -1  -2   7   29.66    3.01
  -2  -1   7   28.27    2.84
   2  -1  -7   31.33    2.48
  -1  -2   9  103.46    5.74
   2  -1  -9  101.92    5.14
  -2  -1   9   94.41    5.40
   1   2  11  158.70    7.15
  -2  -1  11  145.65    7.41
  -1  -2  11  158.64    7.77
   1   2  13    5.93    2.12
  -2  -1  13    6.33    2.32
  -1  -2  13    6.92    2.64
   2   1  15   76.72    5.93
  -2  -1  15   80.21    6.12
  -1  -2  15   69.05    6.06
   1   2  15   82.67    5.90
   2   1  17   14.85    3.72
   1   2  17   10.47    2.97
  -1  -2  17   10.07    3.27
  -2  -1  17   16.35    3.66
  -2  -1  19    0.89    2.50
  -1  -2  19    5.62    3.04
   2   1  19    6.42    2.98
   1   2  19    2.90    2.75
   2   1  21   21.50    4.15
  -1  -2  21   22.11    4.60
   1   2  21   19.49    4.05
  -2  -1  21   19.34    4.20
  -2  -1  23   16.98    4.34
   2   1  23   18.24    4.11
  -1  -2  23   15.89    4.19
   1   2  23   12.11    3.45
  -1  -2  25   10.89    4.10
   2   1  25    6.88    3.32
   1   2  25    9.10    3.40
  -2  -1  25    4.24    3.44
  -2  -1  27    8.46    3.94
  -1  -2  27    0.87    3.04
   2  -2  28   -4.06    3.69
   2  -2  26    7.88    3.81
   2  -2  24   11.62    3.94
  -2   2  24    3.21    2.89
  -2   2  22   12.42    3.51
   2  -2  22   18.97    4.39
  -2   2  20   30.03    4.28
   2  -2  20   13.57    3.39
  -2   2  18   54.85    5.18
   2  -2  18   45.44    5.52
  -2   2  16   95.45    6.47
   2  -2  16  107.09    7.60
  -2   2  14   74.98    5.26
   2  -2  14   73.21    6.05
  -2   2  12  269.11   10.24
   2  -2  12  271.89   11.58
  -2   2  10  331.67   11.11
  -2   2   8  139.53    5.61
  -2   2   6   80.37    3.52
  -2  -2  -2  148.15    5.23
   2  -2   0    1.57    1.00
   2  -2  -2  123.21    4.47
  -2  -2   4   65.57    3.62
   2  -2  -4   52.78    2.34
  -2  -2   6   77.06    4.48
   2  -2  -6   81.82    3.54
  -2  -2   8  141.00    6.71
   2  -2  -8  145.99    5.83
  -2  -2  10  329.42   12.15
  -2  -2  12  244.71   10.55
  -2  -2  14   75.45    5.97
   2   2  14   78.06    5.63
   2   2  16  100.37    6.77
  -2  -2  16  100.51    7.16
  -2  -2  18   55.95    5.88
   2   2  18   58.15    5.50
  -2  -2  20   19.82    4.08
   2   2  20   30.50    4.55
   2   2  22   23.15    4.18
  -2  -2  22   20.14    4.48
  -2  -2  24    5.49    3.33
   2   2  24    6.47    3.08
  -2  -2  26    1.81    3.23
  -2  -2  28    5.02    3.48
   3   0   1   17.14    1.35
   0  -3   1   18.32    1.50
  -3   0  -3 1060.71   26.95
   0  -3  -3 1044.64   26.49
   0   3   3 1042.06   26.48
  -3   0  -3 1091.78   26.84
   0  -3   3 1025.25   27.86
   3   0   3 1117.03   26.85
  -3   0  -5  204.13    6.51
   0  -3   5  194.74    7.61
   3   0   5  202.91    6.60
   3   0  -5  203.24    7.03
  -3   0   7    6.78    1.98
   3   0  -7    4.35    1.53
   0  -3   7    3.33    2.06
   3   0   7    1.79    1.27
   3   0  -9   38.61    3.24
   0   3   9   35.69    2.74
  -3   0   9   35.17    3.20
   0  -3   9   31.54    3.70
   0  -3  11    2.60    2.46
  -3   0  11    1.91    1.84
   0   3  11    4.63    1.78
  -3   0  13    4.58    2.48
   0  -3  13    2.40    2.50
   0   3  13    3.97    1.90
   0  -3  15   13.87    3.48
   0   3  15   11.82    2.62
  -3   0  15    9.35    2.99
   0  -3  17    5.25    3.23
   0   3  17   -0.55    2.00
   3   0  17    2.41    2.86
  -3   0  17   -2.87    2.40
  -3   0  19   12.61    3.39
   0  -3  19    6.54    3.35
   0   3  19    8.06    2.94
   3   0  19    5.27    3.10
   0  -3  21   22.63    4.58
   0   3  21   21.98    3.94
  -3   0  21   18.16    4.07
   3   0  21   30.67    4.98
   3   0  23    2.10    3.46
  -3   0  23    1.46    2.62
   0  -3  23    5.72    3.24
   0   3  23    0.19    2.56
   0  -3  25    7.62    3.91
  -3   0  25    5.75    3.35
   3   0  25   13.08    4.06
   0  -3  27    0.03    3.37
   3   0  27    6.54    3.58
   3  -1  28    0.32    3.31
   3  -1  26   -1.16    2.98
   1  -3  26   -4.44    3.47
   3  -1  24    3.88    3.01
   1  -3  24    2.09    3.05
  -3   1  24   -2.25    2.84
  -1   3  22    8.55    2.89
  -3   1  22    8.33    3.01
   1  -3  22   10.56    3.91
   3  -1  22   11.77    4.01
  -1   3  20   40.03    4.70
   3  -1  20   30.25    4.93
   1  -3  20   28.45    4.77
  -3   1  20   30.66    4.46
   3  -1  18   26.77    4.66
  -3   1  18   22.27    3.71
  -1   3  18   23.57    3.51
   1  -3  18   29.24    4.69
  -1   3  16   83.62    5.63
   3  -1  16   77.38    6.45
  -3   1  16   74.07    5.90
   1  -3  16   80.37    6.70
  -3   1  14   25.81    3.65
   1  -3  14   23.10    3.99
  -1   3  14   27.15    3.15
  -1   3  12   53.54    3.92
   1  -3  12   59.70    5.13
  -3   1  12   57.53    4.25
  -1   3  10  253.86    8.88
   1  -3  10  246.29   10.70
  -3   1  10  260.01    9.57
   1  -3   8  117.03    6.21
   3   1  -8  104.82    5.40
   3  -1   8  102.58    4.25
  -3   1   8  111.82    5.11
  -1   3   8  105.85    4.43
   3  -1   6   14.10    1.47
   1  -3   6   13.46    2.43
  -1   3   6   15.43    1.35
  -3  -1  -4  131.43    4.10
   1  -3   4  125.70    5.51
  -3  -1  -4  120.01    4.91
  -3  -1  -2  231.57    7.26
   3  -1   2  221.07    7.16
  -3  -1  -2  240.24    6.58
  -1  -3   0  133.63    4.64
   3  -1   0  122.29    4.54
   1  -3   0  130.03    4.54
   1   3   2  234.46    6.28
  -1  -3   2  247.70    7.52
   3   1   2  235.92    6.56
   1  -3  -2  216.08    6.96
   3   1   4  136.36    5.15
  -3   1  -4  131.12    4.96
  -1  -3   4  137.73    5.68
  -3   1  -4  123.63    4.25
   1  -3  -4  133.76    4.73
  -1  -3   6   15.37    2.44
   3   1   6   12.81    1.87
  -3  -1   6   13.86    2.17
   3  -1  -6   12.36    1.69
  -1  -3   8  118.11    6.14
   3  -1  -8  109.78    5.11
  -3  -1   8  107.13    5.61
  -1  -3  10  247.52   10.48
   3  -1 -10  270.51    9.88
  -3  -1  10  256.05   10.16
  -1  -3  12   58.42    5.21
   1   3  12   57.63    4.20
  -3  -1  12   57.03    4.78
   1   3  14   28.63    3.52
  -1  -3  14   27.57    4.03
  -3  -1  14   27.99    3.85
   1   3  16   76.41    5.63
   3   1  16   80.65    6.46
  -3  -1  16   85.68    6.59
  -1  -3  16   70.04    6.25
  -1  -3  18   27.71    4.59
   1   3  18   24.74    3.76
  -3  -1  18   39.29    4.71
   3   1  18   36.90    4.79
  -1  -3  20   34.37    5.02
  -3  -1  20   36.41    4.97
   3   1  20   35.53    4.98
   1   3  20   30.92    4.50
   3   1  22   12.60    3.84
  -3  -1  22   13.89    3.90
  -1  -3  22    6.96    3.57
   1   3  22   14.10    3.36
  -1  -3  24    1.96    3.05
  -3  -1  24    4.17    3.41
   3   1  24   -0.02    2.56
  -3  -1  26    3.49    3.43
   3   1  26    5.34    3.32
  -1  -3  26    6.15    3.75
   2  -3  27   -1.56    3.22
   3  -2  27    1.95    3.26
   2  -3  25    4.12    3.76
   3  -2  25    2.88    3.21
  -2   3  23    7.26    2.89
   2  -3  23    9.95    3.95
   3  -2  23    6.64    3.33
  -3   2  23    7.49    3.00
  -2   3  21   52.99    5.53
   2  -3  21   52.93    6.33
   3  -2  21   60.00    6.60
  -3   2  21   60.57    5.85
  -3   2  19   60.41    5.56
   3  -2  19   56.77    6.28
   2  -3  19   62.86    6.47
  -2   3  19   60.48    5.45
   2  -3  17   17.88    4.13
  -2   3  17   12.58    2.97
  -3   2  17   14.68    3.03
   3  -2  17   12.93    3.58
   3  -2  15  204.86   10.51
   2  -3  15  185.00   10.27
  -2   3  15  189.17    8.75
  -3   2  15  182.61    9.04
  -2   3  13  216.92    8.99
   2  -3  13  217.57   10.63
  -3   2  13  221.93    9.20
  -3   2  11  120.64    6.09
  -2   3  11  129.54    5.85
   2  -3  11  128.35    7.33
   3  -2   9  396.81   11.23
  -3   2   9  393.94   12.44
  -2   3   9  399.97   12.07
   3  -2   7  328.93    9.18
  -2   3   7  334.59    9.72
  -3  -2  -5   43.18    1.70
  -3  -2  -3  811.69   21.72
  -2  -3  -1   35.03    2.48
   2  -3   1   32.03    2.35
   3  -2   1   35.59    2.44
  -3  -2  -1   33.17    2.53
   3  -2  -1   29.85    2.28
   2  -3  -1   27.43    2.19
  -2  -3   3  799.39   20.65
   2  -3  -3  746.60   20.07
   3  -2  -3  722.99   20.25
   3   2   5   39.83    2.93
   2  -3  -5   41.19    1.96
   3  -2  -5   39.36    2.33
  -2  -3   5   43.87    3.36
   2  -3  -5   37.82    2.68
   3  -2  -7  324.33   10.22
  -2  -3   7  342.76   11.70
   2  -3  -7  335.25    9.86
  -3  -2   7  325.19   11.36
   3  -2  -9  424.80   13.01
  -2  -3   9  408.79   14.14
  -3  -2   9  387.73   13.92
  -2  -3  11  128.47    7.26
   3  -2 -11  135.99    6.35
  -3  -2  11  118.57    6.88
  -2  -3  13  214.26   10.16
  -3  -2  13  198.26    9.69
  -2  -3  15  185.00   10.01
   2   3  15  184.74    9.01
  -3  -2  15  190.24    9.85
  -3  -2  17   13.89    3.45
  -2  -3  17   10.21    3.42
   3   2  17   12.79    3.21
   2   3  17    9.95    2.92
   2   3  19   65.18    5.88
  -3  -2  19   66.36    6.53
  -2  -3  19   71.41    6.66
   3   2  19   65.84    6.32
  -3  -2  21   52.46    6.27
   2   3  21   57.48    5.94
  -2  -3  21   51.13    6.05
   3   2  21   46.66    5.82
   2   3  23   11.82    3.58
  -2  -3  23   14.00    4.31
  -3  -2  23   13.54    4.12
   3   2  23    9.61    3.53
  -2  -3  25    4.37    3.32
  -3  -2  25   -2.37    3.02
   3   2  25    1.48    2.64
  -2  -3  27    0.00    3.09
  -3  -2  27    3.95    3.20
   3  -3  26    4.05    3.29
   3  -3  24   20.48    4.60
  -3   3  22   27.81    4.37
   3  -3  22   19.14    4.25
  -3   3  20   -1.77    2.13
   3  -3  20    6.71    3.22
  -3   3  18   97.04    6.60
   3  -3  18  103.48    8.18
  -3   3  16  143.50    7.73
   3  -3  16  143.48    9.20
  -3   3  14    3.39    1.94
   3  -3  14    0.00    2.91
  -3   3  12  343.09   11.84
  -3   3  10  476.42   14.05
   3  -3  10  448.73   12.42
   3  -3   8    4.54    0.74
  -3  -3  -2   24.82    2.55
   3  -3   2   23.53    2.38
   3  -3   0    6.19    1.86
  -3  -3   0    6.57    2.03
   3  -3  -2   20.46    2.18
   3  -3  -4  522.24   15.10
   3   3   6  602.12   17.35
   3  -3  -6  586.99   15.83
  -3  -3   6  579.80   17.69
   3  -3  -8    3.07    1.14
  -3  -3   8    4.78    2.20
   3  -3 -10  499.06   15.12
  -3  -3  10  490.45   16.78
  -3  -3  12  372.91   14.23
  -3  -3  14    5.24    2.89
  -3  -3  16  144.16    8.73
   3   3  18  118.47    7.72
  -3  -3  18   96.73    7.79
  -3  -3  20   -0.39    2.54
   3   3  20    6.36    3.06
  -3  -3  22   23.72    4.59
   3   3  22   23.67    4.41
  -3  -3  24   18.94    4.62
   3   3  24   13.28    3.90
  -3  -3  26    2.75    3.49
   0   4   0    5.85    1.16
   4   0   0    3.60    1.36
   0  -4   0    3.84    1.12
  -4   0  -2    5.10    1.36
   0  -4  -2    7.01    1.30
   0  -4   2    7.89    1.82
   0   4  -2    5.88    1.33
   0   4   2    6.22    1.20
   4   0   2    7.72    1.53
   4   0   4    6.33    1.28
   0  -4   4    5.98    1.91
   0  -4   4    8.61    1.22
   0  -4  -4    9.00    1.24
  -4   0  -4    7.61    1.51
   0   4   4    6.33    1.10
  -4   0  -4    8.05    1.37
   4   0  -6  209.75    7.62
   0  -4  -6  206.65    6.60
  -4   0  -6  216.27    6.97
   4   0   6  209.60    7.20
   0  -4   6  206.42    8.37
   0  -4   8    6.16    2.75
   4   0  -8    3.98    1.69
   0   4   8    2.82    1.19
   4   0   8    5.28    1.72
   0   4  10    6.69    1.57
   4   0  10    4.65    1.56
   0  -4  10    6.59    2.72
   4   0  12    3.82    1.63
   0  -4  12    5.10    2.93
  -4   0  12    5.81    2.25
   0   4  12    8.34    2.02
   0  -4  14   10.48    3.53
  -4   0  14    6.64    2.71
   0   4  14    5.13    2.04
   0  -4  16   -0.89    2.82
   0   4  16    6.26    2.21
  -4   0  16    3.27    2.60
   0  -4  18    0.90    3.00
   4   0  18    2.10    2.61
  -4   0  18    0.46    2.60
   0   4  18    1.30    1.88
   0  -4  20   23.07    4.54
   4   0  20   24.81    4.52
   0   4  20   28.57    4.00
  -4   0  20   20.41    4.25
   0   4  22    2.96    2.22
  -4   0  22    0.84    2.62
   0  -4  22   -2.11    2.94
   4   0  22   -2.28    2.79
   0  -4  24   15.85    4.50
   4   0  24    7.50    3.42
  -4   0  24    6.62    3.29
   0  -4  26    2.75    3.70
   4   0  26    2.37    3.02
   4   0  28   12.68    4.52
   1  -4  27    0.39    3.40
   4  -1  27    4.67    3.72
   4  -1  25   -0.88    2.94
   1  -4  25    1.97    3.22
   1  -4  23    2.10    3.11
  -4   1  23    6.22    2.88
   4  -1  23    5.88    3.01
  -1   4  21   12.64    3.15
   4  -1  21   11.17    3.88
   1  -4  21    6.67    3.60
  -4   1  21    9.13    3.13
  -4   1  19    7.59    2.93
   1  -4  19    7.48    3.44
   4  -1  19    1.19    2.74
  -1   4  19    3.55    2.38
  -4   1  17    6.23    2.79
   1  -4  17    5.84    3.14
   4  -1  17    2.29    2.63
  -1   4  17    6.08    2.10
   1  -4  15    4.89    2.97
  -1   4  15    8.32    2.29
  -4   1  15    9.84    2.78
   4  -1  13   38.97    3.15
  -4   1  13   42.29    4.10
  -1   4  13   43.45    3.54
   1  -4  13   42.89    4.90
  -1   4  11   52.68    3.38
   4  -1  11   47.06    3.16
   1  -4  11   55.19    4.98
   4  -1   9  153.32    5.82
  -1   4   9  149.43    5.63
   1  -4   9  146.73    7.72
   1  -4   7   41.85    3.91
   4  -1   7   38.14    2.48
  -1  -4  -7   35.94    1.94
   4   1  -7   35.19    3.04
  -1   4   7   36.29    1.98
  -4  -1  -7   33.21    2.16
   1  -4   5  105.71    5.53
  -1  -4  -5  106.47    3.56
  -4  -1  -5  116.17    3.98
  -4  -1  -5  106.96    4.73
  -4  -1  -3   35.57    2.78
  -1   4   3   37.96    2.35
   4  -1   3   39.30    2.57
   1  -4   3   33.43    2.89
  -4  -1  -3   39.53    2.13
   1  -4   1   16.73    1.93
   4  -1   1   16.56    2.08
   4   1   1   14.57    1.63
  -1  -4   1   14.89    1.98
   1  -4  -1   14.47    1.74
   4  -1  -1   10.28    2.00
   1  -4  -1   15.84    1.27
  -1  -4   1   13.88    1.84
   4   1   3   39.60    2.13
   1  -4  -3   35.49    2.34
  -1   4  -3   34.37    1.72
  -4   1  -3   35.97    2.46
  -1  -4   3   40.38    3.10
  -1  -4   3   38.02    2.38
   1   4   3   37.74    1.81
   4   1   5  121.07    5.09
  -4   1  -5  111.26    4.69
  -1  -4   5  120.73    5.66
  -4   1  -5  104.50    4.12
   1  -4  -5  107.55    4.39
  -4   1  -7   33.34    2.73
   4  -1  -7   36.82    2.84
   4   1   7   43.16    3.13
  -1  -4   7   33.28    3.51
   1  -4  -7   37.71    2.64
  -1  -4   9  150.47    7.63
   4  -1  -9  150.86    6.68
   4   1   9  157.48    6.55
   4   1  11   46.39    3.55
  -1  -4  11   54.34    4.71
  -4  -1  11   46.45    4.12
  -4  -1  13   45.87    4.49
   1   4  13   47.56    3.91
  -1  -4  13   39.31    4.60
  -1  -4  15    5.13    3.03
  -4  -1  15    6.58    2.76
   1   4  17    5.53    2.50
  -4  -1  17    7.31    2.99
  -1  -4  17    4.43    3.02
   4   1  19    0.04    2.62
  -4  -1  19    1.76    2.68
  -1  -4  19    2.27    2.98
   1   4  19    5.19    2.32
   4   1  21   19.84    4.31
   1   4  21   10.36    3.06
  -1  -4  21   13.29    3.94
  -4  -1  21   11.55    3.50
  -1  -4  23    4.30    3.45
  -4  -1  23    2.33    3.01
   4   1  23   10.27    3.70
  -1  -4  25   -0.15    3.37
   4   1  25   -0.40    3.06
  -4  -1  25   -1.49    3.33
  -1  -4  27   10.28    4.10
   4   1  27    2.39    2.97
   4  -2  26   -3.38    3.45
   2  -4  26   -0.31    3.27
   4  -2  24    2.80    3.20
   2  -4  24   -2.98    3.56
   2  -4  22    7.20    3.67
   4  -2  22    3.71    3.49
  -2   4  20   16.98    3.31
  -4   2  20   13.01    3.25
   4  -2  20    9.27    3.38
   2  -4  20   18.56    4.50
  -4   2  18   36.37    4.34
   4  -2  18   31.46    4.93
  -2   4  18   31.34    3.83
   2  -4  18   28.95    4.83
  -2   4  16   51.75    4.43
  -4   2  16   47.51    4.56
   4  -2  16   43.62    5.45
   2  -4  16   49.23    5.88
   4  -2  14   19.35    2.32
  -4   2  14   18.92    2.94
   2  -4  14   26.70    4.28
  -2   4  14   21.89    2.84
  -2   4  12  212.15    8.18
   4  -2  12  213.38    7.58
   2  -4  12  227.79   10.74
   4  -2  10  223.23    7.30
  -2   4  10  215.93    7.61
   2  -4  10  213.62    9.91
   2  -4   8   24.53    3.41
  -2   4   8   24.00    1.86
  -4  -2  -8   24.37    1.68
  -4  -2  -6  243.99    6.93
  -2   4   4  343.08   10.54
  -4  -2  -4  351.23    9.36
  -4  -2  -4  350.02   11.12
  -4  -2  -2   98.73    4.64
   4  -2   2   86.24    4.23
   2  -4   0   64.28    3.62
   4  -2   0   70.01    3.70
  -2  -4   0   69.19    3.65
   2  -4  -2   88.72    4.15
  -2  -4   2   87.52    4.12
   4   2   2   98.20    3.46
   4  -2  -2   90.47    4.43
   4   2   4  346.41    9.19
  -4   2  -4  348.17   10.70
  -2  -4   4  335.49   11.37
   2  -4  -4  325.23   10.37
  -2  -4   6  235.06    9.19
   2  -4  -6  229.30    8.03
  -4   2  -6  231.41    8.34
   4  -2  -6  230.41    7.75
   4   2   6  246.50    8.61
   4  -2  -8   26.43    2.43
  -2  -4   8   27.59    3.55
   4   2   8   31.41    2.98
   4  -2 -10  232.62    8.79
  -2  -4  10  233.48   10.14
  -4  -2  10  223.86    9.61
  -4  -2  12  201.83    9.53
  -2  -4  12  205.01    9.98
  -2  -4  14   21.28    3.83
  -4  -2  14   21.71    3.75
   2   4  16   50.78    4.73
  -2  -4  16   46.48    5.48
  -4  -2  16   57.63    5.60
  -2  -4  18   28.76    5.02
   4   2  18   28.09    4.27
   2   4  18   34.75    4.18
  -4  -2  18   24.96    4.19
   2   4  20   10.15    2.87
   4   2  20   11.24    3.36
  -2  -4  20    9.74    3.32
  -2  -4  22    8.84    3.77
   4   2  22    6.83    3.27
  -4  -2  22    5.95    3.24
   2   4  22    2.03    2.18
  -4  -2  24   -3.91    3.10
  -2  -4  24    1.80    3.15
   4   2  24    0.80    2.76
  -4  -2  26   -2.79    3.05
   4   2  26    0.99    3.10
  -2  -4  26    0.31    3.49
   4  -3  25    3.49    3.38
   3  -4  25   -2.29    3.25
   4  -3  23    4.65    3.54
   3  -4  23    5.79    3.25
   3  -4  21   23.62    5.06
  -3   4  21   15.62    3.39
   4  -3  21   16.88    4.52
   4  -3  19   64.38    6.89
   3  -4  19   75.87    7.21
  -3   4  19   66.84    5.44
   4  -3  17    6.86    3.39
  -3   4  17    5.88    2.35
   3  -4  17   10.51    3.82
   4  -3  15  129.76    5.64
  -3   4  15  142.30    7.09
   3  -4  15  143.86    9.06
   4  -3  15  135.02    8.88
  -3   4  13  264.91    9.71
   3  -4  13  239.54    7.74
   3  -4  13  293.09   12.54
   4  -3  13  262.40    8.37
   4  -3  11    8.11    1.29
   3  -4  11    6.93    0.94
  -4  -3  -9   60.01    2.54
  -4  -3  -7  255.01    6.89
  -4  -3  -3  191.52    7.23
   4  -3   3  181.65    7.08
  -3  -4  -1  203.61    7.30
  -4  -3  -1  213.01    7.38
   4  -3   1  184.22    7.17
   3  -4   1  181.47    7.04
  -3  -4   1  190.08    6.85
   4  -3  -1  192.62    7.04
   3  -4  -1  174.46    6.76
   4  -3  -3  159.43    6.68
   3  -4  -3  160.43    6.40
   4   3   3  173.92    4.97
  -4   3  -5   57.53    3.54
   3  -4  -5   55.92    3.46
   4  -3  -5   53.93    3.62
   3  -4  -5   51.46    2.24
  -3  -4   5   56.10    3.89
   3  -4  -7  291.79   10.34
   4  -3  -7  301.52    9.57
  -3  -4   7  308.05   11.40
   3  -4  -7  311.76    9.08
   4   3   7  327.20   10.99
  -4  -3   9   72.18    5.13
   3  -4  -9   68.94    3.55
  -3  -4   9   69.32    5.16
   4  -3  -9   66.35    3.76
  -3  -4  11    7.87    2.89
  -4  -3  11    8.73    2.86
   4  -3 -11    9.38    2.03
  -4  -3  13  254.77   11.67
  -3  -4  13  266.32   11.84
  -3  -4  15  137.43    8.49
  -4  -3  15  125.04    8.18
  -3  -4  17    3.48    2.84
   3   4  17    5.55    2.38
  -4  -3  17    5.45    3.08
   4   3  19   70.80    6.25
  -3  -4  19   71.46    7.05
  -4  -3  19   44.53    5.44
   3   4  19   65.07    5.80
   4   3  21   20.33    4.09
  -4  -3  21   22.91    4.46
   3   4  21   19.14    3.88
  -3  -4  21   20.21    4.30
  -3  -4  23    5.48    3.60
   3   4  23    4.80    2.99
  -4  -3  23   -0.35    2.90
   4   3  23    5.67    2.86
  -4  -3  25   -0.72    3.21
  -3  -4  25    2.13    3.69
  -3  -4  27    3.40    3.34
   4  -4  26    6.28    3.90
   4  -4  24   20.21    5.26
   4  -4  22   -1.31    2.95
   4  -4  20   30.67    5.23
   4  -4  18   96.17    8.17
   4  -4  16   74.58    6.85
   4  -4  14   75.63    6.60
   4  -4  14   66.34    3.18
  -4  -4 -10  137.43    4.28
  -4  -4  -4  423.70   13.54
  -4  -4  -2  359.01   11.26
   4  -4   2  308.32   10.83
  -4  -4   0   25.62    2.67
   4  -4   0   18.82    2.28
   4  -4  -2  339.52   11.14
   4  -4  -4  375.00   12.14
   4  -4  -6  321.29    9.45
   4  -4  -6  330.88   11.21
   4  -4  -8  482.04   15.59
   4  -4  -8  495.67   14.13
  -4  -4   8  511.00   16.63
  -4  -4  10  150.56    8.45
   4  -4 -10  179.79    6.86
   4  -4 -12  165.53    7.17
  -4  -4  12  155.53    8.71
  -4  -4  14   68.80    6.05
  -4  -4  16   64.43    6.31
  -4  -4  18   79.61    6.96
  -4  -4  20   14.33    4.08
   4   4  20   16.83    3.58
   4   4  22   -1.20    2.44
  -4  -4  22   -1.75    3.17
  -4  -4  24   24.86    5.12
  -4  -4  26    8.29    3.86
   0  -5   1   32.94    2.43
  -5   0  -1   32.91    2.47
   0   5  -1   34.43    2.39
   0   5  -1   27.40    2.18
   0   5   1   29.36    1.81
   0   5   1   28.86    2.19
   5   0  -1   33.10    2.70
   5   0   1   28.89    2.30
   5   0   3  427.78   12.22
  -5   0  -3  427.62   12.17
   0   5  -3  417.29   13.01
   0  -5   3  417.42   12.96
   0   5   3  416.70   11.75
   0  -5  -3  407.44   11.69
   0   5   5   80.21    3.38
  -5   0  -5   86.21    3.82
   5   0   5   76.04    3.76
   0  -5   5   79.94    3.27
   0  -5  -5   81.52    3.47
  -5   0  -5   75.34    3.86
   0  -5   5   81.93    4.81
  -5   0  -7   62.18    3.35
   0  -5   7   59.25    4.55
   0  -5  -7   59.61    3.03
   5   0  -7   56.76    3.89
   0   5   9   59.41    3.11
  -5   0  -9   56.49    3.43
   0  -5  -9   57.24    3.15
   5   0   9   67.86    3.99
   0  -5   9   63.01    5.17
   5   0  11    2.19    1.45
   0  -5  11   -1.51    2.47
   0   5  11    0.53    1.21
   0   5  13   11.64    2.07
   0  -5  13   14.94    3.59
   0   5  15   47.65    4.04
   0  -5  15   53.25    5.73
   0   5  17   16.52    2.83
   0  -5  17   14.99    3.77
   0   5  19   20.31    3.19
   5   0  19   25.14    4.50
   0  -5  19   30.00    4.94
   0  -5  21    2.57    2.84
   5   0  21    8.02    3.33
   0  -5  23    0.76    2.97
   5   0  23   -0.61    2.91
   5   0  25   13.71    4.13
   0  -5  25   23.70    5.17
   5   0  27    1.84    3.36
   5  -1  26    4.86    3.64
   1  -5  26    5.86    4.00
   5  -1  24    1.16    2.83
   1  -5  24   -3.42    3.61
   1  -5  22   11.23    4.11
   5  -1  22    1.89    3.21
   5  -1  20   25.15    4.74
   1  -5  20   35.43    5.42
  -1   5  20   28.28    3.83
  -1   5  18    1.82    1.76
   1  -5  18    3.85    3.43
  -1   5  16   23.24    2.95
   1  -5  16   18.16    4.11
  -1   5  14   13.91    2.31
   5  -1  14   12.93    2.30
   1  -5  14   22.79    4.29
   5  -1  12    1.20    1.48
   1  -5  12    2.53    2.79
  -1   5  12    4.15    1.54
  -1   5  10   18.93    1.86
   1  -5  10   22.75    3.58
  -1  -5 -10   16.04    1.62
   5  -1  10   20.84    2.25
  -5  -1 -10   18.57    1.96
  -1   5   8   24.65    1.64
   1  -5   8   28.94    3.69
  -1  -5  -8   23.19    1.69
  -5  -1  -8   23.84    1.96
  -5  -1  -6  158.87    6.28
   5   1  -6  151.82    6.54
  -5  -1  -6  162.72    5.46
   1  -5   6  140.57    4.46
   1  -5   6  171.30    7.41
  -1  -5  -6  158.22    4.93
  -5  -1  -4   31.22    2.07
   1  -5   4   27.59    2.86
  -1   5   4   29.76    2.20
  -1  -5  -4   33.19    1.83
  -5  -1  -4   29.27    2.63
   5  -1   4   30.38    2.46
  -1   5   2  268.81    8.77
   5  -1   2  286.47    9.24
   1   5  -2  277.85    8.80
   1  -5   2  285.77    9.28
   1   5  -2  291.94    9.32
   5  -1   0  188.12    7.07
   1   5   0  203.67    6.60
   1  -5   0  196.49    6.42
   1  -5  -2  252.70    7.25
   1  -5  -2  270.69    8.61
  -1  -5   2  267.68    8.60
  -1  -5   2  299.02    9.15
  -5   1  -2  287.05    8.95
   5   1   2  284.08    8.45
   1   5   2  281.83    8.09
   5  -1  -2  266.65    9.24
   1  -5  -4   29.90    2.31
   1   5   4   25.07    1.61
  -5   1  -4   28.32    2.37
   5   1   4   30.94    2.10
  -1  -5   4   26.11    2.18
  -1  -5   4   29.83    3.01
   1  -5  -6  157.39    5.83
  -5   1  -6  157.07    6.13
  -1  -5   6  169.05    7.48
  -5   1  -6  154.40    5.70
  -5   1  -8   28.85    2.60
   5  -1  -8   29.17    2.70
   1  -5  -8   28.30    2.34
  -1  -5   8   29.12    3.62
   5   1   8   29.56    2.86
  -1  -5  10   18.89    3.36
  -5   1 -10   21.68    2.44
   1  -5 -10   14.69    2.00
   5   1  10   15.34    2.30
   1   5  12    2.72    1.55
  -1  -5  12    0.09    2.46
   1   5  14   16.29    2.59
  -1  -5  14   11.56    3.38
  -1  -5  16   15.25    3.84
   1   5  16   19.64    2.99
  -1  -5  18    6.58    3.23
   1   5  18    3.29    1.98
   1   5  20   27.65    3.89
  -1  -5  20   28.55    5.16
   5   1  20   26.69    4.63
  -1  -5  22    6.86    3.70
   5   1  22    0.46    2.90
  -1  -5  24   -0.61    3.23
   5   1  24    1.52    3.01
   5   1  26    1.54    3.12
  -1  -5  26    5.01    3.64
   5  -2  27    1.38    3.33
   2  -5  25    1.48    3.46
   5  -2  25   11.02    4.07
   5  -2  23    6.86    3.68
   2  -5  23   -0.41    2.90
   5  -2  21    8.23    3.65
   2  -5  21    8.02    3.60
  -2   5  19    3.60    2.25
   5  -2  19    2.66    3.05
   2  -5  19    5.40    3.35
   2  -5  17   10.70    3.92
  -2   5  17    9.63    2.34
   2  -5  15   27.85    4.55
   5  -2  15   34.75    3.09
  -2   5  15   28.30    3.06
   2  -5  13   43.98    5.01
  -2   5  13   46.30    3.40
   5  -2  13   41.89    3.15
  -5  -2 -11   48.59    2.86
   2  -5  11   54.44    5.18
   5  -2  11   50.85    3.10
  -2   5  11   47.27    2.98
  -5  -2  -9   32.05    2.07
   2  -5   9   30.82    4.01
  -2  -5  -9   31.73    1.74
   2  -5   7   11.98    2.79
  -5  -2  -7   10.97    1.20
  -2  -5  -7   10.04    0.82
  -5  -2  -5  111.96    3.93
  -2   5   5  103.33    4.73
  -5  -2  -5  106.68    5.28
   5  -2   3   75.21    4.15
  -5  -2  -3   83.57    4.43
  -2   5   3   84.34    4.05
   5  -2   1   10.92    2.04
   2   5  -1   13.22    1.80
   5  -2  -1   14.22    2.17
   2  -5  -1   11.76    1.93
  -2  -5   1    9.96    1.94
   5  -2  -3   81.23    4.50
   5   2   3   85.94    3.39
  -2  -5   3   82.42    4.50
   2  -5  -3   81.39    4.09
  -5   2  -3   85.98    4.30
  -2  -5   3   82.36    4.09
   2   5   3   86.72    3.09
  -5   2  -5  115.58    5.22
   5   2   5  115.83    4.05
   2  -5  -5  109.17    4.95
  -2  -5   5  119.08    5.94
   5  -2  -7   12.91    1.83
  -5   2  -7   12.12    2.07
   2  -5  -7   12.42    1.96
   5   2   7   16.19    2.45
  -2  -5   7   13.17    2.95
   5  -2  -9   35.91    2.97
   2  -5  -9   29.74    2.79
  -2  -5   9   28.97    3.83
  -2  -5  11   46.90    4.74
  -2  -5  13   35.75    4.67
  -2  -5  15   34.27    4.82
  -5  -2  15   32.36    4.35
   2   5  15   29.97    3.51
  -5  -2  17    3.22    2.81
   2   5  17    8.10    2.51
  -2  -5  17    5.05    3.35
  -2  -5  19    2.26    3.17
  -5  -2  19    1.11    2.39
   2   5  19    2.53    2.33
  -2  -5  21    7.07    3.56
   2   5  21    9.93    2.84
   5   2  21    5.08    2.85
  -2  -5  23    4.62    3.25
   5   2  23    3.67    2.94
  -2  -5  25   -0.55    3.31
   5   2  25    3.22    2.98
   5  -3  26    2.70    3.94
   3  -5  26   -1.68    3.18
   3  -5  24   15.58    4.61
   5  -3  24   16.38    4.65
   5  -3  22    0.26    3.02
   3  -5  22    4.41    3.79
   3  -5  20    4.63    3.08
   5  -3  20    6.14    3.19
  -3   5  18   46.40    4.25
   3  -5  18   43.19    5.75
   5  -3  18   49.64    6.01
  -3   5  16   23.00    2.96
   3  -5  16   20.66    4.38
   5  -3  14   16.92    1.99
   3  -5  14   23.03    4.38
   3  -5  14   12.37    1.18
   3  -5  12  110.85    7.53
  -5  -3 -12   98.24    4.14
   3  -5  10   49.93    4.93
  -5  -3 -10   46.72    2.28
  -3  -5 -10   43.91    1.89
  -5  -3  -8  114.68    3.81
  -5  -3  -4   26.48    2.84
   5  -3   4   30.65    2.82
  -3   5   4   24.09    2.44
   5  -3   2  182.83    7.25
  -5  -3  -2  194.73    7.47
  -3  -5  -2  183.31    7.49
   5  -3   0    6.46    1.93
   3  -5   0    6.12    1.87
  -3  -5   0    6.23    1.85
   5  -3  -2  180.60    7.09
  -3  -5   2  167.60    6.76
   3  -5  -2  168.45    6.70
   5   3   4   31.77    1.71
  -5   3  -4   29.38    2.71
   5  -3  -4   26.62    2.85
   3  -5  -4   27.79    2.78
   5  -3  -6   77.94    4.87
  -5   3  -6   85.68    4.63
   3  -5  -6   72.36    2.71
   3  -5  -6   77.50    4.34
  -3  -5   6   74.53    5.17
   5   3   6   84.68    4.90
  -5   3  -6   79.91    3.10
   3  -5  -8  128.04    6.00
   5  -3  -8  126.55    5.44
  -3  -5   8  125.22    6.92
   5  -3 -10   55.05    3.61
  -3  -5  10   53.17    4.89
   3  -5 -10   51.55    3.84
  -3  -5  12   98.99    7.02
  -5  -3  14   16.40    3.45
  -3  -5  14   16.13    3.55
  -5  -3  16   25.89    4.38
  -3  -5  16   26.53    4.40
  -5  -3  18   45.90    5.49
   3   5  18   51.22    5.05
  -3  -5  18   52.65    6.03
  -5  -3  20    4.80    3.26
   3   5  20    6.84    2.80
  -3  -5  20   -0.85    2.88
   5   3  20    4.19    3.03
  -3  -5  22    1.51    3.24
   5   3  22    0.58    2.51
   5   3  24   12.88    3.89
  -3  -5  24   13.90    4.48
  -3  -5  26    5.58    3.77
   4  -5  25    6.71    3.85
   5  -4  25    0.40    3.32
   4  -5  23   29.62    5.71
   5  -4  23   41.14    6.26
   5  -4  21    8.25    3.86
   4  -5  21   22.16    4.97
   5  -4  19   29.14    4.99
   4  -5  19   35.30    5.55
   4  -5  17   39.75    5.66
   5  -4  17   39.39    5.49
   4  -5  15   59.15    6.20
   4  -5  13  129.24    8.31
  -5  -4 -13  112.98    4.28
  -5  -4 -11  172.27    5.25
  -5  -4  -5  400.59   13.45
  -5  -4  -3  332.42   11.30
   5  -4   3  304.84   11.01
  -4  -5  -3  334.77   11.36
  -5  -4  -1  455.52   14.28
  -4  -5  -1  474.18   14.28
   5  -4   1  440.35   14.21
   4  -5   1  423.95   14.02
  -4  -5   1  460.99   13.76
   5  -4  -1  430.69   13.98
   4  -5  -1  418.43   13.66
   4  -5  -3  304.20   10.50
   5  -4  -3  297.65   10.58
   4  -5  -5  364.78   12.16
   5  -4  -5  368.73   12.48
   4  -5  -7  665.02   15.94
   5  -4  -7  645.63   16.62
   4  -5  -7  641.99   18.30
   5  -4  -7  649.11   18.63
   5  -4  -9   35.53    3.59
  -4  -5   9   42.47    4.31
   4  -5  -9   39.05    3.57
   5  -4  -9   38.07    2.81
   4  -5  -9   43.45    2.60
  -4  -5  11  204.12   10.08
   4  -5 -11  205.96    8.94
   5  -4 -11  209.85    8.19
  -4  -5  13  109.48    7.70
  -4  -5  15   53.86    5.80
  -5  -4  15   38.66    5.04
  -4  -5  17   45.49    5.72
  -5  -4  17   43.80    5.34
  -4  -5  19   37.86    5.31
   4   5  19   31.71    4.25
  -5  -4  19   20.42    4.01
   4   5  21   10.34    3.11
  -5  -4  21   16.18    4.19
   5   4  21   12.34    3.50
  -4  -5  21   11.63    4.10
   5   4  23   27.47    4.67
  -4  -5  23   23.90    4.95
  -4  -5  25    0.00    3.37
   5  -5  24   18.46    4.81
   5  -5  22   12.99    4.14
   5  -5  20   56.34    6.77
   5  -5  18   85.84    8.07
   5  -5  16   20.41    4.19
  -5  -5 -14  104.03    3.68
  -5  -5  -4  497.75   16.04
  -5  -5  -2  533.74   16.11
   5  -5   2  482.00   15.83
   5  -5   0   73.61    4.62
  -5  -5   0   77.58    4.62
   5  -5  -2  470.09   15.05
   5  -5  -4  440.79   14.42
   5  -5  -6   18.77    2.65
   5  -5  -8  687.82   18.59
   5  -5  -8  659.93   20.67
   5  -5 -10  107.58    6.30
   5  -5 -10  116.08    5.13
   5  -5 -12   46.60    3.50
   5  -5 -12   46.03    4.25
  -5  -5  14  118.82    8.14
  -5  -5  16   20.90    4.11
  -5  -5  18   66.94    6.64
   5   5  20   52.63    5.45
  -5  -5  20   49.88    6.35
   5   5  22   13.63    3.51
   6   0   0  560.59   16.26
   0   6   0  580.25   15.68
   0  -6   0  545.99   15.45
   6   0   2  242.16    8.19
   0   6  -2  230.48    8.36
   0   6   2  242.51    7.79
  -6   0  -2  240.12    8.09
   0   6  -2  229.62    7.67
   0   6   2  226.38    6.99
   0  -6   2  246.02    8.41
   0   6  -4  174.49    7.45
  -6   0  -4  192.79    6.76
   0   6   4  179.18    6.21
   0  -6  -4  180.78    6.29
   0  -6   4  183.38    7.66
   6   0   4  181.71    6.73
   0  -6   6  510.14   14.20
  -6   0  -6  507.84   15.27
   0  -6  -6  525.46   14.54
   0  -6   6  522.57   16.89
  -6   0  -6  546.94   15.23
   0  -6   8    2.97    2.43
   0  -6  -8    4.87    1.25
   0   6   8    2.54    0.76
  -6   0  -8    1.64    1.25
  -6   0 -10   85.25    4.44
   0  -6 -10   82.36    4.04
   0  -6  10   83.24    6.13
   0   6  10   85.03    3.82
   6   0  12   67.18    4.49
   0  -6 -12   59.31    3.58
   0   6  12   60.30    3.59
  -6   0 -12   60.57    3.99
   0  -6  12   57.16    5.54
   0  -6 -14    2.59    1.47
   0  -6  14    1.28    2.79
   0   6  14    1.06    1.47
   0  -6  16  153.93    9.75
   0   6  16  144.52    7.18
   0  -6  18   17.80    4.23
   0   6  18   24.03    3.17
   0  -6  20   22.06    4.84
   0  -6  22   46.61    6.38
   6   0  22   41.32    5.92
   0  -6  24    6.16    3.94
   6   0  24   15.96    4.24
   0  -6  26    9.01    4.37
   6   0  26    8.95    3.79
   6  -1  27    6.52    4.09
   6  -1  25   17.32    4.76
   1  -6  25   11.11    4.17
   6  -1  23   23.80    5.11
   1  -6  23   14.82    4.61
   1  -6  21    0.82    3.13
   6  -1  21   -2.29    3.19
   1  -6  19   23.51    4.73
  -1   6  17   50.19    4.16
   1  -6  17   55.72    6.39
  -1   6  15   36.65    3.25
   1  -6  15   34.83    5.06
  -1  -6 -13   33.49    2.54
  -6  -1 -13   28.29    2.69
   6  -1  13   34.10    3.18
  -1   6  13   32.56    2.71
   1  -6  13   29.67    4.52
   1  -6  11   56.44    5.45
  -6  -1 -11   51.72    3.34
  -1   6  11   56.76    3.05
  -1  -6 -11   54.52    3.00
  -1   6   9  179.58    5.57
  -1  -6  -9  194.15    6.05
   1  -6   9  154.65    5.20
  -6  -1  -9  198.66    6.71
   1  -6   9  199.34    9.22
  -1  -6  -7  166.10    5.40
   1  -6   7  170.19    8.00
  -6  -1  -7  162.90    5.94
  -6  -1  -7  148.39    6.63
  -6  -1  -5  354.86   11.47
   1  -6   5  348.31   12.35
  -1   6   5  348.61   10.85
   6  -1   5  346.94   11.30
  -6  -1  -5  367.72   10.71
  -1  -6  -5  359.19   10.12
   6  -1   3  985.22   26.79
   1   6  -3 1025.23   27.32
  -6  -1  -3 1032.04   26.17
   1  -6   3  959.69   27.11
  -1   6   3  969.22   26.29
   1   6  -1  274.83    9.02
   1  -6   1  263.88    8.79
  -1   6   1  263.54    8.88
   6  -1   1  254.89    9.10
   1   6  -1  275.07    8.90
  -6   1  -1  263.68    9.09
   6   1   1  268.67    8.73
   1   6   1  267.68    8.22
   1  -6  -1  255.38    7.80
  -1  -6   1  263.07    8.72
   6  -1  -1  256.80    9.29
   6  -1  -3  932.24   26.63
   1  -6  -3  947.47   25.57
  -1   6  -3  932.34   24.74
   6   1   3  989.83   25.43
   1   6   3  958.64   24.84
  -1  -6   3  960.75   25.52
  -1  -6   3  993.86   26.52
  -6   1  -3 1002.53   26.03
  -6   1  -5  359.66   11.32
   1   6   5  349.04    9.99
  -1  -6   5  386.76   12.57
   1  -6  -5  347.86   10.84
  -1  -6   5  343.24   10.62
   6   1   5  351.01   10.63
  -6   1  -7  159.36    6.19
  -1  -6   7  160.60    7.90
  -6   1  -7  170.80    6.69
   1  -6  -7  167.73    6.31
  -1  -6   9  189.67    9.27
   6   1   9  203.07    8.12
  -6   1  -9  193.74    7.63
   1  -6  -9  182.49    7.10
  -1  -6  11   52.02    5.11
   1  -6 -11   52.77    3.52
   1  -6 -13   32.11    3.00
   1   6  13   29.56    2.86
  -1  -6  13   27.59    4.33
   1   6  15   31.69    3.37
  -1  -6  15   31.47    4.92
   1  -6 -15   33.51    3.25
   1   6  17   46.19    4.21
  -1  -6  17   48.63    6.06
   1   6  19   12.79    2.60
  -1  -6  19   17.34    4.38
   6   1  21   -1.70    3.02
  -1  -6  21    2.37    3.50
  -1  -6  23   14.94    4.52
   6   1  23   17.94    4.46
   6   1  25   17.09    4.72
  -1  -6  25   18.22    4.94
   6   1  27    4.96    3.60
   6  -2  26    4.06    4.00
   6  -2  24    4.13    3.24
   2  -6  24    5.62    3.54
   2  -6  22   19.56    4.75
   6  -2  22    9.42    3.83
   2  -6  20    9.25    3.75
   6  -2  20    2.44    2.97
  -2   6  18   24.33    3.11
   2  -6  18   27.91    5.07
  -2   6  16   11.77    2.29
   2  -6  16   16.40    4.19
  -6  -2 -14   16.75    2.03
  -2  -6 -14   17.45    1.81
   2  -6  14   18.81    4.10
  -2   6  14   18.13    2.20
  -2  -6 -12    8.46    1.30
   2  -6  12   11.13    3.45
  -6  -2 -12    5.73    1.36
  -2   6  12    7.50    1.48
  -6  -2 -10   21.24    1.85
  -2  -6 -10   17.65    1.39
   2  -6  10   18.94    3.71
  -6  -2  -8  148.89    5.08
   2  -6   8  150.72    7.80
  -2  -6  -8  126.07    4.20
   2  -6   6  139.38    7.07
  -6  -2  -6  134.54    6.39
  -6  -2  -6  137.89    4.93
   2  -6   4  248.76    9.61
  -2   6   4  265.59    8.92
   6  -2   4  263.16    9.39
  -6  -2  -4  257.89    9.35
   2  -6   2  378.73   12.42
  -2   6   2  396.84   12.37
   2   6  -2  420.81   12.81
   6  -2   2  403.66   12.74
   2   6   0  297.82    9.41
   2  -6   0  285.90    9.08
   2   6   0  306.18   10.01
   6  -2   0  270.12    9.93
   6  -2  -2  389.00   12.89
   2  -6  -2  399.76   10.83
   2  -6  -2  379.18   12.27
  -6   2  -2  417.84   12.66
  -2  -6   2  384.77   12.37
   6   2   2  408.96   11.72
   6  -2  -4  253.84    9.74
  -6   2  -4  258.74    9.10
   2   6   4  261.16    7.43
   2  -6  -4  257.16    8.82
  -2  -6   4  247.82    8.62
   6   2   4  268.58    8.05
  -2  -6   4  260.06    9.75
  -2   6  -4  239.45    7.32
  -6   2  -6  133.56    6.05
   6   2   6  139.48    5.00
   2  -6  -6  139.44    5.90
  -2  -6   6  149.05    7.22
  -6   2  -6  136.28    5.23
   2  -6  -8  144.85    6.21
  -2  -6   8  152.40    7.84
   6  -2  -8  144.70    6.39
   2  -6 -10   21.49    2.55
  -2  -6  10   22.09    3.74
  -2  -6  12    5.95    3.00
   2  -6 -12    8.11    2.06
   2  -6 -14   10.58    2.17
  -2  -6  14   16.01    4.11
   2  -6 -16   12.02    2.59
  -2  -6  16   10.67    3.96
   2   6  16    8.30    2.31
  -2  -6  18   28.04    5.10
   2   6  18   21.68    3.26
  -2  -6  20   18.91    4.54
  -2  -6  22   12.54    4.20
   6   2  22    8.69    3.35
  -2  -6  24   -2.01    3.33
   6   2  24    6.75    3.64
  -2  -6  26    0.60    3.35
   6   2  26    7.78    3.79
   3  -6  25   -0.45    3.33
   6  -3  25    2.11    3.19
   6  -3  23   21.97    5.20
   3  -6  23   23.71    4.96
   6  -3  21    7.13    3.81
   3  -6  21   -4.08    3.53
   3  -6  19    3.45    3.04
   6  -3  19   10.29    3.68
   3  -6  17   11.95    4.06
  -3  -6 -15   24.54    1.93
   3  -6  15   22.02    4.18
  -6  -3 -13   13.83    1.54
   3  -6  13   18.89    4.08
  -3  -6 -13   15.23    1.31
   3  -6  11   14.52    3.41
  -6  -3 -11   12.94    1.40
  -3  -6 -11   11.65    0.92
  -6  -3  -9   39.45    2.08
   3  -6   9   38.85    4.32
  -6  -3  -7   61.16    2.60
  -6  -3  -5   14.72    2.64
   6  -3   5   14.23    2.58
  -3   6   5   14.85    2.17
   6  -3   3  362.72   12.30
   3   6  -3  394.31   12.50
  -6  -3  -3  388.98   12.61
  -3   6   3  344.62   11.73
  -3  -6  -1   12.15    2.33
   6  -3   1   15.62    2.36
   3   6  -1   17.25    2.08
   6  -3  -1   16.83    2.45
   3  -6  -1   18.58    2.44
  -3  -6   1   14.46    2.50
   3  -6  -3  335.61   11.39
   6  -3  -3  330.62   11.74
   6   3   3  356.89   10.06
  -3  -6   3  329.72   11.15
  -6   3  -3  342.29   11.53
   6  -3  -5   14.84    2.61
   6   3   5   14.92    1.36
  -3   6  -5    9.49    0.87
  -3  -6   5   18.82    2.91
   3   6   5    9.70    0.76
   3  -6  -5   13.53    2.14
  -3  -6   7   71.43    5.21
   6  -3  -7   62.12    4.67
  -6   3  -7   57.45    2.87
   3  -6  -7   62.49    3.99
  -3  -6   9   41.64    4.29
   6  -3  -9   43.32    3.26
   3  -6  -9   35.97    3.24
   3  -6 -11   13.77    2.50
  -3  -6  11   12.42    3.33
  -3  -6  13   15.61    3.77
   3  -6 -13   13.93    2.49
   3  -6 -15   21.22    3.07
  -3  -6  15   26.68    4.53
   3  -6 -17    7.62    2.39
   3   6  17    8.48    2.55
  -3  -6  17   10.94    3.95
  -3  -6  19    1.11    3.07
   3   6  19    7.48    2.51
  -3  -6  21   -2.75    3.42
   6   3  23   23.26    4.65
  -3  -6  23   21.67    4.77
  -3  -6  25    1.37    3.38
   6   3  25   -5.27    3.52
   4  -6  24   16.38    4.92
   6  -4  24   23.03    5.46
   4  -6  22   24.89    5.20
   6  -4  22   21.54    5.14
   6  -4  20   14.31    4.13
   4  -6  20   13.81    4.02
   4  -6  18   48.21    6.18
   6  -4  18   39.19    5.75
   4  -6  16    2.84    3.29
  -6  -4 -14   45.98    2.45
  -4  -6 -14   38.67    1.86
   4  -6  14   58.13    6.19
   4  -6  12   33.51    4.72
  -6  -4 -12   29.60    1.71
  -6  -4 -10   33.86    1.55
  -6  -4  -6  113.04    6.14
  -6  -4  -4  224.69    8.91
   6  -4   4  197.84    8.66
  -6  -4  -2  566.14   17.25
   6  -4   2  533.37   17.14
  -4  -6  -2  577.99   17.38
  -4  -6   0  435.59   13.57
   4  -6   0  390.22   13.38
   6  -4   0  399.97   13.52
  -4  -6   2  488.54   15.31
   4  -6  -2  492.64   15.53
   6  -4  -2  510.91   15.88
   4  -6  -4  200.29    8.24
   6  -4  -4  191.40    8.40
   6   4   4  213.66    6.40
   4  -6  -6   99.02    3.44
   6   4   6   98.22    3.29
   4  -6  -6  103.61    5.42
   6  -4  -6  112.99    6.01
   4  -6  -8  388.58   10.72
  -4  -6   8  393.55   14.38
   4  -6  -8  378.20   13.11
   6  -4  -8  371.50   11.99
   6  -4  -8  390.43   13.82
   6  -4 -10   41.16    4.05
   6  -4 -10   42.58    3.28
  -4  -6  10   46.92    4.82
   4  -6 -10   45.05    3.83
   4  -6 -12   41.87    3.90
  -4  -6  12   37.90    4.81
  -4  -6  14   54.35    5.89
   4  -6 -14   53.25    4.65
  -4  -6  16    5.81    3.29
   4  -6 -16    6.77    2.33
  -4  -6  18   38.00    5.47
   4  -6 -18   34.50    4.16
   4   6  20   11.92    2.98
   4  -6 -20    7.66    2.75
   6   4  22    8.29    3.49
   4  -6 -22   16.86    3.48
  -4  -6  22   12.96    4.22
  -4  -6  24   16.67    4.89
   6  -5  25   10.07    4.66
   5  -6  25    4.83    4.04
   6  -5  23   70.33    8.40
   5  -6  23   63.59    7.85
   5  -6  21   13.11    4.32
   6  -5  21   14.09    4.23
   5  -6  19    9.89    4.06
   6  -5  19    2.94    3.24
   6  -5  17   54.51    6.40
   5  -6  17   57.09    6.72
   5  -6  15   15.11    3.97
  -6  -5  -5  225.21    9.45
   6  -5   3  632.57   20.30
  -6  -5  -3  693.29   20.55
  -5  -6  -3  682.88   20.59
   6  -5   1  205.04    8.71
   5  -6   1  193.96    8.51
  -5  -6  -1  209.62    8.64
  -6  -5  -1  216.25    8.76
  -5  -6   1  203.95    8.50
   5  -6  -1  200.81    8.47
   6  -5  -1  196.30    8.41
   5  -6  -3  639.88   19.35
   6  -5  -3  620.47   19.56
   6  -5  -5  221.67    8.95
   5  -6  -5  229.78    9.00
   6   5   5  197.11    5.84
   6  -5  -7  191.51    8.36
  -6   5  -7  152.80    5.15
   5  -6  -7  191.65    5.90
   5  -6  -7  190.31    8.10
   6  -5  -9  165.55    6.60
   6  -5  -9  168.26    8.34
   5  -6  -9  177.20    6.11
   5  -6  -9  163.74    7.97
   6  -5 -11  104.88    6.56
   5  -6 -11  105.42    4.79
   5  -6 -11   94.53    6.09
   6  -5 -11  101.84    5.17
   5  -6 -13   33.34    4.03
   6  -5 -13   39.02    4.29
   6  -5 -13   37.41    3.41
   5  -6 -15   12.74    2.99
  -5  -6  15   19.73    4.10
  -5  -6  17   50.81    5.91
   5  -6 -17   48.81    4.81
   5  -6 -19    9.70    2.91
  -5  -6  19    5.14    3.04
  -5  -6  21    4.26    3.45
   5  -6 -21   10.22    3.04
   6  -6  24    7.52    3.88
   6  -6  22   34.55    6.20
   6  -6  20   -0.43    3.12
   6  -6  18   16.29    4.45
   6  -6  16   18.87    4.39
  -6  -6  -4  280.75   11.20
   6  -6   2  417.98   14.80
  -6  -6  -2  454.94   14.96
  -6  -6   0  496.94   16.11
   6  -6   0  458.81   15.93
   6  -6  -2  409.79   14.30
   6  -6  -4  274.71   10.82
   6  -6  -6   88.30    5.62
   6  -6  -8  417.63   12.38
   6  -6  -8  418.18   14.82
   6  -6 -10   30.44    3.67
   6  -6 -10   33.62    2.57
   6  -6 -12    6.14    1.62
   6  -6 -12    5.08    2.58
   6  -6 -14   19.54    3.58
   6  -6 -16   26.32    3.81
   6  -6 -18   19.60    3.56
   6  -6 -20   -0.15    2.54
   6  -6 -22   24.80    4.43
   0   7  -1  147.10    5.93
   0   7  -1  144.01    6.01
   0   7   1  139.44    5.84
   0   7   1  148.19    5.40
   0  -7   1  150.80    5.99
   7   0   1  142.74    6.19
   7   0  -1  147.85    6.44
   0  -7   3  485.99   15.16
   0   7  -3  499.34   15.26
   0   7   3  482.64   13.99
   0   7   3  453.98   12.85
   7   0   3  506.64   14.68
  -7   0  -3  514.51   14.68
   0   7  -3  479.56   13.99
  -7   0  -5  361.24   11.08
   7   0   5  344.42   11.10
  -7   0  -5  317.62   11.10
   0  -7  -5  342.14   10.45
   0  -7   5  335.96   12.35
   0   7   5  342.76   10.45
  -7   0  -7   91.55    4.48
   0  -7   7   91.11    5.83
   0  -7  -7   85.49    3.97
  -7   0  -7   87.01    4.67
   0  -7   7   81.98    3.71
  -7   0  -9  142.69    6.11
   0  -7   9  145.75    5.24
   0  -7  -9  150.34    5.72
   0   7   9  139.03    4.68
   0  -7   9  149.57    8.27
   0  -7  11   20.46    3.88
   0   7  11   16.40    1.65
  -7   0 -11   15.09    2.16
   0  -7 -11   15.33    1.91
   0  -7  13   20.05    3.81
   0   7  13   19.26    2.13
   0  -7 -13   18.05    2.11
   0   7  15   22.70    2.54
   0  -7 -15   18.84    2.33
   0  -7  15   21.11    4.18
   0  -7 -17    6.25    1.85
   0  -7  17    5.06    3.26
   0   7  17    5.04    1.94
   0  -7  19   19.61    4.66
   0  -7  21    8.26    4.12
   7   0  23   11.46    4.16
   0  -7  23    6.91    4.24
   0  -7  25   16.48    4.84
   7   0  25   10.89    4.31
   7  -1  26   22.40    5.47
   1  -7  24    5.35    3.67
   7  -1  24    7.76    3.62
   7  -1  22    7.69    3.84
   1  -7  22    4.89    3.48
   1  -7  20   21.44    4.62
   1  -7  18   18.36    4.47
  -1   7  16   18.75    2.48
  -1  -7 -16   17.26    2.18
   1  -7  16   19.58    4.53
  -1  -7 -14   31.58    2.60
   1  -7  14   35.57    5.00
  -1   7  14   40.68    2.90
   1  -7  12    9.90    1.10
   1  -7  12   16.14    3.73
  -7  -1 -12   10.09    1.81
  -1  -7 -12   11.14    1.53
  -1   7  12   11.18    1.49
   1  -7  10   34.25    1.83
  -7  -1 -10   37.25    2.72
   1  -7  10   43.89    4.81
  -1  -7 -10   44.46    2.53
  -1   7  10   37.20    1.87
   1  -7   8  265.77   11.44
  -1  -7  -8  281.45    8.58
  -7  -1  -8  275.83   10.18
  -7  -1  -8  294.83    9.39
   1  -7   6  265.57   10.79
   7  -1   6  274.84    9.85
  -7  -1  -6  274.62    9.03
  -7  -1  -6  259.76    9.79
  -1  -7  -6  286.30    8.49
  -1   7   6  277.86    9.21
   7  -1   4  339.57   11.31
  -7  -1  -4  358.77   10.81
   1  -7   4  322.22   11.88
  -1   7   4  332.86   10.75
   7  -1   2  408.27   12.95
   1   7  -2  399.62   12.37
  -1   7   2  392.47   12.31
   1   7  -2  403.31   12.85
   1  -7   2  394.77   12.65
   1  -7   0  619.85   17.42
   1   7   0  643.68   17.75
   7   1   0  621.34   18.13
  -1   7   0  638.35   18.31
   1   7   0  630.24   18.26
   7  -1   0  614.85   18.57
   1   7   2  394.26   11.34
   7  -1  -2  382.89   12.88
   7   1   2  388.91   11.99
   1  -7  -2  377.22   10.68
  -1   7  -2  375.07   11.52
  -1  -7   2  402.39   12.56
  -7   1  -2  421.62   12.69
   1   7   2  379.75   11.59
  -1   7  -4  332.48   10.12
   1  -7  -4  326.58   10.85
   1   7   4  346.18   10.27
  -1  -7   4  346.17   10.94
   7   1   4  350.05   10.88
  -1  -7   4  345.77   12.04
  -7   1  -4  359.64   11.36
  -1  -7   6  270.52    8.74
  -7   1  -6  262.78    9.03
   1  -7  -6  261.36    8.88
   1   7   6  257.56    8.02
  -7   1  -6  261.26    9.35
  -1  -7   6  259.67   10.60
   7   1   6  262.03    8.72
  -1  -7   8  277.86    9.12
  -7   1  -8  279.68    9.59
   1  -7  -8  288.01    9.59
  -1  -7   8  283.76   11.90
  -7   1  -8  292.26   10.07
  -1  -7  10   51.21    5.20
   1  -7 -10   45.04    3.22
   1   7  12    9.46    1.66
   1  -7 -12    8.35    1.86
  -1  -7  12    8.60    3.36
   1   7  14   35.96    3.10
  -1  -7  14   37.81    5.02
   1  -7 -14   32.16    3.07
   1  -7 -16   18.79    2.73
  -1  -7  16   18.44    4.47
   1   7  16   22.06    2.92
   1  -7 -18    9.52    2.14
  -1  -7  18    9.00    3.79
  -1  -7  20   28.99    5.23
   7   1  22    2.78    3.15
  -1  -7  22   10.67    4.27
  -1  -7  24    7.77    3.93
   7   1  24    4.41    3.73
   7   1  26   18.38    4.88
   7  -2  25   10.73    4.47
   2  -7  25    9.52    4.52
   2  -7  23    6.51    3.95
   7  -2  23    2.90    3.53
   2  -7  21   -4.30    3.17
   7  -2  21    4.14    3.24
   2  -7  19    6.88    3.42
   2  -7  17   53.28    6.34
   2  -7  15    6.12    3.31
  -2  -7 -15    8.10    1.37
  -7  -2 -13   43.39    2.99
  -2  -7 -13   46.37    2.53
   2  -7  13   51.61    5.52
  -7  -2 -11   39.58    2.72
   2  -7  11   46.26    5.11
  -2  -7 -11   39.58    2.14
  -7  -2  -9   65.06    3.29
  -2  -7  -9   61.60    2.60
   2  -7   9   69.74    5.56
   2  -7   7  197.18    9.57
  -7  -2  -7  209.87    8.65
  -7  -2  -7  217.86    7.16
  -7  -2  -5  371.53   12.70
   7  -2   5  388.73   12.87
   2  -7   5  379.07   13.44
  -2   7   5  391.37   12.34
   7  -2   3  591.07   17.55
   2  -7   3  549.17   17.43
   2   7  -3  595.14   17.68
  -2   7   3  580.43   17.05
   2   7  -1  673.02   19.30
   7  -2   1  645.35   19.60
   2   7  -1  699.08   19.21
   2  -7   1  641.93   18.77
  -2   7   1  659.31   19.22
   7  -2  -1  635.44   19.27
   7   2   1  656.97   18.34
   2  -7  -1  657.81   17.58
   2   7   1  651.97   18.10
   2  -7  -1  619.68   18.85
  -2  -7   3  545.15   16.10
  -7   2  -3  578.45   16.55
  -2  -7   3  556.00   16.70
   2   7   3  564.59   14.87
   2  -7  -3  499.77   13.77
   2  -7  -3  533.78   16.10
   7   2   3  550.27   15.34
   7  -2  -3  545.26   17.01
  -2  -7   5  374.65   11.90
   7   2   5  390.28   11.31
   7  -2  -5  367.14   13.18
  -2   7  -5  357.93   10.39
  -2  -7   5  401.58   13.48
   2   7   5  381.75   10.56
   2  -7  -5  384.28   12.19
  -2  -7   7  206.40    9.42
   2  -7  -7  210.66    7.96
  -7   2  -7  197.49    7.27
   2  -7  -9   67.49    4.09
  -2  -7   9   62.81    5.38
  -2  -7  11   43.01    5.08
   2  -7 -11   35.84    3.20
  -2  -7  13   50.27    5.56
   2  -7 -13   45.53    3.74
  -2  -7  15   13.70    3.69
   2  -7 -15    9.13    2.26
   2   7  15   10.69    2.30
   2  -7 -17   49.43    4.36
  -2  -7  17   63.93    6.64
   2   7  17   57.43    4.54
  -2  -7  19    5.13    3.49
   2  -7 -19    4.85    2.22
  -2  -7  21    7.01    3.97
   7   2  23   12.79    4.02
  -2  -7  23    8.92    3.94
  -2  -7  25    6.74    3.65
   7   2  25    7.74    3.81
   7  -3  24    2.23    4.00
   3  -7  24   -2.69    3.37
   7  -3  22    7.74    3.80
   3  -7  22   10.82    4.16
   7  -3  20    3.24    3.33
   3  -7  20    9.57    3.80
   3  -7  18   31.54    5.32
   3  -7  16   -4.16    3.18
   3  -7  14    2.35    3.23
  -3  -7 -14    4.86    0.81
  -3  -7 -12    5.99    0.65
   3  -7  12   14.16    3.74
  -7  -3 -12   10.33    1.43
  -7  -3 -10    7.54    1.12
   3  -7  10    9.59    3.13
  -7  -3  -8  170.83    5.68
   3  -7   8  171.23    8.70
  -7  -3  -6   20.19    3.00
   3  -7   6   16.09    3.02
  -7  -3  -4  238.74    9.54
   7  -3   4  243.17    9.61
   7  -3   2  200.97    8.61
   3   7  -2  231.04    8.59
  -3  -7   0   91.36    5.11
   3  -7   0   76.63    4.75
   3   7   0   82.35    4.41
   7  -3   0   84.55    5.21
  -3  -7   2  218.85    8.38
   7   3   2  218.77    7.37
   3  -7  -2  199.56    8.17
   7  -3  -2  185.65    8.41
   7   3   4  246.89    7.44
  -3  -7   4  230.38    8.53
   3  -7  -4  227.34    8.61
   3   7   4  233.24    6.82
   3  -7  -4  202.86    6.11
   7  -3  -4  233.51    9.37
   7   3   6   20.60    1.69
   7  -3  -6   20.55    3.31
   3   7   6   14.00    0.98
  -3  -7   6   17.92    2.99
   3  -7  -6   18.30    2.61
   7  -3  -8  181.43    8.59
   3  -7  -8  168.21    7.41
  -7   3  -8  172.87    6.24
  -3  -7   8  187.90    9.07
   3  -7 -10    9.92    2.13
  -3  -7  10    8.05    3.02
   3  -7 -12   12.66    2.46
  -3  -7  12   15.90    3.81
   3  -7 -14    3.26    1.90
  -3  -7  14   10.09    3.39
  -3  -7  16   -0.09    3.11
   3  -7 -16    3.92    2.05
   3   7  18   24.22    3.40
  -3  -7  18   28.78    5.01
   3  -7 -18   22.48    3.46
   3  -7 -20    2.86    2.20
  -3  -7  20   -0.70    3.18
  -3  -7  22   16.43    4.46
  -3  -7  24    0.47    3.15
   7   3  24    1.44    2.90
   7  -4  25   12.04    5.02
   4  -7  23   30.54    5.81
   7  -4  23   35.27    6.11
   4  -7  21    4.76    3.80
   7  -4  21    2.90    3.66
   4  -7  19    4.62    3.24
   4  -7  17   20.12    4.54
   4  -7  15   20.57    4.53
   4  -7  13   23.59    4.37
  -7  -4 -13   14.24    1.26
  -7  -4 -11    7.61    0.86
   4  -7  11    4.67    2.72
  -7  -4  -7   23.29    3.26
  -7  -4  -5   90.74    5.67
   7  -4   5   83.58    5.38
  -7  -4  -3  529.30   16.87
   7  -4   3  516.75   16.94
   4  -7   1   32.24    3.43
  -4  -7  -1   33.45    3.42
   7  -4   1   31.00    3.39
  -4  -7   1   30.20    3.20
   4  -7  -1   31.12    3.27
   7  -4  -1   28.51    3.14
  -4  -7   3  486.17   15.58
   7   4   3  508.97   14.06
   4  -7  -3  492.56   15.82
   7  -4  -3  477.37   16.08
   7   4   5   89.11    3.46
   4  -7  -5   89.63    5.11
   4   7   5   72.85    2.74
   7  -4  -5   87.65    5.46
   7  -4  -7   23.78    3.27
  -7   4  -7   21.36    1.87
   4  -7  -7   22.57    2.77
  -4  -7   9   89.68    6.41
   7  -4  -9   87.06    4.75
   7  -4  -9   82.88    5.86
   4  -7  -9   82.71    5.12
   7  -4 -11   11.30    2.95
  -4  -7  11    9.42    3.29
   4  -7 -11    9.29    2.43
   4  -7 -13   18.87    2.93
  -4  -7  13   26.64    4.62
   4  -7 -15   19.04    3.20
  -4  -7  15   15.10    4.01
  -4  -7  17   10.57    3.74
   4  -7 -17   15.19    3.04
  -4  -7  19    4.99    3.44
   4   7  19    7.21    2.42
   4  -7 -19    6.76    2.43
   4  -7 -21    0.82    2.08
  -4  -7  21    2.61    3.45
  -4  -7  23   30.90    5.83
   7   4  23   24.84    4.71
  -4  -7  25    8.05    4.18
   7  -5  24    6.69    4.07
   5  -7  24   10.33    4.00
   7  -5  22   21.91    5.42
   5  -7  22   24.14    5.50
   7  -5  20    5.67    3.50
   5  -7  20   -1.90    3.26
   5  -7  18   23.13    5.05
   5  -7  16    2.72    3.30
   5  -7  14   23.27    4.61
  -7  -5  -6   19.38    3.14
   7  -5   4   47.75    4.16
  -7  -5  -4   49.28    4.42
  -5  -7  -2  308.90   11.38
   7  -5   2  286.02   11.18
   5  -7   2  278.16   11.21
  -7  -5  -2  291.34   11.35
   7  -5   0  157.43    7.91
   5  -7   0  169.80    7.84
  -5  -7   0  183.67    8.00
   5  -7  -2  284.35   10.81
   7  -5  -2  275.83   11.14
  -5  -7   2  275.25   10.52
   7  -5  -4   46.36    4.27
   5  -7  -4   45.32    4.00
   7   5   4   49.50    2.56
   7   5   6   19.58    1.27
   7  -5  -6   14.92    2.79
   5  -7  -6   19.41    2.79
   5  -7  -8  190.66    5.91
  -7   5  -8  175.42    5.81
   5  -7  -8  193.23    8.54
   7  -5  -8  191.96    9.11
   5  -7 -10    0.71    2.18
   7  -5 -10    8.17    1.74
   5  -7 -10    7.75    1.11
   7  -5 -10    6.55    2.39
   5  -7 -12   14.25    2.98
   7  -5 -12   20.03    3.62
   7  -5 -14   21.19    3.84
  -5  -7  14   25.36    4.54
   5  -7 -14   18.89    3.23
   5  -7 -16    4.41    2.29
   7  -5 -16    3.20    2.69
  -5  -7  16    6.77    3.41
   5  -7 -18   14.33    3.19
  -5  -7  18   15.06    4.16
   5  -7 -20    0.25    2.45
  -5  -7  20   -2.70    3.24
   5  -7 -22   15.84    3.62
   7  -5 -24    5.41    3.29
   7  -6  23   26.47    5.66
   6  -7  23   25.81    5.68
   6  -7  21    9.26    4.51
   7  -6  21    5.81    3.97
   7  -6  19    8.46    3.77
   6  -7  19   11.70    4.14
   6  -7  17   34.18    5.51
   6  -7  15   11.36    4.05
  -7  -6  -5   14.42    2.91
  -7  -6  -3  515.99   16.96
   6  -7   3  481.68   16.99
  -6  -7  -3  520.83   17.13
   7  -6   3  490.89   16.95
   6  -7   1    0.51    1.92
  -7  -6  -1    3.60    2.37
  -6  -7  -1    4.02    2.30
   7  -6   1   -0.87    2.23
  -6  -7   1    0.79    2.21
   6  -7  -1    1.51    2.05
   7  -6  -1    1.37    1.96
   7  -6  -3  488.95   16.70
   6  -7  -3  475.77   16.39
  -6  -7   3  496.51   16.10
   7  -6  -5   16.08    2.79
   7   6   5   14.04    1.22
   6  -7  -5   13.80    2.65
   7  -6  -7   35.90    3.87
   6  -7  -7   39.33    3.85
   7  -6  -9  149.90    6.25
   7  -6  -9  149.12    8.20
   6  -7  -9  157.59    5.70
   6  -7  -9  161.09    8.05
   7  -6 -11   19.42    3.41
   6  -7 -11   23.76    2.11
   7  -6 -11   21.54    2.33
   6  -7 -11   20.51    3.38
   6  -7 -13   21.44    3.60
   7  -6 -13   14.71    3.32
   6  -7 -15   12.40    2.91
   7  -6 -15    8.49    2.93
   6  -7 -17   33.45    4.26
   7  -6 -17   34.37    4.46
   6  -7 -19    4.05    2.50
   7  -6 -19    7.01    2.84
   6  -7 -21    4.30    2.69
   7  -6 -21    0.09    2.76
   7  -6 -23   25.18    4.65
   7  -7  22   13.95    4.65
   7  -7  20   47.53    6.85
   7  -7  18   22.26    4.84
  -7  -7  -4  111.18    6.84
  -7  -7  -2  654.88   20.46
   7  -7   2  609.05   20.48
  -7  -7   0  125.36    6.86
   7  -7   0  122.87    6.96
  -7  -7   2  627.71   19.72
   7  -7  -2  600.34   19.86
   7  -7  -4  113.19    6.77
   7  -7  -6   22.12    3.37
   7   7   6   13.62    0.86
   7  -7  -8  340.97   12.10
  -7   7  -8  228.73    6.53
   7  -7 -10   44.04    4.58
   7  -7 -10   45.16    2.99
   7  -7 -12  101.09    6.89
   7  -7 -14  128.52    8.03
   7  -7 -16   13.83    3.19
   7  -7 -18   20.09    3.75
   7  -7 -20   45.19    5.40
   7  -7 -22   14.55    3.92
   8   0   0   28.84    2.89
   0   8   0   30.08    2.75
   0   8   0   26.49    2.60
   0   8   0   30.02    2.50
   0  -8   0   30.10    2.51
   0   8  -2    2.40    1.56
   0  -8   2    1.37    1.63
   0   8  -2    0.53    1.24
   0   8   2    0.12    1.32
   0   8   2    1.63    1.05
   8   0   2    4.74    1.83
  -8   0  -4   70.44    4.05
   8   0   4   66.59    4.00
   0   8   4   63.54    3.55
   0  -8   4   63.63    4.46
   0   8   4   56.23    2.51
   0   8   6    1.22    1.06
  -8   0  -6    1.17    1.29
  -8   0  -6    3.69    1.76
   8   0   6    0.28    1.26
   0  -8  -6    0.67    1.14
   0  -8   6   -0.53    2.07
   0  -8   8    2.48    1.20
  -8   0  -8    6.48    2.11
  -8   0  -8    5.94    1.55
   0  -8   8    6.97    2.91
   0  -8  -8    3.97    1.29
   0  -8 -10  122.14    5.21
  -8   0 -10  128.68    5.89
   0  -8  10  123.88    4.75
   0  -8  10  131.68    7.89
   0   8  10  110.69    3.87
   0  -8  12    8.69    1.49
   0  -8  12    9.23    3.35
   0  -8 -12    6.58    1.57
   0   8  12    8.92    1.24
   0   8  14    8.42    1.54
   0  -8 -14    9.91    1.87
   0  -8  14    4.85    3.63
   0  -8 -16   32.23    2.91
   0  -8  16   41.78    5.63
   0  -8  18    2.98    3.27
   0  -8  20    1.13    3.28
   0  -8  22   -0.24    2.99
   8   0  24   -2.03    3.16
   0  -8  24    9.71    4.13
   8   0  26    3.44    3.29
   8  -1  25    7.53    4.43
   1  -8  23   10.26    4.24
   8  -1  23    4.03    3.60
   1  -8  21   21.26    4.86
   1  -8  19    4.93    3.51
   1  -8  17   48.50    6.03
  -1  -8 -15   74.11    3.95
  -1   8  15   71.09    3.82
   1  -8  15   92.26    7.68
   1  -8  13   42.26    5.05
   1  -8  13   27.72    1.63
  -1  -8 -13   39.98    2.63
  -1   8  13   36.13    2.18
  -8  -1 -13   33.69    2.92
   1  -8  11   53.63    5.45
  -8  -1 -11   47.88    3.40
  -1  -8 -11   53.30    2.92
   1  -8   9   35.95    4.49
  -8  -1  -9   33.82    2.68
  -1  -8  -9   32.85    2.25
  -8  -1  -7  187.71    8.04
  -1   8   7  186.89    7.17
  -8  -1  -7  191.28    7.19
   1  -8   7  190.52    9.09
  -8  -1  -5  398.95   13.24
  -1   8   5  385.48   12.26
  -8  -1  -5  394.40   12.24
   8  -1   5  385.95   12.89
   1  -8   5  376.99   13.63
  -1   8   3    4.55    1.49
   1  -8   3    4.81    1.91
   8  -1   3    4.39    2.00
  -1   8   1  317.17   10.83
   8   1  -1  317.85   11.17
   1  -8   1  311.70   10.54
   1   8  -1  321.75   10.86
   8  -1   1  308.59   11.12
   1   8  -1  328.11   10.85
   8  -1  -1  303.13   11.29
   1   8   1  306.67    9.98
   1  -8  -1  308.79    9.60
   1   8   1  326.85   10.52
   8   1   1  313.06   10.80
  -1  -8   3    6.13    2.04
  -1   8  -3    4.03    1.46
   8   1   3    6.15    1.75
   1   8   3    4.14    1.08
   8  -1  -3    7.10    2.42
   1   8   3    5.09    1.41
   1   8   5  393.45   11.50
   8   1   5  403.96   12.30
   1  -8  -5  389.60   12.28
  -1  -8   5  392.84   12.22
  -1  -8   5  377.56   13.79
   1   8   5  366.17   10.70
   8   1   7  185.42    7.20
   1  -8  -7  186.15    7.30
  -8   1  -7  185.94    7.46
  -1  -8   7  191.88    9.10
  -1  -8   7  189.16    7.07
  -1  -8   9   31.13    2.58
  -8   1  -9   26.02    2.72
   1  -8  -9   34.74    2.87
  -1  -8   9   34.47    4.26
   1  -8 -11   54.08    3.68
  -1  -8  11   52.90    5.45
   1   8  13   47.03    3.13
  -1  -8  13   40.92    5.30
   1  -8 -13   34.52    3.08
   1   8  15   81.94    4.63
  -1  -8  15   72.35    6.91
   1  -8 -15   72.66    4.64
   1  -8 -17   47.09    3.86
  -1  -8  17   49.85    6.10
  -1  -8  19    1.50    3.25
  -1  -8  21   26.08    5.40
  -1  -8  23    7.74    3.76
   8   1  23   10.25    3.83
   8   1  25   -4.53    3.71
   2  -8  24    1.60    3.48
   8  -2  24    1.12    3.70
   2  -8  22    2.22    3.62
   8  -2  22   -0.89    3.20
   2  -8  20    3.67    3.56
   2  -8  18   50.56    6.42
   2  -8  16   26.16    4.73
   2  -8  14   42.13    5.65
  -2  -8 -14   35.91    2.29
  -2  -8 -12   32.14    1.99
  -8  -2 -12   32.85    2.66
   2  -8  12   38.85    5.15
  -2  -8 -10  102.95    3.87
   2  -8  10  112.32    7.37
  -8  -2 -10  114.93    4.84
  -8  -2  -8  308.13   11.54
   2  -8   8  322.45   12.93
  -8  -2  -8  307.04    9.87
   2  -8   6   14.98    2.91
  -8  -2  -6   14.90    1.78
   8  -2   6   15.05    2.37
  -8  -2  -6   11.24    2.50
   2  -8   4  419.89   14.69
   8  -2   4  442.25   14.44
  -8  -2  -4  444.64   14.57
   2  -8   2  212.26    8.33
   8  -2   2  212.76    8.68
   2  -8   0    0.07    1.34
   2   8   0   -0.10    1.17
   8  -2   0    0.08    1.70
   8   2   0    0.41    1.56
   2  -8  -2  215.54    8.62
   2   8   2  222.31    7.75
   2  -8  -2  222.05    6.99
   8  -2  -2  217.30    9.16
   2   8   2  223.03    7.76
   8   2   2  215.72    8.02
  -2  -8   4  427.86   13.69
  -2  -8   4  442.21   14.71
   8  -2  -4  434.79   14.93
  -2   8  -4  411.17   12.33
   2   8   4  429.23   12.40
   2  -8  -4  431.19   13.79
   8   2   4  444.02   13.16
   2   8   6   13.70    1.37
   8  -2  -6   14.60    2.92
   8   2   6   13.11    1.79
   2  -8  -6   14.46    2.21
  -2  -8   6   16.03    2.38
  -2  -8   6   13.01    2.79
  -8   2  -8  299.16   10.28
  -2  -8   8  319.72   12.94
   2  -8  -8  321.45   11.03
  -2  -8   8  315.69   10.55
   2  -8 -10  111.78    5.69
  -2  -8  10  112.77    7.37
  -2  -8  12   39.14    4.86
   2  -8 -12   34.78    3.31
   2  -8 -14   39.31    3.58
  -2  -8  14   39.34    5.25
   2  -8 -16   17.46    2.68
  -2  -8  16   21.49    4.46
   2   8  16   23.90    2.76
  -2  -8  18   52.23    6.44
   2  -8 -18   41.14    3.90
  -2  -8  20    7.19    3.80
  -2  -8  22    6.44    3.82
   8   2  24    6.66    3.23
  -2  -8  24   12.81    4.55
   8   2  26    6.53    3.79
   8  -3  25   -0.80    3.57
   8  -3  23    2.89    3.46
   3  -8  23    5.23    3.58
   3  -8  21    6.36    3.81
   3  -8  19    7.37    3.92
   3  -8  17   14.70    4.38
   3  -8  15   20.35    4.23
   3  -8  13  101.04    7.89
  -8  -3 -11    1.32    0.97
   3  -8  11    3.32    3.11
   3  -8   9   21.06    3.76
  -8  -3  -9   21.53    1.81
   3  -8   7  163.11    8.47
  -8  -3  -7  149.86    7.59
   8  -3   5   92.76    5.48
   3  -8   5   92.51    5.74
  -8  -3  -5   87.50    5.60
  -8  -3  -3   20.73    3.08
   8  -3   3   22.97    2.89
   3  -8   3   20.80    2.71
   8  -3   1  123.78    6.59
   3  -8   1  119.50    5.70
   3   8   1  139.17    5.95
   3  -8  -1  130.28    6.63
   8  -3  -1  131.77    6.83
  -3  -8   1  128.44    6.57
   3  -8  -1  132.28    5.38
   3  -8  -3   20.90    2.79
   3  -8  -3   18.45    1.46
   8   3   3   17.68    2.01
   8  -3  -3   15.07    2.76
  -3  -8   3   17.56    2.70
  -3  -8   5   83.35    4.91
   3  -8  -5   93.98    5.25
   3   8   5   94.50    3.66
   8   3   5   97.43    4.28
   8  -3  -5   91.22    5.86
  -3   8  -5   90.94    3.68
   8  -3  -7  157.06    8.12
  -8   3  -7  147.95    6.05
   8   3   7  157.26    5.71
  -3  -8   7  155.44    6.84
  -3  -8   7  153.29    8.27
   3  -8  -7  150.83    7.01
  -8   3  -9   22.44    2.21
   8  -3  -9   26.13    3.83
   3  -8  -9   29.65    3.10
  -3  -8   9   25.67    3.91
  -3  -8  11    9.34    3.32
   3  -8 -11    0.02    1.69
  -3  -8  13   91.89    7.35
   3  -8 -13   93.85    5.60
  -3  -8  15   13.34    4.02
   3  -8 -15   21.31    3.03
  -3  -8  17   16.08    3.99
   3  -8 -17   12.37    2.64
  -3  -8  19    9.47    3.86
   3  -8 -19    6.72    2.19
  -3  -8  21   11.92    4.19
  -3  -8  23    7.63    3.70
   8   3  25   -0.89    3.04
   4  -8  24    4.51    4.16
   8  -4  24    8.13    4.42
   4  -8  22    1.46    3.32
   8  -4  22    0.15    3.18
   4  -8  20   -1.04    3.15
   4  -8  18   48.56    6.46
   4  -8  16   -1.68    3.15
   4  -8  14   14.49    3.64
   4  -8  12   49.74    5.65
  -8  -4 -12   35.40    1.96
   4  -8  10   19.14    3.95
   4  -8   8   54.78    5.15
  -8  -4  -6    1.31    2.21
   8  -4   4   12.68    2.57
  -8  -4  -4   10.46    2.84
  -8  -4  -2  110.34    6.29
   8  -4   2  104.61    6.12
   8  -4   0    2.47    2.03
  -4  -8   0   -0.72    2.07
   4  -8   0    3.14    1.95
   4  -8  -2  104.60    5.97
   8  -4  -2   98.78    6.15
  -4  -8   2  110.38    6.05
  -4  -8   4    8.49    2.29
   8  -4  -4    8.21    2.36
   4   8   4   10.27    1.23
   4  -8  -4    9.50    2.32
   8   4   4   10.82    1.51
  -4  -8   6    3.25    2.29
   4   8   6    1.07    0.44
   8   4   6    2.67    0.99
  -4   8  -6    1.12    0.65
   4  -8  -6    1.76    1.75
   8  -4  -6    1.93    2.15
   8  -4  -8   48.81    4.71
  -8   4  -8   53.27    3.07
   4  -8  -8   49.94    4.07
   4  -8 -10   17.48    2.73
   8  -4 -10   17.45    3.42
  -4  -8  10   24.18    4.03
   8  -4 -12   52.80    5.34
  -4  -8  12   46.23    5.51
   4  -8 -12   50.93    4.41
   4  -8 -14   17.02    2.92
  -4  -8  14   11.41    3.59
   4  -8 -16    2.54    2.02
  -4  -8  16    3.44    3.45
   4  -8 -18   30.73    3.92
  -4  -8  18   32.42    5.44
   4  -8 -20   -0.12    2.02
  -4  -8  20    2.28    3.41
  -4  -8  22    6.69    3.99
   8   4  24    1.20    2.99
  -4  -8  24    2.70    3.64
   5  -8  23   11.99    4.40
   8  -5  23   16.99    5.45
   8  -5  21   -3.47    3.59
   5  -8  21   14.62    4.60
   5  -8  19    9.07    3.93
   5  -8  17   26.42    5.11
   5  -8  15   -0.76    3.46
   5  -8  13   85.53    7.45
   5  -8  11   -1.21    3.32
  -8  -5  -7   66.32    5.16
   8  -5   5    0.71    2.02
  -8  -5  -5    1.03    2.29
  -8  -5  -3   40.04    4.01
   8  -5   3   29.73    3.56
  -8  -5  -1   71.60    5.14
  -5  -8  -1   77.45    5.26
   8  -5   1   65.32    4.86
   5  -8   1   64.82    5.02
   5  -8  -1   64.46    4.80
   8  -5  -1   66.06    5.27
  -5  -8   1   71.00    4.97
   5  -8  -3   25.74    3.15
   8  -5  -3   30.25    3.77
  -5  -8   3   28.98    3.61
   8   5   5    1.34    0.93
   8  -5  -5   -1.33    2.45
   5   8   5    1.10    0.57
   5  -8  -5    1.37    1.93
  -5  -8   5    3.21    2.40
   5  -8  -7   73.71    5.04
   8   5   7   55.18    2.44
   8  -5  -7   66.38    5.29
   5  -8  -9    1.97    1.93
   8  -5  -9    1.14    2.38
  -8   5  -9    0.84    0.96
   5  -8 -11    0.67    1.95
   8  -5 -11    1.12    2.36
   8  -5 -13   69.78    6.12
   5  -8 -13   71.19    5.47
   5  -8 -15    3.36    2.18
   8  -5 -15    1.69    2.98
  -5  -8  15    4.83    3.37
   8  -5 -17   26.12    4.38
  -5  -8  17   29.85    5.18
   5  -8 -17   17.31    3.23
   5  -8 -19    8.18    2.68
   8  -5 -19    5.22    2.85
  -5  -8  19   13.61    4.24
   5  -8 -21    0.45    2.17
   8  -5 -21    6.39    3.27
   8  -5 -23    9.48    3.64
   8  -5 -25    3.53    3.23
   8  -6  22    1.55    3.77
   6  -8  22   -2.22    3.75
   6  -8  20   22.75    5.54
   8  -6  20   17.19    4.50
   6  -8  18   34.85    5.80
   6  -8  16    2.14    3.15
   6  -8  14   27.63    4.95
  -8  -6  -6   11.62    3.05
  -8  -6  -4   24.88    3.45
   8  -6   4   25.32    3.47
  -8  -6  -2  252.30   10.53
  -6  -8  -2  247.52   10.51
   8  -6   2  241.38   10.63
   6  -8   2  217.78   10.23
   6  -8   0    2.69    2.25
  -8  -6   0   -1.13    2.46
   8  -6   0    4.63    2.51
  -6  -8   0    0.96    2.27
  -6  -8   2  229.12    9.97
   6  -8  -2  222.88    9.90
   8  -6  -2  235.89   10.28
   8  -6  -4   20.94    3.26
   8   6   4   24.82    1.94
  -6  -8   4   23.03    3.19
   6  -8  -4   27.17    3.41
   8  -6  -6   10.65    2.77
   8   6   6   13.41    1.22
   6  -8  -6   16.47    2.91
  -8   6  -8   71.29    3.24
   6  -8  -8   87.54    5.88
   6  -8  -8   69.07    3.07
   8  -6  -8   79.18    5.89
   6  -8 -10    6.69    1.06
   8  -6 -10    6.97    1.68
   8  -6 -10    6.97    2.80
   6  -8 -10   11.72    2.93
   6  -8 -12   76.76    5.83
   8  -6 -12   77.93    6.39
   6  -8 -14   32.72    4.02
   8  -6 -14   30.54    4.49
   6  -8 -16    3.60    2.52
   8  -6 -16    0.04    2.45
   6  -8 -18   33.17    4.25
   8  -6 -18   34.79    4.94
   8  -6 -20   17.05    3.90
   6  -8 -20   14.64    3.47
   8  -6 -22    2.26    2.94
   8  -6 -24    8.01    3.35
   7  -8  23   38.48    6.85
   8  -7  23   45.99    7.32
   8  -7  21   22.04    5.41
   7  -8  21   32.12    5.75
   8  -7  19   21.12    5.14
   7  -8  19   20.12    5.25
   7  -8  17   94.60    8.61
   7  -8  15   65.59    6.93
  -8  -7  -5  257.71   11.38
  -8  -7  -3  146.64    8.23
   7  -8   3  140.87    8.04
   8  -7   3  141.36    7.92
  -7  -8  -3  157.06    8.30
  -7  -8  -1  324.65   12.59
   7  -8   1  298.51   12.44
   8  -7   1  304.51   12.59
  -8  -7  -1  321.47   12.63
   7  -8  -1  291.08   12.28
   8  -7  -1  297.82   12.32
  -7  -8   1  312.49   12.08
  -8  -7   1  296.71   12.08
  -7  -8   3  146.39    7.92
   7  -8  -3  166.36    8.38
   8  -7  -3  156.75    8.27
   8  -7  -5  244.56   11.00
   8   7   5  239.93    7.48
   7  -8  -5  257.63   11.10
   8  -7  -7  185.48    9.49
   7  -8  -7  194.61    9.56
  -8   7  -9   35.16    1.70
   7  -8  -9   44.29    4.43
   7  -8  -9   52.76    2.85
   8  -7  -9   47.96    3.21
   8  -7  -9   49.14    4.92
   7  -8 -11  259.55   11.95
   8  -7 -11  287.41   12.53
   7  -8 -13   67.13    5.71
   8  -7 -13   69.08    6.25
   7  -8 -15   64.07    5.85
   8  -7 -15   58.75    5.79
   7  -8 -17   80.64    6.62
   8  -7 -17   88.65    7.31
   7  -8 -19   15.37    3.46
   8  -7 -19   17.80    4.05
   7  -8 -21   18.20    3.82
   8  -7 -21   20.21    4.09
   8  -7 -23   33.66    5.33
   8  -8  22    2.32    4.40
   8  -8  20   58.03    7.62
   8  -8  18   42.38    6.43
  -8  -8  -4  186.74    9.65
  -8  -8  -2  672.96   22.00
   8  -8   2  656.89   22.10
  -8  -8   0   16.33    3.34
   8  -8   0   18.36    3.31
  -8  -8   2  643.00   21.33
   8  -8  -2  652.07   21.61
   8  -8  -4  175.33    9.09
   8   8   6   20.78    1.35
   8  -8  -6   32.24    4.12
   8  -8  -8  442.81   16.68
   8  -8 -10  142.51    8.35
   8  -8 -12  126.09    7.93
   8  -8 -14  189.88   10.33
   8  -8 -16    9.56    2.97
   8  -8 -18   30.66    4.50
   8  -8 -20   57.38    6.09
   8  -8 -22    5.61    3.34
   0  -9   1   34.72    2.99
   0   9  -1   37.63    3.08
   0   9   1   33.32    2.64
   9   0   1   33.53    3.23
   9   0  -1   34.68    3.43
   0   9   3   70.21    3.38
   0   9   3   72.91    4.12
   9   0   3   70.65    4.62
   0   9  -3   79.90    4.30
   0  -9   3   78.77    5.02
   9   0  -3   81.60    5.27
   0   9   5   34.93    1.80
   9   0   5   42.07    3.34
   0   9   5   45.83    3.06
   0  -9   5   48.81    4.31
   9   0   7  169.62    7.34
   0   9   7  165.32    6.54
  -9   0  -7  170.69    7.61
   0  -9   7  175.47    8.81
   0  -9  -7  175.06    6.74
  -9   0  -9   72.76    4.89
   0  -9  -9   80.15    4.19
   0  -9   9   97.35    6.84
   0  -9  11   86.44    3.97
   0  -9 -11   91.40    4.53
   0  -9  11   91.91    7.10
   0  -9  13   63.85    3.27
   0  -9 -13   69.20    3.97
   0   9  13   62.39    2.85
   0  -9  13   62.67    6.33
   0  -9 -15  205.35    8.08
   0  -9  15  216.91   12.05
   0  -9  17   12.32    3.99
   0  -9  19   15.73    4.52
   0  -9  21   30.43    5.67
   0  -9  23    1.30    3.47
   9   0  25   -0.05    3.34
   9  -1  24   17.13    4.91
   1  -9  24   19.17    4.93
   1  -9  22   22.38    5.31
   1  -9  20   11.15    4.06
   1  -9  18   62.30    7.01
   1  -9  16  165.07   10.68
   1  -9  14   59.10    6.35
  -1  -9 -14   55.16    3.27
  -1  -9 -12   65.15    3.47
   1  -9  12   69.67    6.56
  -1  -9 -10  300.07    9.37
  -9  -1 -10  288.02   10.21
   1  -9  10  300.95   13.40
  -9  -1  -8  134.11    6.82
   1  -9   8  129.85    7.74
  -9  -1  -8  124.42    5.74
   1  -9   6   33.42    3.91
  -9  -1  -6   29.16    3.27
  -1   9   6   30.70    2.72
  -9  -1  -6   32.53    2.74
   9  -1   6   29.26    3.16
   9  -1   4  349.45   12.26
   1  -9   4  353.65   12.73
   9   1  -2  103.22    5.95
   9  -1   2  116.15    6.11
   1  -9   2  111.11    5.68
   1   9   0   41.91    3.14
   9   1   0   42.37    3.59
   1  -9   0   41.11    3.08
   9  -1   0   39.59    3.65
  -1   9  -2   98.17    4.97
  -1  -9   2  109.15    5.64
   1   9   2  101.56    4.96
   9   1   2  104.23    5.39
   1   9   2  109.13    4.76
   9  -1  -2   97.86    5.90
   9  -1  -4  348.10   13.21
   1   9   4  355.76   11.17
   9   1   4  368.70   11.97
  -1   9  -4  343.13   11.05
  -1  -9   4  374.07   13.01
   1   9   4  343.19   10.42
  -1  -9   6   33.27    3.84
   9   1   6   25.21    2.54
   1  -9  -6   31.05    2.72
   1   9   6   25.25    1.67
   1   9   6   26.36    2.18
  -9   1  -8  133.14    6.30
   1  -9  -8  123.23    5.80
  -1  -9   8  134.67    7.89
  -1  -9   8  120.33    5.58
  -1  -9  10  292.87    9.81
  -1  -9  10  283.31   12.87
   1  -9 -10  292.74   10.29
   1  -9 -12   61.58    4.11
  -1  -9  12   67.44    6.25
   1   9  12   62.99    3.17
  -1  -9  12   66.41    3.82
   1   9  14   68.66    3.62
   1  -9 -14   62.30    4.24
  -1  -9  14   73.26    7.08
  -1  -9  14   55.61    3.67
   1  -9 -16  158.09    7.32
  -1  -9  16  184.33   11.17
  -1  -9  18   59.80    6.94
  -1  -9  20    8.99    3.99
  -1  -9  22   16.03    4.66
   9   1  24    9.95    3.96
  -1  -9  24   20.43    5.17
   9   1  26    8.09    4.24
   2  -9  23    7.83    4.27
   9  -2  23    7.85    4.32
   2  -9  21   24.17    5.22
   2  -9  19   21.77    4.72
   2  -9  17   20.95    4.68
   2  -9  15   87.24    7.73
  -2  -9 -13   85.38    3.58
   2  -9  13  103.87    7.90
   2  -9  11   44.09    5.21
  -9  -2 -11   39.09    2.89
   2  -9   9   81.17    6.52
  -9  -2  -9   81.07    5.52
  -9  -2  -9   83.80    4.27
  -9  -2  -7  277.76   10.96
   9  -2   7  282.29   10.83
   2  -9   7  282.70   11.79
  -9  -2  -7  264.19    9.23
  -9  -2  -5  386.24   13.50
   9  -2   5  376.29   13.43
   2  -9   5  367.15   13.84
   9  -2   3   41.22    3.74
   2  -9   3   36.66    3.58
   9  -2   1  222.78    9.57
   2  -9   1  251.66    9.06
   9   2   1  250.12    9.19
   2  -9  -1  237.02    8.20
   9  -2  -1  235.16    9.89
   2   9   1  240.95    8.73
   2  -9  -3   34.76    1.94
   2  -9  -3   30.52    3.12
  -2   9  -3   31.64    2.48
   2   9   3   32.49    2.52
   9   2   3   36.04    3.00
   2   9   3   32.18    2.46
   9  -2  -3   33.85    3.72
   2  -9  -5  366.75   12.57
   9   2   5  373.91   11.92
  -2  -9   5  377.62   12.58
   2   9   5  366.33   11.16
  -2  -9   5  383.38   13.90
  -2   9  -5  365.41   11.11
   9  -2  -5  367.35   14.09
   2   9   7  265.34    8.41
   2  -9  -7  287.18   10.28
  -9   2  -7  270.00    9.84
   9  -2  -7  279.53   11.80
  -2  -9   7  269.38    9.87
  -2  -9   7  287.44   11.90
   9   2   7  287.08    9.53
  -9   2  -9   87.81    4.76
  -2  -9   9   79.01    4.66
   2  -9  -9   81.03    4.84
  -2  -9   9   84.02    6.42
  -2  -9  11   40.67    3.37
  -2  -9  11   44.00    5.23
   2  -9 -11   40.69    3.57
   2  -9 -13   95.69    5.51
  -2  -9  13   90.13    7.60
  -2  -9  15   82.45    7.54
   2  -9 -15   88.44    5.35
   2  -9 -17   20.22    2.76
  -2  -9  17   17.04    4.31
  -2  -9  19   21.83    5.02
  -2  -9  21   30.29    5.63
  -2  -9  23    1.81    3.51
   9   2  25   -1.13    3.08
   9  -3  24   -1.31    3.93
   3  -9  22    6.08    4.05
   3  -9  20    2.77    3.84
   3  -9  18   33.01    5.50
   3  -9  16   19.13    4.02
   3  -9  14    7.86    3.19
   3  -9  12   71.16    6.70
   3  -9  10  107.20    7.60
  -9  -3 -10  104.89    4.53
  -9  -3  -8   10.54    2.67
   3  -9   8   17.11    3.65
  -9  -3  -6   17.77    3.16
   9  -3   6   15.55    2.64
   3  -9   6   20.23    3.25
  -9  -3  -4   65.69    4.90
   9  -3   4   63.51    4.76
   3  -9   4   54.01    4.55
   3  -9   2   10.98    2.16
   9  -3   2    8.39    2.04
   3  -9   0   49.42    3.39
   9  -3   0   50.59    4.39
  -3  -9   2    9.62    2.31
   3  -9  -2   10.10    1.48
   3  -9  -2    8.98    2.21
   9   3   2   11.01    1.90
   9  -3  -2   11.69    2.67
   3   9   2   10.77    1.81
  -3  -9   4   62.63    4.43
   9   3   4   63.08    3.61
   3  -9  -4   58.67    4.26
  -3   9  -4   51.42    3.01
   3   9   4   57.85    3.10
   3  -9  -4   52.70    2.18
   9  -3  -4   54.94    4.70
   9  -3  -6   15.27    3.13
  -3   9  -6   17.11    1.61
  -3  -9   6   19.26    3.26
  -3  -9   6   18.19    2.65
   3  -9  -6   20.69    2.73
   3   9   6   15.99    1.41
   9   3   6   18.21    1.97
   9  -3  -8   15.18    3.37
  -3  -9   8   14.71    2.47
  -9   3  -8   14.22    2.16
   3  -9  -8   15.27    2.52
  -3  -9   8   21.11    3.62
  -3  -9  10  107.97    5.68
  -9   3 -10   95.90    4.90
   9  -3 -10  102.97    7.27
   3  -9 -10  121.47    6.31
  -3  -9  10  113.04    7.67
   3  -9 -12   76.99    5.10
  -3  -9  12   76.87    6.84
   3  -9 -14    8.51    2.31
  -3  -9  14    0.87    3.25
   3  -9 -16   16.38    2.89
  -3  -9  16   12.51    3.89
  -3  -9  18   34.93    5.52
   3  -9 -18   25.59    3.31
  -3  -9  20    4.42    3.42
  -3  -9  22    0.62    3.36
   9  -4  23    5.18    3.87
   4  -9  23    6.54    4.41
   4  -9  21   15.95    4.92
   4  -9  19   12.29    4.00
   4  -9  17   16.57    4.27
   4  -9  15   21.05    4.52
   4  -9  13   64.92    7.02
   4  -9  11   26.40    4.78
   4  -9   9   32.43    4.36
  -9  -4  -7   40.11    4.24
   4  -9   7   42.90    4.62
   4  -9   5   23.80    3.42
   9  -4   5   18.91    2.97
  -9  -4  -5   31.22    3.87
   4  -9   3    4.32    1.99
  -9  -4  -3    5.38    2.65
   9  -4   3    4.96    2.23
   9  -4   1   42.90    4.34
   4  -9   1   38.42    3.35
   4  -9  -1   44.84    4.08
  -4  -9   1   46.10    4.26
   9  -4  -1   43.42    4.26
   4  -9  -1   43.14    3.05
   9   4   3    3.12    1.28
  -4  -9   3    4.45    2.44
   4  -9  -3    3.09    2.03
   4  -9  -3    3.76    1.05
   9  -4  -3    2.11    2.04
   9  -4  -5   24.18    3.50
   4   9   5   20.12    1.64
  -4  -9   5   24.46    3.09
   9   4   5   25.15    2.23
   4  -9  -5   25.63    3.25
   9  -4  -7   39.27    4.33
   9   4   7   32.94    2.29
  -4  -9   7   38.85    3.74
   4   9   7   27.21    1.37
   4  -9  -7   38.02    3.61
  -9   4  -9   35.96    2.76
   9  -4  -9   41.34    4.64
   4  -9  -9   39.07    3.76
  -4  -9  11   14.94    3.74
   9  -4 -11   21.09    3.89
   4  -9 -11   27.14    3.45
   4  -9 -13   62.18    4.92
   9  -4 -13   62.24    5.93
  -4  -9  13   49.39    5.86
   4  -9 -15   14.68    2.82
   9  -4 -15   14.78    3.66
  -4  -9  15   19.90    4.52
   4  -9 -17   11.65    2.58
  -4  -9  17   16.06    4.46
   4  -9 -19    9.48    2.65
  -4  -9  19   15.99    4.44
  -4  -9  21   12.52    4.43
  -4  -9  23    7.34    3.74
   9  -4 -25   -0.16    2.95
   5  -9  22    5.86    4.05
   9  -5  22    3.17    3.40
   5  -9  20   13.65    4.54
   5  -9  18   30.99    5.79
   5  -9  16    8.80    3.34
   5  -9  14   38.16    5.49
   5  -9  12   82.87    7.35
   5  -9  10   52.96    5.52
  -9  -5  -8   30.91    3.91
  -9  -5  -6   94.82    6.29
   9  -5   6   84.61    6.04
   9  -5   4   60.15    5.06
  -9  -5  -4   63.62    5.17
  -9  -5  -2   51.27    4.65
   9  -5   2   46.28    4.53
  -5  -9   0  161.84    8.17
   5  -9   0  166.97    8.27
   9  -5   0  153.65    8.22
  -5  -9   2   42.07    4.09
   5  -9  -2   46.75    4.26
   9  -5  -2   51.01    4.67
   5  -9  -4   58.78    4.68
  -5  -9   4   56.68    4.55
   9  -5  -4   61.64    5.13
   9   5   4   59.61    3.36
   5  -9  -6   88.34    5.63
  -5  -9   6   86.31    5.47
   9   5   6   90.44    3.78
   9  -5  -6   83.10    6.20
   5   9   6   66.62    2.71
  -9   5  -8   29.93    2.54
   9  -5  -8   30.01    4.00
   5  -9  -8   37.62    3.97
   5  -9 -10   49.88    4.53
  -9   5 -10   49.97    2.88
   9  -5 -10   52.02    5.25
   9  -5 -12   82.24    6.78
   5  -9 -12   70.84    5.42
   9  -5 -14   27.06    4.28
   5  -9 -14   25.16    3.57
   5  -9 -16    8.24    2.53
   9  -5 -16    6.26    2.92
   5  -9 -18   19.15    3.42
   9  -5 -18   31.50    5.13
   5  -9 -20    2.29    2.11
   9  -5 -20    7.63    3.27
   9  -5 -22    4.14    3.14
   9  -5 -24    0.63    3.51
   9  -6  23   -0.89    3.60
   9  -6  21    6.45    4.00
   6  -9  21    2.51    3.96
   6  -9  19    1.25    3.53
   6  -9  17    3.41    3.51
   6  -9  15    5.45    3.56
   6  -9  13   66.81    6.90
  -9  -6  -7   61.80    5.45
   9  -6   5   -2.37    2.45
  -9  -6  -5    5.27    2.61
  -9  -6  -3    3.20    2.68
   9  -6   3    0.99    2.17
   6  -9   1   65.33    5.58
  -9  -6  -1   82.90    5.87
   9  -6   1   69.88    5.56
  -6  -9  -1   83.87    5.83
   9  -6  -1   62.39    5.24
   6  -9  -1   73.13    5.49
  -6  -9   1   70.17    5.44
  -6  -9   3    1.46    2.18
   6  -9  -3    1.99    2.14
   9  -6  -3    6.55    2.59
   9  -6  -5    0.99    2.29
  -6  -9   5    6.56    2.59
   6  -9  -5    3.25    2.30
   9   6   5    2.71    1.08
   9   6   7   58.94    2.67
   6  -9  -7   66.89    5.21
   9  -6  -7   65.42    5.63
  -9   6  -9   22.02    1.89
   9  -6  -9   22.53    3.60
   6  -9  -9   27.77    3.83
   6  -9 -11   12.38    3.02
   9  -6 -11    7.07    3.00
   6  -9 -13   62.87    5.46
   9  -6 -13   62.76    6.08
   6  -9 -15    3.92    2.32
   9  -6 -15   -1.53    2.60
   9  -6 -17    7.52    3.53
   6  -9 -17    8.89    2.82
   6  -9 -19    2.89    2.41
   9  -6 -19    8.65    3.65
   9  -6 -21    0.82    2.87
   9  -6 -23   -1.20    3.01
   9  -7  22   -3.29    3.65
   7  -9  22    3.47    4.11
   7  -9  20   25.98    5.45
   9  -7  20   26.25    5.67
   7  -9  18   28.60    5.72
   7  -9  16   11.74    4.31
   7  -9  14   65.76    7.14
  -9  -7  -6   17.61    3.60
  -9  -7  -4   38.14    4.56
   9  -7   4   34.63    4.25
  -7  -9  -2  167.89    8.71
  -9  -7  -2  155.87    8.58
   7  -9   2  155.39    8.59
   9  -7   2  142.05    8.31
  -9  -7   0   24.63    3.88
   7  -9   0   21.94    3.63
  -7  -9   0   22.95    3.89
   9  -7   0   21.30    3.81
   7  -9  -2  144.39    8.16
  -7  -9   2  166.27    8.46
   9  -7  -2  148.99    8.49
  -7  -9   4   33.89    4.18
   7  -9  -4   38.49    4.28
   9  -7  -4   35.81    4.33
   9  -7  -6   17.11    3.43
   9   7   6   13.66    1.34
   7  -9  -6   17.83    3.45
   7  -9  -8  103.30    4.13
   7  -9  -8  108.57    7.08
   9  -7  -8  114.88    7.40
   9  -7 -10   48.70    5.11
   7  -9 -10   49.62    4.87
   7  -9 -12   59.33    5.36
   9  -7 -12   59.19    5.73
   7  -9 -14   60.91    5.49
   9  -7 -14   68.83    6.40
   7  -9 -16    6.09    2.69
   9  -7 -16    1.36    2.66
   9  -7 -18   15.31    3.74
   7  -9 -18   17.30    3.46
   9  -7 -20   23.47    4.59
   7  -9 -20   22.85    3.98
   9  -7 -22    4.36    3.08
   9  -7 -24   -2.62    3.47
   9  -8  21   22.24    5.62
   8  -9  21    7.87    4.30
   8  -9  19   18.16    5.29
   9  -8  19    7.79    4.08
   8  -9  17   20.95    4.68
  -9  -8  -5  177.56    9.48
  -9  -8  -3   15.33    3.57
  -8  -9  -3   21.56    3.95
   8  -9   3   21.21    3.74
   9  -8   3   20.30    3.46
  -8  -9  -1  214.20   10.33
  -9  -8  -1  230.35   10.63
   9  -8   1  198.81   10.39
   8  -9   1  215.74   10.56
   9  -8  -1  207.22   10.40
  -8  -9   1  210.97   10.18
   8  -9  -1  218.56   10.52
  -9  -8   1  217.59   10.35
  -8  -9   3   25.92    3.96
   8  -9  -3   24.10    3.67
   9  -8  -3   21.20    3.49
  -8  -9   5  156.76    8.70
   9   8   5  157.28    5.69
   8  -9  -5  161.66    8.88
   9  -8  -5  173.11    9.28
   9  -8  -7   62.30    5.48
   8  -9  -7   65.59    5.59
   9  -8  -9   41.18    4.74
   8  -9  -9   35.48    4.47
   9  -8 -11  140.91    8.75
   8  -9 -11  138.60    8.48
   8  -9 -13   38.07    4.83
   9  -8 -13   33.34    4.64
   8  -9 -15   57.01    5.59
   9  -8 -15   55.68    5.92
   8  -9 -17   29.99    4.36
   9  -8 -17   28.65    4.37
   8  -9 -19    6.58    2.99
   9  -8 -19   11.23    3.50
   9  -8 -21    6.52    3.08
   8  -9 -21   13.36    3.45
   9  -8 -23   15.67    4.05
   9  -9  20    3.14    3.85
   9  -9  18    2.79    3.29
  -9  -9  -4   13.61    3.38
  -9  -9  -2   57.65    5.46
   9  -9   2   63.34    5.89
  -9  -9   0  259.24   11.70
   9  -9   0  238.18   11.65
  -9  -9   2   57.88    5.45
   9  -9  -2   63.36    5.76
  -9  -9   4   13.70    3.34
   9  -9  -4   21.07    3.64
   9   9   6    8.04    1.00
   9  -9  -6   10.40    2.98
   9  -9  -8   95.20    7.11
   9  -9 -10   28.42    4.32
   9  -9 -12   -0.24    2.71
   9  -9 -14   12.82    3.37
   9  -9 -16    6.11    2.76
   9  -9 -18    5.55    3.07
   9  -9 -20    8.50    3.23
   9  -9 -22    1.71    2.67
   0  10   0   24.52    2.55
  10   0   0   22.13    2.92
  10   0   2    7.92    2.14
   0 -10   2    6.65    2.06
  10   0  -2    6.48    2.16
   0  10   2    5.75    1.39
  10   0  -4  334.20   13.17
   0  10  -4  332.04   11.34
  10   0   4  337.80   12.09
   0 -10   4  357.31   12.91
  10   0   6   53.88    4.13
   0 -10   6   58.28    5.01
   0  10   6   53.05    3.50
 -10   0  -6   58.06    4.54
 -10   0  -8   24.93    3.17
   0 -10  -8   29.29    2.62
   0  10   8   29.24    2.57
   0 -10   8   33.37    4.33
  10   0   8   28.33    3.13
   0 -10 -10  331.19   10.87
 -10   0 -10  316.42   11.99
   0 -10  10  317.93   14.08
   0 -10  12   13.68    4.05
   0 -10 -12   11.77    1.91
   0 -10 -14    6.75    1.73
   0 -10  14    7.70    3.36
   0 -10  16  189.00   11.62
   0 -10  18   28.59    5.34
   0 -10  20   25.63    5.52
   0 -10  22    7.23    3.92
   1 -10  23    6.26    4.39
   1 -10  21   48.02    6.82
   1 -10  19    8.43    3.91
   1 -10  17    6.78    3.79
   1 -10  15  202.26   11.91
   1 -10  13   60.43    6.25
  -1 -10 -13   53.14    3.18
  -1 -10 -11   80.93    3.98
   1 -10  11   80.43    6.72
 -10  -1  -9  117.54    6.66
   1 -10   9  115.24    7.75
 -10  -1  -7  109.93    6.32
  10  -1   7  115.23    6.26
   1 -10   7  108.57    7.04
  10  -1   5  123.69    6.53
   1 -10   5  112.59    6.84
  10   1  -3   84.40    5.52
  10  -1   3   87.96    5.33
   1 -10   3   89.23    5.44
  10   1  -1   37.45    3.74
  10  -1   1   34.16    3.56
   1 -10   1   41.14    3.31
   1 -10  -1   41.67    2.98
   1  10   1   43.64    3.20
  10  -1  -1   38.15    3.82
  10   1   1   44.81    3.76
  10  -1  -3   82.73    5.83
  -1  10  -3   82.31    4.53
  -1 -10   3   89.43    5.59
  10   1   3   83.61    5.06
   1  10   3   87.13    4.23
  -1 -10   5  129.49    7.12
  10  -1  -5  129.65    7.38
  10   1   5  126.84    6.07
   1  10   5  123.54    5.43
   1  10   5  109.73    4.51
 -10   1  -7  118.41    6.23
   1 -10  -7  116.42    5.66
  10   1   7  117.19    5.74
  -1 -10   7  118.98    7.41
   1  10   7   99.69    3.80
   1  10   7  111.60    4.92
 -10   1  -9  115.75    6.13
   1 -10  -9  126.51    5.82
   1  10   9   95.43    3.39
  -1 -10   9  126.86    5.58
  -1 -10   9  114.97    7.62
   1  10  11   67.63    2.74
   1 -10 -11   83.78    4.76
  -1 -10  11   79.92    4.29
  -1 -10  11   90.12    7.17
  -1 -10  13   55.86    3.60
   1 -10 -13   56.88    3.99
  -1 -10  13   72.93    6.86
   1 -10 -15  186.99    8.20
  -1 -10  15  215.97   12.17
  -1 -10  17   10.99    3.78
  -1 -10  19   19.68    4.70
  -1 -10  21   33.20    5.81
  -1 -10  23   11.73    4.51
  10   1  25    3.41    3.79
  10  -2  24   -4.53    3.86
   2 -10  22    2.71    3.76
   2 -10  20   11.25    3.92
   2 -10  18   15.85    4.32
   2 -10  16   84.51    7.85
   2 -10  14   14.28    4.10
   2 -10  12   39.03    5.38
 -10  -2 -10  142.36    6.29
   2 -10  10  168.81    9.47
 -10  -2  -8   10.89    2.76
   2 -10   8   16.66    3.38
 -10  -2  -8   11.24    1.82
 -10  -2  -6    7.24    2.58
   2 -10   6    2.08    2.35
  10  -2   6    2.04    1.87
  10  -2   4  169.95    8.03
   2 -10   4  156.65    7.86
  10  -2   2   83.02    5.50
   2 -10   2   91.74    5.23
  10   2   0   36.45    3.43
  10  -2   0   30.85    3.58
   2 -10   0   40.87    3.15
   2 -10  -2   95.08    4.16
   2  10   2   88.71    4.70
  10  -2  -2   85.21    5.73
  10   2   2   92.99    5.20
  -2  10  -4  157.23    6.51
   2  10   4  166.96    6.56
   2 -10  -4  159.32    7.52
  -2 -10   4  167.29    8.12
  10   2   4  178.49    7.34
   2  10   4  165.77    6.43
  10  -2  -4  175.61    8.69
  -2 -10   6    3.34    2.34
   2  10   6    3.52    1.10
   2 -10  -6    5.40    1.91
  10  -2  -6   -1.38    2.43
  10   2   6    2.67    1.36
  -2 -10   6    3.85    1.93
   2  10   6    4.20    1.10
  -2 -10   8   14.34    3.42
  -2 -10   8   14.25    2.41
  10   2   8   10.68    1.92
  10  -2  -8   11.09    3.16
   2 -10  -8   11.03    2.20
 -10   2  -8    8.00    2.12
   2 -10 -10  158.99    7.25
 -10   2 -10  148.84    6.92
  -2 -10  10  153.28    6.89
  -2 -10  10  157.90    9.35
  -2 -10  12   34.80    5.14
   2 -10 -12   40.57    3.58
  -2 -10  12   35.39    3.26
  -2 -10  14   16.38    2.46
  -2 -10  14   10.47    3.48
   2 -10 -14   13.46    2.45
   2 -10 -16   70.68    4.94
  -2 -10  16   79.49    7.52
  -2 -10  18   18.37    4.35
  -2 -10  20   15.59    4.71
  -2 -10  22   -0.89    3.34
   3 -10  23    4.55    4.16
   3 -10  21   15.28    4.63
   3 -10  19    0.48    3.17
   3 -10  17    6.16    3.76
   3 -10  15   29.43    5.08
   3 -10  13   37.93    5.43
   3 -10  11   15.75    3.82
 -10  -3  -9   45.28    4.49
   3 -10   9   49.31    5.41
  10  -3   7   23.04    3.36
   3 -10   7   26.48    3.99
 -10  -3  -7   31.69    3.88
   3 -10   5   76.36    5.53
  10  -3   5   64.21    5.10
 -10  -3  -5   57.50    4.92
  10  -3   3   19.18    3.00
   3 -10   3   21.20    3.06
   3 -10   1   17.71    2.41
  10  -3   1   15.20    2.99
  10  -3  -1   15.31    2.81
   3 -10  -1   18.26    2.08
  10   3   1   19.84    2.60
   3  10   3   20.89    2.27
  10   3   3   21.84    2.52
  10  -3  -3   18.07    3.25
   3 -10  -3   22.94    3.07
   3  10   3   20.79    2.11
   3 -10  -3   20.84    1.71
  -3 -10   5   62.24    4.68
  -3  10  -5   56.22    3.30
   3  10   5   63.73    3.35
  10   3   5   68.52    4.04
   3 -10  -5   66.25    4.72
  10  -3  -5   68.62    5.64
  -3 -10   7   27.58    3.17
  10  -3  -7   26.03    3.78
  10   3   7   25.76    2.44
  -3 -10   7   24.79    3.88
   3 -10  -7   31.88    3.37
   3  10   7   24.54    1.81
   3 -10  -9   52.20    4.23
  10  -3  -9   46.64    5.16
  -3 -10   9   57.95    4.26
 -10   3  -9   51.87    3.73
  -3 -10   9   44.51    5.19
  -3 -10  11   13.62    2.52
  -3 -10  11   12.76    3.63
  10  -3 -11   17.42    3.72
   3 -10 -11   11.05    2.33
  -3 -10  13   24.78    4.55
  -3 -10  13   27.82    3.27
   3 -10 -13   30.61    3.51
  -3 -10  15   17.84    4.29
   3 -10 -15   30.52    3.44
   3 -10 -17    5.91    2.13
  -3 -10  17    1.86    3.03
  -3 -10  19    7.84    4.23
  -3 -10  21   13.06    4.28
  -3 -10  23    7.17    4.09
   4 -10  22    7.83    4.03
   4 -10  20   19.17    5.06
   4 -10  18   25.65    5.38
   4 -10  16    4.46    3.53
   4 -10  14   67.35    7.02
   4 -10  12   64.43    6.75
   4 -10  10   98.51    7.53
 -10  -4  -8  138.33    7.86
   4 -10   8  145.49    8.70
  10  -4   6   33.35    3.86
   4 -10   6   24.27    3.77
 -10  -4  -6   31.00    4.18
 -10  -4  -4  168.46    8.48
  10  -4   4  145.05    8.13
   4 -10   4  156.90    8.09
  10  -4   2  216.63    9.84
   4 -10   2  209.27    9.08
   4 -10   0    3.38    1.59
  10  -4   0    0.14    2.21
  -4 -10   2  219.75    9.80
  10   4   2  228.05    8.60
   4 -10  -2  220.91    9.74
  10  -4  -2  208.44    9.91
   4 -10  -2  217.48    7.81
   4 -10  -4  149.77    7.67
   4  10   4  152.84    5.89
  -4 -10   4  150.21    7.61
  10   4   4  159.24    6.51
  10  -4  -4  156.07    8.36
   4 -10  -4  149.50    5.09
  -4  10  -6   30.58    2.16
  10   4   6   28.31    2.51
  10  -4  -6   35.90    4.25
   4  10   6   26.49    1.85
   4 -10  -6   28.76    3.41
  -4 -10   6   29.69    3.47
  -4 -10   8  137.45    6.95
  10   4   8  136.39    5.49
 -10   4  -8  128.33    6.04
   4 -10  -8  130.63    7.12
  10  -4  -8  143.54    8.52
  10  -4 -10   92.56    6.98
  -4 -10  10   85.67    5.64
   4 -10 -10   83.38    5.68
 -10   4 -10   86.86    4.59
  10  -4 -12   61.34    6.05
   4 -10 -12   62.67    4.87
  -4 -10  12   71.89    6.70
  10  -4 -14   69.58    6.59
  -4 -10  14   68.62    6.73
   4 -10 -14   62.94    5.05
   4 -10 -16    3.37    2.31
  10  -4 -16    7.19    3.31
  -4 -10  16    6.76    3.72
   4 -10 -18   26.74    3.80
  10  -4 -18   29.12    4.82
  -4 -10  18   26.74    5.14
  10  -4 -20   22.94    4.58
  -4 -10  20   27.17    5.55
  10  -4 -22    3.53    3.32
  -4 -10  22   -2.84    3.54
  10  -4 -24    4.68    3.88
   5 -10  21   20.29    5.01
   5 -10  19    0.01    3.35
   5 -10  17   46.80    6.37
   5 -10  15   39.08    5.58
   5 -10  13   66.10    6.89
   5 -10  11  132.67    9.01
   5 -10   9   82.06    6.94
 -10  -5  -7   88.59    6.63
   5 -10   7   91.63    6.80
  10  -5   5  283.43   11.80
 -10  -5  -5  261.49   11.83
   5 -10   5  254.87   11.52
 -10  -5  -3   22.45    3.70
  10  -5   3   16.58    3.02
  10  -5   1  206.83   10.03
  -5 -10   1  239.45   10.21
   5 -10  -1  213.44   10.02
  10  -5  -1  208.48   10.16
  10   5   3   16.77    2.07
   5 -10  -3   19.05    3.09
  10  -5  -3   22.17    3.56
   5 -10  -3   19.14    2.02
  -5 -10   3   19.47    3.31
  -5 -10   5  248.37   10.66
   5 -10  -5  273.72   11.27
   5 -10  -5  248.00    7.57
   5  10   5  255.13    8.10
  10   5   5  270.21    8.92
  10  -5  -5  262.64   11.77
  -5  10  -7   69.44    2.91
   5 -10  -7   93.69    5.99
  -5 -10   7   95.43    5.85
  10  -5  -7   85.86    6.31
  10   5   7   87.70    3.81
  -5 -10   9   93.23    6.05
   5 -10  -9   99.18    6.29
 -10   5  -9   97.89    4.74
  10  -5  -9   94.86    7.03
   5 -10 -11  133.51    7.66
  10  -5 -11  138.96    8.83
  10  -5 -13   65.28    6.60
   5 -10 -13   71.31    5.57
   5 -10 -15   38.68    4.31
  10  -5 -15   28.02    4.54
   5 -10 -17   42.47    4.65
  10  -5 -17   51.80    5.93
  10  -5 -19    9.09    3.49
  10  -5 -21   30.17    5.18
  10  -5 -23    8.50    3.98
  10  -5 -25    4.54    3.33
   6 -10  22    4.44    3.91
  10  -6  22   -0.44    3.84
   6 -10  20    2.46    3.43
   6 -10  18   33.14    5.83
   6 -10  16   21.32    4.97
   6 -10  14   39.18    5.70
   6 -10  12   64.51    6.70
   6 -10  10   50.27    5.74
 -10  -6  -8   62.02    5.66
 -10  -6  -6   16.71    3.89
  10  -6   6   12.23    3.28
  10  -6   4  104.57    7.01
 -10  -6  -4  117.32    7.23
 -10  -6  -2  118.27    7.35
  10  -6   2  105.24    7.05
  -6 -10   0   89.94    6.50
   6 -10   0   94.63    6.58
  10  -6   0   97.09    6.82
  10  -6  -2  121.36    7.58
   6 -10  -2   98.36    6.68
  -6 -10   2   99.35    6.59
   6 -10  -4   99.04    6.54
  10  -6  -4  107.03    7.17
  10   6   4  102.43    4.84
  -6 -10   4   96.39    6.34
  -6 -10   6   14.32    3.40
   6  10   6   14.02    1.23
   6 -10  -6   18.85    3.24
  10  -6  -6   10.74    3.20
  10   6   6   16.83    1.80
  -6 -10   8   56.34    4.99
  10   6   8   49.87    2.50
   6 -10  -8   64.92    5.24
  10  -6  -8   63.43    5.60
   6 -10 -10   62.15    5.32
 -10   6 -10   52.20    3.05
  10  -6 -10   63.46    5.92
   6 -10 -12   64.60    5.55
  10  -6 -12   58.87    5.96
   6 -10 -14   31.20    4.01
  10  -6 -14   34.60    4.90
   6 -10 -16   11.33    2.84
  10  -6 -16    9.68    3.29
   6 -10 -18   19.22    3.48
  10  -6 -18   19.67    4.37
  10  -6 -20   15.96    4.19
  10  -6 -22   -2.62    3.47
  10  -6 -24    1.73    3.12
  10  -7  21   -5.93    4.49
   7 -10  21   15.48    5.03
   7 -10  19   15.24    4.89
   7 -10  17    2.61    3.19
   7 -10  15   17.70    4.75
   7 -10  13   47.00    6.30
 -10  -7  -7   49.16    5.31
 -10  -7  -5   15.01    3.59
  10  -7   5   18.56    3.75
 -10  -7  -3    3.82    2.90
  10  -7   3    0.25    2.47
  -7 -10  -1    4.45    2.76
 -10  -7  -1   -0.64    2.86
  10  -7   1    3.50    2.85
   7 -10   1    3.71    2.47
 -10  -7   1    2.33    2.77
  -7 -10   1    1.32    3.08
   7 -10  -1    1.12    2.24
  10  -7  -1    2.53    2.43
   7 -10  -3    1.46    2.36
  -7 -10   3    4.01    2.57
  10  -7  -3    2.79    2.42
  10   7   5   14.29    1.79
   7 -10  -5   14.68    3.13
  -7 -10   5   19.67    3.62
  10  -7  -5   19.70    3.92
  10  -7  -7   46.09    4.95
  10   7   7   42.13    2.32
   7 -10  -7   57.38    5.18
  -7 -10   7   45.99    5.01
  10  -7  -9    8.00    3.14
 -10   7  -9   13.11    1.70
   7 -10  -9   17.47    3.29
   7 -10 -11    0.75    2.19
  10  -7 -11   -0.65    2.84
  10  -7 -13   30.34    4.50
   7 -10 -13   40.79    4.67
  10  -7 -15    9.07    3.38
   7 -10 -15    6.74    2.98
  10  -7 -17   -0.34    2.85
   7 -10 -17    2.27    2.33
   7 -10 -19    6.17    2.73
  10  -7 -19   -0.63    2.79
  10  -7 -21    7.94    3.66
  10  -7 -23   -2.02    3.45
   8 -10  20    4.33    4.35
  10  -8  20   -3.29    4.15
   8 -10  18   18.14    5.05
   8 -10  16    7.01    3.61
   8 -10  14    4.39    3.80
 -10  -8  -6    8.40    3.17
 -10  -8  -4   13.60    3.62
  10  -8   4   16.61    3.54
  -8 -10  -2   19.00    3.71
 -10  -8  -2   18.76    3.95
   8 -10   2   18.32    3.71
  10  -8   2   16.19    3.71
  -8 -10   0   60.83    5.57
 -10  -8   0   73.59    6.09
   8 -10   0   58.34    5.42
  10  -8   0   50.69    5.45
  -8 -10   2   13.22    3.33
 -10  -8   2   14.33    3.64
   8 -10  -2   15.30    3.28
  10  -8  -2   17.77    3.49
  -8 -10   4   13.02    3.39
   8 -10  -4   14.63    3.19
  10  -8  -4   15.97    3.29
  10   8   6    6.92    1.15
  -8 -10   6   10.24    3.42
   8 -10  -6    7.85    2.74
  10  -8  -6   13.48    3.70
   8 -10  -8   62.59    5.71
  10  -8  -8   63.60    5.96
  10  -8 -10   31.93    4.46
   8 -10 -10   37.03    4.68
  10  -8 -12    6.20    3.02
   8 -10 -12    7.93    2.94
   8 -10 -14    3.95    2.83
  10  -8 -14    4.85    3.08
   8 -10 -16   10.86    3.32
  10  -8 -16   12.56    4.07
   8 -10 -18   12.21    3.47
  10  -8 -18    8.58    3.52
  10  -8 -20   -3.16    3.10
   8 -10 -20   -0.66    2.67
  10  -8 -22    1.42    2.95
   9 -10  19   -9.80    4.62
  10  -9  19    3.90    4.22
   9 -10  17   10.19    4.36
 -10  -9  -5   78.77    6.66
  -9 -10  -3   51.95    5.63
 -10  -9  -3   59.61    5.77
  10  -9   3   61.65    5.95
 -10  -9  -1   83.25    6.70
   9 -10   1  103.29    7.39
  10  -9   1   91.17    7.05
  -9 -10  -1   92.93    7.02
  -9 -10   1   91.52    6.96
 -10  -9   1   97.30    7.11
   9 -10  -1  102.96    7.39
  10  -9  -1   91.49    7.10
 -10  -9   3   55.02    5.74
  -9 -10   3   50.30    5.42
  10  -9  -3   52.18    5.47
   9 -10  -3   63.25    5.71
  10   9   5   75.19    3.69
  -9 -10   5   78.73    6.48
   9 -10  -5   75.70    6.47
  10  -9  -5   71.43    6.42
   9 -10  -7   15.35    3.43
  10  -9  -7   15.74    3.73
   9 -10  -9   15.13    3.49
  10  -9  -9   19.11    3.75
   9 -10 -11   59.05    5.88
  10  -9 -11   63.45    5.97
   9 -10 -13    4.66    2.96
  10  -9 -13    2.91    2.68
   9 -10 -15   15.77    3.83
  10  -9 -15   25.86    4.38
  10  -9 -17    1.31    2.70
   9 -10 -17    5.96    2.99
   9 -10 -19   -1.91    2.69
  10  -9 -19    1.99    3.07
   9 -10 -21    0.58    2.89
  10  -9 -21    6.70    3.25
  10 -10  18   13.49    4.49
 -10 -10  -4  100.88    7.56
 -10 -10  -2  189.74   10.33
  10 -10   2  170.05   10.34
 -10 -10   0  411.89   16.74
  10 -10   0  425.57   17.46
 -10 -10   2  191.66   10.12
  10 -10  -2  178.55   10.33
  10 -10  -4  119.35    8.13
 -10 -10   4  106.12    7.62
 -10 -10   6   49.43    5.49
  10 -10  -6   51.51    5.40
  10 -10  -8  136.45    9.14
  10 -10 -10   79.86    6.96
  10 -10 -12   13.50    3.50
  10 -10 -14   39.76    5.30
  10 -10 -16   24.18    4.31
  10 -10 -18    4.45    3.05
  10 -10 -20   14.91    4.02
   0 -11   1   55.45    4.09
  11   0   1   56.19    4.44
  11   0  -1   56.21    4.79
   0 -11   3   21.97    3.11
  11   0  -3   22.26    3.35
  11   0   3   29.80    3.33
  11   0   5  149.61    7.29
   0 -11   5  144.32    8.05
  11   0  -5  143.70    8.22
 -11   0  -7   65.40    4.92
  11   0   7   65.95    4.77
   0 -11   7   63.99    5.55
 -11   0  -9   47.56    4.37
   0 -11   9   44.66    5.27
   0 -11 -11   76.63    4.38
   0 -11  11   70.56    6.70
   0 -11 -13   29.07    2.74
   0 -11  13   33.65    5.21
   0 -11  15   78.60    7.59
   0 -11  17   18.31    4.28
   0 -11  19    1.14    3.20
   0 -11  21   11.98    4.54
   1 -11  22    5.12    3.98
   1 -11  20   23.57    5.38
   1 -11  18   13.07    4.35
   1 -11  16   72.59    7.39
   1 -11  14   38.48    5.45
   1 -11  12   47.20    5.64
 -11  -1 -10   98.98    6.28
   1 -11  10   96.24    7.49
  11  -1   8   27.25    3.42
 -11  -1  -8   21.24    3.26
   1 -11   8   31.22    4.34
 -11  -1  -6   35.19    3.89
  11  -1   6   36.83    3.76
   1 -11   6   31.56    4.02
  11  -1   4   91.25    5.87
  11   1  -4  100.05    6.41
   1 -11   4   92.66    6.10
  11   1  -2   99.71    6.19
  11  -1   2   85.53    5.70
   1 -11   2   91.55    5.45
   1 -11   0  205.73    8.07
  11  -1   0  191.08    9.06
  11   1   0  196.44    8.85
   1  11   2   87.08    4.64
  11   1   2   86.01    5.42
  11  -1  -2   89.02    5.98
  11  -1  -4   93.90    6.55
  -1 -11   4   99.05    6.19
  11   1   4   90.31    5.50
   1  11   4   87.25    4.20
  11   1   6   37.79    3.50
   1  11   6   34.87    2.16
  11  -1  -6   36.59    4.43
  -1 -11   6   36.70    4.32
   1  11   6   37.27    2.91
 -11   1  -8   19.36    2.96
  -1 -11   8   26.18    4.05
   1  11   8   20.26    2.14
   1 -11  -8   24.98    2.80
  11   1   8   19.28    2.55
   1  11   8   17.25    1.12
 -11   1 -10  101.75    6.00
   1 -11 -10   98.28    5.49
  -1 -11  10  119.97    8.18
  -1 -11  12   45.09    5.50
   1 -11 -12   50.77    3.80
  -1 -11  14   35.54    5.28
   1 -11 -14   22.99    2.76
  -1 -11  16   52.34    6.49
  -1 -11  18   11.16    4.38
  -1 -11  20   34.59    5.97
  -1 -11  22    0.98    3.61
   2 -11  21   10.68    4.19
   2 -11  19   -3.94    3.81
   2 -11  17    2.37    3.15
   2 -11  15   18.45    4.23
   2 -11  13   12.22    3.86
   2 -11  11   95.83    7.62
 -11  -2  -9   -0.51    2.30
   2 -11   9    0.07    2.67
 -11  -2  -7    4.23    2.52
   2 -11   7    3.84    2.48
  11  -2   7    1.87    2.00
  11  -2   5  164.05    8.14
   2 -11   5  149.98    8.26
 -11  -2  -5  156.87    8.18
  11  -2   3   46.10    4.14
   2 -11   3   47.35    4.18
  11   2  -1   81.56    5.54
  11  -2   1   89.87    5.84
   2 -11   1   80.28    4.95
   2 -11  -1   89.50    4.69
  11  -2  -1   87.03    5.92
  11   2   1   95.76    5.57
  11   2   3   43.35    3.71
   2  11   3   47.20    3.32
  11  -2  -3   44.73    4.52
  -2  11  -5  147.87    6.39
  11   2   5  156.33    7.06
   2  11   5  156.28    6.43
  -2 -11   5  160.61    8.38
   2  11   5  152.90    6.13
  11  -2  -5  159.97    8.75
  11   2   7    0.08    1.50
  11  -2  -7   -0.16    2.61
   2 -11  -7    2.12    1.75
   2  11   7    1.70    0.97
   2  11   7    1.43    1.10
  -2 -11   9    1.30    2.82
  11  -2  -9    5.03    2.84
  -2 -11   9    0.42    2.05
 -11   2  -9    1.04    1.88
   2 -11  -9    0.20    1.64
  -2 -11  11   96.51    5.43
 -11   2 -11   94.85    5.62
   2 -11 -11  104.58    5.90
  -2 -11  11  101.54    7.83
  -2 -11  13    4.72    1.73
  -2 -11  13   11.22    3.80
   2 -11 -13    8.74    2.29
   2 -11 -15   13.59    2.49
  -2 -11  15   16.84    4.25
  -2 -11  17    0.53    3.22
  -2 -11  19    8.71    3.80
  -2 -11  21    5.34    3.67
   3 -11  22   -2.21    3.60
   3 -11  20   11.54    4.56
   3 -11  18   -1.10    3.30
   3 -11  16    2.43    3.46
   3 -11  14    4.14    3.07
   3 -11  12   20.51    4.46
 -11  -3 -10   51.99    5.01
   3 -11  10   42.35    5.37
 -11  -3  -8   22.75    3.67
   3 -11   8   37.15    4.77
 -11  -3  -6   94.40    6.56
   3 -11   6   85.41    6.37
  11  -3   6   88.35    6.11
 -11  -3  -4  105.02    6.78
  11  -3   4  108.98    6.70
   3 -11   4  107.47    6.57
  11  -3   2   61.25    5.05
   3 -11   2   56.88    4.46
  11   3   0  151.39    7.35
  11  -3   0  152.83    8.20
   3 -11   0  153.83    6.81
   3 -11  -2   60.55    3.46
  11  -3  -2   45.98    4.77
  11   3   2   56.02    4.15
   3 -11  -4  100.66    6.22
   3  11   4  100.23    4.85
   3  11   4  100.32    5.11
  11   3   4  108.42    5.58
  11  -3  -4   98.44    6.72
  -3  11  -4   93.42    4.88
  -3  11  -6   89.29    4.27
  -3 -11   6   89.43    5.59
   3 -11  -6   90.95    5.65
  11   3   6   87.78    4.87
   3  11   6   86.29    4.49
   3  11   6   92.58    4.25
  11  -3  -6   93.25    6.91
   3  11   8   28.26    1.97
 -11   3  -8   34.84    3.46
  11   3   8   32.04    2.93
  11  -3  -8   28.50    4.32
   3 -11  -8   31.84    3.48
  -3 -11   8   31.40    4.39
  -3 -11   8   32.80    3.60
 -11   3 -10   53.31    4.04
  -3 -11  10   52.01    4.30
   3 -11 -10   58.00    4.58
  11  -3 -10   53.17    5.79
  -3 -11  10   59.62    6.26
  -3 -11  12   19.61    2.88
  -3 -11  12   21.49    4.34
  11  -3 -12   23.71    4.39
   3 -11 -12   17.42    2.89
  -3 -11  14   -2.29    2.95
  -3 -11  14    4.80    2.20
  11  -3 -14    1.15    2.84
   3 -11 -14    1.16    1.77
   3 -11 -16    5.72    2.18
  -3 -11  16    5.58    3.77
  -3 -11  18    4.29    3.57
  -3 -11  20   15.84    4.63
  -3 -11  22    0.30    3.44
   4 -11  21   11.57    4.57
   4 -11  19    9.00    3.49
   4 -11  17   34.58    5.90
   4 -11  15    2.22    3.10
   4 -11  13   38.82    5.62
   4 -11  11   89.40    7.53
   4 -11   9   10.24    3.51
 -11  -4  -9   10.97    3.11
 -11  -4  -7  109.77    7.50
   4 -11   7  104.98    7.46
  11  -4   7  125.70    7.64
 -11  -4  -5  264.86   11.83
   4 -11   5  254.08   11.38
  11  -4   5  269.96   11.85
  11  -4   3   64.73    5.38
   4 -11   3   68.49    5.24
 -11  -4  -3   68.28    5.56
   4 -11   1  165.60    7.71
  11  -4   1  175.68    8.97
  11   4   1  179.14    7.94
  11  -4  -1  180.72    9.35
   4 -11  -1  174.65    7.26
   4  11   3   71.77    4.09
   4 -11  -3   67.04    5.29
  -4 -11   3   68.80    5.30
  11  -4  -3   62.39    5.64
   4 -11  -3   67.06    3.47
  11   4   3   74.91    4.49
  -4  11  -5  237.01    8.57
   4 -11  -5  254.31   10.78
   4  11   5  252.21    8.55
  11   4   5  268.77    9.50
  -4 -11   5  266.29   10.93
  11  -4  -5  259.42   11.97
  -4 -11   7  113.69    6.58
   4 -11  -7  115.40    6.69
  11   4   7  116.23    5.27
   4  11   7   99.13    4.05
  11  -4  -7  109.50    7.67
  -4 -11   9    7.46    2.70
  11  -4  -9   14.27    3.46
   4 -11  -9   14.19    2.83
 -11   4  -9   15.25    2.51
  11  -4 -11   75.26    7.08
  -4 -11  11   84.00    5.57
 -11   4 -11   89.32    4.81
   4 -11 -11   87.93    5.97
  -4 -11  13   28.95    3.43
  11  -4 -13   35.99    5.17
  -4 -11  13   29.91    5.02
   4 -11 -13   32.46    3.72
  11  -4 -15    6.58    2.99
  -4 -11  15    9.19    4.07
   4 -11 -15    4.94    2.00
  11  -4 -17   27.90    4.83
  -4 -11  17   18.29    4.54
   4 -11 -17   27.95    3.79
  11  -4 -19   12.88    4.05
  -4 -11  19   -0.69    3.53
  11  -4 -21   11.04    4.12
  -4 -11  21   11.54    4.63
  11  -4 -23   12.32    4.48
   5 -11  20   38.56    6.50
   5 -11  18   17.05    4.68
   5 -11  16   19.53    4.77
   5 -11  14   93.56    8.20
   5 -11  12   33.63    5.12
   5 -11  10   75.53    6.82
 -11  -5  -8  165.37    9.21
   5 -11   8  165.75    9.66
   5 -11   6   19.16    3.47
  11  -5   6   23.16    3.84
 -11  -5  -6   22.44    4.16
 -11  -5  -4  265.51   11.58
   5 -11   4  236.38   10.80
  11  -5   4  243.62   11.33
 -11  -5  -2  333.58   13.26
  11  -5   2  311.89   13.16
   5 -11   2  293.28   11.84
  11  -5   0    7.92    2.75
   5 -11   0   10.36    2.22
  11   5   2  305.90   11.02
  -5 -11   2  290.69   12.46
   5 -11  -2  296.71   10.34
   5 -11  -2  311.89   12.92
  11  -5  -2  310.19   13.13
  -5 -11   4  228.51   10.50
   5  11   4  232.85    8.39
   5 -11  -4  261.50   11.05
  11  -5  -4  260.10   11.78
  11   5   4  249.78    9.07
   5 -11  -4  245.16    7.91
  -5 -11   6   17.62    3.14
  11  -5  -6   24.78    3.94
   5  11   6   17.98    1.63
  -5  11  -6   18.99    1.90
  11   5   6   26.28    2.43
   5 -11  -6   25.23    3.48
  11   5   8  149.20    5.95
   5 -11  -8  164.55    8.58
  -5 -11   8  155.02    8.03
  11  -5  -8  161.81    9.54
 -11   5 -10   60.82    3.81
  -5 -11  10   57.13    4.97
   5 -11 -10   59.33    5.16
  11  -5 -10   59.52    6.15
  11  -5 -12   35.95    5.02
  -5 -11  12   28.80    3.72
   5 -11 -12   30.05    3.81
  11  -5 -14   97.52    7.78
  -5 -11  14   72.99    5.47
   5 -11 -14   88.21    6.28
  11  -5 -16   10.41    3.70
   5 -11 -16   10.22    2.78
  11  -5 -18   11.95    3.86
  11  -5 -20   30.82    5.41
  11  -5 -22    2.36    2.97
  11  -5 -24   12.24    4.28
   6 -11  21   12.03    4.98
   6 -11  19   12.20    4.34
   6 -11  17   28.35    5.33
   6 -11  15   13.58    4.43
   6 -11  13   44.73    6.07
   6 -11  11   88.86    7.65
   6 -11   9   23.53    4.62
 -11  -6  -7   81.92    6.60
   6 -11   7   84.38    6.76
 -11  -6  -5  114.41    7.59
  11  -6   5  109.87    7.36
   6 -11   5  105.43    7.11
 -11  -6  -3    9.04    3.18
  11  -6   3    7.87    2.97
 -11  -6  -1  102.51    7.06
  11  -6   1  104.86    7.24
  -6 -11   1  104.75    7.04
   6 -11  -1  107.99    7.34
  11  -6  -1  105.30    7.24
  11   6   3    9.18    1.78
  -6 -11   3    3.51    2.54
   6 -11  -3    9.88    2.90
  11  -6  -3    7.52    2.67
  -6 -11   5  115.35    7.05
   6  11   5  116.18    4.69
   6 -11  -5  120.87    7.39
   6 -11  -5  109.41    4.49
  11  -6  -5  113.13    7.71
  11   6   5  113.31    5.25
  -6 -11   7   81.25    5.94
   6 -11  -7   88.10    6.42
  11   6   7   77.20    3.86
  11  -6  -7   79.66    6.69
 -11   6  -9   19.97    2.46
  -6 -11   9   13.25    3.15
  11  -6  -9   16.94    3.75
   6 -11  -9   21.09    3.45
  -6 -11  11   72.21    5.74
   6 -11 -11   93.76    6.53
  11  -6 -11   87.92    7.30
  11  -6 -13   51.12    5.87
   6 -11 -13   46.83    4.84
  11  -6 -15   10.80    3.74
   6 -11 -15   19.03    3.49
  11  -6 -17   20.90    4.44
   6 -11 -17   18.38    3.51
  11  -6 -19    0.95    2.90
  11  -6 -21   18.14    4.57
  11  -6 -23    6.64    3.90
   7 -11  20   13.42    5.06
   7 -11  18   18.70    4.82
   7 -11  16    9.09    4.36
   7 -11  14   14.37    4.53
   7 -11  12   16.73    4.45
   7 -11  10   22.22    4.44
 -11  -7  -8   12.15    3.68
 -11  -7  -6    4.11    3.18
  11  -7   4    6.63    2.89
 -11  -7  -4    6.62    3.22
 -11  -7  -2   13.34    3.52
  11  -7   2    8.90    3.11
  -7 -11   0   17.09    3.61
   7 -11   0   18.96    3.77
 -11  -7   0   16.84    3.77
  11  -7   0   17.41    3.86
  -7 -11   2   13.51    3.30
   7 -11  -2    6.10    2.59
  11  -7  -2   10.72    3.27
  -7 -11   4    4.07    3.08
  11   7   4    5.06    1.61
   7 -11  -4    4.92    2.73
  11  -7  -4    9.99    3.32
  11  -7  -6    3.62    2.68
   7 -11  -6    7.38    3.00
  -7 -11   6    8.19    3.15
  11   7   6    3.42    1.26
  11  -7  -8    8.49    2.69
  -7 -11   8   15.43    3.38
   7 -11  -8   15.69    3.33
  -7 -11  10   25.67    3.91
  11  -7 -10   26.37    4.31
   7 -11 -10   29.44    3.98
  11  -7 -12   19.69    3.87
   7 -11 -12   23.91    3.92
  11  -7 -14    2.28    3.08
   7 -11 -14    4.77    2.66
  11  -7 -16    6.07    3.14
   7 -11 -16    6.05    2.83
   7 -11 -18    7.76    2.90
  11  -7 -18   14.09    3.93
  11  -7 -20    6.15    3.80
  11  -7 -22   -1.05    3.09
  11  -7 -24    1.67    3.51
   8 -11  19    3.56    4.20
   8 -11  17    0.37    3.42
   8 -11  15   13.54    4.76
   8 -11  13    2.00    3.45
 -11  -8  -7   16.74    3.85
 -11  -8  -5   62.96    6.17
  11  -8   5   61.59    6.03
  11  -8   3   94.39    7.31
 -11  -8  -3   78.07    6.74
  -8 -11  -1   36.91    4.68
 -11  -8  -1   36.85    5.17
   8 -11   1   35.22    4.79
  11  -8   1   36.08    4.90
  -8 -11   1   35.78    4.54
 -11  -8   1   38.83    4.94
  11  -8  -1   34.42    4.66
   8 -11  -1   42.58    4.93
  -8 -11   3   75.71    6.35
   8 -11  -3   82.02    6.70
  11  -8  -3   80.36    6.81
  -8 -11   5   58.97    5.68
   8 -11  -5   68.00    6.00
  11  -8  -5   64.99    6.15
  11   8   5   63.55    3.64
  -8 -11   7    9.70    3.33
   8 -11  -7   18.54    3.71
  11  -8  -7   17.16    3.83
  11  -8  -9    0.63    2.77
  -8 -11   9    7.55    2.96
   8 -11  -9   -0.33    2.48
  11  -8 -11   15.71    3.81
   8 -11 -11   17.46    3.76
  11  -8 -13    0.86    2.71
   8 -11 -13    2.25    2.51
  11  -8 -15   13.55    4.01
   8 -11 -15   14.72    3.64
  11  -8 -17    3.96    2.87
   8 -11 -17    1.15    2.33
   8 -11 -19   11.28    3.39
  11  -8 -19    2.27    2.99
  11  -8 -21    3.37    3.36
  11  -8 -23   -0.90    3.58
   9 -11  18   12.07    4.39
   9 -11  16   15.74    5.05
   9 -11  14   24.08    5.00
 -11  -9  -6   86.68    7.18
 -11  -9  -4   -2.37    3.29
  11  -9   4    2.38    3.11
  -9 -11  -2   50.65    5.52
 -11  -9  -2   51.05    5.69
  11  -9   2   48.91    5.50
 -11  -9   0  291.75   13.21
   9 -11   0  267.22   13.18
  11  -9   0  265.75   13.13
  -9 -11   0  298.76   13.28
  -9 -11   2   57.67    5.60
 -11  -9   2   49.58    5.42
   9 -11  -2   44.56    5.29
  11  -9  -2   47.22    5.43
  -9 -11   4    7.51    3.28
 -11  -9   4   -4.39    3.35
  11   9   4    0.27    1.24
   9 -11  -4    1.73    2.62
  11  -9  -4    1.94    2.77
  -9 -11   6   77.01    6.61
   9 -11  -6   86.34    6.86
  11  -9  -6   82.55    7.04
  -9 -11   8   67.09    6.03
   9 -11  -8   76.99    6.74
  11  -9  -8   73.41    6.72
  11  -9 -10   26.36    4.41
   9 -11 -10   24.24    4.40
  11  -9 -12   27.76    4.77
   9 -11 -12   32.09    4.63
  11  -9 -14   20.33    4.40
   9 -11 -14   22.02    4.17
  11  -9 -16   11.68    3.75
   9 -11 -16   14.07    3.60
  11  -9 -18    4.36    2.95
   9 -11 -18    9.69    3.53
   9 -11 -20   22.54    4.47
  11  -9 -20   13.77    4.03
  11  -9 -22    8.17    3.43
  10 -11  19    4.53    4.47
  11 -10  19   12.14    5.03
  10 -11  17   47.47    7.28
 -11 -10  -5  253.34   12.91
 -10 -11  -3   52.85    5.73
 -11 -10  -3   56.49    5.89
  11 -10   3   43.76    5.49
 -10 -11  -1  208.76   11.17
 -11 -10  -1  203.74   11.15
  11 -10   1  219.49   11.73
  10 -11   1  203.10   11.49
 -10 -11   1  208.25   11.19
 -11 -10   1  210.08   11.08
  10 -11  -1  222.74   11.76
  11 -10  -1  210.10   11.43
 -11 -10   3   48.10    5.64
 -10 -11   3   47.01    5.45
  10 -11  -3   46.01    5.52
  11 -10  -3   48.94    5.69
 -10 -11   5  223.62   11.62
  10 -11  -5  243.52   12.53
  11 -10  -5  240.38   12.47
 -11 -10   5  244.16   12.10
 -10 -11   7   67.00    6.04
  10 -11  -7   62.49    6.17
  11 -10  -7   58.05    6.02
 -10 -11   9   15.00    3.58
  10 -11  -9   21.71    4.07
  11 -10  -9   12.64    3.50
  10 -11 -11  112.75    8.45
  11 -10 -11  116.04    8.59
  11 -10 -13   14.10    3.84
  10 -11 -13   12.21    3.84
  11 -10 -15   51.37    6.07
  10 -11 -15   40.21    5.41
  11 -10 -17   30.52    4.93
  10 -11 -17   45.41    5.70
  10 -11 -19    4.60    3.23
  11 -10 -19    6.88    3.59
  11 -10 -21   11.60    4.11
  11 -11  18   28.06    6.24
 -11 -11  -4  122.72    8.72
 -11 -11  -2  143.48    9.35
  11 -11   2  139.41    9.50
 -11 -11   0  235.26   12.17
  11 -11   0  259.26   12.99
  11 -11  -2  136.81    9.14
 -11 -11   2  121.21    8.70
 -11 -11   4  125.56    8.51
  11 -11  -4  127.56    8.98
 -11 -11   6   75.82    6.99
  11 -11  -6   89.41    7.42
 -11 -11   8  122.98    8.67
  11 -11  -8  135.90    9.19
  11 -11 -10   55.39    6.20
  11 -11 -12   28.55    4.80
  11 -11 -14   61.76    6.64
  11 -11 -16   24.73    4.69
  11 -11 -18   22.91    4.68
  11 -11 -20   34.22    5.64
  12   0   0  430.09   15.56
  12   0   2    9.19    2.53
  12   0  -2    5.78    2.42
   0 -12   2    9.79    2.45
  12   0  -4    8.64    2.69
  12   0   4    1.96    1.92
   0 -12   4    9.42    2.79
  12   0  -6  232.92   11.40
  12   0   6  236.53   10.02
   0 -12   6  225.45   11.08
 -12   0  -8   10.23    2.88
   0 -12   8   12.86    3.68
  12   0   8    8.70    2.32
 -12   0 -10   49.23    4.63
   0 -12  10   46.47    5.59
   0 -12  12    9.36    3.58
   0 -12  14   13.37    4.11
   0 -12  16   30.38    5.40
   0 -12  18   -2.52    3.15
   0 -12  20   31.13    5.93
   1 -12  21   17.55    5.51
   1 -12  19   20.73    5.00
   1 -12  17   11.19    4.23
   1 -12  15   40.52    5.69
   1 -12  13    5.56    3.65
 -12  -1 -11   97.41    6.62
   1 -12  11  109.44    8.40
 -12  -1  -9   24.57    3.61
   1 -12   9   24.61    4.20
 -12  -1  -7   40.26    4.55
  12  -1   7   35.83    3.84
   1 -12   7   28.22    4.12
  12  -1   5  200.93    9.42
  12   1  -5  212.76   10.40
   1 -12   5  199.72    9.87
  12   1  -3   46.07    4.63
  12  -1   3   46.40    4.31
   1 -12   3   50.11    4.44
   1 -12   1  194.49    8.40
  12  -1   1  172.51    8.86
  12   1  -1  187.98    9.13
  12   1   1  180.98    8.65
  12  -1  -1  174.79    9.05
  12  -1  -3   46.59    4.67
   1  12   3   42.76    3.20
  12   1   3   42.88    3.93
  12  -1  -5  198.49   10.15
   1  12   5  187.50    6.88
  12   1   5  193.79    8.69
  -1 -12   5  205.84    9.84
 -12   1  -7   27.20    3.73
  -1 -12   7   28.33    4.27
   1  12   7   24.46    1.64
  12  -1  -7   34.14    4.69
  12   1   7   25.07    3.07
 -12   1  -9   28.73    3.56
  -1 -12   9   32.02    4.60
  12  -1  -9   26.26    4.37
 -12   1 -11  117.29    6.69
   1 -12 -11  117.70    6.15
  -1 -12  11  121.37    8.63
  -1 -12  13    4.31    3.06
   1 -12 -13   13.46    2.32
  -1 -12  15   37.37    5.46
  -1 -12  17    1.29    3.10
  -1 -12  19    5.06    3.64
  -1 -12  21   35.10    6.32
   2 -12  20   37.71    6.30
   2 -12  18    1.95    3.31
   2 -12  16   -0.01    3.10
   2 -12  14   20.77    4.37
   2 -12  12   81.05    7.30
   2 -12  10    9.01    3.39
 -12  -2 -10   14.08    3.36
   2 -12   8   22.55    4.02
 -12  -2  -8   20.95    3.71
  12  -2   8   19.25    3.18
 -12  -2  -6  305.42   12.67
  12  -2   6  307.10   12.59
   2 -12   6  299.12   12.87
  12  -2   4   10.77    2.63
   2 -12   4    9.96    2.79
  12   2  -2   59.71    5.01
  12  -2   2   62.35    5.24
   2 -12   2   64.08    4.65
   2 -12   0  600.85   18.45
  12  -2   0  593.41   20.24
  12   2   0  616.73   19.76
  12   2   2   64.21    4.68
  12  -2  -2   63.67    5.35
  12  -2  -4    6.62    2.90
   2  12   4   11.22    1.83
  12   2   4    9.97    2.33
  12   2   6  304.63   11.21
  -2 -12   6  319.87   13.23
   2  12   6  283.55   10.07
   2  12   6  290.35    9.62
  12  -2  -6  304.86   13.62
 -12   2  -8   20.03    3.20
  12  -2  -8   19.41    4.02
   2 -12  -8   22.81    2.98
  12   2   8   24.20    2.78
  -2 -12   8   23.92    4.17
  -2 -12  10   11.33    3.59
 -12   2 -10    6.28    2.26
  12  -2 -10   10.46    3.71
   2 -12 -10    8.76    2.25
   2 -12 -12   64.06    4.66
  12  -2 -12   65.82    6.72
  -2 -12  12   62.22    6.66
  -2 -12  12   61.71    4.39
  -2 -12  14   20.32    4.30
   2 -12 -14   10.91    2.17
  -2 -12  16    0.56    3.17
  -2 -12  18    2.55    3.27
  -2 -12  20   39.42    6.47
   3 -12  21    4.28    3.56
   3 -12  19   31.27    5.70
   3 -12  17   -0.79    3.21
   3 -12  15   -1.43    3.20
   3 -12  13   37.30    5.43
   3 -12  11   32.70    4.91
 -12  -3  -9   49.01    5.18
   3 -12   9   58.06    5.96
 -12  -3  -7   93.39    6.66
  12  -3   7   91.21    6.47
   3 -12   7   89.31    6.79
 -12  -3  -5  175.22    9.22
  12  -3   5  172.17    9.13
   3 -12   5  174.73    9.23
  12  -3   3  271.12   12.05
   3 -12   3  290.62   11.65
  12   3  -1  182.11    8.95
  12  -3   1  182.26    9.44
   3 -12   1  190.57    8.30
  12  -3  -1  176.86    9.47
   3 -12  -1  181.34    7.46
  12   3   1  185.85    8.53
   3 -12  -3  278.97    8.88
  12   3   3  285.90   10.84
  12  -3  -3  267.30   12.19
   3  12   5  157.19    6.58
  12   3   5  169.98    7.55
   3  12   5  162.64    6.94
  12  -3  -5  169.91    9.31
  -3  12  -5  152.16    6.62
   3 -12  -7   82.14    5.65
  12   3   7   92.07    5.12
  12  -3  -7   84.55    6.89
  -3 -12   9   48.13    4.29
 -12   3  -9   51.49    4.31
   3 -12  -9   48.68    4.27
  12  -3  -9   43.71    5.36
  -3 -12   9   51.21    5.85
  -3 -12  11   36.88    3.85
  12  -3 -11   45.60    5.64
   3 -12 -11   32.41    3.59
  -3 -12  11   38.97    5.27
 -12   3 -11   33.91    3.41
  -3 -12  13   40.76    3.93
   3 -12 -13   39.45    3.99
  12  -3 -13   37.60    5.38
  -3 -12  13   41.65    5.81
  12  -3 -15    7.10    3.91
   3 -12 -15    1.56    1.96
  -3 -12  15    0.47    3.09
  12  -3 -17    4.46    3.39
  -3 -12  17    1.56    3.39
  12  -3 -19   25.63    4.92
  -3 -12  19   20.72    4.99
  12  -3 -21    8.84    4.20
  -3 -12  21    2.05    3.82
  12  -3 -23    8.49    4.22
   4 -12  20   16.12    4.91
   4 -12  18    6.71    3.93
   4 -12  16   21.01    4.86
   4 -12  14   15.90    3.93
   4 -12  12   17.36    4.18
 -12  -4 -10   13.10    3.39
   4 -12  10   12.74    3.94
 -12  -4  -8   46.40    5.22
   4 -12   8   48.37    5.58
 -12  -4  -6  137.98    8.22
  12  -4   6  134.64    8.10
   4 -12   6  125.28    8.18
 -12  -4  -4  110.68    7.47
  12  -4   4   98.99    6.80
   4 -12   4   95.11    6.50
   4 -12   2  125.37    7.00
  12  -4   2  132.14    7.87
  12   4   0  274.44   11.02
  12  -4   0  273.89   12.37
   4 -12   0  271.43   10.35
  12  -4  -2  136.41    8.25
   4 -12  -2  132.83    5.90
  12   4   2  145.42    7.02
   4 -12  -4   98.89    6.54
   4 -12  -4   92.14    3.79
  12   4   4  107.99    5.64
  12  -4  -4  100.12    7.14
  -4 -12   6  148.30    7.87
   4 -12  -6  133.54    7.67
  12   4   6  148.44    6.65
  12  -4  -6  140.04    8.84
  -4 -12   8   46.33    4.55
  12   4   8   47.03    3.41
   4 -12  -8   48.80    4.61
  12  -4  -8   38.08    5.17
  -4 -12  10    9.28    2.64
  12  -4 -10   11.58    3.85
 -12   4 -10    7.52    2.10
   4 -12 -10    7.08    2.29
  -4 -12  12    9.25    2.63
  12  -4 -12   12.87    3.71
   4 -12 -12    9.10    2.34
  12  -4 -14   15.55    3.90
  -4 -12  14   13.61    4.10
   4 -12 -14   14.00    2.71
  12  -4 -16   19.64    4.64
  -4 -12  16   11.68    3.75
   4 -12 -16   15.24    3.05
  12  -4 -18    8.50    3.81
  -4 -12  18    7.07    3.56
  12  -4 -20   22.31    4.84
  -4 -12  20   11.35    4.46
  12  -4 -22    4.29    3.49
   5 -12  21   11.79    4.75
   5 -12  19    2.70    3.76
   5 -12  17   29.09    5.51
   5 -12  15   16.34    4.38
   5 -12  13    8.29    3.38
   5 -12  11   69.09    6.86
   5 -12   9   16.46    3.80
 -12  -5  -9   13.95    3.55
  12  -5   7   51.96    5.29
   5 -12   7   51.75    5.60
 -12  -5  -7   48.73    5.59
 -12  -5  -5  129.10    8.19
  12  -5   5  119.91    7.86
   5 -12   5  130.15    7.98
 -12  -5  -3   30.69    4.58
   5 -12   3   22.87    3.55
  12  -5   3   27.76    4.09
   5 -12   1   89.51    5.61
  12  -5   1   82.36    6.41
  12   5   1   89.54    5.54
  12  -5  -1   92.98    6.93
   5 -12  -1   88.03    5.10
  12  -5  -3   21.49    3.99
   5 -12  -3   21.56    3.58
   5 -12  -3   22.70    2.20
  12   5   3   23.25    2.81
  -5 -12   3   20.10    3.52
  -5 -12   5  116.36    7.08
   5 -12  -5  113.41    7.10
   5 -12  -5   94.09    3.47
  12   5   5  120.11    5.71
  12  -5  -5  127.17    8.10
   5 -12  -7   44.39    4.58
  12   5   7   46.06    3.31
  12  -5  -7   49.43    5.50
  -5 -12   7   50.35    4.84
  -5 -12   9   15.61    3.18
 -12   5  -9   16.33    2.48
  12  -5  -9   13.46    3.80
   5 -12  -9   15.86    3.16
  -5 -12  11   65.94    5.32
   5 -12 -11   66.23    5.51
  12  -5 -11   72.30    6.99
  12  -5 -13   18.52    4.37
  -5 -12  13   18.59    3.36
   5 -12 -13   13.00    2.99
  12  -5 -15   15.15    4.31
   5 -12 -15   19.77    3.47
  12  -5 -17   20.18    4.52
  12  -5 -19   -2.50    3.12
  12  -5 -21    7.40    3.97
  12  -5 -23    9.78    4.47
   6 -12  20   11.73    4.63
   6 -12  18   14.38    4.53
   6 -12  16    4.38    3.73
   6 -12  14   24.77    5.13
   6 -12  12   41.72    5.79
   6 -12  10   41.72    5.34
 -12  -6  -8   23.48    4.40
   6 -12   8   27.73    4.67
   6 -12   6   15.95    3.50
 -12  -6  -6   18.64    4.12
  12  -6   6   18.75    3.88
 -12  -6  -4   28.30    4.46
   6 -12   4   17.05    3.41
  12  -6   4   29.77    4.29
 -12  -6  -2   49.60    5.68
   6 -12   2   41.96    4.26
  12  -6   2   42.52    4.96
   6 -12   0    3.01    1.99
  12  -6   0    4.99    2.96
  12   6   2   40.92    3.60
  -6 -12   2   44.22    4.86
   6 -12  -2   47.24    4.96
   6 -12  -2   44.21    3.57
  12  -6  -2   45.76    5.34
  12  -6  -4   29.45    4.60
   6 -12  -4   28.12    2.34
  -6 -12   4   33.77    4.38
  12   6   4   25.75    2.78
   6 -12  -4   27.48    3.99
  12  -6  -6   11.91    3.41
  -6 -12   6   22.14    3.86
   6 -12  -6   18.11    3.38
  12   6   6   13.51    2.02
  -6 -12   8   22.16    3.71
  12  -6  -8   29.13    4.61
   6 -12  -8   27.82    3.89
  -6 -12  10   34.33    4.24
   6 -12 -10   39.43    4.45
  12  -6 -10   45.74    5.47
  12  -6 -12   35.17    5.15
  -6 -12  12   39.73    4.40
   6 -12 -12   39.79    4.46
  12  -6 -14   26.70    4.87
  -6 -12  14   19.87    3.50
   6 -12 -14   28.84    4.03
  12  -6 -16    6.60    3.66
   6 -12 -16    4.23    2.41
  12  -6 -18    8.15    3.82
  12  -6 -20   12.07    4.23
  12  -6 -22    1.29    3.37
   7 -12  19    7.16    4.31
   7 -12  17    3.21    3.51
   7 -12  15   19.70    4.88
   7 -12  13   16.21    4.42
   7 -12  11   11.76    4.01
   7 -12   9   13.34    3.69
 -12  -7  -7   37.20    4.95
   7 -12   7   45.31    5.28
 -12  -7  -5   34.65    4.82
  12  -7   5   28.96    4.38
   7 -12   5   31.55    4.21
 -12  -7  -3    9.31    3.51
  12  -7   3   10.77    3.26
 -12  -7  -1    3.59    3.37
  12  -7   1    7.25    3.26
   7 -12  -1    5.73    2.79
  12  -7  -1    5.88    3.04
  -7 -12   1    2.46    2.74
  -7 -12   3   10.29    3.33
  12   7   3   10.77    2.13
   7 -12  -3    6.65    2.76
  12  -7  -3    8.77    3.42
  -7 -12   5   35.35    4.52
   7 -12  -5   33.62    2.51
   7 -12  -5   37.01    4.43
  12   7   5   36.67    2.96
  12  -7  -5   43.39    5.26
  12  -7  -7   45.59    5.38
  -7 -12   7   41.69    4.79
   7 -12  -7   51.27    5.16
  12  -7  -9   10.01    3.19
  -7 -12   9   10.44    2.97
   7 -12  -9   11.76    3.05
  12  -7 -11    8.06    3.22
  -7 -12  11    9.00    2.99
   7 -12 -11    8.79    2.58
  12  -7 -13   14.50    3.93
  -7 -12  13   18.90    3.51
   7 -12 -13   13.88    3.35
  12  -7 -15   18.88    4.50
  -7 -12  15   13.95    3.34
   7 -12 -15   16.54    3.66
  12  -7 -17   -2.37    3.00
   7 -12 -17   -5.17    2.81
  12  -7 -19    1.40    3.39
  12  -7 -21    7.12    3.55
   8 -12  18    8.34    4.20
   8 -12  16   20.84    5.06
   8 -12  14   10.22    4.16
   8 -12  12    5.02    3.63
   8 -12  10   22.70    4.60
 -12  -8  -6    4.80    3.06
 -12  -8  -4   60.21    6.02
  12  -8   4   49.22    5.65
 -12  -8  -2   10.58    3.76
  12  -8   2   15.66    3.70
  -8 -12   0   11.95    3.43
   8 -12   0   20.03    3.97
 -12  -8   0   16.62    4.31
  12  -8   0   14.14    3.88
  -8 -12   2   11.06    3.46
 -12  -8   2   22.98    4.32
   8 -12  -2   15.64    3.56
  12  -8  -2   17.17    3.88
  -8 -12   4   45.03    5.19
   8 -12  -4   57.53    5.67
  12  -8  -4   58.91    5.94
  12   8   4   57.34    3.82
  -8 -12   6   -0.12    2.77
  12  -8  -6   -1.91    2.63
  12  -8  -8   14.28    3.63
  -8 -12   8   12.58    3.38
   8 -12  -8   21.70    3.88
  12  -8 -10   23.22    4.33
  -8 -12  10   16.36    3.57
   8 -12 -10   21.66    3.98
  -8 -12  12    7.62    2.97
  12  -8 -12    4.14    2.88
   8 -12 -12    6.60    2.86
  12  -8 -14    6.40    3.32
  -8 -12  14    5.89    3.00
   8 -12 -14    0.92    2.32
  12  -8 -16   20.99    4.61
   8 -12 -16   10.73    3.31
  12  -8 -18    4.16    3.42
   8 -12 -18    9.04    3.35
  12  -8 -20    8.76    3.85
  12  -8 -22    2.02    3.42
   9 -12  19    2.94    3.85
   9 -12  17    1.47    3.96
   9 -12  15    8.41    4.25
   9 -12  13   -0.74    3.08
 -12  -9  -7    4.18    3.17
 -12  -9  -5   97.33    7.60
  12  -9   5   86.28    7.43
 -12  -9  -3   38.41    5.11
  12  -9   3   35.75    5.02
  -9 -12  -1   30.95    4.64
 -12  -9  -1   35.21    4.95
  12  -9   1   34.48    4.91
  -9 -12   1   44.52    5.26
 -12  -9   1   42.04    5.36
   9 -12  -1   34.15    4.76
  12  -9  -1   42.06    5.23
  -9 -12   3   43.16    5.21
 -12  -9   3   41.77    5.44
   9 -12  -3   34.57    4.98
  12  -9  -3   38.46    5.24
   9 -12  -5   93.89    7.34
  12  -9  -5   92.96    7.61
  -9 -12   5   87.12    6.87
  -9 -12   7    3.89    3.05
   9 -12  -7    2.81    2.58
  12  -9  -7   -0.21    2.58
  -9 -12   9    5.73    2.72
   9 -12  -9   14.29    3.78
  12  -9  -9    9.71    3.51
  12  -9 -11   42.66    5.54
   9 -12 -11   36.53    4.81
  -9 -12  11   33.33    4.68
  12  -9 -13   -0.12    2.93
  -9 -12  13    2.83    3.23
   9 -12 -13   -1.93    2.82
  12  -9 -15   13.62    3.79
   9 -12 -15   12.09    3.95
  12  -9 -17   -3.33    3.26
   9 -12 -17    7.68    3.20
  12  -9 -19    8.68    3.70
   9 -12 -19    3.25    2.96
  12  -9 -21    9.78    4.05
  10 -12  18    4.55    3.81
  10 -12  16   29.30    5.99
  10 -12  14   16.87    4.88
 -12 -10  -6   48.47    5.88
 -12 -10  -4   59.24    6.12
  12 -10   4   58.52    6.41
 -10 -12  -2   67.04    6.32
 -12 -10  -2   52.68    6.06
  12 -10   2   41.36    5.63
 -10 -12   0   59.64    6.33
  10 -12   0   68.85    6.60
  12 -10   0   62.15    6.44
 -12 -10   0   71.38    6.66
 -10 -12   2   44.23    5.35
 -12 -10   2   46.05    5.83
  10 -12  -2   48.19    5.80
  12 -10  -2   43.32    5.42
 -10 -12   4   64.97    6.17
 -12 -10   4   58.28    6.08
  10 -12  -4   63.14    6.36
  12 -10  -4   61.60    6.47
 -10 -12   6   26.99    4.38
  10 -12  -6   42.20    5.28
  12 -10  -6   33.83    4.86
 -10 -12   8   42.71    5.20
  10 -12  -8   48.00    5.66
  12 -10  -8   35.53    5.39
 -10 -12  10   67.06    6.49
  10 -12 -10   66.23    6.65
  12 -10 -10   82.35    7.54
 -10 -12  12    6.47    3.20
  10 -12 -12    0.43    2.58
  12 -10 -12    0.92    2.95
  12 -10 -14   19.91    4.32
  10 -12 -14   12.11    3.55
  12 -10 -16   27.90    5.13
  10 -12 -16   26.07    4.65
  10 -12 -18    5.40    3.42
  12 -10 -18    6.42    3.52
  12 -10 -20   17.98    4.65
  11 -12  17   15.08    4.72
  11 -12  15   51.29    7.18
 -12 -11  -5  176.60   10.81
 -12 -11  -3   24.02    4.27
 -11 -12  -3   16.84    3.95
  12 -11   3   20.58    4.29
 -11 -12  -1  102.01    7.86
 -12 -11  -1  102.48    7.81
  11 -12   1   77.49    7.42
  12 -11   1   74.09    7.20
 -12 -11   1   72.62    6.91
 -11 -12   1   79.02    6.89
  11 -12  -1   78.22    7.15
  12 -11  -1   75.54    7.04
 -11 -12   3   24.00    4.24
 -12 -11   3   26.56    4.42
  11 -12  -3   22.91    4.32
  12 -11  -3   23.10    4.38
 -12 -11   5  161.51   10.33
 -11 -12   5  171.36   10.29
  11 -12  -5  168.44   10.59
  12 -11  -5  166.84   10.68
 -11 -12   7   48.86    5.92
 -12 -11   7   50.28    5.93
  12 -11  -7   62.22    6.54
  11 -12  -7   58.32    6.26
 -11 -12   9   47.14    5.68
  11 -12  -9   47.81    5.69
  12 -11  -9   55.36    6.28
 -11 -12  11   52.00    5.84
  11 -12 -11   52.51    6.04
  12 -11 -11   58.83    6.57
  11 -12 -13   17.48    4.16
  12 -11 -13   16.61    4.50
  11 -12 -15   53.76    6.39
  12 -11 -15   49.20    6.35
  12 -11 -17   16.03    4.22
  11 -12 -17   20.71    4.67
  12 -11 -19    5.25    3.42
  11 -12 -19    0.43    2.86
  12 -11 -21   16.93    4.70
  12 -12  16   66.45    8.29
 -12 -12  -4  241.65   13.07
 -12 -12  -2   69.80    6.68
  12 -12   2   49.26    6.25
 -12 -12   0    1.39    3.10
  12 -12   0    2.75    3.02
 -12 -12   2   61.86    6.42
  12 -12  -2   55.03    6.35
 -12 -12   4  231.95   12.51
  12 -12  -4  241.02   13.22
 -12 -12   6    6.23    3.56
  12 -12  -6   12.41    3.92
 -12 -12   8   26.81    4.80
  12 -12  -8   28.06    4.85
 -12 -12  10  164.74   10.79
  12 -12 -10  188.21   11.44
  12 -12 -12   16.00    4.02
  12 -12 -14    9.62    3.52
  12 -12 -16   54.75    6.67
  12 -12 -18   18.91    4.84
  12 -12 -20    4.06    3.58
  13   0   1   46.89    4.51
  13   0  -1   50.58    4.79
  13   0  -3    5.23    2.63
  13   0   3    9.80    2.74
   0 -13   3    5.85    2.28
  13   0  -5  139.06    8.60
  13   0   5  147.22    7.81
   0 -13   5  139.02    8.21
 -13   0  -7   24.55    3.93
   0 -13   7   15.80    3.50
  13   0  -7   16.27    3.75
  13   0   7   14.89    2.78
 -13   0  -9    1.82    2.27
  13   0   9    8.05    2.35
   0 -13   9    9.46    3.44
 -13   0 -11   29.91    3.84
   0 -13  11   39.09    5.26
   0 -13  13    2.44    3.29
   0 -13  15    5.43    3.59
   0 -13  17    3.95    3.72
   0 -13  19   14.70    4.84
   0 -13  21    8.92    4.29
   1 -13  20   30.69    6.09
   1 -13  18    9.16    4.18
   1 -13  16    0.47    3.00
   1 -13  14   22.64    4.71
   1 -13  12   17.12    4.32
 -13  -1 -10   31.92    4.09
   1 -13  10   30.25    4.75
 -13  -1  -8   51.09    5.17
  13  -1   8   42.18    4.38
   1 -13   8   43.25    5.35
 -13  -1  -6  135.67    7.93
  13   1  -6  123.33    8.21
  13  -1   6  125.34    7.31
   1 -13   6  127.40    8.07
   1 -13   4    9.00    2.91
  13   1  -4    9.49    3.10
  13  -1   4   11.01    2.76
   1 -13   2   33.40    3.63
  13   1  -2   27.29    3.97
  13  -1   2   27.61    3.78
  13  -1   0  143.14    8.22
  13   1   0  152.67    8.21
  13   1   2   30.41    3.70
  13  -1  -2   33.13    4.16
   1  13   4    6.31    1.46
  13  -1  -4    8.61    3.15
  -1 -13   4    5.36    2.61
  13   1   4    9.25    2.50
  13   1   6  131.57    7.18
  -1 -13   6  136.71    8.31
  13  -1  -6  128.99    8.44
 -13   1  -8   54.14    5.07
  -1 -13   8   44.48    5.30
  13  -1  -8   54.01    5.92
  13   1   8   48.51    4.32
 -13   1 -10   33.08    4.02
  -1 -13  10   43.76    5.68
  13  -1 -10   38.43    5.25
  -1 -13  12   13.68    3.99
   1 -13 -12   13.20    2.44
  -1 -13  14   32.61    5.36
  -1 -13  16    5.30    3.84
  -1 -13  18    6.63    3.49
  -1 -13  20   33.52    6.14
   2 -13  19   41.89    6.60
   2 -13  17   10.47    3.94
   2 -13  15   12.98    4.08
   2 -13  13   33.80    5.37
 -13  -2 -11   66.57    5.66
   2 -13  11   61.76    6.51
 -13  -2  -9   26.17    3.92
   2 -13   9   19.14    4.08
  13  -2   7   73.85    5.72
 -13  -2  -7   64.70    5.68
   2 -13   7   84.62    6.55
 -13  -2  -5  158.61    8.80
  13  -2   5  152.32    8.53
   2 -13   5  151.52    8.76
  13  -2   3  185.92    9.29
   2 -13   3  173.21    8.79
  13   2  -3  177.92    9.37
  13  -2   1  175.74    9.24
   2 -13   1  173.69    8.18
  13   2  -1  180.48    9.02
   2 -13  -1  169.53    7.16
  13  -2  -1  169.81    9.16
  13   2   1  158.85    8.23
  13   2   3  170.37    8.20
  13  -2  -3  167.09    9.30
  13   2   5  151.65    7.68
  13  -2  -5  156.67    9.36
  13   2   7   77.46    5.15
  -2 -13   7   84.58    6.84
  13  -2  -7   77.59    6.95
 -13   2  -9   27.78    3.60
  13   2   9   27.62    3.21
  13  -2  -9   35.32    4.99
  -2 -13   9   32.26    4.81
 -13   2 -11   75.42    5.31
  13  -2 -11   70.01    6.93
   2 -13 -11   71.82    5.19
  -2 -13  11   77.03    7.15
  -2 -13  13   29.84    5.05
  13  -2 -13   29.99    5.06
   2 -13 -13   33.09    3.49
  -2 -13  15   13.14    4.28
  13  -2 -15   15.45    4.27
  -2 -13  17    8.66    4.22
  -2 -13  19   36.63    6.34
   3 -13  20   24.30    5.54
   3 -13  18    4.44    3.45
   3 -13  16    7.88    3.72
   3 -13  14    6.24    3.12
   3 -13  12   86.83    7.62
   3 -13  10   22.36    4.28
 -13  -3 -10   29.52    4.21
   3 -13   8   43.73    5.41
  13  -3   8   52.73    5.19
 -13  -3  -8   49.97    5.50
 -13  -3  -6  347.23   14.45
  13  -3   6  354.40   14.37
   3 -13   6  316.97   14.01
 -13  -3  -4   64.08    5.79
  13  -3   4   55.10    5.31
   3 -13   4   47.52    4.77
  13   3  -2  134.16    7.65
  13  -3   2  118.51    7.80
   3 -13   2  133.70    7.24
  13  -3   0  638.17   21.90
   3 -13   0  638.20   19.64
  13   3   0  628.06   20.69
   3 -13  -2  124.71    5.65
  13  -3  -2  117.02    8.07
  13   3   2  127.81    7.00
  13   3   4   58.12    4.50
  13  -3  -4   53.67    5.43
  13   3   6  357.31   12.74
  13  -3  -6  342.46   15.40
 -13   3  -8   53.16    4.58
   3 -13  -8   57.33    4.81
  13  -3  -8   51.39    5.69
  13   3   8   45.74    3.86
 -13   3 -10   26.16    3.31
  13  -3 -10   32.49    4.92
   3 -13 -10   26.01    3.37
  -3 -13  10   17.10    4.04
  13  -3 -12   87.64    7.80
   3 -13 -12   92.04    6.03
  -3 -13  12   92.76    7.96
  -3 -13  12   91.55    5.83
  13  -3 -14   15.57    4.59
   3 -13 -14    8.50    2.42
  -3 -13  14    8.93    3.77
  13  -3 -16    5.12    3.35
  -3 -13  16    7.16    3.66
  13  -3 -18    7.82    4.00
  -3 -13  18   12.62    4.22
  13  -3 -20   33.40    5.92
  -3 -13  20   18.50    5.17
   4 -13  19   17.55    5.02
   4 -13  17    0.72    3.13
   4 -13  15   -2.55    3.62
   4 -13  13    8.17    3.66
   4 -13  11   12.88    3.77
   4 -13   9   95.11    7.74
 -13  -4  -9   91.03    7.04
  13  -4   7   12.49    3.23
   4 -13   7   11.99    3.43
 -13  -4  -7   15.04    3.60
 -13  -4  -5  100.06    7.37
  13  -4   5  109.89    7.36
   4 -13   5  109.19    7.31
 -13  -4  -3  310.94   13.50
  13  -4   3  307.30   13.47
   4 -13   3  291.53   12.37
  13   4  -1  122.09    7.13
  13  -4   1  122.35    7.90
   4 -13   1  112.48    6.50
  13  -4  -1  118.42    8.00
   4 -13  -1  120.90    5.99
  13   4   1  112.57    6.68
   4 -13  -3  311.61    9.98
  13  -4  -3  302.98   13.66
  13   4   3  304.37   11.66
  13   4   5   90.06    5.40
  13  -4  -5   83.73    6.80
  13  -4  -7   18.88    4.16
   4 -13  -7   17.40    3.09
  13   4   7   17.19    2.48
  -4 -13   9  102.14    6.52
 -13   4  -9  104.08    6.11
  13   4   9   87.37    5.01
   4 -13  -9   95.43    6.48
  13  -4  -9  101.63    7.96
  -4 -13  11   13.49    2.95
  13  -4 -11   13.28    3.90
   4 -13 -11    9.08    2.55
  13  -4 -13   10.63    3.93
   4 -13 -13   14.39    2.79
  13  -4 -15   -0.76    3.08
  13  -4 -17    2.50    3.74
  13  -4 -19   16.53    4.71
  13  -4 -21    5.72    4.02
   5 -13  20    0.42    3.29
   5 -13  18   11.61    4.35
   5 -13  16    2.48    3.34
   5 -13  14    0.52    3.07
   5 -13  12    1.69    3.00
 -13  -5 -10    4.20    2.81
   5 -13  10    5.44    2.98
 -13  -5  -8   68.96    6.62
   5 -13   8   69.91    6.50
 -13  -5  -6   16.80    4.13
  13  -5   6   17.59    3.72
   5 -13   6   21.41    3.92
 -13  -5  -4    5.62    3.40
  13  -5   4   -1.31    2.48
   5 -13   4    5.41    2.66
   5 -13   2   50.67    4.56
 -13  -5  -2   73.18    6.37
  13  -5   2   62.89    5.83
  13   5   0  156.00    7.97
  13  -5   0  162.11    9.45
   5 -13   0  151.15    7.50
  13  -5  -2   60.58    5.76
   5 -13  -2   59.59    3.92
  13   5   2   57.91    4.47
  13   5   4    1.34    1.66
   5 -13  -4    1.55    0.93
  -5 -13   6   24.22    3.74
  13  -5  -6   14.74    3.70
   5 -13  -6   17.16    3.36
  13   5   6   20.89    2.63
  -5 -13   8   62.43    5.36
   5 -13  -8   66.14    5.65
  13  -5  -8   69.81    6.63
  13   5   8   73.57    4.34
  -5 -13  10    0.15    2.24
  13  -5 -10    3.75    3.02
   5 -13 -10    6.18    2.51
  13  -5 -12    1.89    2.94
  -5 -13  12   -0.60    2.12
   5 -13 -12    3.76    2.35
  13  -5 -14    9.13    3.88
   5 -13 -14   -2.04    2.36
  13  -5 -16    6.16    3.48
  13  -5 -18   10.61    4.23
  13  -5 -20    3.93    3.87
   6 -13  19   13.26    4.55
   6 -13  17    3.76    3.27
   6 -13  15   25.51    5.18
   6 -13  13   30.44    5.34
   6 -13  11    9.82    3.71
   6 -13   9    0.53    2.83
 -13  -6  -9   -1.17    2.73
 -13  -6  -7   36.38    5.20
  13  -6   7   39.56    5.28
   6 -13   7   35.20    4.86
 -13  -6  -5   39.85    5.15
  13  -6   5   33.96    4.64
   6 -13   5   32.96    4.59
 -13  -6  -3   24.49    4.45
   6 -13   3   23.08    3.69
  13  -6   3   25.93    4.12
   6 -13   1    9.09    2.50
 -13  -6  -1    8.92    3.63
  13  -6   1    9.85    3.51
  13   6   1   10.22    2.48
  13  -6  -1   11.92    3.41
   6 -13  -1   10.07    2.36
  13   6   3   21.99    2.85
   6 -13  -3   21.84    3.83
  13  -6  -3   22.75    4.52
   6 -13  -3   27.55    2.60
  13  -6  -5   30.92    4.46
  -6 -13   5   25.67    4.05
   6 -13  -5   32.56    4.20
  13   6   5   35.45    3.17
  13  -6  -7   26.24    4.60
  -6 -13   7   30.22    4.45
  13   6   7   33.21    2.88
   6 -13  -7   30.22    4.17
  -6 -13   9    0.77    2.41
  13  -6  -9   -1.35    2.91
   6 -13  -9    3.04    2.30
  -6 -13  11   14.00    3.18
   6 -13 -11   14.25    3.18
  -6 -13  13   34.14    4.28
  13  -6 -13   20.80    4.58
   6 -13 -13   35.74    4.40
  13  -6 -15   25.58    5.18
   6 -13 -15   15.89    3.37
  13  -6 -17    2.47    3.16
  13  -6 -19    2.49    3.81
  13  -6 -21    1.61    3.57
   7 -13  18   16.21    5.01
   7 -13  16   14.02    4.46
   7 -13  14   19.79    5.03
   7 -13  12    6.40    3.40
   7 -13  10   45.91    5.96
 -13  -7  -8   69.52    6.78
   7 -13   8   64.39    6.43
 -13  -7  -6    1.32    2.95
   7 -13   6   -1.51    2.67
  13  -7   6    4.39    2.93
 -13  -7  -4  132.14    8.55
  13  -7   4  116.26    8.44
   7 -13   4  116.69    7.72
 -13  -7  -2   82.20    6.98
  13  -7   2   75.41    6.66
   7 -13   2   72.68    5.68
 -13  -7   0   50.77    5.65
   7 -13   0   44.21    4.14
  13  -7   0   43.54    5.45
  -7 -13   2   69.26    6.16
  13   7   2   77.49    5.06
   7 -13  -2   73.25    6.42
   7 -13  -2   65.30    4.63
  13  -7  -2   76.44    6.84
  -7 -13   4  115.60    7.82
   7 -13  -4  121.45    8.13
   7 -13  -4  125.70    5.59
  13  -7  -4  126.22    8.81
  13   7   4  127.59    6.24
  -7 -13   6    4.76    3.03
  13  -7  -6    3.32    3.13
   7 -13  -6    0.91    2.53
  -7 -13   8   54.05    5.53
   7 -13  -8   65.25    5.94
  13  -7  -8   65.50    6.44
  13  -7 -10   31.52    5.16
  -7 -13  10   36.92    4.49
   7 -13 -10   42.88    4.89
  13  -7 -12   12.97    3.80
  -7 -13  12    5.17    2.49
   7 -13 -12   12.98    3.21
  -7 -13  14   15.73    3.48
  13  -7 -14   13.16    3.95
   7 -13 -14    6.81    2.79
  13  -7 -16   13.76    4.10
   7 -13 -16   18.18    3.64
  13  -7 -18   15.32    4.48
  13  -7 -20    4.02    3.63
   8 -13  17    2.80    3.96
   8 -13  15   10.58    4.21
   8 -13  13   15.41    4.44
   8 -13  11   22.81    4.88
   8 -13   9    0.22    2.89
 -13  -8  -7   59.53    6.26
   8 -13   7   56.89    6.27
 -13  -8  -5  175.57   10.44
  13  -8   5  159.23   10.15
   8 -13   5  153.27    9.32
 -13  -8  -3   46.18    5.45
  13  -8   3   38.52    5.13
 -13  -8  -1  121.30    8.40
  13  -8   1  108.37    8.23
 -13  -8   1  116.94    8.36
  -8 -13   1  111.68    7.92
   8 -13  -1  109.96    8.17
  13  -8  -1  118.52    8.44
  13   8   3   43.04    3.55
   8 -13  -3   34.41    4.77
  -8 -13   3   32.83    4.56
   8 -13  -3   37.32    3.37
  13  -8  -3   35.21    5.07
  -8 -13   5  141.64    8.88
   8 -13  -5  162.64    9.67
  13  -8  -5  153.89   10.12
  -8 -13   7   56.79    5.60
   8 -13  -7   65.33    6.18
  13  -8  -7   63.02    6.47
  13  -8  -9    2.13    3.06
  -8 -13   9    0.96    2.57
   8 -13  -9   -0.53    2.63
  13  -8 -11   24.48    4.60
  -8 -13  11   21.91    3.81
   8 -13 -11   22.89    3.93
  13  -8 -13   17.08    4.49
  -8 -13  13   19.16    3.76
   8 -13 -13   16.19    3.61
  13  -8 -15   10.19    3.93
   8 -13 -15    5.78    2.84
  13  -8 -17   12.47    3.75
   8 -13 -17   11.81    3.27
  13  -8 -19    4.10    3.50
   9 -13  18   -0.69    3.55
   9 -13  16    3.83    3.59
   9 -13  14    1.66    3.27
   9 -13  12   12.49    3.96
   9 -13  10    8.88    3.91
 -13  -9  -6  121.03    8.93
 -13  -9  -4   35.67    5.02
  13  -9   4   29.05    4.76
 -13  -9  -2   43.54    5.44
  13  -9   2   38.50    5.22
 -13  -9   0  144.50    9.40
  13  -9   0  129.19    9.15
  -9 -13   0  135.63    8.96
  -9 -13   2   34.21    4.89
 -13  -9   2   36.09    5.11
   9 -13  -2   35.70    5.01
  13  -9  -2   38.13    5.22
  -9 -13   4   33.97    4.70
   9 -13  -4   31.31    4.71
  13  -9  -4   34.23    5.12
  -9 -13   6  119.34    8.22
   9 -13  -6  123.14    8.59
  13  -9  -6  137.87    9.51
  -9 -13   8   22.98    4.16
   9 -13  -8   22.42    4.07
  13  -9  -8   20.27    4.26
  13  -9 -10   12.63    3.92
  -9 -13  10    8.52    3.45
   9 -13 -10   10.76    3.33
  13  -9 -12   11.88    3.57
  -9 -13  12   11.42    3.55
   9 -13 -12   10.44    3.27
  13  -9 -14    1.97    2.89
  -9 -13  14    4.99    2.89
   9 -13 -14    1.59    2.46
  13  -9 -16   -1.52    3.18
   9 -13 -16    5.42    3.29
  13  -9 -18    2.76    3.32
   9 -13 -18   -2.99    2.97
  13  -9 -20   11.11    4.42
  10 -13  17   -5.34    3.99
  10 -13  15    4.29    3.85
  10 -13  13    2.25    3.51
  10 -13  11    7.35    3.65
 -13 -10  -5   72.05    6.78
 -13 -10  -3   17.80    4.16
  13 -10   3   14.07    3.80
 -10 -13  -1   33.45    4.78
 -13 -10  -1   28.39    4.57
  13 -10   1   33.49    5.07
 -10 -13   1   29.31    4.57
 -13 -10   1   39.71    5.32
  10 -13  -1   28.62    4.69
  13 -10  -1   29.64    4.77
 -10 -13   3   21.06    4.30
 -13 -10   3   15.83    3.84
  10 -13  -3   20.35    4.29
  13 -10  -3   25.43    4.75
 -10 -13   5   58.68    6.05
 -13 -10   5   60.02    6.41
  10 -13  -5   66.84    6.49
  13 -10  -5   66.05    6.70
 -10 -13   7    5.56    3.08
  10 -13  -7   10.08    3.42
  13 -10  -7    9.96    3.55
 -10 -13   9    7.73    3.23
  10 -13  -9    5.76    2.93
  13 -10  -9    3.58    2.98
 -10 -13  11    8.33    3.40
  10 -13 -11    8.72    3.41
  13 -10 -11   12.16    4.05
  13 -10 -13   -2.68    3.15
 -10 -13  13    3.60    3.23
  10 -13 -13    3.28    3.00
  13 -10 -15    7.11    3.64
 -10 -13  15    6.98    3.44
  10 -13 -15    3.40    2.75
  13 -10 -17   -2.48    3.50
  10 -13 -17    2.83    3.09
  13 -10 -19    7.58    3.82
  11 -13  16   10.83    4.35
  11 -13  14    8.92    4.00
 -13 -11  -4   45.49    5.74
  13 -11   2    1.96    2.99
 -13 -11  -2   -0.81    3.39
 -11 -13  -2    4.36    3.21
 -11 -13   0    9.53    3.53
 -13 -11   0    9.70    3.41
  11 -13   0    7.26    3.35
  13 -11   0    2.28    3.13
 -13 -11   2    1.86    2.95
 -11 -13   2    1.11    3.16
  11 -13  -2    3.59    3.25
  13 -11  -2    3.68    3.01
 -11 -13   4   45.40    5.55
 -13 -11   4   40.15    5.76
  11 -13  -4   45.58    5.70
  13 -11  -4   48.50    5.99
 -11 -13   6    6.67    3.58
 -13 -11   6    8.73    3.64
  11 -13  -6    7.06    3.06
  13 -11  -6    7.67    3.37
 -11 -13   8    0.69    2.94
 -13 -11   8    4.56    3.63
  11 -13  -8    3.61    3.59
  13 -11  -8    2.46    2.90
 -11 -13  10   52.39    6.06
  11 -13 -10   52.38    6.23
  13 -11 -10   62.67    6.77
 -11 -13  12    0.96    2.78
  11 -13 -12   -0.83    3.28
  13 -11 -12    6.08    3.39
 -11 -13  14    3.88    3.26
  11 -13 -14    4.51    3.07
  13 -11 -14    2.29    2.90
  11 -13 -16    9.33    3.64
  13 -11 -16   10.38    4.49
  13 -11 -18    3.60    3.52
  11 -13 -18    1.53    3.12
  12 -13  15   60.74    7.95
 -13 -12  -3   89.24    7.76
 -12 -13  -3   95.06    8.01
 -12 -13  -1   -0.62    3.29
 -13 -12  -1    5.75    3.55
  12 -13   1    3.12    2.93
  13 -12   1    3.61    3.04
 -12 -13   1    1.43    3.23
 -13 -12   1    4.03    3.51
  12 -13  -1    0.39    3.01
  13 -12  -1    0.88    2.96
 -12 -13   3   95.35    7.93
  12 -13  -3   79.41    7.63
  13 -12  -3   91.01    8.07
 -13 -12   3   85.99    7.46
 -12 -13   5    9.37    3.56
 -13 -12   5   15.55    4.06
  12 -13  -5   16.86    4.50
  13 -12  -5   15.09    4.03
 -12 -13   7   14.85    4.07
 -13 -12   7   15.61    3.88
  12 -13  -7   19.73    4.54
  13 -12  -7   17.87    3.97
 -12 -13   9   88.92    7.67
 -13 -12   9   78.32    7.49
  12 -13  -9   86.72    8.11
  13 -12  -9   86.76    8.07
 -12 -13  11   21.81    4.60
 -13 -12  11   15.50    4.20
  12 -13 -11   22.34    4.61
  13 -12 -11   27.66    4.94
 -12 -13  13   25.77    4.96
  12 -13 -13   37.23    5.56
  13 -12 -13   42.46    5.88
 -12 -13  15   50.77    6.43
  12 -13 -15   67.28    7.21
  13 -12 -15   54.65    6.99
  12 -13 -17    1.73    3.10
  13 -12 -17    0.31    3.29
  12 -13 -19    5.04    3.43
 -13 -13  -2   38.46    5.49
 -13 -13   0    4.89    3.54
  13 -13   0    6.08    3.24
 -13 -13   2   28.29    5.15
  13 -13  -2   29.97    5.03
 -13 -13   4   68.22    6.98
  13 -13  -4   89.65    8.23
 -13 -13   6   25.56    4.67
  13 -13  -6   31.63    5.37
 -13 -13   8   23.95    4.78
  13 -13  -8   17.12    4.22
 -13 -13  10   86.08    7.85
  13 -13 -10   97.93    8.64
 -13 -13  12   41.62    5.82
  13 -13 -12   39.61    6.03
 -13 -13  14   11.50    4.15
  13 -13 -14    4.39    3.37
 -13 -13  16   32.32    5.82
  13 -13 -16   31.39    5.46
  14   0   0    3.96    2.61
  14   0  -2    3.22    2.63
  14   0   2    3.11    2.13
  14   0   4   87.27    6.06
   0 -14   4   78.96    6.02
  14   0  -4   80.24    6.56
   0 -14   6    0.05    2.53
  14   0  -6   -3.03    2.95
  14   0   6   -0.76    1.92
 -14   0  -8    1.64    2.30
  14   0  -8    3.29    2.82
   0 -14   8    4.66    2.77
  14   0   8    0.95    1.82
 -14   0 -10  168.28    9.14
  14   0 -10  180.43   11.33
   0 -14  10  167.83   10.60
   0 -14  12   20.74    4.74
 -14   0 -12    9.35    2.73
   0 -14  14    4.23    3.73
   0 -14  16   32.76    5.64
   0 -14  18    6.16    3.76
   0 -14  20    3.14    3.82
   1 -14  19    8.06    4.15
   1 -14  17   12.68    4.30
   1 -14  15   34.12    5.71
   1 -14  13   13.04    3.61
 -14  -1 -11   35.15    4.38
   1 -14  11   33.41    5.03
 -14  -1  -9   72.69    6.07
  14  -1   9   73.39    5.90
   1 -14   9   71.52    6.70
 -14  -1  -7    9.66    3.21
   1 -14   7    9.62    3.43
  14   1  -7   13.92    3.75
  14  -1   7    9.57    2.77
   1 -14   5   47.79    4.82
  14   1  -5   45.96    5.24
  14  -1   5   38.25    4.39
   1 -14   3   25.16    3.56
  14   1  -3   29.89    4.09
  14  -1   3   29.43    3.93
  14   1  -1   47.25    4.75
   1 -14   1   42.95    4.03
  14  -1   1   44.55    4.65
  14   1   1   43.53    4.46
  14  -1  -1   42.12    4.80
  14  -1  -3   25.66    3.98
  14   1   3   25.71    3.53
  14  -1  -5   44.57    5.30
  14   1   5   42.22    4.24
  -1 -14   5   37.73    4.47
 -14   1  -7   12.88    3.22
  14  -1  -7   12.02    3.50
  14   1   7    7.01    2.35
  -1 -14   7   11.95    3.14
 -14   1  -9   76.23    5.87
  14  -1  -9   73.60    7.18
  14   1   9   72.24    5.36
  -1 -14   9   72.16    6.73
  -1 -14  11   39.77    5.49
 -14   1 -11   30.15    3.89
  14  -1 -11   40.01    5.61
  -1 -14  13   18.67    4.51
  14  -1 -13   12.26    4.10
  -1 -14  15   37.50    5.83
  -1 -14  17   15.58    4.64
  -1 -14  19   -3.06    3.35
   2 -14  20   21.24    5.47
   2 -14  18   12.65    4.54
   2 -14  16    4.19    3.70
   2 -14  14   24.66    4.93
   2 -14  12   22.91    4.49
 -14  -2 -10   17.00    3.54
   2 -14  10   17.22    3.77
 -14  -2  -8   57.89    5.53
  14  -2   8   57.64    5.41
   2 -14   8   61.81    6.10
 -14  -2  -6   97.01    7.14
  14  -2   6   84.83    6.44
  14   2  -6   95.55    7.40
   2 -14   6   93.78    7.01
   2 -14   4    3.30    2.43
  14   2  -4    4.70    2.62
  14  -2   4    3.91    2.29
  14  -2   2   72.85    6.04
   2 -14   2   71.33    5.39
  14   2  -2   61.52    5.52
   2 -14   0  146.74    7.16
  14  -2   0  148.75    8.78
  14   2   0  146.41    8.28
  14  -2  -2   48.93    5.36
  14   2   2   59.47    5.16
  14  -2  -4    0.73    2.52
  14   2   4    2.69    1.90
  14   2   6   89.47    5.82
  14  -2  -6   98.24    7.63
 -14   2  -8   62.82    5.29
  14   2   8   56.12    4.60
  -2 -14   8   68.54    6.40
  14  -2  -8   64.12    6.46
 -14   2 -10   21.80    3.39
  14  -2 -10   20.44    4.28
  -2 -14  10   27.70    4.95
 -14   2 -12   14.28    2.92
   2 -14 -12   25.36    3.30
  14  -2 -12   23.95    4.70
  -2 -14  12   14.05    4.11
  -2 -14  14   18.32    4.74
  14  -2 -14   27.16    5.12
  -2 -14  16    3.35    3.28
  14  -2 -16    3.69    3.52
  -2 -14  18    5.40    3.90
  14  -2 -18    7.17    4.09
  14  -2 -20   23.64    5.71
  -2 -14  20   23.89    5.35
   3 -14  19    4.51    4.06
   3 -14  17   33.54    6.05
   3 -14  15    7.74    3.95
   3 -14  13   -1.35    2.95
 -14  -3 -11   52.58    5.47
   3 -14  11   49.92    5.93
 -14  -3  -9   23.05    3.96
   3 -14   9   30.09    4.59
 -14  -3  -7    2.83    2.79
  14  -3   7    3.56    2.30
   3 -14   7    2.40    2.53
  14  -3   5  113.60    7.72
 -14  -3  -5  118.08    7.98
   3 -14   5  110.44    7.48
  14   3  -3  132.27    8.17
  14  -3   3  114.49    7.78
   3 -14   3  141.99    7.87
  14  -3   1   64.14    5.92
   3 -14   1   75.16    5.26
  14   3  -1   76.49    6.06
   3 -14  -1   75.32    4.67
  14  -3  -1   67.72    6.11
  14   3   1   73.08    5.52
  14   3   3  126.06    7.10
  14  -3  -3  121.29    8.17
  14   3   5  123.74    6.86
  14  -3  -5  115.95    8.30
  14  -3  -7    3.43    2.90
  14   3   7    2.14    1.75
 -14   3  -9   27.89    3.61
  14  -3  -9   32.73    5.35
  14   3   9   26.02    2.98
 -14   3 -11   47.43    4.37
  14  -3 -11   50.28    6.28
   3 -14 -11   55.70    4.76
  14  -3 -13   -0.37    3.30
   3 -14 -13    1.49    1.93
  -3 -14  13   -4.65    3.36
  14  -3 -15   22.61    5.04
  -3 -14  15   18.40    4.60
  14  -3 -17   15.38    4.64
  -3 -14  17   17.24    4.54
  14  -3 -19    0.46    3.31
  -3 -14  19    2.36    3.56
   4 -14  18   13.81    4.66
   4 -14  16    3.85    3.19
   4 -14  14   10.05    3.65
   4 -14  12   21.72    4.69
   4 -14  10    1.63    2.80
 -14  -4 -10    3.45    2.76
 -14  -4  -8   47.22    5.35
   4 -14   8   53.62    5.81
  14  -4   8   59.83    5.76
   4 -14   6   31.35    4.21
 -14  -4  -6   37.88    4.88
  14  -4   6   29.17    4.25
   4 -14   4    8.04    2.70
 -14  -4  -4   18.93    3.89
  14  -4   4   14.25    3.51
  14   4  -2   40.18    4.44
  14  -4   2   33.44    4.62
   4 -14   2   33.79    3.90
  14  -4   0  148.98    9.51
   4 -14   0  171.57    8.01
  14   4   0  174.51    8.89
  14   4   2   33.66    3.74
  14  -4  -2   37.83    5.06
   4 -14  -2   40.99    3.22
  14   4   4   10.90    2.34
  14  -4  -4   11.13    3.48
  14  -4  -6   44.24    5.41
  14   4   6   35.35    3.49
  14  -4  -8   52.64    5.90
   4 -14  -8   54.69    5.12
  14   4   8   55.03    4.11
 -14   4 -10    4.77    2.26
  14  -4 -10    5.35    3.16
   4 -14 -10   -0.16    1.96
  14  -4 -12    7.27    3.77
   4 -14 -12   13.31    2.88
  14  -4 -14   13.53    4.16
  14  -4 -16    2.48    3.91
  14  -4 -18    5.03    3.29
  14  -4 -20    6.75    3.98
   5 -14  19    6.97    4.26
   5 -14  17    9.04    4.21
   5 -14  15   30.31    5.87
   5 -14  13   19.27    4.68
   5 -14  11   18.89    4.48
 -14  -5  -9    5.54    2.61
   5 -14   9   11.70    3.59
   5 -14   7   80.22    6.74
 -14  -5  -7   96.57    7.48
  14  -5   7   91.32    7.10
   5 -14   5   49.81    5.10
 -14  -5  -5   53.86    5.83
  14  -5   5   49.62    5.37
 -14  -5  -3   35.06    4.96
   5 -14   3   40.60    4.38
  14  -5   3   37.94    5.00
  14   5  -1   11.58    2.72
   5 -14   1    9.40    2.56
  14  -5   1   12.34    3.30
  14   5   1   24.43    3.40
   5 -14  -1   13.73    2.35
  14  -5  -1   12.62    3.37
  14   5   3   33.69    3.55
   5 -14  -3   38.60    2.85
  14  -5  -3   33.77    4.74
  14  -5  -5   50.84    5.66
  14   5   5   52.28    4.16
   5 -14  -7   93.49    6.86
  14   5   7   82.92    5.01
  14  -5  -7   82.61    7.37
  -5 -14   9    8.30    2.78
  14  -5  -9    9.23    3.57
 -14   5  -9    7.15    2.41
   5 -14  -9    6.88    2.73
  -5 -14  11   11.39    3.05
  14  -5 -11   21.89    4.64
   5 -14 -11   18.08    3.42
  14  -5 -13   18.78    4.53
   5 -14 -13   20.05    3.51
  14  -5 -15   21.71    4.54
  14  -5 -17    7.28    4.07
  14  -5 -19   15.35    4.69
   6 -14  18   37.47    6.51
   6 -14  16   34.48    6.01
   6 -14  14   23.34    5.22
   6 -14  12   57.26    6.67
   6 -14  10   70.51    7.02
 -14  -6  -8   76.51    7.09
   6 -14   8   74.03    7.04
 -14  -6  -6   60.72    6.16
  14  -6   6   60.31    6.17
   6 -14   6   45.21    5.24
 -14  -6  -4   80.00    6.91
   6 -14   4   79.00    6.27
  14  -6   4   86.47    7.14
   6 -14   2   79.32    6.07
 -14  -6  -2   72.31    6.73
  14  -6   2   90.71    7.25
  14   6   0    6.55    2.29
   6 -14   0    6.51    2.23
  14  -6   0    4.14    3.00
  14  -6  -2   75.32    6.66
   6 -14  -2   70.86    4.52
  14   6   2   76.91    5.29
  14  -6  -4   71.43    6.70
  14   6   4   80.30    5.12
  -6 -14   6   45.74    4.99
  14  -6  -6   55.61    6.04
   6 -14  -6   58.44    5.65
  14   6   6   56.49    4.06
  -6 -14   8   82.27    6.47
   6 -14  -8   76.43    6.43
  14  -6  -8   98.36    8.09
  -6 -14  10   72.19    6.08
   6 -14 -10   77.51    6.56
  14  -6 -10   77.21    7.24
  -6 -14  12   49.08    5.02
  14  -6 -12   54.67    6.48
   6 -14 -12   46.87    5.12
  14  -6 -14   17.57    4.55
   6 -14 -14   13.70    3.40
  14  -6 -16   41.96    6.17
  14  -6 -18   45.14    6.85
  14  -6 -20    0.96    3.73
   7 -14  17   19.37    5.05
   7 -14  15   36.82    5.86
   7 -14  13   69.60    7.56
   7 -14  11   52.54    6.34
 -14  -7  -9    7.32    2.87
   7 -14   9   19.75    4.22
 -14  -7  -7  111.25    8.48
   7 -14   7  132.89    8.96
 -14  -7  -5  140.83    9.32
  14  -7   5  125.08    8.89
   7 -14   5  116.37    8.30
 -14  -7  -3   -1.09    2.95
   7 -14   3    1.71    2.61
  14  -7   3   -1.55    2.73
 -14  -7  -1  194.39   10.89
   7 -14   1  168.01    8.90
  14  -7   1  175.86   10.56
  14   7   1  182.29    8.76
   7 -14  -1  176.86    8.27
  14  -7  -1  170.38   10.35
  14   7   3   -0.15    1.66
  14  -7  -3    2.56    3.00
  -7 -14   5  126.73    8.28
   7 -14  -5  131.49    8.71
  14  -7  -5  130.84    9.30
  14   7   5  127.77    6.39
  -7 -14   7  127.06    8.23
   7 -14  -7  117.00    8.26
  14  -7  -7  125.38    9.27
  14  -7  -9   14.13    4.55
  -7 -14   9   18.42    3.73
   7 -14  -9   17.43    3.81
  14  -7 -11   63.77    6.75
  -7 -14  11   48.80    5.31
   7 -14 -11   54.61    5.69
  -7 -14  13   57.31    5.64
   7 -14 -13   69.52    6.32
  14  -7 -13   69.82    7.27
  14  -7 -15   38.46    6.07
   7 -14 -15   34.89    4.73
  14  -7 -17   13.89    4.73
  14  -7 -19    2.30    3.64
   8 -14  18   17.58    5.40
   8 -14  16    8.12    4.24
   8 -14  14   31.02    5.85
   8 -14  12    9.47    4.14
   8 -14  10   43.18    6.01
 -14  -8  -8  141.19    9.63
   8 -14   8  125.70    9.18
 -14  -8  -6    8.53    3.36
   8 -14   6    7.37    2.98
  14  -8   6    7.60    3.44
 -14  -8  -4  151.86   10.00
  14  -8   4  166.20   10.25
   8 -14   4  145.43    9.00
 -14  -8  -2  223.64   11.89
  14  -8   2  193.33   11.44
   8 -14   2  183.48    9.73
   8 -14   0   14.56    2.71
 -14  -8   0   17.06    4.20
  14  -8   0   21.45    3.93
  14   8   2  200.12    9.01
 -14  -8   2  197.28   11.32
   8 -14  -2  192.75    8.69
  14  -8  -2  201.61   11.57
  -8 -14   4  159.67    9.54
   8 -14  -4  158.88    9.91
  14  -8  -4  156.57   10.36
  -8 -14   6   11.28    3.27
   8 -14  -6    8.01    3.39
  14  -8  -6    7.38    3.31
  -8 -14   8  144.43    9.06
   8 -14  -8  128.81    8.87
  14  -8  -8  135.32    9.76
  14  -8 -10   49.14    6.02
  -8 -14  10   43.87    5.08
   8 -14 -10   58.59    6.05
  -8 -14  12    6.54    2.87
   8 -14 -12    9.51    3.12
  14  -8 -12    7.77    3.48
  14  -8 -14   32.39    5.49
   8 -14 -14   34.24    4.91
  14  -8 -16    1.83    3.22
   8 -14 -16    4.74    2.77
  14  -8 -18   20.42    4.86
   9 -14  17   15.21    4.52
   9 -14  15    1.01    3.66
   9 -14  13   16.76    4.58
   9 -14  11   53.11    6.74
   9 -14   9    8.15    3.16
 -14  -9  -7   66.87    6.85
   9 -14   7   63.34    6.55
 -14  -9  -5  131.50    9.27
  14  -9   5  124.77    9.58
   9 -14   5  117.86    8.30
 -14  -9  -3   68.28    6.71
  14  -9   3   55.29    6.19
   9 -14   3   61.52    5.59
 -14  -9  -1  122.36    8.92
  14  -9   1  128.94    9.32
 -14  -9   1  123.15    9.25
  14  -9  -1  124.20    9.39
   9 -14  -1  123.05    7.09
  -9 -14   1  125.97    8.74
  -9 -14   3   54.46    5.84
 -14  -9   3   61.13    6.46
   9 -14  -3   57.36    6.32
  14  -9  -3   57.28    6.44
  -9 -14   5  127.58    8.74
   9 -14  -5  129.17    9.05
  14  -9  -5  129.64    9.33
  -9 -14   7   58.49    6.11
   9 -14  -7   53.85    5.94
  14  -9  -7   71.03    7.18
  -9 -14   9    3.65    2.74
   9 -14  -9   10.35    3.49
  14  -9  -9    4.35    3.28
  -9 -14  11   35.50    4.85
   9 -14 -11   30.97    4.73
  14  -9 -11   47.87    6.21
  14  -9 -13   10.70    3.75
  -9 -14  13    8.01    3.41
   9 -14 -13   15.50    4.07
  14  -9 -15    3.28    3.23
   9 -14 -15    5.64    2.94
  14  -9 -17   10.48    3.95
  10 -14  16   -2.11    3.80
  10 -14  14   -0.59    3.30
  10 -14  12    1.03    3.40
  10 -14  10    5.05    3.38
  10 -14   8   16.40    3.81
 -14 -10  -6   61.11    6.75
 -14 -10  -4   19.15    4.53
  14 -10   4   28.87    4.93
 -14 -10  -2   39.83    5.48
  14 -10   2   41.74    5.73
 -14 -10   0   54.02    6.14
  14 -10   0   52.37    6.13
 -10 -14   0   50.04    5.89
 -10 -14   2   41.28    5.28
 -14 -10   2   39.33    5.59
  10 -14  -2   43.82    5.55
  14 -10  -2   36.65    5.48
 -10 -14   4   19.74    4.22
 -14 -10   4   19.51    4.47
  10 -14  -4   20.46    4.60
  14 -10  -4   19.51    4.49
 -10 -14   6   60.37    6.15
  10 -14  -6   72.65    7.08
  14 -10  -6   64.24    6.89
 -10 -14   8   14.87    3.85
  10 -14  -8   19.95    4.04
  14 -10  -8   17.78    4.37
 -10 -14  10   11.73    3.74
  10 -14 -10   18.24    4.32
  14 -10 -10   18.38    4.69
  10 -14 -12   -1.89    2.87
  14 -10 -12   -1.58    3.37
 -10 -14  14    3.10    3.15
  14 -10 -14    6.30    3.63
  10 -14 -14    4.27    3.09
  14 -10 -16    4.05    3.57
  10 -14 -16   -3.92    3.29
  14 -10 -18   -1.65    3.46
  11 -14  15    5.33    3.93
  11 -14  13    2.22    3.37
  11 -14  11   15.82    4.51
 -14 -11  -5   23.64    4.47
 -14 -11  -3    4.37    3.52
  14 -11   3   -1.27    3.04
 -14 -11  -1   17.63    4.37
  14 -11   1    5.83    3.20
 -11 -14   1    0.18    3.05
 -14 -11   1   10.80    3.82
  11 -14  -1    7.79    3.45
  14 -11  -1    7.51    3.41
 -11 -14   3    3.96    3.26
 -14 -11   3    2.44    2.97
  11 -14  -3    3.83    3.07
  14 -11  -3    2.60    2.89
 -11 -14   5   21.76    4.47
 -14 -11   5   31.38    5.12
  11 -14  -5   29.22    4.91
  14 -11  -5   35.08    5.60
 -11 -14   7    2.72    3.04
 -14 -11   7   11.50    4.06
  11 -14  -7   10.33    3.62
  14 -11  -7   12.85    4.06
 -11 -14   9   17.30    4.31
  11 -14  -9   19.50    4.41
  14 -11  -9   11.15    3.91
 -11 -14  11   15.77    4.32
  11 -14 -11   20.38    4.41
  14 -11 -11   24.36    4.81
 -11 -14  13    4.75    3.64
  11 -14 -13   -2.14    2.86
  14 -11 -13   -2.77    3.26
  11 -14 -15    6.42    3.42
  14 -11 -15    7.67    3.91
  11 -14 -17   -1.87    2.96
  14 -11 -17   -2.69    3.58
  12 -14  14   17.98    5.11
  12 -14  12   18.80    5.30
 -14 -12  -4   45.83    6.05
 -14 -12  -2    7.58    3.24
  14 -12   2   11.72    3.89
 -12 -14   0   -1.09    2.96
 -14 -12   0   -1.78    3.04
  12 -14   0   -0.77    2.95
  14 -12   0    0.78    3.11
 -12 -14   2   14.34    3.88
 -14 -12   2   13.74    4.15
  12 -14  -2   11.13    4.02
  14 -12  -2   10.11    3.73
 -12 -14   4   44.89    5.96
 -14 -12   4   46.54    5.98
  12 -14  -4   41.13    5.89
  14 -12  -4   43.86    5.94
 -12 -14   6   -3.03    3.11
 -14 -12   6    3.95    3.40
  12 -14  -6   -0.78    3.01
  14 -12  -6   -0.65    3.16
 -12 -14   8    4.40    3.60
 -14 -12   8   10.64    4.05
  12 -14  -8    0.53    2.83
  14 -12  -8   11.25    3.79
 -12 -14  10   84.07    7.87
 -14 -12  10   77.65    7.74
  12 -14 -10   84.38    8.24
  14 -12 -10   78.06    8.03
 -12 -14  12   12.55    4.00
  12 -14 -12   11.71    4.14
  14 -12 -12   10.31    4.07
 -12 -14  14   10.59    4.45
  12 -14 -14    2.44    3.39
  14 -12 -14   15.12    4.57
  12 -14 -16   25.40    5.01
  14 -12 -16   40.26    6.26
  12 -14 -18    4.22    3.42
 -14 -13  -3   23.79    4.74
 -13 -14  -1   16.37    4.30
 -14 -13  -1   16.75    4.30
  14 -13   1   17.53    4.63
 -13 -14   1   20.19    4.59
 -14 -13   1   12.88    4.29
  13 -14  -1    8.76    3.56
  14 -13  -1   16.83    4.36
 -13 -14   3   21.00    4.55
 -14 -13   3   11.60    3.76
  13 -14  -3   18.97    4.65
  14 -13  -3   17.23    4.36
 -13 -14   5   32.40    5.14
 -14 -13   5   38.58    5.75
  13 -14  -5   46.24    6.50
  14 -13  -5   37.73    5.95
 -13 -14   7   35.65    5.46
 -14 -13   7   26.40    4.94
  13 -14  -7   43.57    6.03
  14 -13  -7   23.88    5.00
 -13 -14   9   49.23    6.23
 -14 -13   9   32.11    5.72
  13 -14  -9   38.91    5.78
  14 -13  -9   39.29    5.99
 -13 -14  11   24.12    4.70
 -14 -13  11   25.80    5.18
  13 -14 -11   29.42    5.50
  14 -13 -11   31.88    5.71
 -13 -14  13    9.85    4.11
 -14 -13  13   12.87    4.28
  13 -14 -13    8.22    4.20
  14 -13 -13   14.82    4.54
 -13 -14  15   32.76    5.43
 -14 -13  15   35.99    5.98
  13 -14 -15   33.31    5.92
  14 -13 -15   37.02    6.17
 -14 -14  -2   10.38    3.99
 -14 -14   0   57.07    6.85
  14 -14   0   58.28    7.26
 -14 -14   2   21.15    4.88
  14 -14  -2   15.49    4.16
 -14 -14   4   23.67    5.02
  14 -14  -4   32.93    5.49
 -14 -14   6    5.02    3.40
  14 -14  -6    4.49    3.86
 -14 -14   8   38.79    6.01
  14 -14  -8   32.32    5.65
 -14 -14  10   28.74    5.35
  14 -14 -10   35.90    5.77
 -14 -14  12    1.71    3.44
  14 -14 -12    3.20    3.33
 -14 -14  14   12.81    4.35
  15   0   1   62.38    5.63
  15   0  -1   60.60    5.59
  15   0   3  178.15    9.52
  15   0  -3  179.78   10.18
  15   0  -5    0.29    2.60
  15   0   5    1.38    2.05
   0 -15   5    1.98    2.54
  15   0  -7   61.94    6.62
 -15   0  -7   59.66    5.64
  15   0   7   54.68    4.95
   0 -15   7   62.49    6.10
 -15   0  -9  193.40   10.54
  15   0  -9  220.73   12.48
  15   0   9  204.22   10.14
   0 -15   9  229.00   12.26
 -15   0 -11   -1.40    2.52
   0 -15  11    1.07    2.94
  15   0 -11   -1.59    3.24
  15   0 -13  106.84    9.19
   0 -15  13   92.81    8.70
   0 -15  15   65.74    7.43
   0 -15  17    4.37    3.60
   0 -15  19   18.69    5.17
   1 -15  18   16.41    5.21
   1 -15  16   31.79    5.76
   1 -15  14   15.69    4.57
 -15  -1 -12   65.58    5.98
   1 -15  12   69.87    7.36
 -15  -1 -10  122.88    8.17
  15   1 -10  126.77    9.39
   1 -15  10  123.29    9.19
 -15  -1  -8   32.21    4.56
   1 -15   8   40.24    5.22
  15  -1   8   39.71    4.59
  15   1  -8   40.52    5.54
  15   1  -6   62.32    6.28
 -15  -1  -6   71.85    6.33
  15  -1   6   65.15    5.74
   1 -15   6   70.98    6.25
  15  -1   4  108.08    7.27
   1 -15   4  119.67    7.59
  15   1  -4  133.48    8.62
  15   1  -2   44.14    4.98
   1 -15   2   41.39    4.32
  15  -1   2   41.32    4.79
  15  -1   0  115.10    7.83
  15   1   0  115.10    7.47
  15   1   2   41.88    4.54
  15  -1  -2   36.39    4.62
  15   1   4  116.16    7.33
  15  -1  -4  125.92    8.77
  15   1   6   68.27    5.43
  -1 -15   6   73.44    6.32
  15  -1  -6   64.61    6.30
 -15   1  -8   38.58    4.70
  15   1   8   37.76    4.14
  15  -1  -8   45.63    5.82
  -1 -15   8   43.99    5.43
  15  -1 -10  138.85    9.96
 -15   1 -10  133.51    8.05
  -1 -15  10  136.56    9.67
 -15   1 -12   68.67    5.74
  15  -1 -12   78.70    7.95
  -1 -15  12   69.85    7.44
  -1 -15  14    8.47    3.66
  15  -1 -14   18.27    4.97
  -1 -15  16   34.82    5.99
  15  -1 -16   33.37    6.06
  -1 -15  18   17.15    4.99
  15  -1 -18   18.22    5.16
   2 -15  19   -4.61    3.95
   2 -15  17   13.13    4.73
   2 -15  15   21.06    5.23
   2 -15  13   20.70    4.38
 -15  -2 -11    5.78    2.55
   2 -15  11   10.81    3.80
 -15  -2  -9   11.50    3.34
  15  -2   9    7.54    2.57
   2 -15   9    7.81    3.32
 -15  -2  -7    5.00    2.93
   2 -15   7    7.22    2.75
  15   2  -7   12.60    3.45
  15  -2   7    6.17    2.57
 -15  -2  -5   22.83    4.06
   2 -15   5   26.02    4.10
  15   2  -5   30.23    4.58
  15  -2   5   19.00    3.56
   2 -15   3   -0.48    2.15
  15   2  -3    0.84    2.54
  15  -2   3    4.24    2.44
  15   2  -1    3.96    2.48
   2 -15   1    2.80    2.12
  15  -2   1    4.95    2.69
  15  -2  -1    6.02    2.96
  15   2   1    2.38    2.25
  15  -2  -3    4.54    2.64
  15   2   3    4.00    2.33
  15  -2  -5   20.57    4.00
  15   2   5   19.23    3.20
  15  -2  -7    7.43    3.32
  15   2   7    8.61    2.40
 -15   2  -9   11.59    3.08
  15  -2  -9    5.28    3.01
  15   2   9   12.56    2.50
 -15   2 -11    6.13    2.61
  15  -2 -11    7.87    3.62
  -2 -15  11    4.98    3.26
  15  -2 -13   26.69    5.43
  -2 -15  13   24.16    5.18
  15  -2 -15   26.96    5.44
  -2 -15  15   19.25    4.92
  15  -2 -17   17.66    4.92
  -2 -15  17    5.10    4.03
  15  -2 -19    3.81    4.00
  -2 -15  19    7.34    4.12
   3 -15  18   14.97    4.88
   3 -15  16    3.79    3.76
   3 -15  14   -0.66    3.05
   3 -15  12    3.20    3.25
 -15  -3 -10    1.45    2.69
   3 -15  10   10.72    3.41
  15  -3   8   39.86    4.83
   3 -15   8   42.28    5.21
 -15  -3  -8   36.64    4.96
 -15  -3  -6    5.42    3.09
  15   3  -6    1.88    2.82
  15  -3   6    2.20    2.35
   3 -15   6    6.46    2.75
 -15  -3  -4   26.76    4.47
  15   3  -4   26.77    4.01
   3 -15   4   21.91    3.62
  15  -3   4   22.26    4.01
   3 -15   2   34.28    4.04
  15   3  -2   26.67    3.89
  15  -3   2   37.38    4.69
  15  -3   0   55.17    5.77
   3 -15   0   58.27    4.45
  15   3   0   55.66    5.24
  15  -3  -2   29.71    4.59
  15   3   2   35.25    4.17
  15  -3  -4   21.08    3.93
  15   3   4   25.95    3.42
  15  -3  -6    0.62    2.84
  15   3   6    1.23    1.76
  15  -3  -8   34.69    5.16
 -15   3  -8   38.06    4.38
  15   3   8   30.98    3.52
 -15   3 -10   13.05    2.94
  15  -3 -10    7.54    3.27
  15  -3 -12    1.04    3.11
  15  -3 -14    1.60    3.29
  15  -3 -16    7.59    4.38
  -3 -15  16    8.13    3.91
  15  -3 -18   15.50    5.04
  -3 -15  18   19.64    5.31
   4 -15  17    1.70    3.35
   4 -15  15   19.64    4.51
   4 -15  13   14.43    4.27
 -15  -4 -11    6.60    3.41
   4 -15  11    5.06    3.30
   4 -15   9    2.25    2.71
 -15  -4  -9   -1.73    2.79
   4 -15   7   54.91    5.83
 -15  -4  -7   49.44    5.36
  15  -4   7   59.74    5.80
 -15  -4  -5   34.91    5.08
  15  -4   5   25.89    4.26
   4 -15   5   25.99    4.01
 -15  -4  -3   38.76    5.10
  15   4  -3   37.86    4.75
  15  -4   3   35.22    4.93
   4 -15   3   37.43    4.20
  15   4  -1   13.12    3.00
   4 -15   1    9.83    2.39
  15  -4   1    7.06    2.84
   4 -15  -1    9.68    2.02
  15   4   1   14.40    3.07
  15  -4  -1   10.03    3.28
  15  -4  -3   37.50    4.83
  15   4   3   33.44    3.81
  15  -4  -5   24.78    4.33
  15   4   5   28.37    3.44
  15   4   7   64.27    4.76
  15  -4  -7   59.50    6.30
  15  -4  -9    3.15    3.08
 -15   4  -9    1.80    2.14
  15  -4 -11    7.47    3.55
   4 -15 -11    3.94    2.23
  15  -4 -13   15.78    4.49
  15  -4 -15   21.47    5.16
  15  -4 -17    4.43    4.25
  15  -4 -19   15.69    5.02
   5 -15  18   37.78    6.50
   5 -15  16   47.09    6.65
   5 -15  14    1.77    3.13
   5 -15  12   47.12    6.08
 -15  -5 -10   51.92    5.85
   5 -15  10   54.96    6.17
 -15  -5  -8   62.40    6.32
  15  -5   8   76.36    6.79
   5 -15   8   59.79    6.27
 -15  -5  -6   23.04    4.48
   5 -15   6   22.54    3.82
  15  -5   6   17.93    3.74
   5 -15   4    6.44    2.56
 -15  -5  -4    8.36    3.33
  15  -5   4    9.37    3.11
 -15  -5  -2    8.63    3.48
  15   5  -2    7.93    2.43
  15  -5   2    6.47    2.96
   5 -15   2    5.46    2.48
  15   5   0    0.34    1.98
   5 -15   0   -0.92    1.75
  15  -5   0    3.60    2.59
  15   5   2    8.91    2.09
  15  -5  -2    4.11    2.84
  15  -5  -4   10.57    3.54
  15   5   4    5.71    2.06
  15  -5  -6   30.21    4.73
  15   5   6   26.20    3.09
   5 -15  -8   79.82    6.57
  15  -5  -8   80.14    7.49
   5 -15 -10   52.63    5.42
  15  -5 -10   67.84    7.37
  15  -5 -12   54.37    6.71
   5 -15 -12   57.15    5.49
  15  -5 -14    0.65    3.21
  15  -5 -16   42.85    6.59
  15  -5 -18   40.51    6.63
   6 -15  17    3.28    3.54
   6 -15  15   52.52    6.96
   6 -15  13  133.17   10.32
   6 -15  11   10.34    3.85
 -15  -6  -9   39.53    5.48
   6 -15   9   31.96    5.13
   6 -15   7  227.80   12.10
  15  -6   7  233.75   12.44
 -15  -6  -5    5.17    3.32
  15  -6   5    6.23    3.13
   6 -15   5    6.98    2.85
 -15  -6  -3   12.88    3.88
   6 -15   3   13.62    3.05
  15  -6   3   18.37    3.90
  15   6  -1   58.32    5.19
 -15  -6  -1   49.48    6.09
  15  -6   1   46.01    5.59
   6 -15   1   53.33    4.75
  15  -6  -1   51.42    5.87
   6 -15  -1   55.36    4.27
  15   6   1   54.31    4.81
  15   6   3   13.96    2.56
  15  -6  -3    6.12    3.41
  15  -6  -5    6.21    3.26
  15   6   5    9.60    2.23
   6 -15  -7  236.47   12.00
  15  -6  -7  225.52   13.04
  -6 -15   9   27.56    4.13
  15  -6  -9   32.53    5.27
   6 -15  -9   40.36    4.95
  -6 -15  11    7.14    3.07
  15  -6 -11    3.39    3.05
   6 -15 -11    3.66    2.49
   6 -15 -13  126.98    8.53
  15  -6 -13  117.41    9.82
  15  -6 -15   54.06    7.07
  15  -6 -17    3.12    3.88
   7 -15  16    7.55    3.97
   7 -15  14   20.14    5.15
   7 -15  12   63.47    7.15
   7 -15  10   58.04    6.69
 -15  -7  -8   67.77    6.87
   7 -15   8   64.76    6.61
   7 -15   6   54.71    5.68
 -15  -7  -6   61.21    6.46
  15  -7   6   46.83    5.54
 -15  -7  -4   44.39    5.66
  15  -7   4   41.00    5.51
   7 -15   4   37.63    4.75
 -15  -7  -2   72.19    6.91
   7 -15   2   55.84    5.10
  15  -7   2   47.11    5.90
 -15  -7   0   20.97    4.48
  15   7   0   19.86    3.22
   7 -15   0   18.06    3.11
  15  -7   0   18.96    4.00
  15  -7  -2   55.72    6.09
  15   7   2   62.23    4.91
  15   7   4   39.60    3.72
  15  -7  -4   47.43    6.00
   7 -15  -6   54.52    5.91
  15  -7  -6   59.81    6.59
  -7 -15   6   52.06    5.63
  -7 -15   8   69.45    6.30
   7 -15  -8   69.27    6.43
  15  -7  -8   73.48    7.40
  -7 -15  10   61.90    5.89
   7 -15 -10   55.49    5.73
  15  -7 -10   67.13    7.16
  -7 -15  12   58.25    5.68
   7 -15 -12   58.50    5.95
  15  -7 -12   75.96    7.72
  15  -7 -14   16.49    4.65
   7 -15 -14   15.22    3.56
  15  -7 -16   24.12    5.18
  15  -7 -18   29.29    5.80
   8 -15  17   14.61    4.92
   8 -15  15    5.06    3.80
   8 -15  13   16.63    4.51
   8 -15  11   37.40    5.81
   8 -15   9    0.38    2.78
 -15  -8  -9   -2.08    3.36
 -15  -8  -7   21.20    4.38
   8 -15   7   18.84    4.05
 -15  -8  -5   33.98    5.49
   8 -15   5   32.06    4.57
  15  -8   5   32.00    5.15
 -15  -8  -3   14.35    3.99
   8 -15   3   17.27    3.29
  15  -8   3   13.61    3.66
 -15  -8  -1   52.13    6.11
   8 -15   1   46.65    4.60
  15  -8   1   51.42    6.03
  15   8   1   49.65    4.60
 -15  -8   1   60.75    6.48
  15  -8  -1   49.23    5.96
  15  -8  -3   16.27    4.25
  -8 -15   5   32.33    4.78
   8 -15  -5   41.95    5.54
  15  -8  -5   32.81    5.29
  -8 -15   7   16.23    3.96
   8 -15  -7   18.93    3.97
  15  -8  -7   27.27    4.97
  15  -8  -9    5.03    3.60
  -8 -15   9   -2.52    2.86
   8 -15  -9   -1.51    2.73
  15  -8 -11   33.95    5.54
  -8 -15  11   23.34    4.17
   8 -15 -11   28.66    4.56
  15  -8 -13   15.93    4.45
   8 -15 -13   18.03    4.04
  15  -8 -15   -1.09    3.50
   8 -15 -15    5.46    2.77
  15  -8 -17    9.80    4.03
   9 -15  16   13.15    4.66
   9 -15  14   10.66    4.45
   9 -15  12   11.17    3.43
   9 -15  10    8.21    3.67
 -15  -9  -8   20.67    4.48
   9 -15   8   15.78    4.30
   9 -15   6   42.93    5.34
 -15  -9  -6   59.05    6.69
   9 -15   4    4.08    2.94
 -15  -9  -4    8.55    3.85
  15  -9   4    4.53    2.96
   9 -15   2   45.79    4.87
 -15  -9  -2   51.61    6.29
  15  -9   2   54.00    6.24
 -15  -9   0   81.24    7.63
  15  -9   0   89.02    7.93
 -15  -9   2   53.52    6.34
  15  -9  -2   58.80    6.87
  -9 -15   4    3.45    2.99
   9 -15  -4    5.77    2.96
  15  -9  -4    0.02    2.89
  -9 -15   6   49.29    5.53
   9 -15  -6   50.06    6.03
  15  -9  -6   56.86    6.83
  -9 -15   8   18.40    4.02
   9 -15  -8   18.83    4.23
  15  -9  -8   21.78    4.89
  -9 -15  10    6.14    3.05
   9 -15 -10    0.21    2.71
  15  -9 -10    2.60    3.25
  15  -9 -12    8.11    3.89
  -9 -15  12   11.59    3.34
   9 -15 -12    5.77    3.00
  15  -9 -14    3.79    3.16
   9 -15 -14    6.69    3.37
  15  -9 -16    4.77    3.67
  10 -15  15    5.97    4.13
  10 -15  13   -2.55    3.92
  10 -15  11    8.77    3.67
  10 -15   9    7.62    3.50
 -15 -10  -7   26.06    4.94
  10 -15   7   12.46    3.58
  10 -15   5   27.79    4.48
 -15 -10  -5   30.62    5.11
  15 -10   5   31.68    5.26
 -15 -10  -3   52.77    6.24
  10 -15   3   36.99    4.65
  15 -10   3   51.57    6.40
 -15 -10  -1   19.70    4.38
  10 -15   1   11.08    2.83
  15 -10   1   19.04    4.26
 -15 -10   1   11.30    3.89
  15 -10  -1   12.06    3.77
 -10 -15   3   53.30    5.94
 -15 -10   3   51.58    6.40
  10 -15  -3   57.42    6.58
  15 -10  -3   48.49    6.19
 -15 -10   5   28.97    5.14
  10 -15  -5   28.58    4.66
  15 -10  -5   30.62    5.13
 -10 -15   5   28.13    4.79
 -10 -15   7   24.75    4.58
  10 -15  -7   19.80    4.32
  15 -10  -7   20.03    4.60
 -10 -15   9    7.39    3.36
  10 -15  -9    2.59    2.90
  15 -10  -9    7.07    3.81
 -10 -15  11    7.92    3.24
  10 -15 -11    2.49    2.68
 -10 -15  13   -0.91    3.06
  10 -15 -13   -0.14    2.81
  15 -10 -13   -4.70    3.80
  15 -10 -15    4.84    3.94
  10 -15 -15   13.13    3.81
  11 -15  14    4.06    3.48
  11 -15  12    4.36    3.41
  11 -15  10    4.87    3.21
  11 -15   8    5.73    3.43
 -15 -11  -6   28.24    5.19
  11 -15   6   20.11    4.10
 -15 -11  -4   -0.68    3.26
  15 -11   4    5.02    3.70
 -15 -11  -2    6.01    3.87
  15 -11   2    2.00    2.97
 -15 -11   0   15.76    4.37
  15 -11   0   15.96    4.18
 -11 -15   2   10.06    3.59
 -15 -11   2   16.08    4.43
  11 -15  -2    6.34    3.64
  15 -11  -2    5.12    3.41
 -11 -15   4   -0.76    3.00
 -15 -11   4    3.24    3.38
  11 -15  -4    0.39    3.02
  15 -11  -4    2.05    3.01
 -11 -15   6   21.67    4.50
 -15 -11   6   31.56    5.26
  11 -15  -6   21.84    4.71
  15 -11  -6   24.71    5.10
 -11 -15   8   -0.93    3.01
 -15 -11   8    5.87    3.62
  11 -15  -8    2.70    3.04
  15 -11  -8    4.77    3.53
 -11 -15  10    4.90    3.14
  11 -15 -10    3.88    3.20
  15 -11 -10    6.94    3.85
 -11 -15  12    4.86    3.22
  11 -15 -12   -0.49    3.10
  15 -11 -12    1.05    3.34
  11 -15 -14    1.85    3.10
  15 -11 -14    3.94    3.65
  11 -15 -16    2.93    3.24
  12 -15  13    5.61    3.62
  12 -15  11   16.11    4.72
  12 -15   9   11.54    3.86
 -15 -12  -5   26.62    5.23
 -15 -12  -3    2.18    3.28
  15 -12   3   -2.70    3.53
 -15 -12  -1    2.21    3.16
  15 -12   1   -1.81    3.66
 -12 -15   1   -1.02    3.32
 -15 -12   1    1.96    3.16
  15 -12  -1    2.03    3.15
 -12 -15   3   -3.93    3.35
 -15 -12   3    4.74    3.89
  12 -15  -3    5.73    3.48
  15 -12  -3   -1.51    3.13
 -12 -15   5   24.44    4.89
 -15 -12   5   29.06    5.44
  12 -15  -5   26.93    4.98
  15 -12  -5   27.01    5.14
 -12 -15   7    5.13    3.47
 -15 -12   7   -0.76    3.35
  12 -15  -7   11.95    3.95
  15 -12  -7   15.67    4.68
 -12 -15   9   10.27    3.58
 -15 -12   9   11.63    4.50
  12 -15  -9   14.97    4.26
  15 -12  -9    7.11    4.01
 -12 -15  11   12.98    4.28
 -15 -12  11    9.55    4.18
  12 -15 -11   11.61    4.23
  15 -12 -11    9.89    4.13
 -12 -15  13    5.15    3.51
  12 -15 -13    6.97    3.70
  15 -12 -13    8.54    3.96
  12 -15 -15   17.26    4.79
  12 -15 -17    4.03    3.52
  13 -15  12   -4.08    3.57
 -15 -13  -4   21.19    4.96
 -15 -13  -2    5.92    3.76
  15 -13   2   14.93    4.64
 -13 -15   0   18.67    4.51
 -15 -13   0   29.61    5.23
  15 -13   0   30.39    5.58
 -13 -15   2   11.61    3.80
 -15 -13   2   13.11    4.35
  13 -15  -2   10.43    3.96
  15 -13  -2   14.08    4.28
 -13 -15   4   21.05    4.95
 -15 -13   4   18.65    4.59
  13 -15  -4   24.68    5.41
  15 -13  -4   23.91    5.16
 -13 -15   6    2.62    3.53
 -15 -13   6    6.30    3.76
  13 -15  -6    2.93    3.42
  15 -13  -6   12.27    4.00
 -13 -15   8   24.77    4.93
 -15 -13   8   12.63    4.51
  13 -15  -8   17.92    4.64
  15 -13  -8   21.79    5.09
 -13 -15  10   19.32    4.81
 -15 -13  10   17.96    4.73
  13 -15 -10   18.24    4.77
  15 -13 -10   18.85    4.74
 -13 -15  12    2.65    3.34
 -15 -13  12    6.50    4.19
  13 -15 -12    1.85    3.37
  15 -13 -12    3.23    3.55
 -13 -15  14    2.45    3.36
 -15 -13  14    7.26    4.26
  13 -15 -14    0.88    3.39
 -15 -14  -3   57.59    7.00
 -14 -15  -1   46.55    6.40
 -15 -14  -1   39.09    6.07
  15 -14   1   44.16    6.71
 -14 -15   1   45.42    6.11
 -15 -14   1   47.63    6.53
  14 -15  -1   48.72    6.69
  15 -14  -1   37.39    6.32
 -14 -15   3   49.09    6.41
 -15 -14   3   51.84    6.74
  14 -15  -3   53.74    6.89
  15 -14  -3   64.29    7.61
 -14 -15   5   45.76    6.08
 -15 -14   5   36.19    5.85
  14 -15  -5   56.02    7.17
  15 -14  -5   49.13    7.07
 -14 -15   7    5.48    3.36
 -15 -14   7    5.15    3.91
  14 -15  -7    3.19    3.19
  15 -14  -7    3.89    3.45
 -14 -15   9   14.86    4.44
 -15 -14   9   12.27    4.35
  14 -15  -9   11.20    4.59
  15 -14  -9   18.06    4.81
 -14 -15  11   11.58    4.34
 -15 -14  11   11.96    4.53
  14 -15 -11   17.10    4.68
 -14 -15  13    4.45    3.73
 -15 -14  13   -1.71    3.97
 -15 -15   0  209.68   13.43
 -15 -15   2   54.89    6.89
  15 -15  -2   68.13    8.03
 -15 -15   4   27.05    5.35
  15 -15  -4   32.00    6.12
 -15 -15   6   79.34    8.21
  15 -15  -6   93.99    9.28
 -15 -15   8   48.82    6.63
 -15 -15  10   13.34    4.43
  16   0   0  192.00   10.33
  16   0  -2   23.47    4.08
  16   0   2   28.34    4.12
  16   0   4  123.21    7.93
  16   0  -4  123.69    8.67
  16   0   6  116.21    7.51
   0 -16   6  105.59    7.95
  16   0  -6  140.00    9.41
   0 -16   8   16.91    3.88
 -16   0  -8    9.50    3.40
  16   0  -8    6.69    3.46
  16   0   8   14.86    3.10
 -16   0 -10  137.19    8.60
  16   0 -10  148.46   10.51
   0 -16  10  132.88    9.87
 -16   0 -12  110.76    7.68
  16   0 -12  110.01    9.38
   0 -16  12   85.80    8.36
   0 -16  14    3.09    3.63
  16   0 -14    2.20    3.84
   0 -16  16   61.25    7.67
  16   0 -16   56.20    7.68
   0 -16  18   28.86    6.02
   1 -16  17    1.62    3.42
   1 -16  15   45.36    6.67
  16   1 -13   91.49    8.86
   1 -16  13   83.86    8.26
 -16  -1 -11    2.33    2.47
   1 -16  11    6.23    3.54
  16   1 -11    0.28    3.59
 -16  -1  -9  140.56    9.09
  16   1  -9  151.28   10.73
  16  -1   9  149.40    8.89
   1 -16   9  162.60   10.32
  16   1  -7  113.68    8.61
 -16  -1  -7  102.29    7.72
  16  -1   7   91.92    7.09
   1 -16   7  101.58    7.88
  16   1  -5   10.34    3.38
  16  -1   5    6.90    2.55
   1 -16   5   10.23    3.00
  16  -1   3  154.39    9.23
   1 -16   3  170.05    9.07
  16   1  -3  150.12    9.39
  16  -1   1   67.54    6.13
  16   1  -1   55.60    5.52
  16   1   1   69.40    6.09
  16  -1  -1   71.78    6.36
  16   1   3  157.73    8.90
  16  -1  -3  156.05    9.76
  16  -1  -5    8.25    3.47
  16   1   5   10.40    2.82
 -16   1  -7  110.13    7.75
  16   1   7  104.04    7.00
  16  -1  -7  100.88    8.32
  16  -1  -9  172.72   11.32
 -16   1  -9  160.44    9.32
  16   1   9  138.81    8.19
  -1 -16   9  138.60    9.95
 -16   1 -11    4.06    2.84
  16  -1 -11    1.05    3.30
  -1 -16  11    4.56    3.34
  16  -1 -13   92.11    8.85
  -1 -16  13   77.68    8.10
  -1 -16  15   41.77    6.46
  16  -1 -15   45.07    7.12
  -1 -16  17   -6.21    4.09
  16  -1 -17   -1.44    4.00
   2 -16  18   12.83    4.55
   2 -16  16    6.66    3.96
   2 -16  14    4.95    3.87
   2 -16  12   23.58    4.84
 -16  -2 -12   22.09    4.00
 -16  -2 -10   27.80    4.35
   2 -16  10   32.99    5.16
  16   2 -10   34.41    5.40
 -16  -2  -8   13.27    3.86
   2 -16   8    6.82    3.23
  16  -2   8   11.19    3.21
  16   2  -8   14.09    4.11
 -16  -2  -6   14.74    3.77
   2 -16   6   18.40    3.76
  16   2  -6   19.65    4.20
  16  -2   6   12.02    3.10
   2 -16   4   11.15    3.12
  16   2  -4   10.94    3.21
  16  -2   4   14.52    3.30
  16   2  -2   11.85    3.06
  16  -2   2   11.77    3.33
   2 -16   2   14.28    2.91
  16   2   0    7.76    2.91
  16  -2   0    6.37    2.88
  16   2   2   14.86    3.22
  16  -2  -2   14.54    3.61
  16  -2  -4    4.82    2.83
  16   2   4   13.41    2.95
  16  -2  -6   11.53    3.77
  16   2   6   17.90    3.10
 -16   2  -8    9.23    3.13
  16  -2  -8    5.67    3.57
  16   2   8    9.83    2.51
 -16   2 -10   30.09    4.07
  16  -2 -10   25.98    5.21
  16  -2 -12   22.85    5.01
  -2 -16  12   13.59    4.07
  16  -2 -14    7.02    4.26
  -2 -16  14    2.28    3.47
  16  -2 -16   10.17    4.77
  -2 -16  16    8.06    3.44
  -2 -16  18    8.97    4.18
   3 -16  17    8.16    4.31
   3 -16  15    8.74    3.95
   3 -16  13   17.94    4.74
 -16  -3 -11   10.18    3.46
   3 -16  11   14.83    4.26
 -16  -3  -9    5.51    2.99
   3 -16   9    0.86    2.81
 -16  -3  -7   22.15    4.41
  16  -3   7   13.57    3.58
  16   3  -7   22.83    4.31
   3 -16   7   19.98    4.05
 -16  -3  -5    5.14    2.81
   3 -16   5    9.31    3.08
  16   3  -5    7.97    2.88
  16  -3   5    2.19    2.28
   3 -16   3   40.52    4.44
  16   3  -3   31.27    4.31
  16  -3   3   26.21    4.12
  16   3  -1    5.99    2.56
  16  -3   1    3.92    2.54
   3 -16   1    5.56    2.33
  16   3   1    4.21    2.10
  16  -3  -1    1.95    2.43
  16   3   3   38.43    4.32
  16  -3  -3   34.57    5.07
  16  -3  -5    9.09    3.20
  16   3   5    8.71    2.45
  16  -3  -7   18.72    4.12
  16   3   7   15.08    2.87
 -16   3  -9    5.16    2.69
  16  -3  -9   -1.08    3.62
  16  -3 -11   20.07    4.78
  16  -3 -13    9.80    4.02
  16  -3 -15   16.65    5.30
  16  -3 -17    8.35    4.37
   4 -16  16    5.29    3.37
   4 -16  14   11.73    4.28
   4 -16  12   29.09    5.22
 -16  -4 -10   14.31    3.97
   4 -16  10   14.95    3.99
 -16  -4  -8   78.01    7.14
  16  -4   8   68.89    6.53
   4 -16   8   68.89    6.83
 -16  -4  -6    1.40    2.78
  16   4  -6   -0.37    2.95
  16  -4   6    1.32    2.33
   4 -16   6    3.45    2.66
 -16  -4  -4    3.64    2.84
  16   4  -4   -1.22    2.22
   4 -16   4    7.09    2.79
  16  -4   4    1.21    2.38
  16   4  -2   27.95    4.08
   4 -16   2   39.46    4.23
  16  -4   2   23.49    4.01
   4 -16   0   10.36    2.26
  16   4   0   11.91    3.10
  16  -4   0    8.13    3.26
  16   4   2   32.91    3.99
  16  -4  -2   44.74    5.48
  16  -4  -4   -3.25    3.18
  16   4   4   -0.62    1.83
  16  -4  -6   -1.59    3.24
  16   4   6    2.47    1.95
  16  -4  -8   73.06    7.46
  16  -4 -10   23.35    5.04
  16  -4 -12   27.06    5.36
  16  -4 -14    6.05    3.77
  16  -4 -16    6.79    4.37
   5 -16  17    7.62    4.61
   5 -16  15   29.30    5.64
   5 -16  13   91.22    8.65
   5 -16  11    8.88    3.55
 -16  -5 -11   12.78    3.82
   5 -16   9    8.19    3.27
 -16  -5  -9    9.31    3.62
 -16  -5  -7  156.12   10.06
  16  -5   7  151.23    9.97
   5 -16   7  141.24    9.43
 -16  -5  -5   19.47    4.34
  16  -5   5   20.40    4.17
   5 -16   5   20.86    3.75
 -16  -5  -3    5.35    3.32
  16   5  -3    7.79    3.05
  16  -5   3    2.70    2.41
   5 -16   3    3.30    2.24
  16   5  -1   40.46    4.48
   5 -16   1   32.97    3.86
  16  -5   1   31.20    4.76
  16   5   1   30.70    3.89
  16  -5  -1   28.37    4.70
  16   5   3    0.15    1.84
  16  -5  -3    2.35    2.76
  16  -5  -5   26.05    4.73
  16   5   5   26.17    3.26
  16  -5  -7  155.52   10.51
  16  -5  -9    3.00    3.25
  16  -5 -11   12.02    4.32
   5 -16 -11    6.73    2.83
  16  -5 -13   84.11    8.61
  16  -5 -15   30.44    5.99
  16  -5 -17    5.66    3.99
   6 -16  16   38.06    6.35
   6 -16  14   13.31    4.31
   6 -16  12  108.37    9.23
 -16  -6 -10   51.97    6.26
   6 -16  10   54.56    6.39
 -16  -6  -8   61.80    6.73
   6 -16   8   48.36    5.87
 -16  -6  -6   77.83    7.37
  16  -6   6   77.36    7.14
   6 -16   6   87.95    7.13
   6 -16   4   41.58    4.73
 -16  -6  -4   41.93    5.50
  16  -6   4   24.86    4.46
   6 -16   2   15.69    2.97
 -16  -6  -2   24.12    4.72
  16   6  -2   17.16    3.55
  16  -6   2   22.49    4.72
  16  -6   0   42.69    5.62
  16   6   0   49.55    4.85
  16   6   2   23.71    3.34
  16  -6  -2   16.91    4.04
  16   6   4   31.37    3.58
  16  -6  -4   31.27    5.18
  16  -6  -6   89.16    8.06
  16  -6  -8   62.63    6.91
  16  -6 -10   60.80    6.98
   6 -16 -10   57.55    5.88
   6 -16 -12  110.25    8.02
  16  -6 -12  108.09    9.53
  16  -6 -14   13.07    4.60
  16  -6 -16   23.08    5.27
   7 -16  15   10.12    4.31
   7 -16  13   78.10    8.18
   7 -16  11   -5.09    3.30
 -16  -7  -9    5.03    3.07
   7 -16   9    1.46    2.76
 -16  -7  -7   96.52    8.46
   7 -16   7   93.34    7.87
  16  -7   7   93.83    8.16
 -16  -7  -5   12.13    4.10
  16  -7   5    6.21    3.10
   7 -16   5    3.64    2.76
 -16  -7  -3    9.06    3.78
   7 -16   3    1.63    2.11
  16  -7   3    2.19    2.64
 -16  -7  -1   22.08    4.38
  16   7  -1   19.60    3.43
  16  -7   1   21.10    4.36
  16   7   1   26.15    3.56
  16  -7  -1   17.00    4.03
  16   7   3    5.23    2.03
  16  -7  -3    4.77    3.22
  16  -7  -5    7.00    3.61
  16  -7  -7  111.79    9.12
  16  -7  -9    5.25    3.53
   7 -16  -9    5.44    2.60
  -7 -16  11   -0.98    3.10
  16  -7 -11   -3.44    3.82
   7 -16 -11    0.83    2.28
   7 -16 -13   75.84    6.89
  16  -7 -13   80.34    8.45
  16  -7 -15   10.30    4.33
   8 -16  16    4.11    4.35
   8 -16  14   -1.29    3.82
   8 -16  12    3.66    3.11
   8 -16  10    2.81    3.47
 -16  -8  -8   11.34    3.88
   8 -16   8   19.12    4.30
 -16  -8  -6   -2.44    3.42
  16  -8   6   -2.42    3.14
   8 -16   6   -0.16    2.83
 -16  -8  -4   25.56    4.97
  16  -8   4   16.75    4.31
   8 -16   4   15.47    3.49
 -16  -8  -2   48.19    5.99
  16  -8   2   38.79    5.53
   8 -16   2   41.32    4.59
 -16  -8   0    2.72    3.49
  16   8   0    9.47    2.72
  16  -8   0    8.74    3.73
 -16  -8   2   50.05    6.40
  16  -8  -2   40.42    5.63
  16  -8  -4   21.55    4.68
   8 -16  -6    1.08    2.73
  16  -8  -6    1.62    3.06
  -8 -16   8   18.70    4.03
   8 -16  -8   22.83    4.35
  16  -8  -8   13.51    4.33
  16  -8 -10   -2.78    3.49
  -8 -16  10    5.83    3.03
   8 -16 -10    4.16    2.98
  16  -8 -12    8.88    4.12
   8 -16 -12    8.12    3.23
  16  -8 -14    2.28    3.31
   9 -16  15    8.78    4.30
   9 -16  13    3.64    3.99
   9 -16  11    1.42    3.32
   9 -16   9   26.24    5.02
 -16  -9  -7   15.73    4.32
   9 -16   7   28.81    4.66
 -16  -9  -5   46.68    6.33
   9 -16   5   35.15    4.93
  16  -9   5   43.06    6.12
 -16  -9  -3  140.22   10.02
   9 -16   3  113.72    7.98
  16  -9   3  118.24    9.41
 -16  -9  -1   24.16    4.78
  16  -9   1   18.47    4.58
 -16  -9   1   21.42    4.85
  16  -9  -1   21.48    4.55
 -16  -9   3  122.99    9.64
  16  -9  -3  122.40    9.68
   9 -16  -5   26.50    4.77
  16  -9  -5   31.04    5.42
  -9 -16   7   28.63    4.63
   9 -16  -7   17.49    4.08
  16  -9  -7   21.78    4.70
  -9 -16   9   31.23    4.91
   9 -16  -9   27.48    4.92
  16  -9  -9   31.70    5.67
  -9 -16  11   -0.32    3.19
   9 -16 -11   -0.48    2.85
  16  -9 -11    8.83    4.20
  16  -9 -13   -5.37    3.61
   9 -16 -13    0.65    2.95
  10 -16  14    7.77    4.49
  10 -16  12    3.82    3.52
  10 -16  10    5.84    3.44
  10 -16   8    7.05    3.27
 -16 -10  -6   56.96    6.86
  10 -16   6   55.48    6.17
 -16 -10  -4   30.17    5.58
  16 -10   4   16.74    4.31
  10 -16   4   20.20    3.94
 -16 -10  -2   35.38    5.54
  16 -10   2   42.13    5.98
 -16 -10   0   74.35    7.59
  16 -10   0   73.88    7.65
 -16 -10   2   39.63    6.21
  16 -10  -2   42.26    6.26
 -16 -10   4   21.27    5.02
  16 -10  -4   22.84    4.73
 -10 -16   4   23.57    4.43
 -10 -16   6   51.27    6.17
 -16 -10   6   65.70    7.47
  10 -16  -6   55.72    6.58
  16 -10  -6   47.97    6.38
 -10 -16   8    8.29    3.55
  10 -16  -8    8.23    3.47
  16 -10  -8   15.15    4.52
 -10 -16  10    5.72    3.44
  10 -16 -10   12.52    3.71
  16 -10 -10   11.43    4.17
 -10 -16  12    4.26    3.11
  10 -16 -12    5.71    3.40
  16 -10 -12    4.86    4.17
  10 -16 -14    3.84    3.47
  16 -10 -14    1.44    3.46
  11 -16  13    1.66    3.53
  11 -16  11    7.14    3.69
  11 -16   9   -3.34    3.54
  11 -16   7   -0.89    3.04
 -16 -11  -5   18.11    4.91
  11 -16   5   18.45    3.98
 -16 -11  -3   11.40    4.09
  16 -11   3   10.77    4.10
 -16 -11  -1   16.94    4.40
  16 -11   1    9.38    4.06
 -16 -11   1   16.98    4.73
  16 -11  -1    8.82    3.84
 -11 -16   3   11.35    3.80
 -16 -11   3   14.45    4.57
  16 -11  -3   10.75    4.05
 -11 -16   5    4.90    3.05
 -16 -11   5   14.63    4.24
  11 -16  -5   18.35    4.47
  16 -11  -5   17.13    4.43
 -11 -16   7   -5.45    3.52
 -16 -11   7    5.50    4.19
  11 -16  -7    2.45    3.12
  16 -11  -7    1.33    3.32
 -11 -16   9    2.34    3.28
  11 -16  -9    1.18    3.06
  16 -11  -9    1.59    3.82
 -11 -16  11    5.64    4.01
  11 -16 -11    4.72    3.06
  16 -11 -11    5.35    3.79
  11 -16 -13    0.66    3.11
  11 -16 -15    0.84    3.28
  12 -16  12    5.06    3.80
  12 -16  10    9.56    4.13
  12 -16   8    1.40    3.04
  12 -16   6    2.83    3.25
 -16 -12  -4   -0.60    3.33
 -16 -12  -2    2.88    3.25
  16 -12   2    0.10    3.67
 -16 -12   0   12.77    4.36
  16 -12   0    4.28    3.13
 -16 -12   2    6.83    4.01
  16 -12  -2    6.36    3.63
 -12 -16   2    2.02    3.05
 -12 -16   4    4.89    3.73
 -16 -12   4    8.15    4.12
  12 -16  -4    1.46    3.07
  16 -12  -4    3.91    3.73
 -12 -16   6   -1.69    3.30
 -16 -12   6   -2.87    3.59
  12 -16  -6    1.66    3.12
  16 -12  -6    1.40    3.34
 -12 -16   8   11.28    4.07
 -16 -12   8    7.07    4.22
  16 -12  -8    5.95    3.35
 -12 -16  10   11.43    4.11
 -16 -12  10   19.92    5.26
  12 -16 -10   23.61    5.01
  16 -12 -10   17.52    4.94
 -12 -16  12    4.85    3.44
  12 -16 -12   20.27    4.79
  12 -16 -14    0.06    3.54
  13 -16  11    5.36    3.86
  13 -16   9    3.53    3.54
  13 -16   7    7.26    3.47
 -16 -13  -3    5.08    3.85
 -16 -13  -1    2.29    3.55
  16 -13   1    3.83    3.84
 -16 -13   1    0.93    3.43
  16 -13  -1    1.32    3.50
 -13 -16   1    8.59    4.05
 -13 -16   3   10.91    4.25
 -16 -13   3    2.20    3.50
  13 -16  -3    9.07    4.05
  16 -13  -3    5.97    3.90
 -13 -16   5   11.77    4.12
 -16 -13   5   12.75    4.57
  13 -16  -5   10.68    3.84
  16 -13  -5    7.61    4.07
 -13 -16   7    8.74    3.88
 -16 -13   7   14.04    4.45
  13 -16  -7    6.32    3.88
  16 -13  -7   16.48    4.86
 -13 -16   9    1.91    3.45
 -16 -13   9    9.01    4.18
  13 -16  -9   -2.49    3.26
  16 -13  -9   -1.14    3.45
 -13 -16  11    2.74    3.47
 -16 -13  11   12.07    4.58
  13 -16 -11    9.71    4.29
  14 -16  10   -3.70    3.73
 -16 -14  -2   22.49    5.10
 -16 -14   0   64.89    7.44
  16 -14   0   59.59    7.83
 -14 -16   2   10.97    4.27
 -16 -14   2   23.87    5.26
  14 -16  -2   33.20    6.24
  16 -14  -2   26.49    5.72
 -14 -16   4   -0.28    3.46
 -16 -14   4    5.76    4.19
  14 -16  -4    3.56    3.40
  16 -14  -4   -0.93    3.67
 -14 -16   6   13.64    4.54
 -16 -14   6    9.68    4.13
  14 -16  -6   12.09    4.35
 -14 -16   8   28.88    5.57
 -16 -14   8   26.80    5.51
  14 -16  -8   32.98    5.97
 -14 -16  10   -1.41    3.29
 -14 -16  12    5.05    3.98
 -15 -16   3  182.84   12.29
  17   0  -1   -0.19    2.34
  17   0   1    1.32    2.56
  17   0  -3    8.39    2.95
  17   0   3   12.47    3.12
  17   0  -5    3.83    2.98
  17   0   5    3.83    2.41
 -17   0  -7   48.24    5.61
  17   0  -7   32.26    5.18
  17   0   7   31.17    4.14
   0 -17   7   34.13    5.02
 -17   0  -9   38.74    5.18
  17   0  -9   29.42    5.25
  17   0   9   31.93    4.16
   0 -17   9   38.91    5.45
   0 -17  11    0.57    3.30
 -17   0 -11    1.58    2.62
  17   0 -11   -0.50    3.26
   0 -17  13   36.24    5.99
  17   0 -13   41.71    6.77
   0 -17  15   21.72    5.32
  17   0 -15   28.62    5.98
   0 -17  17   -1.97    3.84
   1 -17  16   12.89    4.77
  17   1 -16    6.99    4.45
   1 -17  14    9.52    4.13
  17   1 -14    8.50    4.53
 -17  -1 -12   17.68    3.85
   1 -17  12   23.31    5.07
  17   1 -12   30.24    5.69
   1 -17  10   35.09    5.33
 -17  -1 -10   35.11    4.91
  17   1 -10   31.90    5.52
   1 -17   8    3.83    2.75
 -17  -1  -8    9.73    3.75
  17   1  -8    4.42    2.97
  17  -1   8    7.42    2.79
 -17  -1  -6   16.78    4.25
  17   1  -6   12.72    3.81
  17  -1   6    5.66    2.36
   1 -17   6   10.49    3.22
  17   1  -4   19.34    4.00
  17  -1   4   24.03    4.12
  17   1  -2    2.69    2.74
  17  -1   2    2.12    2.62
  17   1   0    5.40    2.96
  17  -1   0    1.72    2.42
  17  -1  -2    0.89    2.13
  17   1   2    2.84    2.34
  17  -1  -4   29.07    4.74
  17   1   4   26.87    3.86
  17  -1  -6   11.85    4.02
  17   1   6    6.98    2.45
 -17   1  -8    7.15    3.04
  17  -1  -8    7.63    3.77
  17   1   8    5.14    2.38
 -17   1 -10   31.98    4.50
  17  -1 -10   40.06    5.94
  -1 -17  10   19.72    4.49
  17  -1 -12   24.32    5.07
  -1 -17  12   25.06    5.04
  17  -1 -14    4.61    3.76
  -1 -17  14    7.39    4.29
  17  -1 -16   14.85    5.04
  -1 -17  16   16.79    4.57
   2 -17  17    8.65    4.50
   2 -17  15    7.83    4.16
   2 -17  13    3.65    3.03
  17   2 -13   11.39    4.87
 -17  -2 -11   23.84    4.40
   2 -17  11   21.60    4.67
  17   2 -11   24.61    5.52
 -17  -2  -9    9.77    3.35
   2 -17   9   13.68    3.98
  17  -2   9    9.85    3.08
  17   2  -9   11.27    4.25
   2 -17   7    5.53    3.15
 -17  -2  -7    8.82    3.50
  17   2  -7    6.21    3.43
  17  -2   7    5.73    2.69
   2 -17   5   16.30    3.61
 -17  -2  -5   17.04    3.99
  17   2  -5   17.43    3.99
  17  -2   5   23.74    4.25
  17  -2   3   71.66    6.49
   2 -17   3   80.17    6.27
  17   2  -3   73.19    6.66
  17   2  -1   12.67    3.60
  17  -2   1   10.95    3.27
  17  -2  -1    9.13    2.87
  17   2   1   13.10    3.11
  17   2   3   77.65    6.20
  17  -2  -3   77.22    7.19
  17  -2  -5   14.03    3.90
  17   2   5   16.90    3.17
  17  -2  -7   10.35    3.89
  17   2   7    5.86    2.58
 -17   2  -9    7.84    2.94
  17  -2  -9   14.25    4.13
  17  -2 -11   30.37    5.71
  17  -2 -13    6.13    4.02
  17  -2 -15    8.37    4.02
  -2 -17  15   -0.12    3.61
  -2 -17  17   -3.86    4.03
   3 -17  16    6.47    4.19
   3 -17  14   20.11    5.04
   3 -17  12   15.40    4.29
 -17  -3 -10    3.73    3.00
   3 -17  10   12.64    4.00
  17   3 -10   16.63    4.60
 -17  -3  -8   51.30    5.96
  17  -3   8   53.47    5.78
   3 -17   8   57.02    6.29
  17   3  -8   53.02    6.57
 -17  -3  -6   28.64    4.75
   3 -17   6   30.45    4.57
  17   3  -6   36.45    5.17
  17  -3   6   28.31    4.37
   3 -17   4   41.46    4.82
 -17  -3  -4   24.01    4.63
  17   3  -4   27.21    4.61
  17  -3   4   23.50    3.93
  17  -3   2   80.10    7.16
   3 -17   2   83.65    6.22
  17   3  -2   84.26    6.90
  17  -3   0   59.24    6.38
  17   3   0   83.05    6.50
  17  -3  -2   96.90    7.94
  17   3   2   83.08    6.47
  17  -3  -4   24.88    4.73
  17   3   4   24.95    3.65
  17  -3  -6   39.25    5.64
  17   3   6   33.57    3.97
 -17   3  -8   58.66    5.56
  17  -3  -8   44.00    6.22
  17  -3 -10    7.42    4.05
  17  -3 -12   16.08    4.60
  17  -3 -14   13.64    4.40
   4 -17  15    5.04    4.08
   4 -17  13   11.11    4.27
 -17  -4 -11   24.36    4.76
   4 -17  11   20.53    4.73
 -17  -4  -9   20.43    4.69
   4 -17   9   35.21    5.47
 -17  -4  -7   13.64    3.89
  17  -4   7   15.06    3.50
  17   4  -7   29.62    5.04
   4 -17   7   21.59    4.32
 -17  -4  -5   32.50    5.22
  17   4  -5   25.82    4.39
   4 -17   5   31.82    4.55
  17  -4   5   23.96    4.29
  17   4  -3  126.52    8.86
 -17  -4  -3  123.22    9.21
  17  -4   3  114.03    8.56
   4 -17   3  126.97    7.91
  17   4  -1    9.29    2.95
  17  -4   1    2.24    2.39
  17   4   1    6.11    2.55
  17  -4  -1   10.79    3.77
  17  -4  -3  118.19    9.06
  17   4   3  125.05    7.73
  17  -4  -5   29.75    5.19
  17   4   5   25.47    3.61
  17  -4  -7   19.37    4.38
  17  -4  -9   34.39    5.71
  17  -4 -11   20.37    4.72
  17  -4 -13   14.62    4.58
  17  -4 -15    4.36    3.48
   5 -17  16    2.53    3.41
   5 -17  14   23.68    5.24
   5 -17  12   34.57    5.44
 -17  -5 -10    7.78    3.58
   5 -17  10    5.38    3.06
 -17  -5  -8   65.73    7.19
  17  -5   8   51.12    6.12
   5 -17   8   50.13    5.88
 -17  -5  -6   13.08    3.79
  17  -5   6    5.74    2.70
  17   5  -6    9.82    3.61
   5 -17   6    7.31    3.18
 -17  -5  -4   28.50    5.00
  17   5  -4   20.86    3.90
  17  -5   4   14.89    3.96
   5 -17   4   28.63    4.24
 -17  -5  -2   64.43    6.98
  17  -5   2   58.68    6.46
  17   5  -2   67.42    6.31
  17   5   0    3.05    2.58
  17  -5   0   -0.73    2.68
  17  -5  -2   67.68    6.92
  17   5   2   64.77    5.48
  17   5   4   18.82    3.14
  17  -5  -4   23.72    4.59
  17  -5  -6    7.22    3.17
  17  -5  -8   61.25    7.27
  17  -5 -10   13.40    4.13
  17  -5 -12   43.21    6.35
  17  -5 -14   20.41    5.44
   6 -17  15    2.13    3.53
   6 -17  13   98.36    9.15
   6 -17  11   12.43    3.93
   6 -17   9    6.35    2.92
 -17  -6  -9    7.71    3.78
 -17  -6  -7  142.35   10.16
  17  -6   7  122.33    9.27
   6 -17   7  123.92    8.92
 -17  -6  -5   42.43    5.90
  17   6  -5   44.20    5.65
  17  -6   5   39.88    5.41
   6 -17   5   45.84    5.24
 -17  -6  -3   -0.34    3.23
  17   6  -3   -4.09    2.66
  17  -6   3   -2.70    3.35
   6 -17   3   -2.04    2.37
 -17  -6  -1   74.28    7.44
  17  -6   1   63.20    6.83
  17   6  -1   73.27    6.13
  17  -6  -1   85.14    7.73
  17   6   1   81.91    6.26
  17   6   3    3.10    1.88
  17  -6  -3    4.71    3.43
  17  -6  -5   52.26    6.42
  17  -6  -7  134.07   10.39
  17  -6  -9    5.82    3.60
  17  -6 -11    7.62    3.58
  17  -6 -13  103.13    9.71
   7 -17  14   14.85    4.59
   7 -17  12   40.10    5.99
 -17  -7 -10   21.32    4.64
   7 -17  10   19.50    4.44
 -17  -7  -8   59.04    6.84
   7 -17   8   51.99    6.30
 -17  -7  -6   22.26    4.71
   7 -17   6   27.12    4.52
  17  -7   6   20.95    4.50
 -17  -7  -4   59.43    6.87
  17  -7   4   62.13    6.77
  17   7  -4   62.68    6.18
   7 -17   4   64.72    5.93
  17   7  -2   54.28    5.55
 -17  -7  -2   65.11    7.16
  17  -7   2   44.18    5.98
 -17  -7   0   12.88    4.50
  17   7   0   13.19    3.17
  17  -7   0   15.71    3.94
  17  -7  -2   51.16    6.33
  17  -7  -4   65.92    7.27
  17  -7  -6   16.05    4.49
  17  -7  -8   78.28    8.24
  17  -7 -10   23.96    5.37
   7 -17 -10   16.86    4.11
  17  -7 -12   40.97    6.60
   7 -17 -12   35.61    5.01
  17  -7 -14    8.00    3.96
   8 -17  15    0.77    3.35
   8 -17  13   13.04    4.20
   8 -17  11    9.26    3.98
 -17  -8  -9   -1.09    3.10
   8 -17   9    7.43    3.60
 -17  -8  -7   35.14    5.63
   8 -17   7   39.44    5.44
   8 -17   5   53.65    5.93
 -17  -8  -5   75.06    7.50
  17  -8   5   62.36    7.04
 -17  -8  -3   38.40    5.86
  17   8  -3   34.19    4.80
  17  -8   3   39.81    5.86
  17   8  -1   64.97    5.78
 -17  -8  -1   67.47    7.38
  17  -8   1   65.23    7.18
 -17  -8   1   75.04    7.69
  17  -8  -1   71.15    7.52
  17  -8  -3   38.66    5.87
  17  -8  -5   66.55    7.27
  17  -8  -7   30.47    5.37
   8 -17  -9   10.03    3.64
  17  -8  -9    0.90    3.19
  17  -8 -11   13.66    4.52
   8 -17 -11   16.23    4.04
  17  -8 -13   19.17    5.04
   9 -17  14    8.03    4.21
   9 -17  12    3.51    3.52
   9 -17  10   22.59    4.87
 -17  -9  -8   63.22    7.09
   9 -17   8   49.10    6.25
 -17  -9  -6   34.25    5.79
  17  -9   6   40.81    5.85
   9 -17   6   36.93    5.16
 -17  -9  -4   90.49    8.40
  17  -9   4   80.65    8.33
 -17  -9  -2   95.84    8.82
  17   9  -2   95.06    7.22
  17  -9   2  104.72    9.00
 -17  -9   0   69.49    7.60
  17  -9   0   74.43    7.74
 -17  -9   2  107.01    9.26
  17  -9  -2  101.53    9.01
 -17  -9   4   83.19    8.38
  17  -9  -4   88.40    8.49
  17  -9  -6   31.24    5.46
   9 -17  -8   56.79    6.59
  17  -9  -8   54.10    7.10
  -9 -17  10   18.87    4.09
   9 -17 -10   20.40    4.31
  17  -9 -10   25.30    5.25
   9 -17 -12    2.57    3.22
  17  -9 -12   -3.26    4.09
  10 -17  13    7.70    4.48
  10 -17  11   31.69    5.67
  10 -17   9   17.90    4.60
 -17 -10  -7   14.25    4.58
  10 -17   7    6.83    3.22
 -17 -10  -5   35.97    5.92
  17 -10   5   41.19    6.06
 -17 -10  -3   75.94    7.80
  17 -10   3   81.40    8.27
 -17 -10  -1   35.28    5.86
  17 -10   1   38.52    5.82
 -17 -10   1   49.54    6.47
  17 -10  -1   31.39    5.86
 -17 -10   3   74.70    7.96
  17 -10  -3   79.82    8.23
 -17 -10   5   33.09    5.75
  17 -10  -5   37.41    5.76
 -10 -17   7    6.15    3.68
  10 -17  -7   16.84    4.22
  17 -10  -7   13.26    4.28
 -10 -17   9   19.57    4.37
  10 -17  -9   18.79    4.09
  17 -10  -9   19.77    4.77
  10 -17 -11   22.32    4.87
  17 -10 -11   31.89    6.30
  10 -17 -13    5.63    3.64
  11 -17  12   16.07    4.87
  11 -17  10   12.63    4.32
  11 -17   8   21.68    4.85
 -17 -11  -6    3.59    3.67
 -17 -11  -4   13.14    4.27
  17 -11   4    8.04    3.99
 -17 -11  -2   39.22    6.25
  17 -11   2   44.52    6.40
 -17 -11   0   16.59    4.90
  17 -11   0   12.10    4.13
 -17 -11   2   45.76    6.33
  17 -11  -2   41.49    6.24
 -17 -11   4    4.58    4.06
  17 -11  -4    9.97    4.10
 -11 -17   6    1.49    3.16
 -17 -11   6    2.60    3.64
  11 -17  -6    2.92    3.24
  17 -11  -6    4.13    3.61
 -11 -17   8   23.29    4.61
 -17 -11   8   25.39    5.34
  11 -17  -8   23.90    4.79
  17 -11  -8   24.47    5.20
 -11 -17  10   10.34    3.79
  11 -17 -10   14.80    4.17
  11 -17 -12    6.12    3.54
  11 -17 -14    8.48    3.80
  12 -17  11   21.81    5.27
  12 -17   9    6.72    3.22
 -17 -12  -5   10.36    4.23
 -17 -12  -3    5.21    3.91
  17 -12   3    8.10    3.95
 -17 -12  -1    8.98    3.84
  17 -12   1    6.29    3.92
 -17 -12   1   12.29    4.34
  17 -12  -1    3.74    3.35
 -17 -12   3   14.27    4.34
  17 -12  -3   14.16    4.52
 -12 -17   5    0.15    3.22
 -17 -12   5    8.86    4.36
  12 -17  -5   16.40    4.85
  17 -12  -5   14.55    4.58
 -12 -17   7   21.23    4.85
 -17 -12   7   24.93    5.53
  12 -17  -7   32.99    5.68
  17 -12  -7   28.87    5.92
 -12 -17   9   11.25    4.17
 -17 -12   9   20.10    5.37
  12 -17  -9    8.85    3.81
 -12 -17  11   17.30    4.56
  12 -17 -11   26.87    5.31
  12 -17 -13   11.60    4.03
  13 -17  10   24.70    5.24
 -17 -13  -2    9.50    4.14
  17 -13   2    9.62    4.01
 -17 -13   0    3.02    3.89
  17 -13   0   -0.13    4.06
 -17 -13   2    7.15    4.13
  17 -13  -2   10.53    4.14
 -13 -17   4    7.04    3.90
 -17 -13   4    7.30    4.44
 -13 -17   6    0.69    3.29
  13 -17  -6    2.92    3.70
 -13 -17   8   15.40    4.49
  13 -17  -8   17.69    4.90
 -13 -17  10   19.85    4.83
 -14 -17   3   31.49    5.88
 -14 -17   5   10.34    4.13
 -14 -17   7   14.67    4.62
  18   0   0   30.19    4.62
  18   0  -2    3.41    2.68
  18   0   2    2.20    2.87
  18   0  -4    4.96    3.44
  18   0   4   -1.73    2.30
  18   0  -6   -2.21    3.30
 -18   0  -6    0.65    2.68
  18   0   6   -0.45    2.19
 -18   0  -8   18.56    3.99
  18   0  -8   18.39    4.40
  18   0   8   17.85    3.45
 -18   0 -10    9.61    3.53
  18   0 -10   10.49    4.41
   0 -18  10   12.02    3.89
  18   0 -12    9.71    4.50
   0 -18  12    3.69    3.52
  18   0 -14    3.16    4.02
   0 -18  14    5.38    3.59
   0 -18  16    0.30    3.38
   1 -18  15    2.84    3.60
   1 -18  13    4.44    3.35
  18   1 -13    2.73    3.47
   1 -18  11   11.57    3.97
 -18  -1 -11   18.36    4.42
  18   1 -11   13.17    4.66
 -18  -1  -9    2.02    3.05
  18   1  -9    5.59    3.08
  18  -1   9    7.63    2.76
   1 -18   9   10.17    3.72
 -18  -1  -7    7.01    3.54
  18   1  -7    5.26    3.31
  18  -1   7    1.68    2.21
   1 -18   7    7.33    3.29
  18   1  -5   20.55    4.50
 -18  -1  -5   19.79    4.37
  18  -1   5   22.35    4.17
  18   1  -3   42.33    5.36
  18  -1   3   42.39    5.09
  18   1  -1   12.27    3.34
  18  -1   1   12.67    3.79
  18   1   1    9.66    3.08
  18  -1  -1   16.42    3.92
  18  -1  -3   35.89    5.27
  18   1   3   41.52    5.07
  18  -1  -5   26.05    4.86
  18   1   5   15.89    3.37
  18  -1  -7    9.66    3.82
 -18   1  -7   10.57    3.54
  18   1   7    8.11    3.05
 -18   1  -9   11.47    3.61
  18  -1  -9    7.21    3.57
  18  -1 -11   11.36    3.99
  18  -1 -13   11.52    4.97
  -1 -18  13    3.42    3.64
  -1 -18  15    3.47    3.63
   2 -18  16    9.97    4.44
   2 -18  14   10.66    4.36
  18   2 -14    1.08    3.39
 -18  -2 -12   12.75    3.83
   2 -18  12    9.19    3.87
  18   2 -12   14.78    4.89
 -18  -2 -10   10.70    3.84
   2 -18  10   13.38    4.06
  18   2 -10   11.09    4.18
 -18  -2  -8   59.98    6.58
   2 -18   8   42.57    5.66
  18   2  -8   51.64    6.47
  18  -2   8   45.49    5.53
 -18  -2  -6   74.17    7.38
  18  -2   6   73.80    6.71
   2 -18   6   67.26    6.51
  18   2  -6   85.87    8.09
  18   2  -4   34.97    5.14
   2 -18   4   43.95    5.10
  18  -2   4   34.08    4.83
  18  -2   2   77.47    6.93
  18   2  -2   73.18    6.73
  18  -2   0  148.31    9.81
  18   2   0  139.89    9.05
  18   2   2   73.78    6.55
  18  -2  -2   81.06    7.26
  18  -2  -4   42.63    5.78
  18   2   4   35.03    4.32
  18   2   6   76.08    6.25
  18  -2  -6   81.50    7.87
 -18   2  -8   53.84    5.73
  18  -2  -8   48.89    6.27
  18  -2 -10   18.83    4.70
  18  -2 -12   11.40    4.30
  18  -2 -14   12.45    4.62
   3 -18  15   27.03    5.76
   3 -18  13    9.03    4.09
  18   3 -13    7.56    4.66
 -18  -3 -11   22.38    4.65
   3 -18  11   21.83    4.76
  18   3 -11   19.75    4.62
 -18  -3  -9   94.39    8.27
  18   3  -9   84.95    8.58
  18  -3   9  103.83    8.02
   3 -18   9   90.86    8.15
 -18  -3  -7    6.21    3.25
   3 -18   7    4.58    2.98
  18   3  -7    9.50    3.63
  18  -3   7    5.16    2.71
   3 -18   5   32.69    4.69
 -18  -3  -5   34.31    5.36
  18   3  -5   36.46    5.24
  18  -3   5   28.98    4.63
  18  -3   3  256.02   13.47
  18   3  -3  276.03   13.71
  18   3  -1   21.87    3.70
  18  -3   1   22.22    4.26
  18   3   1   18.23    3.52
  18  -3  -1   23.91    4.52
  18   3   3  244.10   12.04
  18  -3  -3  266.31   14.08
  18  -3  -5   31.80    5.08
  18   3   5   30.36    3.98
  18  -3  -7    2.10    3.32
  18  -3  -9   90.02    8.63
  18  -3 -11   15.18    4.71
  18  -3 -13    2.71    3.48
   4 -18  14   12.17    4.70
   4 -18  12    8.21    4.30
 -18  -4 -10   22.81    4.78
  18   4 -10   15.41    4.53
   4 -18  10   15.31    4.08
 -18  -4  -8   35.16    5.43
  18  -4   8   37.63    5.34
   4 -18   8   37.35    5.41
  18   4  -8   28.11    4.86
 -18  -4  -6   44.27    6.05
   4 -18   6   37.50    4.98
  18   4  -6   33.81    5.28
  18  -4   6   33.70    4.81
   4 -18   4   42.55    4.92
 -18  -4  -4   50.43    6.52
  18   4  -4   44.00    5.54
  18  -4   4   44.96    5.78
  18  -4   2  100.00    8.24
  18   4  -2  104.64    7.93
  18  -4   0   77.51    7.40
  18   4   0   70.40    6.19
  18  -4  -2  110.85    9.06
  18   4   2  106.75    7.54
  18  -4  -4   36.47    5.55
  18   4   4   46.41    4.83
  18  -4  -6   43.59    6.10
  18  -4  -8   34.11    5.77
  18  -4 -10   18.50    4.53
  18  -4 -12    1.02    3.35
   5 -18  15   -1.60    3.45
   5 -18  13   15.21    4.38
 -18  -5 -11    2.09    3.43
   5 -18  11    5.66    3.47
 -18  -5  -9   10.29    3.81
  18   5  -9   18.20    4.57
   5 -18   9    8.52    3.51
 -18  -5  -7   12.30    4.19
  18  -5   7    9.60    3.29
  18   5  -7   19.93    4.40
   5 -18   7   13.90    3.86
 -18  -5  -5    6.02    3.61
  18   5  -5   12.54    3.73
   5 -18   5    8.14    3.34
  18  -5   5   -0.88    2.99
 -18  -5  -3   78.89    7.75
  18  -5   3   58.14    6.55
  18   5  -3   62.92    6.25
  18   5  -1    9.51    3.18
  18  -5   1    1.60    2.77
  18   5   1    5.60    2.64
  18  -5  -1    1.28    2.79
  18  -5  -3   59.52    7.04
  18   5   3   64.08    5.54
  18  -5  -5    3.81    3.20
  18  -5  -7   12.36    4.14
  18  -5  -9   17.32    4.68
  18  -5 -11    0.38    3.59
  18  -5 -13   16.40    5.10
   6 -18  14   23.70    5.43
   6 -18  12   35.48    5.80
 -18  -6 -10    8.55    3.75
   6 -18  10    7.95    3.46
 -18  -6  -8   38.76    5.82
   6 -18   8   24.81    4.87
 -18  -6  -6   24.68    4.83
  18  -6   6   17.60    4.43
  18   6  -6   22.40    4.46
   6 -18   6   21.16    4.39
 -18  -6  -4   26.90    5.30
  18   6  -4   23.21    4.17
  18  -6   4   21.68    4.49
 -18  -6  -2   46.72    6.60
  18   6  -2   41.87    5.05
  18  -6   2   44.20    5.77
  18   6   0   17.89    3.51
  18  -6   0   11.71    3.88
  18  -6  -2   45.92    6.12
  18  -6  -4   22.34    5.06
  18  -6  -6   17.00    4.59
  18  -6  -8   30.37    5.70
  18  -6 -10    4.79    3.69
  18  -6 -12   45.93    6.80
   7 -18  13   41.31    6.34
   7 -18  11    1.66    3.02
   7 -18   9    4.69    3.10
 -18  -7  -9   -1.11    3.16
   7 -18   7   43.52    5.55
 -18  -7  -7   55.91    6.77
  18  -7   7   45.41    6.27
 -18  -7  -5   25.94    5.13
  18  -7   5   23.15    4.61
  18   7  -5   28.04    4.69
 -18  -7  -3    7.85    4.02
  18   7  -3   18.21    3.72
  18  -7   3    9.42    3.81
 -18  -7  -1   42.13    6.27
  18   7  -1   44.45    5.13
  18  -7   1   38.94    5.66
 -18  -7   1   44.56    6.27
  18  -7  -1   41.32    5.96
  18  -7  -3   13.63    4.03
  18  -7  -5   30.30    5.66
  18  -7  -7   51.12    6.85
  18  -7  -9    3.01    3.87
  18  -7 -11   -2.06    3.56
   8 -18  14    9.03    3.95
   8 -18  12    6.12    3.40
   8 -18  10   15.16    4.37
 -18  -8  -8   51.73    6.92
   8 -18   8   48.29    6.08
 -18  -8  -6    6.78    3.85
  18  -8   6    3.49    3.43
  18   8  -4   64.34    6.58
 -18  -8  -4   44.99    6.50
  18  -8   4   58.50    6.86
  18   8  -2   61.68    6.09
 -18  -8  -2   65.51    7.66
  18  -8   2   60.00    7.08
 -18  -8   0   12.95    4.31
  18  -8   0    9.94    3.82
 -18  -8   2   68.46    7.86
  18  -8  -2   72.19    7.52
  18  -8  -4   60.27    7.27
  18  -8  -6    0.10    3.49
  18  -8  -8   61.82    7.65
  18  -8 -10    8.48    4.45
   9 -18  13    5.06    3.85
   9 -18  11    8.39    3.71
   9 -18   9   16.02    4.18
 -18  -9  -7   12.73    4.58
 -18  -9  -5   41.24    6.20
  18  -9   5   31.38    5.57
 -18  -9  -3  104.78    9.28
  18   9  -3   80.03    7.01
  18  -9   3   94.73    8.79
 -18  -9  -1   36.32    6.26
  18  -9   1   32.85    5.76
 -18  -9   1   36.59    6.10
  18  -9  -1   42.27    6.37
 -18  -9   3  116.67    9.92
  18  -9  -3   91.83    8.92
  18  -9  -5   25.87    5.32
  18  -9  -7   21.24    5.36
  18  -9  -9   27.19    5.58
   9 -18 -11    7.75    3.72
  10 -18  12    1.50    3.42
  10 -18  10    2.27    3.07
 -18 -10  -8   39.08    6.25
  10 -18   8   37.80    5.63
 -18 -10  -6    3.64    3.91
 -18 -10  -4    6.92    4.15
  18 -10   4    9.94    4.22
 -18 -10  -2   23.36    5.36
  18 -10   2   25.84    5.46
 -18 -10   0   50.96    6.94
  18 -10   0   52.30    7.08
 -18 -10   2   24.76    5.49
  18 -10  -2   32.88    5.98
 -18 -10   4    9.55    4.52
  18 -10  -4    4.68    3.82
 -18 -10   6    4.21    3.59
  18 -10  -6    6.91    3.94
  18 -10  -8   36.54    6.40
  10 -18 -10    1.87    3.19
  10 -18 -12    0.44    3.12
  11 -18  11    7.68    3.97
  11 -18   9   -0.11    3.01
 -18 -11  -5    8.28    4.32
 -18 -11  -3   -0.15    3.37
  18 -11   3    0.94    3.33
 -18 -11  -1    4.30    3.89
  18 -11   1   -2.54    3.42
 -18 -11   1    0.27    3.83
  18 -11  -1    7.57    4.20
 -18 -11   3    8.45    4.38
  18 -11  -3    3.86    4.11
 -18 -11   5   10.70    4.68
  18 -11  -5    7.35    4.09
  11 -18  -9   -1.80    3.70
 -11 -18   9    0.31    3.36
  11 -18 -11    5.26    3.65
  12 -18  10   39.36    6.32
 -12 -18   8    1.71    3.71
  12 -18  -8    4.18    3.60
 -12 -18  10   32.11    5.46
  12 -18 -10   30.79    5.90
 -13 -18   7   33.02    5.53
 -13 -18   9   13.42    4.40
  19   0  -1   15.19    3.78
  19   0   1   14.56    3.57
  19   0  -3   24.12    4.40
  19   0   3   21.75    4.05
  19   0  -5   15.73    4.28
  19   0   5   15.76    3.79
  19   0  -7    9.05    3.63
 -19   0  -7   11.47    4.02
  19   0   7    7.87    2.89
 -19   0  -9   -2.14    3.35
  19   0  -9   -0.44    3.15
  19   0 -11   20.22    5.41
   0 -19  11    4.87    3.80
   0 -19  13    6.35    3.87
   0 -19  15    6.95    3.97
   1 -19  14    3.47    3.51
  19   1 -12    5.83    4.08
   1 -19  12    1.24    3.06
 -19  -1 -10    3.57    3.15
  19   1 -10    7.95    4.18
   1 -19  10    8.06    3.69
 -19  -1  -8   39.37    5.50
  19   1  -8   41.73    6.20
  19  -1   8   38.73    4.98
   1 -19   8   31.96    5.21
  19   1  -6   21.84    4.51
 -19  -1  -6   16.27    4.45
  19  -1   6   19.87    3.91
  19   1  -4   -0.78    2.97
  19  -1   4    1.52    2.57
  19   1  -2   21.45    4.24
  19  -1   2   18.79    4.03
  19  -1   0   88.97    7.94
  19   1   0  100.60    8.02
  19  -1  -2   25.73    4.90
  19   1   2   20.19    3.98
  19  -1  -4   -0.33    2.81
  19   1   4    2.33    2.41
  19  -1  -6    9.95    3.64
 -19   1  -6   20.44    4.28
  19   1   6   13.13    3.06
  19  -1  -8   37.11    5.76
 -19   1  -8   31.51    5.07
  19  -1 -10    8.34    4.36
  19  -1 -12    7.32    4.60
   2 -19  15    4.39    3.78
   2 -19  13    3.01    3.44
   2 -19  11    2.23    3.15
 -19  -2 -11    7.56    3.51
  19   2 -11    9.04    4.22
   2 -19   9   41.73    5.97
 -19  -2  -9   53.82    6.59
  19  -2   9   51.79    5.85
  19   2  -9   60.30    7.34
 -19  -2  -7    5.72    3.37
  19   2  -7    1.95    2.92
  19  -2   7    0.29    2.55
   2 -19   7    2.08    2.87
  19   2  -5   41.76    5.93
 -19  -2  -5   44.22    6.42
  19  -2   5   38.77    5.42
  19  -2   3  165.88   10.53
  19   2  -3  167.92   10.72
  19   2  -1   41.78    5.26
  19  -2   1   43.94    5.69
  19   2   1   41.57    5.15
  19  -2  -1   45.72    5.93
  19   2   3  173.84   10.15
  19  -2  -3  171.95   11.30
  19  -2  -5   48.22    6.30
  19   2   5   33.71    4.47
  19  -2  -7    3.47    3.14
 -19   2  -7    1.24    2.93
  19  -2  -9   47.71    6.55
  19  -2 -11   14.31    4.63
   3 -19  14   -2.19    3.60
 -19  -3 -12    9.85    3.76
   3 -19  12    7.22    3.80
  19   3 -12   13.21    4.54
 -19  -3 -10   28.38    5.11
   3 -19  10   25.95    4.99
  19   3 -10   43.83    6.72
   3 -19   8   17.35    3.85
 -19  -3  -8   20.33    4.65
  19   3  -8   34.79    5.81
  19  -3   8   20.85    4.20
 -19  -3  -6   99.70    8.67
  19  -3   6   99.60    8.11
   3 -19   6   93.73    7.97
  19   3  -6  115.76    9.20
 -19  -3  -4   58.64    7.06
  19  -3   4   58.44    6.51
  19   3  -4   57.85    6.39
  19  -3   2   62.60    6.59
  19   3  -2   72.01    6.81
  19  -3   0  139.94   10.13
  19   3   0  145.70    9.37
  19  -3  -2   67.30    7.36
  19   3   2   64.01    6.03
  19  -3  -4   54.85    6.70
  19   3   4   56.10    5.53
  19  -3  -6  103.59    9.07
  19  -3  -8   14.81    4.37
  19  -3 -10   19.64    4.96
   4 -19  13   -4.17    3.31
 -19  -4 -11    0.16    3.13
   4 -19  11    5.44    3.70
  19   4 -11    4.01    3.52
 -19  -4  -9   43.45    6.04
   4 -19   9   34.45    5.48
  19   4  -9   50.13    6.62
 -19  -4  -7    1.66    3.13
   4 -19   7    3.68    2.85
  19   4  -7    4.07    3.26
  19  -4   7    4.69    2.93
 -19  -4  -5   25.05    5.05
  19   4  -5   37.11    5.47
  19  -4   5   23.68    4.65
 -19  -4  -3  150.35   10.95
  19  -4   3  157.55   10.73
  19   4  -3  161.55   10.33
  19   4  -1   17.16    3.57
  19  -4   1   15.75    3.92
  19   4   1   16.08    3.64
  19  -4  -1   14.69    4.35
  19  -4  -3  139.88   10.60
  19   4   3  149.15    9.07
  19  -4  -5   33.87    5.55
  19  -4  -7    4.65    3.23
  19  -4  -9   41.99    6.48
  19  -4 -11    6.12    3.63
   5 -19  14   11.90    4.72
  19   5 -12    9.58    4.34
   5 -19  12   11.81    4.28
 -19  -5 -10    8.71    3.86
  19   5 -10   11.34    4.11
   5 -19  10    5.16    3.45
 -19  -5  -8   16.99    4.60
  19  -5   8    6.80    3.50
   5 -19   8   11.29    3.73
  19   5  -8   10.77    4.10
 -19  -5  -6   -4.28    3.82
  19   5  -6   -0.12    2.78
  19  -5   6    1.54    2.71
 -19  -5  -4   16.58    4.56
  19   5  -4   15.26    4.19
  19  -5   4   11.43    3.72
  19   5  -2   47.99    5.51
 -19  -5  -2   50.80    6.66
  19  -5   2   51.59    6.41
  19   5   0   -0.29    2.26
  19  -5   0   -3.35    3.17
  19  -5  -2   41.85    5.69
  19  -5  -4    7.60    3.77
  19  -5  -6   -0.89    3.08
  19  -5  -8   14.84    4.21
  19  -5 -10    6.21    4.09
   6 -19  13   18.51    4.97
   6 -19  11    3.35    3.59
 -19  -6  -9   -1.27    3.84
  19   6  -9    2.72    3.53
   6 -19   9    0.33    3.03
 -19  -6  -7   21.43    4.87
  19  -6   7   20.99    4.59
  19   6  -7   26.12    5.15
 -19  -6  -5    0.91    3.31
  19   6  -5    4.16    3.13
  19  -6   5   -0.43    2.78
  19   6  -3    0.47    2.59
  19  -6   3    5.92    3.38
  19   6  -1   27.68    4.33
 -19  -6  -1   24.75    5.62
  19  -6   1   21.25    4.59
  19  -6  -1   21.63    4.80
  19  -6  -3    1.29    3.18
  19  -6  -5    5.24    3.45
  19  -6  -7   20.03    4.91
  19  -6  -9    6.54    3.80
   7 -19  12   31.11    5.71
 -19  -7 -10    8.66    4.51
   7 -19  10    1.01    3.28
 -19  -7  -8   13.42    4.37
  19   7  -8    8.01    3.81
 -19  -7  -6    7.08    4.06
  19  -7   6    8.70    3.69
  19   7  -6   12.37    3.61
 -19  -7  -4    4.57    3.94
  19   7  -4   10.16    3.57
  19  -7   4    0.43    2.98
 -19  -7  -2   24.37    5.57
  19   7  -2   15.49    3.61
  19  -7   2   12.90    4.07
 -19  -7   0    4.59    4.39
  19  -7   0    4.95    3.64
  19  -7  -2   15.59    4.37
  19  -7  -4    4.18    3.06
  19  -7  -6   13.16    4.17
  19  -7  -8   17.02    4.89
   8 -19  13   10.41    4.34
   8 -19  11   -0.18    3.00
 -19  -8  -9    4.02    3.55
 -19  -8  -7   21.76    5.05
  19   8  -7   28.04    5.18
 -19  -8  -5    6.84    4.18
  19  -8   5    8.83    4.06
  19   8  -5    3.79    2.97
 -19  -8  -3   14.39    4.52
  19   8  -3   30.37    4.69
  19  -8   3   26.16    5.30
 -19  -8  -1    4.55    3.68
  19  -8   1    3.64    3.12
 -19  -8   1    8.58    4.32
  19  -8  -1    1.99    3.38
 -19  -8   3   24.54    5.48
  19  -8  -3   33.93    5.96
  19  -8  -5    0.93    3.25
  19  -8  -7   20.74    5.16
   9 -19  12   -2.02    3.55
   9 -19  10    0.09    3.06
 -19  -9  -6   14.68    4.72
  19  -9   6    7.48    3.79
  19   9  -4    8.74    3.35
  19  -9   4    5.30    3.35
 -19  -9  -2   29.01    5.61
  19  -9   2   21.92    5.02
 -19  -9   0   65.67    7.89
  19  -9   0   65.02    7.68
 -19  -9   2   28.75    5.67
  19  -9  -2   26.07    5.33
 -19  -9   4    4.70    4.04
  19  -9  -4   11.94    4.45
  19 -10   5    7.97    4.08
  19  10  -5   20.08    4.13
 -19 -10  -3   30.67    6.07
  19 -10   3   29.67    5.57
 -19 -10  -1    6.96    4.23
  19 -10   1   16.84    4.79
 -19 -10   1   14.27    5.02
  19 -10  -1    8.92    4.16
  20   0   0   23.52    4.40
  20   0  -2    0.02    3.02
  20   0   2   -1.60    2.62
  20   0  -4    6.12    3.35
  20   0   4    0.33    2.71
  20   0  -6   -0.06    3.00
 -20   0  -6    2.57    3.43
  20   0   6    2.07    2.43
 -20   0  -8   11.95    3.94
  20   0  -8   16.77    4.49
  20   0 -10   31.86    6.12
   1 -20  13   10.45    4.23
   1 -20  11   17.32    4.65
 -20  -1  -9    5.74    3.32
  20   1  -9    2.20    3.44
 -20  -1  -7   20.46    4.86
  20   1  -7   14.93    4.42
  20  -1   7   11.29    3.06
  20   1  -5   32.49    5.45
 -20  -1  -5   34.14    5.77
  20  -1   5   23.81    4.31
  20   1  -3   17.54    4.23
  20  -1   3   10.91    3.49
  20   1  -1   10.68    3.36
  20  -1   1   10.78    3.30
  20   1   1    8.52    3.36
  20  -1  -1   10.44    3.75
  20  -1  -3   10.07    3.75
  20   1   3    8.61    2.96
  20  -1  -5   36.87    5.61
  20   1   5   25.94    4.45
  20  -1  -7   22.80    4.88
 -20   1  -7   20.09    4.68
  20  -1  -9    7.48    4.11
   2 -20  14    5.33    4.20
   2 -20  12    0.00    3.36
 -20  -2 -10   -0.38    3.44
  20   2 -10    0.23    3.48
   2 -20  10   -2.08    3.14
 -20  -2  -8   28.75    5.13
  20   2  -8   28.25    5.55
  20  -2   8   23.82    4.24
   2 -20   8   21.12    4.56
 -20  -2  -6   42.00    6.28
  20   2  -6   33.32    5.63
  20  -2   6   37.22    5.22
  20   2  -4    6.89    3.21
 -20  -2  -4    4.96    3.70
  20  -2   4    1.65    3.18
  20   2  -2   18.65    4.10
  20  -2   2   16.20    4.35
  20  -2   0   90.73    8.18
  20   2   0   82.95    7.38
  20   2   2   23.81    4.22
  20  -2  -2   18.58    4.46
  20  -2  -4    7.29    3.46
  20   2   4    5.48    2.72
  20  -2  -6   34.52    5.82
  20  -2  -8   29.46    5.60
   3 -20  13   -3.17    3.73
   3 -20  11    6.60    3.59
 -20  -3 -11    1.44    3.28
   3 -20   9   20.04    4.50
 -20  -3  -9   20.95    4.86
  20   3  -9   17.84    4.81
 -20  -3  -7    9.92    4.08
  20   3  -7    5.65    3.52
  20  -3   7    6.20    3.17
 -20  -3  -5   26.79    5.47
  20   3  -5   27.35    5.19
  20  -3   5   27.78    4.82
 -20  -3  -3   84.64    8.60
  20  -3   3   85.23    7.99
  20   3  -3   74.40    7.27
  20   3  -1   17.03    4.09
  20  -3   1   16.42    4.18
  20   3   1   19.27    3.99
  20  -3  -1   19.45    4.78
  20   3   3   74.36    6.66
  20  -3  -3   85.37    8.26
  20  -3  -5   21.10    4.82
  20  -3  -7    2.67    3.17
  20  -3  -9   22.95    5.31
   4 -20  12   15.77    4.85
 -20  -4 -10   20.74    4.93
   4 -20  10   10.69    4.05
  20   4 -10   12.86    4.93
 -20  -4  -8   28.89    5.42
  20   4  -8   35.86    5.84
  20  -4   8   38.92    5.80
 -20  -4  -6   34.45    5.74
  20   4  -6   24.39    5.00
  20  -4   6   23.66    4.59
 -20  -4  -4   29.92    5.84
  20   4  -4   30.30    5.00
  20  -4   4   28.90    4.91
 -20  -4  -2   66.33    7.77
  20  -4   2   74.09    7.50
  20   4  -2   64.84    6.66
  20   4   0   26.11    4.21
  20  -4   0   25.82    5.19
  20  -4  -2   69.81    7.68
  20  -4  -4   23.31    5.05
  20  -4  -6   29.11    5.60
  20  -4  -8   34.86    6.05
   5 -20  13   15.07    4.71
 -20  -5 -11   31.30    5.71
   5 -20  11   24.30    5.15
 -20  -5  -9    2.00    3.67
  20   5  -9   -0.70    3.34
 -20  -5  -7   36.14    6.15
  20   5  -7   36.82    5.70
  20  -5   7   27.72    5.05
 -20  -5  -5   48.59    6.87
  20   5  -5   44.72    5.95
  20  -5   5   35.87    5.50
 -20  -5  -3    6.03    3.67
  20   5  -3   11.12    3.69
  20  -5   3    7.04    3.36
  20   5  -1   45.90    5.51
  20  -5   1   51.81    6.76
  20  -5  -1   43.30    6.18
  20  -5  -3   13.89    4.29
  20  -5  -5   48.13    6.81
  20  -5  -7   34.09    6.09
   6 -20  12   21.33    5.40
 -20  -6 -10    3.91    3.78
 -20  -6  -8   23.07    5.25
  20   6  -8   28.23    5.47
 -20  -6  -6   15.46    4.99
  20   6  -6    9.48    3.65
  20  -6   6    4.43    3.26
 -20  -6  -4   11.17    4.25
  20   6  -4   15.87    3.77
  20  -6   4   10.26    3.72
  20   6  -2   41.18    5.23
 -20  -6  -2   48.40    7.05
  20  -6   2   33.36    5.56
 -20  -6   0   10.07    4.25
  20  -6   0   11.37    4.05
  20  -6  -2   36.75    5.92
  20  -6  -4   17.81    4.28
  20  -6  -6   15.57    4.90
 -20  -7  -9   10.61    4.28
  20   7  -9    4.11    3.71
 -20  -7  -7   24.80    5.49
  20  -7   7   23.50    5.21
  20   7  -7   22.60    4.97
 -20  -7  -5   12.03    4.34
  20   7  -5   14.99    3.84
  20  -7   5   11.02    3.90
 -20  -7  -3    9.93    4.80
  20   7  -3    4.16    3.08
  20  -7   3    2.46    3.19
 -20  -7  -1   18.07    5.20
  20  -7   1   18.53    4.70
 -20  -7   1   20.99    5.39
  20  -7  -1   24.97    5.44
  20  -7  -3    3.91    3.48
  20  -7  -5   20.77    5.07
  20   8  -8   42.56    6.43
  20  -8   6    2.11    3.42
  20   8  -6    8.46    3.61
 -20  -8  -4   11.75    4.48
  20   8  -4    9.31    3.43
  20  -8   4    4.85    3.21
 -20  -8  -2   22.41    5.28
  20  -8   2   34.25    5.82
 -20  -8   0   29.43    6.01
  20  -8   0   29.63    5.79
  20  -8  -2   18.40    5.11
  20   9  -7   11.55    4.06
  20   9  -5   36.71    5.36
  21   0   1   -3.64    2.97
  21   0  -1    3.77    2.94
  21   0  -3   22.18    4.89
  21   0   3   19.79    4.14
  21   0  -5   16.91    4.47
 -21   0  -5   21.06    5.35
  21   0  -7   40.82    6.12
 -21   0  -7   49.64    6.56
 -21  -1  -8    9.54    3.91
  21   1  -8   11.99    4.34
  21   1  -6    9.23    3.88
 -21  -1  -6   13.06    4.47
  21  -1   6    1.18    2.72
  21   1  -4   46.38    6.23
 -21  -1  -4   54.63    7.06
  21  -1   4   42.58    5.58
  21   1  -2    4.89    3.17
  21  -1   2    4.30    2.95
  21  -1   0    1.27    3.10
  21   1   0    5.32    2.99
  21   1   2    0.52    2.60
  21  -1  -2    8.64    3.30
  21  -1  -4   43.97    6.19
  21  -1  -6    4.97    3.85
 -21   1  -6   14.65    4.56
   2 -21  11    7.17    3.94
 -21  -2  -9    7.52    3.76
 -21  -2  -7   14.44    4.79
  21   2  -7   17.84    4.93
  21   2  -5   20.65    4.63
 -21  -2  -5   18.85    5.05
  21  -2   5   15.12    3.94
  21   2  -3    3.69    3.23
  21  -2   3    8.51    3.40
  21   2  -1    8.24    3.30
  21  -2   1   -0.46    2.68
  21  -2  -1    4.72    3.38
  21   2   1    4.23    3.07
  21  -2  -3    1.18    2.95
  21  -2  -5   29.89    5.70
  21  -2  -7   13.86    4.49
   3 -21  12    9.58    4.23
 -21  -3 -10    3.79    3.59
 -21  -3  -8   10.17    4.00
  21   3  -8    1.92    3.47
 -21  -3  -6    9.12    4.39
  21   3  -6   -1.17    3.61
  21  -3   6    4.06    3.09
  21   3  -4    1.54    3.08
 -21  -3  -4    2.04    3.77
  21  -3   4   -0.50    3.01
  21   3  -2    9.40    3.70
  21  -3   2    7.74    3.33
  21   3   0    5.96    3.04
  21  -3   0    1.21    2.95
  21  -3  -2   -1.99    3.11
  21  -3  -4   -0.91    3.76
  21  -3  -6    4.24    3.88
 -21  -4 -11   26.45    5.26
 -21  -4  -9    5.34    3.76
 -21  -4  -7   16.85    4.94
  21   4  -7   20.59    4.96
  21  -4   7   11.33    3.77
 -21  -4  -5   39.42    6.51
  21   4  -5   29.21    5.14
  21  -4   5   37.69    5.63
  21   4  -3    1.27    2.81
 -21  -4  -3    3.96    3.65
  21  -4   3    5.12    2.96
  21   4  -1   27.87    4.67
  21  -4   1   35.78    5.75
  21  -4  -1   26.83    5.37
  21  -4  -3    9.61    4.24
  21  -4  -5   25.39    5.30
 -21  -5  -8   39.13    6.52
  21  -5   8   28.40    5.14
  21   5  -8   45.65    6.67
 -21  -5  -6   20.31    4.83
  21   5  -6   11.16    3.89
  21  -5   6   18.29    4.54
 -21  -5  -4   43.69    6.81
  21   5  -4   46.83    6.09
  21  -5   4   39.71    5.83
  21   5  -2   53.16    6.02
 -21  -5  -2   63.07    7.96
  21  -5   2   50.07    6.49
  21  -5   0   23.40    5.25
  21  -5  -2   52.56    7.02
  21  -5  -4   32.90    6.04
  21  -6   7   40.86    6.20
  21   6  -7   41.80    6.19
  21   6  -5   17.55    4.37
  21  -6   5   19.50    4.38
  21   6  -3    7.63    3.49
  21  -6   3    3.60    3.21
  21  -6   1   34.70    5.76
  21  -6  -1   31.44    5.71
  21   7  -6   12.05    4.12
  21   7  -4   14.73    4.02
  21  -7   4   15.43    4.76
  21   8  -7   17.96    4.93
  21   8  -5   14.08    3.95
  22   0   0    7.77    3.33
  22   0   2   17.16    3.96
  22   0  -2   18.95    4.48
  22   0  -4   57.11    7.22
 -22   0  -6   18.32    5.29
 -22  -1  -7   52.97    7.29
  22   1  -5   31.07    5.48
 -22  -1  -5   36.96    6.32
  22   1  -3   30.09    5.19
  22  -1   3   34.09    5.51
  22  -1   1    5.59    3.29
  22   1  -1   11.20    3.84
  22   1   1    6.78    3.22
  22  -1  -1   11.19    3.81
  22  -1  -3   35.59    5.95
 -22   1  -5   30.87    5.88
 -22  -2  -8    7.64    3.84
 -22  -2  -6    6.95    4.65
  22   2  -4   47.53    6.33
 -22  -2  -4   47.09    6.96
  22  -2   4   41.91    5.91
  22   2  -2   15.49    3.99
  22  -2   2   12.04    4.12
  22  -2   0   -6.03    3.38
  22   2   0   -0.37    2.66
  22  -2  -2   16.40    4.95
 -22  -3  -7    9.78    4.54
  22   3  -5    9.29    3.93
  22  -3   5   12.54    4.15
  22   3  -3    2.63    3.10
 -22  -3  -3    5.16    4.50
  22  -3   3    0.32    3.14
  22   3  -1   -2.72    3.48
  22  -3   1    5.39    3.22
  22  -3  -1    0.22    3.29
  22  -4   6    3.50    3.90
  22   4  -4    5.40    3.49
  22  -4   4   10.67    4.29
  22   4  -2    5.75    3.48
  22  -4   2    8.31    3.92
  22  -4   0    1.27    3.18
  22  -5   7   24.68    5.21
  22   5  -5   10.46    3.94
  22  -5   5    6.87    3.68
  22   5  -3    0.83    2.84
  22   6  -4   14.26    4.12
  23   0   1   -6.18    3.57
  23   0  -1    4.37    3.74
  23  -1   2   24.41    5.12
  23   1   0    1.01    3.06
  23  -2   3    2.36    3.21
  23   2  -1   22.84    5.03
  23   3  -2   18.28    4.51
  23   4  -3    2.30    3.27
   0   0   0    0.00    0.00
;
_shelx_hkl_checksum              50355
loop_
_space_group_symop_operation_xyz
'x, y, z'
'y, -x, -z'
'-x, -y, z'
'-y, x, -z'
'x, -y, -z'
'-x, y, -z'
'-y, -x, z'
'y, x, z'
'x+1/2, y+1/2, z+1/2'
'y+1/2, -x+1/2, -z+1/2'
'-x+1/2, -y+1/2, z+1/2'
'-y+1/2, x+1/2, -z+1/2'
'x+1/2, -y+1/2, -z+1/2'
'-x+1/2, y+1/2, -z+1/2'
'-y+1/2, -x+1/2, z+1/2'
'y+1/2, x+1/2, z+1/2'
loop_
_atom_site_label
_atom_site_type_symbol
_atom_site_fract_x
_atom_site_fract_y
_atom_site_fract_z
_atom_site_U_iso_or_equiv
_atom_site_adp_type
_atom_site_occupancy
_atom_site_site_symmetry_order
_atom_site_calc_flag
_atom_site_refinement_flags_posn
_atom_site_refinement_flags_adp
_atom_site_refinement_flags_occupancy
_atom_site_disorder_assembly
_atom_site_disorder_group
Ag1 Ag 0.5000 0.5000 0.19579(7) 0.0217(3) Uani 1 4 d S T P D .
Ag2 Ag 0.52973(4) 0.66032(4) 0.16016(5) 0.0321(2) Uani 1 1 d . . . . .
Ag3 Ag 0.5000 0.58482(10) 0.0000 0.0254(4) Uani 0.5 2 d S T P . .
S1 S 0.59956(12) 0.40044(12) 0.19064(18) 0.0251(7) Uani 1 2 d S T P . .
C1 C 0.6253(6) 0.3747(6) 0.2740(7) 0.031(3) Uani 1 2 d S T P D .
C2 C 0.7123(7) 0.3902(8) 0.2814(7) 0.052(3) Uani 1 1 d . . . . .
H2A H 0.7220 0.4461 0.2786 0.078 Uiso 1 1 calc GR . . D .
H2B H 0.7407 0.3635 0.2477 0.078 Uiso 1 1 calc GR . . . .
H2C H 0.7298 0.3711 0.3227 0.078 Uiso 1 1 calc GR . . . .
C3 C 0.5793(7) 0.4207(7) 0.3203(8) 0.053(5) Uani 1 2 d S T P . .
H3A H 0.5240 0.4101 0.3141 0.079 Uiso 0.5 1 calc GR . . A -1
H3B H 0.5892 0.4761 0.3137 0.079 Uiso 0.5 1 calc GR . . A -1
H3C H 0.5943 0.4063 0.3635 0.079 Uiso 0.5 1 calc GR . . A -1
S2 S 0.60256(14) 0.60256(14) 0.06928(17) 0.0309(8) Uani 1 2 d S T P C .
C4 C 0.6728(5) 0.6728(5) 0.0314(7) 0.031(3) Uani 1 2 d DS T P . .
C5 C 0.7145(6) 0.7145(6) 0.0835(8) 0.045(4) Uani 1 2 d S TU P C .
H5A H 0.6780 0.7263 0.1178 0.067 Uiso 0.5 1 calc GR . . B -1
H5B H 0.7364 0.7628 0.0670 0.067 Uiso 0.5 1 calc GR . . B -1
H5C H 0.7562 0.6816 0.0998 0.067 Uiso 0.5 1 calc GR . . B -1
C6 C 0.7359(14) 0.6206(15) 0.0027(13) 0.037(7) Uani 0.5 1 d D U . C -1
H6A H 0.7684 0.5997 0.0367 0.056 Uiso 0.5 1 calc GR . . C -1
H6B H 0.7679 0.6511 -0.0265 0.056 Uiso 0.5 1 calc GR . . C -1
H6C H 0.7115 0.5778 -0.0204 0.056 Uiso 0.5 1 calc GR . . C -1
C7 C 0.6341(17) 0.7183(17) -0.0206(12) 0.039(7) Uani 0.5 1 d D U . C -1
H7A H 0.6129 0.6825 -0.0523 0.059 Uiso 0.5 1 calc GR . . C -1
H7B H 0.6723 0.7525 -0.0408 0.059 Uiso 0.5 1 calc GR . . C -1
H7C H 0.5921 0.7496 -0.0027 0.059 Uiso 0.5 1 calc GR . . C -1
O1 O 0.607(2) 0.691(2) 0.2486(16) 0.061(7) Uani 0.5 1 d D . . D -1
O2 O 0.692(3) 0.596(2) 0.2653(17) 0.061(7) Uani 0.5 1 d D . . D -1
C8 C 0.6563(6) 0.6563(6) 0.2783(8) 0.032(3) Uani 1 2 d DS T P . .
C9 C 0.6866(6) 0.6866(6) 0.3424(9) 0.049(4) Uani 1 2 d DS T P D .
F1 F 0.7535(8) 0.6586(11) 0.3605(9) 0.062(5) Uani 0.5 1 d D U . D -1
F2 F 0.6393(10) 0.6678(12) 0.3878(7) 0.092(7) Uani 0.5 1 d D U . D -1
F3 F 0.6999(15) 0.7605(8) 0.3401(13) 0.109(8) Uani 0.5 1 d D U . D -1
N1 N 0.5177(5) 0.7953(4) 0.1641(5) 0.034(2) Uani 1 1 d . . . . .
C10 C 0.5760(6) 0.8413(6) 0.1834(5) 0.032(2) Uani 1 1 d . . . . .
H10 H 0.6225 0.8173 0.1975 0.039 Uiso 1 1 calc R . . . .
C11 C 0.5724(6) 0.9206(6) 0.1841(5) 0.031(3) Uani 1 1 d . . . . .
H11 H 0.6159 0.9505 0.1968 0.038 Uiso 1 1 calc R . . . .
C12 C 0.5034(6) 0.9569(5) 0.1657(5) 0.030(2) Uani 1 1 d . . . . .
C13 C 0.4413(6) 0.9092(5) 0.1479(5) 0.032(2) Uani 1 1 d . . . . .
H13 H 0.3929 0.9314 0.1363 0.038 Uiso 1 1 calc R . . . .
C14 C 0.4508(6) 0.8312(5) 0.1475(5) 0.032(3) Uani 1 1 d . . . . .
H14 H 0.4082 0.7999 0.1348 0.038 Uiso 1 1 calc R . . . .
C15 C 0.6449(14) 0.9603(8) 0.0144(10) 0.094(7) Uani 0.75 1 d D U . . .
H15A H 0.5963 0.9522 0.0385 0.113 Uiso 0.75 1 calc R . . . .
H15B H 0.6473 0.9208 -0.0196 0.113 Uiso 0.75 1 calc R . . . .
C16 C 0.7125(13) 0.9512(14) 0.0573(11) 0.096(8) Uani 0.75 1 d D U . . .
H16A H 0.7125 0.8990 0.0767 0.115 Uiso 0.75 1 calc R . . . .
H16B H 0.7105 0.9903 0.0917 0.115 Uiso 0.75 1 calc R . . . .
C17 C 0.7831(16) 0.9624(12) 0.0180(14) 0.136(12) Uani 0.75 1 d D U . . .
H17A H 0.7873 0.9190 -0.0125 0.163 Uiso 0.75 1 calc R . . . .
H17B H 0.8293 0.9608 0.0458 0.163 Uiso 0.75 1 calc R . . . .
loop_
_atom_site_aniso_label
_atom_site_aniso_U_11
_atom_site_aniso_U_22
_atom_site_aniso_U_33
_atom_site_aniso_U_23
_atom_site_aniso_U_13
_atom_site_aniso_U_12
Ag1 0.0143(4) 0.0143(4) 0.0364(8) 0.000 0.000 0.0011(5)
Ag2 0.0237(4) 0.0149(3) 0.0576(5) 0.0009(4) -0.0001(4) -0.0021(3)
Ag3 0.0215(9) 0.0170(8) 0.0376(11) 0.000 -0.0062(11) 0.000
S1 0.0185(9) 0.0185(9) 0.038(2) 0.0035(10) -0.0035(10) 0.0037(12)
C1 0.033(5) 0.033(5) 0.029(8) 0.006(5) -0.006(5) 0.011(7)
C2 0.037(7) 0.065(9) 0.054(8) -0.002(7) -0.011(6) 0.015(6)
C3 0.058(7) 0.058(7) 0.043(11) 0.006(5) -0.006(5) 0.026(9)
S2 0.0321(11) 0.0321(11) 0.0284(19) 0.0011(11) 0.0011(11) -0.0147(16)
C4 0.034(5) 0.034(5) 0.027(8) -0.002(4) -0.002(4) -0.015(6)
C5 0.045(5) 0.045(5) 0.044(8) 0.000(4) 0.000(4) -0.033(7)
C6 0.039(12) 0.043(13) 0.029(13) 0.012(12) 0.004(12) -0.010(10)
C7 0.039(11) 0.054(12) 0.024(11) 0.015(10) -0.005(10) -0.013(9)
O1 0.082(16) 0.043(11) 0.057(16) -0.013(10) -0.032(13) 0.022(7)
O2 0.082(16) 0.043(11) 0.057(16) -0.013(10) -0.032(13) 0.022(7)
C8 0.022(4) 0.022(4) 0.053(10) 0.000(5) 0.000(5) -0.004(6)
C9 0.048(6) 0.048(6) 0.052(11) 0.008(7) 0.008(7) -0.009(8)
F1 0.046(8) 0.068(9) 0.071(10) -0.008(8) -0.033(7) 0.005(7)
F2 0.076(11) 0.136(14) 0.064(8) 0.001(9) 0.024(8) 0.014(10)
F3 0.149(14) 0.073(11) 0.105(12) -0.006(10) -0.015(11) -0.022(10)
N1 0.034(5) 0.021(4) 0.047(5) -0.004(4) 0.005(5) -0.003(3)
C10 0.024(5) 0.020(5) 0.052(7) -0.003(5) -0.004(5) -0.004(4)
C11 0.018(5) 0.022(5) 0.054(7) 0.001(5) -0.001(5) -0.006(4)
C12 0.029(4) 0.019(4) 0.041(5) 0.001(4) 0.004(6) -0.001(4)
C13 0.028(5) 0.018(4) 0.049(7) -0.001(5) -0.001(5) -0.001(4)
C14 0.030(5) 0.019(5) 0.047(7) -0.011(5) -0.007(5) 0.000(4)
C15 0.115(12) 0.100(12) 0.066(11) -0.011(9) 0.005(10) -0.025(10)
C16 0.118(13) 0.083(11) 0.086(11) 0.012(10) -0.002(10) 0.029(10)
C17 0.127(15) 0.160(16) 0.122(16) -0.024(12) -0.025(11) 0.030(12)
loop_
_atom_type_symbol
_atom_type_description
_atom_type_scat_dispersion_real
_atom_type_scat_dispersion_imag
_atom_type_scat_source
C C 0.0033 0.0016 'International Tables Vol C Tables 4.2.6.8 and 6.1.1.4'
H H 0.0000 0.0000 'International Tables Vol C Tables 4.2.6.8 and 6.1.1.4'
Ag Ag -0.8971 1.1015 'International Tables Vol C Tables 4.2.6.8 and 6.1.1.4'
F F 0.0171 0.0103 'International Tables Vol C Tables 4.2.6.8 and 6.1.1.4'
N N 0.0061 0.0033 'International Tables Vol C Tables 4.2.6.8 and 6.1.1.4'
O O 0.0106 0.0060 'International Tables Vol C Tables 4.2.6.8 and 6.1.1.4'
S S 0.1246 0.1234 'International Tables Vol C Tables 4.2.6.8 and 6.1.1.4'
loop_
_geom_angle_atom_site_label_1
_geom_angle_atom_site_label_2
_geom_angle_atom_site_label_3
_geom_angle
_geom_angle_site_symmetry_1
_geom_angle_site_symmetry_3
Ag2 Ag1 Ag2 150.08(6) . 3_665
Ag2 Ag1 Ag2 150.08(6) 7_665 8
Ag2 Ag1 Ag2 66.34(3) . 8
Ag2 Ag1 Ag2 66.34(3) 3_665 7_665
Ag2 Ag1 Ag2 105.55(3) . 7_665
Ag2 Ag1 Ag2 105.55(3) 3_665 8
S1 Ag1 Ag2 122.35(4) 3_665 8
S1 Ag1 Ag2 122.35(4) . 7_665
S1 Ag1 Ag2 122.35(4) . .
S1 Ag1 Ag2 56.08(3) 3_665 .
S1 Ag1 Ag2 56.08(3) 3_665 7_665
S1 Ag1 Ag2 122.35(4) 3_665 3_665
S1 Ag1 Ag2 56.08(3) . 3_665
S1 Ag1 Ag2 56.08(3) . 8
S1 Ag1 S1 174.88(19) . 3_665
Ag1 Ag2 Ag2 56.832(14) . 8
S1 Ag2 Ag1 52.38(7) 3_665 .
S1 Ag2 Ag2 109.16(7) 3_665 8
S2 Ag2 Ag1 84.72(7) . .
S2 Ag2 Ag2 50.42(6) . 8
S2 Ag2 S1 118.02(11) . 3_665
O1 Ag2 Ag1 96.3(11) . .
O1 Ag2 Ag2 76.2(5) . 8
O1 Ag2 S1 112.7(13) . 3_665
O1 Ag2 S2 114.6(8) . .
N1 Ag2 Ag1 157.0(2) . .
N1 Ag2 Ag2 140.07(19) . 8
N1 Ag2 S1 108.8(2) . 3_665
N1 Ag2 S2 118.0(2) . .
N1 Ag2 O1 78.3(9) . .
Ag3 Ag3 Ag3 45.0 4_655 3_665
Ag3 Ag3 Ag3 90.0 4_655 2_565
Ag3 Ag3 Ag3 45.0 2_565 3_665
Ag3 Ag3 S2 129.33(9) 2_565 4_655
Ag3 Ag3 S2 129.33(9) 4_655 .
Ag3 Ag3 S2 63.46(5) 2_565 .
Ag3 Ag3 S2 63.46(5) 4_655 4_655
S2 Ag3 Ag3 97.59(7) 4_655 3_665
S2 Ag3 Ag3 97.59(7) . 3_665
S2 Ag3 S2 164.81(14) . 4_655
Ag1 S1 Ag2 71.54(7) . 3_665
Ag1 S1 Ag2 71.54(7) . 8
Ag2 S1 Ag2 131.08(14) 8 3_665
C1 S1 Ag1 107.1(5) . .
C1 S1 Ag2 110.38(14) . 8
C1 S1 Ag2 110.38(14) . 3_665
C2 C1 S1 106.7(9) . .
C2 C1 S1 106.7(9) 7_665 .
C2 C1 C2 109.4(14) . 7_665
C3 C1 S1 111.3(10) . .
C3 C1 C2 111.2(9) . 7_665
C3 C1 C2 111.2(9) . .
C1 C2 H2A 109.5 . .
C1 C2 H2B 109.5 . .
C1 C2 H2C 109.5 . .
H2A C2 H2B 109.5 . .
H2A C2 H2C 109.5 . .
H2B C2 H2C 109.5 . .
C1 C3 H3A 109.5 . .
C1 C3 H3B 109.5 . .
C1 C3 H3C 109.5 . .
H3A C3 H3B 109.5 . .
H3A C3 H3C 109.5 . .
H3B C3 H3C 109.5 . .
Ag2 S2 Ag2 79.17(11) . 8
Ag3 S2 Ag2 98.81(7) 2_565 8
Ag3 S2 Ag2 136.27(15) 2_565 .
Ag3 S2 Ag2 98.81(7) . .
Ag3 S2 Ag2 136.27(15) . 8
Ag3 S2 Ag3 53.09(11) 2_565 .
C4 S2 Ag2 113.0(3) . .
C4 S2 Ag2 113.0(3) . 8
C4 S2 Ag3 107.9(4) . .
C4 S2 Ag3 107.9(4) . 2_565
C5 C4 S2 107.7(10) . .
C5 C4 C6 103.3(13) . .
C5 C4 C7 119.8(14) . .
C6 C4 S2 104.2(12) . .
C7 C4 S2 111.1(14) . .
C7 C4 C6 109(2) . .
C4 C5 H5A 109.5 . .
C4 C5 H5B 109.5 . .
C4 C5 H5C 109.5 . .
H5A C5 H5B 109.5 . .
H5A C5 H5C 109.5 . .
H5B C5 H5C 109.5 . .
C4 C6 H6A 109.5 . .
C4 C6 H6B 109.5 . .
C4 C6 H6C 109.5 . .
H6A C6 H6B 109.5 . .
H6A C6 H6C 109.5 . .
H6B C6 H6C 109.5 . .
C4 C7 H7A 109.5 . .
C4 C7 H7B 109.5 . .
C4 C7 H7C 109.5 . .
H7A C7 H7B 109.5 . .
H7A C7 H7C 109.5 . .
H7B C7 H7C 109.5 . .
C8 O1 Ag2 134(2) . .
C8 O2 Ag2 117(2) . 8
O1 C8 O2 130.5(17) . .
O1 C8 C9 121.5(16) . .
O2 C8 C9 107.9(18) . .
F1 C9 C8 115.4(11) . .
F2 C9 C8 110.3(13) . .
F2 C9 F1 104.4(17) . .
F3 C9 C8 111.1(17) . .
F3 C9 F1 102.6(19) . .
F3 C9 F2 112.7(19) . .
C10 N1 Ag2 122.1(6) . .
C10 N1 C14 116.5(8) . .
C14 N1 Ag2 121.4(6) . .
N1 C10 H10 118.0 . .
N1 C10 C11 124.0(9) . .
C11 C10 H10 118.0 . .
C10 C11 H11 120.5 . .
C10 C11 C12 118.9(9) . .
C12 C11 H11 120.5 . .
C11 C12 C12 121.0(11) . 3_675
C11 C12 C13 117.4(8) . .
C13 C12 C12 121.6(10) . 3_675
C12 C13 H13 120.3 . .
C14 C13 C12 119.5(9) . .
C14 C13 H13 120.3 . .
N1 C14 C13 123.7(9) . .
N1 C14 H14 118.2 . .
C13 C14 H14 118.2 . .
C15 C15 H15A 109.6 5_575 .
C15 C15 H15B 109.6 5_575 .
H15A C15 H15B 108.2 . .
C16 C15 C15 110.1(15) . 5_575
C16 C15 H15A 109.6 . .
C16 C15 H15B 109.6 . .
C15 C16 H16A 110.4 . .
C15 C16 H16B 110.4 . .
C15 C16 C17 107(2) . .
H16A C16 H16B 108.6 . .
C17 C16 H16A 110.4 . .
C17 C16 H16B 110.4 . .
C16 C17 C17 113.2(18) . 5_575
C16 C17 H17A 108.9 . .
C16 C17 H17B 108.9 . .
C17 C17 H17A 108.9 5_575 .
C17 C17 H17B 108.9 5_575 .
H17A C17 H17B 107.7 . .
loop_
_geom_bond_atom_site_label_1
_geom_bond_atom_site_label_2
_geom_bond_distance
_geom_bond_site_symmetry_2
Ag1 Ag2 2.9114(8) .
Ag1 Ag2 2.9115(8) 7_665
Ag1 Ag2 2.9115(8) 8
Ag1 Ag2 2.9115(7) 3_665
Ag1 S1 2.431(3) 3_665
Ag1 S1 2.431(3) .
Ag2 Ag2 3.1857(13) 8
Ag2 S1 2.5469(15) 3_665
Ag2 S2 2.500(3) .
Ag2 O1 2.35(3) .
Ag2 N1 2.339(7) .
Ag3 Ag3 2.926(4) 3_665
Ag3 Ag3 2.069(3) 2_565
Ag3 Ag3 2.069(3) 4_655
Ag3 S2 2.315(3) 4_655
Ag3 S2 2.315(3) .
S1 Ag2 2.5469(15) 3_665
S1 Ag2 2.5469(15) 8
S1 C1 1.868(14) .
C1 C2 1.532(14) 7_665
C1 C2 1.532(14) .
C1 C3 1.49(2) .
C2 H2A 0.9800 .
C2 H2B 0.9800 .
C2 H2C 0.9800 .
C3 H3A 0.9800 .
C3 H3B 0.9800 .
C3 H3C 0.9800 .
S2 Ag2 2.500(3) 8
S2 Ag3 2.315(3) 2_565
S2 C4 1.890(14) .
C4 C5 1.50(2) .
C4 C6 1.536(19) .
C4 C7 1.51(2) .
C5 H5A 0.9800 .
C5 H5B 0.9800 .
C5 H5C 0.9800 .
C6 H6A 0.9800 .
C6 H6B 0.9800 .
C6 H6C 0.9800 .
C7 H7A 0.9800 .
C7 H7B 0.9800 .
C7 H7C 0.9800 .
O1 C8 1.222(19) .
O2 Ag2 2.56(3) 8
O2 C8 1.236(17) .
C8 C9 1.54(3) .
C9 F1 1.307(12) .
C9 F2 1.299(13) .
C9 F3 1.295(13) .
N1 C10 1.345(12) .
N1 C14 1.355(12) .
C10 H10 0.9500 .
C10 C11 1.370(14) .
C11 H11 0.9500 .
C11 C12 1.399(13) .
C12 C12 1.491(16) 3_675
C12 C13 1.403(14) .
C13 H13 0.9500 .
C13 C14 1.357(13) .
C14 H14 0.9500 .
C15 C15 1.50(2) 5_575
C15 H15A 0.9900 .
C15 H15B 0.9900 .
C15 C16 1.49(2) .
C16 H16A 0.9900 .
C16 H16B 0.9900 .
C16 C17 1.49(2) .
C17 C17 1.50(2) 5_575
C17 H17A 0.9900 .
C17 H17B 0.9900 .
loop_
_geom_torsion_atom_site_label_1
_geom_torsion_atom_site_label_2
_geom_torsion_atom_site_label_3
_geom_torsion_atom_site_label_4
_geom_torsion
_geom_torsion_site_symmetry_1
_geom_torsion_site_symmetry_2
_geom_torsion_site_symmetry_3
_geom_torsion_site_symmetry_4
Ag1 S1 C1 C2 121.5(8) . . . 7_665
Ag1 S1 C1 C2 -121.5(8) . . . .
Ag1 S1 C1 C3 0.000(2) . . . .
Ag2 S1 C1 C2 162.3(7) 3_665 . . .
Ag2 S1 C1 C2 -162.3(7) 8 . . 7_665
Ag2 S1 C1 C2 -45.4(10) 8 . . .
Ag2 S1 C1 C2 45.4(10) 3_665 . . 7_665
Ag2 S1 C1 C3 76.17(19) 8 . . .
Ag2 S1 C1 C3 -76.2(2) 3_665 . . .
Ag2 S2 C4 C5 43.82(16) . . . .
Ag2 S2 C4 C5 -43.81(16) 8 . . .
Ag2 S2 C4 C6 153.1(12) . . . .
Ag2 S2 C4 C6 65.5(14) 8 . . .
Ag2 S2 C4 C7 -176.9(13) 8 . . .
Ag2 S2 C4 C7 -89.2(14) . . . .
Ag2 O1 C8 O2 14(4) . . . .
Ag2 O1 C8 C9 -169(3) . . . .
Ag2 O2 C8 O1 -1(3) 8 . . .
Ag2 O2 C8 C9 -179(2) 8 . . .
Ag2 N1 C10 C11 177.3(9) . . . .
Ag2 N1 C14 C13 -178.8(9) . . . .
Ag3 S2 C4 C5 -151.99(10) 2_565 . . .
Ag3 S2 C4 C5 151.99(10) . . . .
Ag3 S2 C4 C6 -42.7(13) 2_565 . . .
Ag3 S2 C4 C6 -98.7(13) . . . .
Ag3 S2 C4 C7 75.0(14) 2_565 . . .
Ag3 S2 C4 C7 18.9(14) . . . .
O1 C8 C9 F1 -161(3) . . . .
O1 C8 C9 F2 81(3) . . . .
O1 C8 C9 F3 -44(4) . . . .
O2 C8 C9 F1 17(3) . . . .
O2 C8 C9 F2 -101(3) . . . .
O2 C8 C9 F3 134(3) . . . .
N1 C10 C11 C12 2.2(18) . . . .
C10 N1 C14 C13 1.8(17) . . . .
C10 C11 C12 C12 179.9(8) . . . 3_675
C10 C11 C12 C13 0.5(16) . . . .
C11 C12 C13 C14 -1.8(16) . . . .
C12 C12 C13 C14 178.7(8) 3_675 . . .
C12 C13 C14 N1 0.7(18) . . . .
C14 N1 C10 C11 -3.3(17) . . . .
C15 C15 C16 C17 -60(3) 5_575 . . .
C15 C16 C17 C17 54(4) . . . 5_575
