#------------------------------------------------------------------------------
#$Date: 2019-06-14 11:57:16 +0300 (Fri, 14 Jun 2019) $
#$Revision: 215977 $
#$URL: file:///home/coder/svn-repositories/cod/cif/1/55/14/1551439.cif $
#------------------------------------------------------------------------------
#
# This file is available in the Crystallography Open Database (COD),
# http://www.crystallography.net/
#
# All data on this site have been placed in the public domain by the
# contributors.
#
data_1551439
loop_
_publ_author_name
'Ren-Wu Huang'
'Yong-Sheng Wei'
'Xi-Yan Dong'
'Xiao-Hui Wu'
'Chen-Xia Du'
'Shuang-Quan Zang'
'Thomas C. W. Mak'
_publ_section_title
;
 Hypersensitive dual-function luminescence switching of a
 silver-chalcogenolate cluster-based metal-organic framework
;
_journal_name_full               'Nature Chemistry'
_journal_page_first              689
_journal_page_last               697
_journal_paper_doi               10.1038/nchem.2718
_journal_volume                  9
_journal_year                    2017
_chemical_absolute_configuration ad
_chemical_formula_moiety         'C80 H104 Ag12 F12 N8 O8 S8, 2(C6 H5 I)'
_chemical_formula_sum            'C92 H114 Ag12 F12 I2 N8 O8 S8'
_chemical_formula_weight         3492.63
_space_group_crystal_system      tetragonal
_space_group_IT_number           121
_space_group_name_Hall           'I -4 2'
_space_group_name_H-M_alt        'I -4 2 m'
_atom_sites_solution_hydrogens   mixed
_atom_sites_solution_primary     direct
_cell_angle_alpha                90
_cell_angle_beta                 90
_cell_angle_gamma                90
_cell_formula_units_Z            2
_cell_length_a                   17.2105(2)
_cell_length_b                   17.2105(2)
_cell_length_c                   20.6982(8)
_cell_measurement_reflns_used    6520
_cell_measurement_temperature    100
_cell_measurement_theta_max      28.9990
_cell_measurement_theta_min      3.8870
_cell_volume                     6130.8(3)
_computing_cell_refinement
;
CrysAlisPro, Agilent Technologies,
Version 1.171.37.35 (release 13-08-2014 CrysAlis171 .NET)
(compiled Aug 13 2014,18:06:01)
;
_computing_data_collection
;
CrysAlisPro, Agilent Technologies,
Version 1.171.37.35 (release 13-08-2014 CrysAlis171 .NET)
(compiled Aug 13 2014,18:06:01)
;
_computing_data_reduction
;
CrysAlisPro, Agilent Technologies,
Version 1.171.37.35 (release 13-08-2014 CrysAlis171 .NET)
(compiled Aug 13 2014,18:06:01)
;
_computing_molecular_graphics    'Olex2 (Dolomanov et al., 2009)'
_computing_publication_material  'Olex2 (Dolomanov et al., 2009)'
_computing_structure_refinement  'ShelXL (Sheldrick, 2015)'
_computing_structure_solution    'ShelXS (Sheldrick, 2008)'
_diffrn_ambient_temperature      100
_diffrn_detector_area_resol_mean 16.2312
_diffrn_detector_type            Eos
_diffrn_measured_fraction_theta_full 0.994
_diffrn_measured_fraction_theta_max 0.935
_diffrn_measurement_details
;
#__ type_ start__ end____ width___ exp.time_
  1 omega   45.00   89.00   0.5000   10.0000
omega____ theta____ kappa____ phi______ frames
    -       18.0661  178.0000 -150.0000 88

#__ type_ start__ end____ width___ exp.time_
  2 omega    0.00   80.00   0.5000   10.0000
omega____ theta____ kappa____ phi______ frames
    -       18.0661   37.0000  -30.0000 160

#__ type_ start__ end____ width___ exp.time_
  3 omega   35.00   60.00   0.5000   10.0000
omega____ theta____ kappa____ phi______ frames
    -       18.0661  178.0000 -120.0000 50

#__ type_ start__ end____ width___ exp.time_
  4 omega  -51.00    2.00   0.5000   10.0000
omega____ theta____ kappa____ phi______ frames
    -       18.0661    0.0000 -180.0000 106

#__ type_ start__ end____ width___ exp.time_
  5 omega   60.00   86.00   0.5000   10.0000
omega____ theta____ kappa____ phi______ frames
    -       18.0661    0.0000 -180.0000 52

#__ type_ start__ end____ width___ exp.time_
  6 omega   61.00   91.00   0.5000   10.0000
omega____ theta____ kappa____ phi______ frames
    -       18.0661 -178.0000  -60.0000 60
;
_diffrn_measurement_device       'four-circle diffractometer'
_diffrn_measurement_device_type  'Xcalibur, Eos, Gemini'
_diffrn_measurement_method       '\w scans'
_diffrn_radiation_type           MoK\a
_diffrn_radiation_wavelength     0.71073
_diffrn_reflns_av_R_equivalents  0.0405
_diffrn_reflns_av_unetI/netI     0.0403
_diffrn_reflns_Laue_measured_fraction_full 0.994
_diffrn_reflns_Laue_measured_fraction_max 0.935
_diffrn_reflns_limit_h_max       23
_diffrn_reflns_limit_h_min       -20
_diffrn_reflns_limit_k_max       22
_diffrn_reflns_limit_k_min       -23
_diffrn_reflns_limit_l_max       28
_diffrn_reflns_limit_l_min       -27
_diffrn_reflns_number            17060
_diffrn_reflns_point_group_measured_fraction_full 0.970
_diffrn_reflns_point_group_measured_fraction_max 0.873
_diffrn_reflns_theta_full        25.250
_diffrn_reflns_theta_max         29.447
_diffrn_reflns_theta_min         3.348
_exptl_absorpt_coefficient_mu    2.577
_exptl_absorpt_correction_T_max  1.00000
_exptl_absorpt_correction_T_min  0.59024
_exptl_absorpt_correction_type   multi-scan
_exptl_absorpt_process_details
;
CrysAlisPro, Agilent Technologies,
Version 1.171.37.35 (release 13-08-2014 CrysAlis171 .NET)
(compiled Aug 13 2014,18:06:01)
Empirical absorption correction using spherical harmonics,
 implemented in SCALE3 ABSPACK scaling algorithm.
;
_exptl_crystal_colour            colourless
_exptl_crystal_colour_primary    colourless
_exptl_crystal_density_diffrn    1.892
_exptl_crystal_density_meas      .
_exptl_crystal_description       block
_exptl_crystal_F_000             3384
_exptl_crystal_size_max          0.22
_exptl_crystal_size_mid          0.18
_exptl_crystal_size_min          0.18
_refine_diff_density_max         3.488
_refine_diff_density_min         -1.668
_refine_diff_density_rms         0.202
_refine_ls_abs_structure_details
;
 Flack x determined using 1268 quotients [(I+)-(I-)]/[(I+)+(I-)]
 (Parsons and Flack (2004), Acta Cryst. A60, s61).
;
_refine_ls_abs_structure_Flack   -0.01(2)
_refine_ls_extinction_coef       .
_refine_ls_extinction_method     none
_refine_ls_goodness_of_fit_ref   1.112
_refine_ls_hydrogen_treatment    constr
_refine_ls_matrix_type           full
_refine_ls_number_parameters     183
_refine_ls_number_reflns         3887
_refine_ls_number_restraints     34
_refine_ls_restrained_S_all      1.134
_refine_ls_R_factor_all          0.0666
_refine_ls_R_factor_gt           0.0552
_refine_ls_shift/su_max          0.000
_refine_ls_shift/su_mean         0.000
_refine_ls_structure_factor_coef Fsqd
_refine_ls_weighting_details
;
 w=1/[\s^2^(Fo^2^)+(0.0822P)^2^+55.0663P]
 where P=(Fo^2^+2Fc^2^)/3
;
_refine_ls_weighting_scheme      calc
_refine_ls_wR_factor_gt          0.1510
_refine_ls_wR_factor_ref         0.1583
_reflns_Friedel_coverage         0.715
_reflns_Friedel_fraction_full    0.941
_reflns_Friedel_fraction_max     0.798
_reflns_number_gt                3368
_reflns_number_total             3887
_reflns_threshold_expression     'I > 2\s(I)'
_cod_data_source_file            nchem.2718-s22.cif
_cod_data_source_block           ag12bpy_iodobenzene
_cod_database_code               1551439
_shelx_space_group_comment
;
The symmetry employed for this shelxl refinement is uniquely defined
by the following loop, which should always be used as a source of
symmetry information in preference to the above space-group names.
They are only intended as comments.
;
_olex2_refinement_description
;
1. Fixed Uiso
 At 1.2 times of:
  All C(H) groups
 At 1.5 times of:
  All C(H,H,H) groups
2. Shared sites
{C14, C14B}
{C17, C17B}
3. Restrained distances
 C14-C15 = C15-C16 = C16-C17
 1.39 with sigma of 0.01
 C5-C4
 1.53 with sigma of 0.01
 C15_$1-C15 \\sim C16-C16_$1
 with sigma of 0.01
 C17-I2 \\sim C14-I1B
 with sigma of 0.01
 C14-C17 \\sim C15-C16_$1 \\sim C15_$1-C16
 with sigma of 0.01
 F2-C8 \\sim C8-F1
 with sigma of 0.01
4. Uiso/Uaniso restraints and constraints
Uanis(F2) \\sim Ueq, Uanis(F1) \\sim Ueq, Uanis(C14) \\sim Ueq, Uanis(C5) \\sim
Ueq: with sigma of 0.005 and sigma for terminal atoms of 0.01
Uanis(C14) = Uanis(I2) = Uanis(C17) = Uanis(C16) = Uanis(C15) = Uanis(I1B) =
Uanis(C14B) = Uanis(C17B)
5. Others
 Fixed Sof: Ag3(0.25) H3A(0.5) H3B(0.5) H3C(0.5) H6A(0.5) H6B(0.5) H6C(0.5)
 I1B(0.05) I2(0.2) C14(0.2) H14(0.2) C17(0.2) C14B(0.05) C17B(0.05) H17B(0.05)
 C15(0.5) H15(0.5) C16(0.5) H16(0.5)
 Fixed X: I1B(1) I2(1) C14(1) C17(1) C14B(1) C17B(1)
 Fixed Z: I1B(0.5) I2(0.5) C14(0.5) C17(0.5) C14B(0.5) C17B(0.5)
6.a Riding coordinates:
 C14(H14), C17B(H17B), C15(H15), C16(H16)
6.b Aromatic/amide H refined with riding coordinates:
 C9(H9), C10(H10), C12(H12), C13(H13)
6.c Idealised Me refined as rotating group:
 C2(H2A,H2B,H2C), C3(H3A,H3B,H3C), C5(H5A,H5B,H5C), C6(H6A,H6B,H6C)
Comments: The fluorine atoms in the trifluoroacetate anion were 
disordered. However, no split was made; rather, 
they were treated with strict restraints for geometry and thermal 
vibration using "SADI 0.01" and "ISOR 0.005 0.01", respectively. 
One of the carbon atoms in the t-butyl mercaptan group was also 
restrained with "DFIX 1.53 0.01" and "ISOR 0.005 0.01" for its 
geometry and ADPs, respectively, due to the disorder. The 
guest molecule iodobenzene can be clearly observed from 
the difference Fourier map, but the molecule suffered seriously 
positional disorder as observed in the strong peaks over several 
locations along the lattice voids. Because of the bad disorder and 
the geometrical symmetry of the molecule as well as the lattice 
symmetry, it is complicated and unnecessary to separate all 
the parts of the guest molecule. Instead, a simple model was 
made in the position of majority, for which very strong restraints 
and constraints were applied to this modelled molecule.
;
_shelx_res_file
;
TITL A in I-42m #121
REM reset to I-42m #121
CELL 0.71073 17.2105 17.2105 20.6982 90 90 90
ZERR 2 0.0002 0.0002 0.0008 0 0 0
LATT -2
SYMM +Y,-X,-Z
SYMM -X,-Y,+Z
SYMM -Y,+X,-Z
SYMM +X,-Y,-Z
SYMM -X,+Y,-Z
SYMM -Y,-X,+Z
SYMM +Y,+X,+Z
SFAC C H Ag F I N O S
UNIT 184 228 24 24 4 16 16 16
EQIV $1 2-X,+Y,1-Z
DFIX 1.39 0.01 C14 C15 C15 C16 C16 C17
DFIX 1.53 0.01 C5 C4
SADI 0.01 C15_$1 C15 C16 C16_$1
SADI 0.01 C17 I2 C14 I1B
SADI 0.01 C14 C17 C15 C16_$1 C15_$1 C16
SADI 0.01 F2 C8 C8 F1
ISOR 0.005 0.01 F2 F1 C14 C5
EADP C14 I2 C17 C16 C15 I1B C14B C17B
EXYZ C14 C14B
EXYZ C17 C17B

L.S. 20
PLAN  3
TEMP -172.6(8)
BOND
MORE -1
BOND $H
CONF
fmap 2
acta 50.5
OMIT 0 0 4
REM <olex2.extras>
REM <HklSrc "%.\\Ag12bpy_Iodobenzene.hkl">
REM </olex2.extras>

WGHT    0.082200   55.066303
FVAR       0.06589
AG1   3    0.500000    0.500000    0.296713    10.25000    0.01618    0.01618 =
         0.03502    0.00000    0.00000    0.00052
AG2   3    0.659965    0.529433    0.334271    11.00000    0.01656    0.02764 =
         0.05314    0.00090    0.00094   -0.00226
AG3   3    0.500000    0.583874    0.500000    10.25000    0.03058    0.01815 =
         0.03841    0.00000    0.01589    0.00000
S1    8    0.400555    0.599445    0.300845    10.50000    0.02115    0.02115 =
         0.03286    0.00410   -0.00410    0.00379
C1    1    0.375571    0.624429    0.215716    10.50000    0.04424    0.04424 =
         0.02541    0.00616   -0.00616    0.00128
C2    1    0.394730    0.711704    0.207789    11.00000    0.07977    0.04324 =
         0.05582    0.01599   -0.00879    0.00336
AFIX 137
H2A   2    0.368861    0.741417    0.241974    11.00000   -1.50000
H2B   2    0.376425    0.729713    0.165530    11.00000   -1.50000
H2C   2    0.451046    0.719284    0.210839    11.00000   -1.50000
AFIX   0
C3    1    0.424198    0.575802    0.169503    10.50000    0.06122    0.06122 =
         0.02932    0.00219   -0.00219    0.00739
PART -1
AFIX 137
H3A   2    0.461945    0.545159    0.194148    10.50000   -1.50000
H3B   2    0.451780    0.610131    0.139486    10.50000   -1.50000
H3C   2    0.390184    0.540802    0.145112    10.50000   -1.50000
AFIX   0
PART 0
S2    8    0.602050    0.602050    0.428212    10.50000    0.03254    0.03254 =
         0.03029    0.00346    0.00346   -0.00903
C4    1    0.669964    0.669964    0.466505    10.50000    0.05073    0.05073 =
         0.02614    0.00292    0.00292   -0.01173
C5    1    0.722462    0.621730    0.508918    11.00000    0.10218    0.10084 =
         0.07987    0.01697   -0.04357   -0.02551
AFIX 137
H5A   2    0.742632    0.577628    0.484103    11.00000   -1.50000
H5B   2    0.692984    0.602473    0.546127    11.00000   -1.50000
H5C   2    0.765873    0.653757    0.524072    11.00000   -1.50000
AFIX   0
C6    1    0.714366    0.714366    0.416591    10.50000    0.05704    0.05704 =
         0.03847   -0.00095   -0.00095   -0.02752
PART -1
AFIX 137
H6A   2    0.758544    0.683189    0.401748    10.50000   -1.50000
H6B   2    0.733389    0.763043    0.435390    10.50000   -1.50000
H6C   2    0.680270    0.725972    0.379919    10.50000   -1.50000
AFIX   0
PART 0
O1    7    0.692719    0.600264    0.234768    11.00000    0.04143    0.09019 =
         0.08085    0.04800    0.01123    0.01465
C7    1    0.658381    0.658381    0.215188    10.50000    0.03712    0.03712 =
         0.05817   -0.00146   -0.00146   -0.01323
C8    1    0.695682    0.695682    0.156084    10.50000    0.07035    0.07035 =
         0.06169    0.01356    0.01356    0.00035
F1    4    0.649565    0.736155    0.119960    11.00000    0.11978    0.11794 =
         0.08022    0.04773    0.02234    0.03348
F2    4    0.748523    0.748523    0.169071    10.50000    0.14504    0.14504 =
         0.15426    0.02786    0.02786   -0.04129
N1    6    0.793876    0.515186    0.332789    11.00000    0.01562    0.03003 =
         0.04352    0.00402    0.00839   -0.00245
C9    1    0.830028    0.449103    0.348634    11.00000    0.02544    0.03252 =
         0.03838    0.00085    0.01060    0.00010
AFIX  43
H9    2    0.799130    0.405454    0.360006    11.00000   -1.20000
AFIX   0
C10   1    0.910374    0.440812    0.349369    11.00000    0.02945    0.02510 =
         0.04516    0.01300    0.00508    0.00529
AFIX  43
H10   2    0.933110    0.392549    0.361151    11.00000   -1.20000
AFIX   0
C11   1    0.956693    0.502654    0.333001    11.00000    0.01926    0.02871 =
         0.03213    0.00457    0.00708    0.00132
C12   1    0.918931    0.572905    0.316888    11.00000    0.02379    0.02994 =
         0.03884    0.00841    0.00476   -0.00453
AFIX  43
H12   2    0.948487    0.617868    0.306650    11.00000   -1.20000
AFIX   0
C13   1    0.840723    0.575690    0.316140    11.00000    0.02419    0.03072 =
         0.04618    0.00617    0.00592   -0.00100
AFIX  43
H13   2    0.816726    0.622888    0.303168    11.00000   -1.20000
AFIX   0

PART -2
I1B   5   11.000000    0.815758   10.500000    10.05000    0.08142    0.08955 =
         0.04473   -0.00433   -0.00970    0.00961
PART 0
PART -1
I2    5   11.000000    0.392466   10.500000    10.20000    0.08142    0.08955 =
         0.04473   -0.00433   -0.00970    0.00961
C14   1   11.000000    0.686451   10.500000    10.20000    0.08142    0.08955 =
         0.04473   -0.00433   -0.00970    0.00961
AFIX   3
H14   2    1.000000    0.740481    0.500000    10.20000   -1.20000
AFIX   0
C17   1   11.000000    0.522274   10.500000    10.20000    0.08142    0.08955 =
         0.04473   -0.00433   -0.00970    0.00961
PART 0
PART -2
C14B  1   11.000000    0.686451   10.500000    10.05000    0.08142    0.08955 =
         0.04473   -0.00433   -0.00970    0.00961
C17B  1   11.000000    0.522274   10.500000    10.05000    0.08142    0.08955 =
         0.04473   -0.00433   -0.00970    0.00961
AFIX   3
H17B  2    1.000000    0.461614    0.500000    10.05000   -1.20000
AFIX   0
PART 0
C15   1    0.931714    0.644065    0.484944    10.50000    0.08142    0.08955 =
         0.04473   -0.00433   -0.00970    0.00961
AFIX   3
H15   2    0.884924    0.667475    0.473694    10.50000   -1.20000
AFIX   0
C16   1    0.931336    0.562056    0.485277    10.50000    0.08142    0.08955 =
         0.04473   -0.00433   -0.00970    0.00961
AFIX   3
H16   2    0.884256    0.538346    0.475397    10.50000   -1.20000
AFIX   0
HKLF 4

REM  A in I-42m #121
REM R1 =  0.0552 for    3368 Fo > 4sig(Fo)  and  0.0666 for all    3887 data
REM    183 parameters refined using     34 restraints

END

WGHT      0.0822     55.0179

REM Highest difference peak  3.488,  deepest hole -1.668,  1-sigma level  0.202
Q1    1   1.0000  0.7143  0.5000  10.50000  0.05    3.49
Q2    1   1.0000  1.0000  0.5000  10.12500  0.05    2.12
Q3    1   1.0676  0.9324  0.4801  10.50000  0.05    1.48
;
_shelx_res_checksum              67467
_shelx_hkl_file
;
   0   0  -4  107.41    2.93
   0   0   4  106.20    3.40
   0   0   6 9799.48   34.45
   0   0   6 9673.55   38.41
   0   0   8   77.37    4.03
   0   0  -8   84.77    3.56
   0   0   8   76.84    3.68
   0   0 -10  210.10    6.12
   0   0  10  199.67    7.04
   0   0 -10  212.88    6.96
   0   0  12 1619.56   21.57
   0   0 -12 1620.78   18.14
   0   0  14  111.91    6.21
   0   0 -14  113.38    5.32
   0   0  16    2.39    1.48
   0   0 -16    2.66    1.64
   0   0 -18  300.97    9.38
   0   0  18  331.70   11.92
   0   0  20   18.38    3.24
   0   0  22   27.45    4.03
   0   0  24  147.39    9.33
   0   0  26    9.16    3.02
   0   1   5  706.74    8.75
   1   0  -5  748.62    9.56
  -1   0   5  702.88    8.69
  -1   0  -5  699.09    6.79
   0  -1   5  707.58    9.45
   0   1  -5  769.28    8.39
   1   0   5  699.60    9.67
   1   0   5  711.59    7.26
   0  -1  -5  726.22    8.12
   0  -1   7   48.70    3.10
   0   1   7   53.17    3.08
   1   0  -7   50.89    3.04
   1   0   7   49.96    3.21
   0  -1  -7   51.31    2.70
   1   0  -7   53.13    3.00
  -1   0  -7   50.71    2.37
  -1   0   7   53.10    3.19
  -1   0   7   48.92    2.87
   0   1   7   51.67    2.79
   1   0   7   56.85    2.69
   0   1  -7   49.46    2.76
   1   0  -9  602.80   10.53
  -1   0  -9  590.80    8.86
   0  -1  -9  569.54    9.55
  -1   0   9  556.37   10.77
   0   1   9  573.01   10.23
   1   0  -9  627.66   11.11
   1   0   9  572.20   11.69
   0   1  -9  607.38   10.13
   0   1   9  582.46   11.22
   0  -1   9  554.92   11.29
  -1   0   9  594.28   11.09
   0  -1 -11  282.52    7.39
   1   0 -11  292.82    8.44
   1   0 -11  279.77    7.80
  -1   0 -11  301.97    7.06
   1   0  11  278.51    8.87
   0   1  11  266.71    8.38
   0  -1  11  284.50    8.94
   0   1 -11  291.95    7.58
  -1   0  11  276.76    8.47
   0   1  11  278.03    7.89
   0   1  13   75.69    4.54
   1   0  13   74.47    5.10
   0   1 -13   75.78    4.19
  -1   0 -13   80.30    4.08
   0  -1 -13   72.41    4.14
   0   1  13   70.40    4.74
   1   0 -13   83.73    4.69
  -1   0  13   76.37    4.93
   0  -1  13   77.36    5.12
   1   0 -15   -0.23    1.45
   0  -1 -15   -0.74    1.35
  -1   0 -15    0.90    1.24
  -1   0  15    0.29    1.25
   1   0  15    0.08    1.30
   0   1  15   -1.43    1.30
   0  -1  15    1.62    1.22
   0   1 -15   -0.03    1.35
  -1   0 -17    0.64    1.33
   0   1 -17   -0.58    1.50
  -1   0  17    3.05    1.79
   0   1  17    1.85    1.53
   1   0  17    1.32    1.44
   1   0 -17    1.52    1.70
   0  -1  17   -1.05    1.39
   0  -1  19   62.01    5.53
   0   1 -19   62.27    4.61
  -1   0  19   56.59    5.15
   1   0 -19   60.47    4.68
   1   0  19   62.89    5.51
   0   1  19   50.37    4.85
   0   1 -21   24.24    3.13
  -1   0  21   24.67    3.75
   0   1  21   28.20    3.93
   0  -1  21   28.75    4.06
   1   0  21   22.68    3.65
   0  -1  23    1.28    1.70
   1   0  23    0.67    1.93
  -1   0  23    0.93    1.90
   0   1  23    3.23    1.88
  -1   0  25   39.64    5.19
   0  -1  25   50.87    6.03
   1   0  25   50.03    5.93
   0   1  25   49.61    5.79
  -1   0  27    4.01    2.14
   0  -1  27    6.28    2.93
   1   0  27    3.60    2.43
   0   1  27    7.78    2.94
   1  -1  26    2.21    2.00
  -1   1  26   -0.18    1.87
   1  -1  24   29.12    4.29
  -1   1  24   24.21    4.07
  -1   1  22   48.85    5.16
   1   1 -22   51.77    4.64
   1  -1  22   50.50    5.44
   1   1 -20    0.96    1.48
  -1   1  20   -0.03    1.77
   1  -1  20    0.60    1.73
   1   1 -20    1.69    1.19
  -1   1  18    7.59    2.25
   1  -1  18    7.54    2.22
   1   1 -18   10.57    2.36
   1  -1  16    4.84    1.90
  -1   1  16    8.66    2.13
   1   1 -16    5.75    1.90
   1  -1  14   25.60    3.26
   1   1 -14   25.16    2.89
  -1   1  14   23.69    2.93
   1  -1  12    5.47    1.68
   1   1 -12    5.08    1.47
  -1   1  12    3.87    1.40
  -1   1  12    5.08    1.88
  -1   1  10  135.12    5.59
   1   1 -10  126.03    5.23
  -1  -1 -10  124.72    4.37
   1  -1  10  130.66    5.95
   1   1 -10  133.89    5.62
  -1   1  10  133.50    5.61
  -1   1   8  188.54    5.83
   1  -1   8  190.14    6.54
  -1   1   8  194.35    6.12
   1   1  -8  199.58    6.04
   1   1  -6  128.94    4.37
  -1   1   6  117.26    4.00
   1  -1   6  120.58    4.64
  -1   1   4   34.97    1.78
   1   1  -4   35.69    1.53
   1  -1   4   36.27    2.22
  -1  -1   4   35.49    1.81
   1  -1  -4   38.23    2.10
   1   1   4   36.54    1.42
   1   1   6  141.54    4.41
  -1   1  -6  152.44    3.71
   1   1   6  148.40    3.66
   1  -1  -6  146.56    4.30
  -1  -1   6  146.23    4.50
   1  -1  -6  146.45    4.53
  -1  -1   8  191.84    6.04
  -1   1  -8  203.58    5.10
   1  -1  -8  200.52    5.80
   1  -1  -8  195.00    5.82
   1   1   8  186.70    6.02
   1   1   8  204.37    5.30
   1   1  10  136.51    4.98
   1   1  10  129.21    5.72
   1  -1 -10  133.53    5.34
  -1  -1  10  128.05    5.64
  -1   1 -10  138.91    4.73
   1   1  12    6.70    1.87
   1  -1 -12    6.74    1.80
  -1  -1  12    5.51    1.51
  -1   1 -12    5.00    1.41
   1   1  12    5.64    1.56
   1  -1 -14   24.57    2.89
   1   1  14   17.61    2.62
  -1  -1  14   24.11    3.04
  -1   1 -14   22.99    2.52
   1   1  16    5.24    1.80
   1  -1 -16    5.73    1.78
  -1   1 -16    4.16    1.55
  -1  -1  16    6.66    1.98
   1   1  18   10.19    2.47
  -1  -1  18    9.04    2.29
  -1   1 -18   12.27    2.23
   1   1  20    2.43    1.95
  -1   1 -20    1.34    1.29
  -1  -1  20    1.56    1.68
   1   1  22   53.08    5.53
  -1  -1  22   52.37    5.43
   1   1  24   25.19    4.25
  -1  -1  24   32.30    4.65
  -1  -1  26    4.05    2.67
   1   1  26   -1.29    2.15
   0   2  -4  189.51    2.68
   0  -2   4  185.54    4.41
   2   0  -4  188.95    5.13
  -2   0   4  185.35    3.62
   0  -2   6 1366.09    8.86
   0  -2   6 1369.53   14.52
   2   0  -6 1434.80   15.44
  -2   0   6 1372.11   12.53
   2   0  -6 1405.20   12.61
   0   2   6 1366.55   12.42
   2   0  -6 1389.14    8.52
  -2   0  -6 1349.73    8.69
   2   0   6 1337.25   14.54
   0   2   8   26.75    2.18
  -2   0  -8   27.74    1.73
   2   0  -8   27.90    2.39
   2   0  -8   29.97    2.80
   0   2  -8   30.63    2.34
   0  -2   8   28.65    1.70
   0  -2   8   27.96    2.57
  -2   0   8   31.15    2.86
  -2   0   8   29.27    2.36
   2   0   8   29.80    2.74
   0   2   8   24.89    2.29
   0   2  10  165.46    5.70
   0   2 -10  177.71    5.82
  -2   0  10  166.01    6.13
   0  -2  10  171.62    6.77
  -2   0 -10  164.99    4.59
   2   0  10  168.66    6.82
   0  -2  10  162.71    4.44
   2   0 -10  185.05    6.32
   2   0 -10  184.42    6.55
   0   2  10  168.54    6.24
   2   0  12  168.61    7.36
   0   2 -12  164.42    6.14
   2   0 -12  169.71    6.69
   0  -2  12  170.98    7.35
  -2   0 -12  167.33    5.09
   0   2  12  165.60    6.40
   0   2  12  159.69    6.70
  -2   0  12  164.83    6.73
   2   0 -14   81.81    5.06
   0  -2  14   86.50    5.69
  -2   0  14   86.97    5.36
   2   0  14   86.30    5.70
   0  -2  14   77.21    3.77
  -2   0 -14   81.88    3.96
   0   2 -14   80.37    4.61
   0   2  14   76.52    5.10
   2   0  16   18.36    3.39
   0  -2  16   17.14    2.07
   0   2 -16   23.24    2.83
  -2   0  16   20.61    3.09
   0  -2  16   21.41    3.22
   0   2  16   21.33    3.07
   2   0 -16   21.55    3.01
   0  -2  18   38.72    4.40
   0   2  18   37.95    4.10
  -2   0  18   37.72    4.14
   2   0  18   36.67    4.28
   2   0 -18   33.39    3.68
   0   2 -18   33.59    3.46
   0   2 -20   41.49    3.92
  -2   0  20   42.19    4.64
   2   0  20   38.09    4.63
   2   0 -20   41.29    4.16
   0  -2  20   44.81    5.02
   2   0 -20   46.18    3.73
   0   2  20   46.63    4.89
   0   2 -22    4.63    2.02
   0  -2  22    0.66    1.57
   0   2  22    1.40    1.61
   2   0  22    2.57    2.02
   0   2 -22   -0.05    1.30
  -2   0  22    2.00    1.96
  -2   0  24   28.06    4.36
   2   0  24   27.82    4.33
   0   2  24   27.15    4.14
   0  -2  24   32.29    4.70
   0   2  26    3.78    2.47
   0  -2  26    7.46    2.86
   2   0  26    4.26    2.21
  -2   0  26    2.27    2.15
  -2   1  27    0.32    1.90
  -1   2  27   -1.02    1.98
  -1   2  25   18.18    3.77
  -2   1  25   12.74    3.18
   1  -2  25   22.01    4.34
   2  -1  25   15.88    3.70
   2   1 -23    1.63    1.61
   1   2 -23    8.58    2.46
  -2   1  23    3.98    2.02
   2  -1  23    3.56    2.07
  -1   2  23    2.39    1.68
   1  -2  23    5.87    2.40
  -1   2  21   10.21    2.76
   1   2 -21    4.17    1.61
   1  -2  21    7.04    2.29
  -2   1  21    5.17    2.31
   2  -1  21    7.50    2.50
   1   2 -21    6.74    2.21
   2   1 -21    8.51    2.56
   2   1 -19   51.05    4.54
   2   1 -19   53.43    4.03
   1   2 -19   56.07    4.36
   2  -1  19   51.54    5.15
  -1   2  19   45.90    4.59
   1  -2  19   44.70    4.86
  -2   1  19   52.22    4.93
   1   2 -19   51.58    4.40
   1  -2  17    4.63    1.84
   2   1 -17    6.70    1.60
   2  -1  17    6.19    2.12
   2   1 -17    5.50    1.93
  -1   2  17    6.84    2.05
  -2   1  17    5.08    1.82
   1   2 -17    9.00    1.97
   1   2 -17    7.19    2.14
   2   1 -15  152.63    5.76
   1   2 -15  141.50    6.47
   2  -1  15  160.58    7.95
   1  -2  15  150.38    7.73
  -1   2  15  143.64    6.94
  -2   1  15  149.41    7.19
   2   1 -15  159.60    7.07
  -1   2  13   38.38    3.49
   1  -2  13   34.02    3.67
   2  -1  13   29.25    3.30
   1   2 -13   32.75    3.21
   2   1 -13   30.48    3.19
  -2   1  13   35.44    3.29
   2   1 -11  141.60    4.62
  -1   2  11  145.63    6.02
  -2   1  11  144.58    5.92
   2  -1  11  136.18    6.48
   1  -2  11  143.99    6.62
   2   1 -11  142.90    5.97
  -1   2  11  141.16    6.03
   1   2 -11  130.24    5.58
   2   1 -11  140.21    6.07
  -2   1  11  141.58    6.30
   2  -1   9  325.53    9.19
  -2   1   9  321.43    8.71
   2   1  -9  324.25    7.94
   2   1  -9  313.15    6.07
   1  -2   9  311.74    8.81
  -1   2   9  304.11    7.82
  -1   2   9  303.25    7.82
   2   1  -9  313.81    8.38
   1   2  -9  312.69    7.73
  -2   1   9  304.15    7.60
   1  -2   7   36.08    2.81
   2   1  -7   34.48    2.35
   2   1  -7   33.76    1.78
   2   1  -7   38.53    2.96
   2  -1   7   33.77    2.83
   1   2  -7   34.43    2.18
  -1   2   7   32.91    2.40
  -1   2   7   29.64    2.18
  -2   1   7   35.25    2.36
   1  -2   7   29.84    1.26
   1   2  -5  358.68    5.89
  -1   2   5  333.57    5.44
   2   1  -5  361.32    4.70
   1  -2   5  355.00    7.18
   2  -1   5  355.52    7.51
   2   1  -5  365.90    7.38
  -2   1   5  330.75    5.40
   1   2  -3  124.61    2.67
   1   2  -3  118.89    2.95
  -2   1   3  114.22    2.09
   2  -1   3  124.47    3.60
  -1   2   3  111.21    2.04
   2   1  -3  117.76    3.04
   2   1  -3  118.40    2.37
   1  -2   3  117.65    3.34
   2  -1  -3  126.08    3.72
   2  -1  -3  122.39    2.25
   1  -2  -3  119.18    2.08
   2  -1  -5  347.55    7.12
   2   1   5  344.37    4.06
  -2  -1   5  335.38    5.89
   2  -1  -5  358.84    5.76
  -1  -2   5  334.79    6.33
  -1  -2   5  349.97    5.06
   1  -2  -5  355.27    4.12
  -2   1  -7   41.61    1.98
   2   1   7   37.87    1.86
   1   2   7   36.61    2.12
   2   1   7   37.81    2.63
  -1  -2   7   37.80    2.65
  -2  -1   7   36.22    2.46
   2  -1  -7   41.88    2.52
   2  -1  -7   40.87    2.93
  -1  -2   7   38.88    2.06
   2   1   9  324.24    6.49
  -1  -2   9  317.01    8.32
  -1  -2   9  315.57    6.39
   2   1   9  314.27    8.36
   2  -1  -9  325.23    7.67
  -2  -1   9  323.51    8.04
   2  -1  -9  316.10    8.21
   1   2   9  318.24    6.85
  -2   1  -9  335.22    6.15
  -1   2  -9  308.77    6.58
   1   2   9  308.73    7.88
  -2  -1  11  126.40    5.72
  -2   1 -11  137.99    4.45
   1   2  11  123.77    5.75
   2  -1 -11  137.62    5.53
   2   1  11  137.18    6.28
  -1  -2  11  125.98    5.94
   2  -1 -11  133.20    5.83
  -1   2 -11  129.60    4.94
  -1  -2  11  129.61    4.62
   1   2  11  129.76    5.12
   2   1  11  138.92    4.88
  -2  -1  13   36.43    3.58
  -1  -2  13   33.76    3.50
   2  -1 -13   34.61    3.39
   2   1  13   28.86    3.27
   1   2  13   38.26    3.65
   1   2  13   35.75    3.12
  -1   2 -13   33.38    2.83
  -1  -2  13   32.63    2.68
  -2   1 -13   38.86    2.74
   2   1  15  137.18    7.39
  -1   2 -15  139.24    5.73
   1   2  15  148.59    6.41
   2  -1 -15  145.16    6.80
  -1  -2  15  154.73    7.70
   1   2  15  147.80    7.42
  -1  -2  15  140.06    5.61
  -2  -1  15  148.17    7.38
  -2   1 -15  154.80    5.60
   1   2  17    8.34    2.24
   2   1  17    6.60    2.07
  -1  -2  17    6.04    1.72
  -2   1 -17    6.95    1.79
   2  -1 -17    6.86    2.31
  -1   2 -17    8.88    2.05
  -2  -1  17    4.96    1.86
  -1  -2  17    4.06    1.78
  -1  -2  19   52.40    5.20
  -1   2 -19   50.69    3.99
   2   1  19   54.02    5.27
   1   2  19   50.53    5.00
  -2  -1  19   59.59    5.46
   1   2  21    6.47    2.33
  -1   2 -21    7.42    2.02
  -1  -2  21    9.51    2.70
   2   1  21    7.79    2.64
  -2  -1  21    3.72    1.99
  -2  -1  23    4.80    2.13
   1   2  23    3.55    2.02
   2   1  23    2.22    2.18
  -1  -2  23    3.93    2.19
  -1  -2  25   13.47    3.26
   2   1  25   14.80    3.37
  -2  -1  25   13.80    3.19
   1   2  25    8.42    2.66
  -2  -1  27    0.63    1.85
  -1  -2  27    1.06    1.80
   1   2  27    2.26    2.36
  -2   2  28   -2.24    2.70
   2  -2  26    0.96    1.94
  -2   2  26   -0.92    1.85
   2  -2  24    2.99    2.20
   2   2 -24    5.72    2.27
  -2   2  24    3.19    2.06
   2   2 -22   30.52    3.93
   2  -2  22   20.68    3.88
  -2   2  22   20.50    3.55
  -2   2  20   41.92    4.51
   2   2 -20   47.10    4.10
   2  -2  20   31.22    4.31
   2   2 -20   48.37    4.64
   2  -2  18   31.38    4.07
   2   2 -18   32.67    3.71
  -2   2  18   30.93    3.63
   2   2 -18   31.73    3.20
   2   2 -16   41.04    3.98
   2   2 -16   43.20    3.45
   2  -2  16   42.82    4.42
  -2   2  16   43.94    4.02
   2  -2  14  117.05    6.70
   2   2 -14  115.38    5.11
  -2   2  14  119.83    6.06
   2   2 -14  115.28    6.06
   2   2 -12  274.66    8.76
   2  -2  12  266.63    9.42
  -2   2  12  289.85    8.64
   2   2 -12  279.81    7.21
   2   2 -10  415.81    7.96
   2   2 -10  425.22    9.69
   2   2 -10  416.18   10.03
   2  -2  10  424.94   11.00
  -2   2  10  423.63   10.35
  -2   2  10  410.03    9.21
  -2   2   8  141.34    5.42
   2   2  -8  140.33    4.18
   2   2  -8  150.09    5.15
   2  -2   8  141.36    5.88
   2   2  -8  151.52    5.56
  -2   2   8  136.21    4.73
   2   2  -6  175.93    4.14
   2  -2   6  177.04    5.82
  -2   2   6  165.03    4.35
   2   2  -4  112.09    2.98
   2   2  -4  113.76    3.19
   2  -2   4  114.16    4.03
  -2   2   4  108.71    2.65
  -2   2   2  207.41    2.83
   2   2  -2  214.93    3.84
   2  -2   2  217.78    4.29
   2  -2   0   64.51    2.16
  -2  -2   4  125.71    3.22
   2  -2  -6  186.60    5.51
  -2  -2   6  187.43    4.57
  -2  -2   8  147.38    4.56
   2   2   8  139.81    3.89
   2  -2  -8  136.98    5.25
  -2  -2   8  137.10    5.05
  -2   2 -10  415.71    7.54
  -2  -2  10  407.95    8.36
  -2  -2  10  441.06   10.21
   2   2  10  408.85    9.77
   2  -2 -10  376.44    9.30
   2   2  10  408.11    7.70
   2   2  12  289.23    7.47
  -2   2 -12  299.09    7.10
  -2  -2  12  278.69    7.51
  -2  -2  12  306.43    9.42
   2  -2 -12  271.44    8.49
   2   2  12  287.23    9.22
   2  -2 -14  114.75    5.91
  -2  -2  14  119.14    5.36
  -2  -2  14  110.79    6.26
   2   2  14  111.82    6.39
  -2   2 -14  121.26    4.90
   2   2  14  117.96    5.26
   2   2  16   42.58    4.40
  -2   2 -16   39.88    3.13
  -2  -2  16   45.75    4.48
  -2   2 -18   32.64    2.98
   2   2  18   31.79    3.96
  -2  -2  18   34.13    4.04
  -2  -2  20   38.74    4.64
   2   2  20   48.72    5.18
  -2   2 -20   43.16    3.56
   2   2  22   26.79    4.16
  -2  -2  22   24.53    4.08
  -2  -2  24   -0.38    1.80
   2   2  24    6.39    2.56
  -2  -2  26   -0.10    1.80
   2   2  26    0.11    1.92
   3   0   1    0.42    0.60
   3   0   1    1.67    0.71
   3   0  -1    0.72    0.74
   0   3  -1    1.53    0.71
   3   0  -1    1.40    0.87
  -3   0   1    1.42    0.49
   3   0  -1    1.66    0.70
   0   3   1    0.61    0.53
   3   0  -3 1583.22   15.04
  -3   0   3 1623.09    7.50
   0   3   3 1569.82   10.59
   0   3  -5   79.27    3.30
   0   3  -5   86.35    2.11
   3   0  -5   71.93    1.56
   0  -3  -5   86.91    2.73
   3   0  -5   79.01    2.61
   3   0  -5   89.22    4.23
   0  -3   5   84.42    3.42
  -3   0   5   78.08    1.68
   0  -3   7   83.29    3.99
   3   0  -7   87.79    2.10
   3   0   7   85.28    4.13
   3   0  -7   90.81    4.57
   0   3   7   82.44    3.45
  -3   0   7   87.47    3.42
   3   0  -7   86.67    3.39
   0  -3   9    8.29    1.68
   0   3   9   10.50    1.61
  -3   0   9    8.74    1.51
   0   3   9   10.78    1.68
   3   0  -9    8.69    0.94
  -3   0   9    9.00    1.98
   3   0  -9    7.07    1.40
   0  -3   9   11.63    1.29
   3   0   9    9.21    1.87
   3   0  -9    8.61    1.89
   0   3  11   28.44    2.73
   3   0 -11   33.18    3.26
   3   0  11   29.41    3.19
   0   3  11   25.77    2.50
   3   0 -11   31.51    2.80
   0  -3  11   32.21    2.05
   0   3 -11   28.45    2.67
   3   0 -11   30.51    1.86
  -3   0  11   25.78    2.62
   0  -3  11   30.93    3.19
   0   3 -13   20.44    2.67
   3   0 -13   19.45    1.80
   3   0  13   20.54    2.93
   3   0 -13   21.54    3.07
   0   3  13   17.74    2.59
   0  -3  13   17.89    1.82
   0   3  13   20.05    2.70
  -3   0  13   18.27    2.58
   0  -3  13   15.08    2.83
   0   3 -15    1.74    1.52
   3   0 -15    3.75    1.75
   3   0  15    0.81    1.46
   0  -3  15    3.44    1.89
   0  -3  15    1.32    1.21
   3   0 -15    1.86    0.93
  -3   0  15    1.64    1.35
   0   3  15    3.38    1.43
   3   0 -17   22.36    2.31
   3   0  17   16.47    2.90
  -3   0  17   21.38    3.17
   3   0 -17   17.13    2.96
   0   3  17   17.81    2.97
   0   3 -17   19.42    2.82
   0  -3  17   24.35    3.64
   3   0 -19   17.78    2.41
   0   3  19   13.93    2.85
   0   3 -19   23.35    3.20
   3   0  19   14.29    2.98
   0  -3  19   14.13    2.99
  -3   0  19   14.81    3.05
   3   0 -19   16.14    3.11
   0   3 -19   16.33    2.72
   0   3  21    2.63    1.97
   0   3 -21    1.10    1.42
   0  -3  21    1.60    1.73
   0   3 -21   -0.70    1.49
  -3   0  21   -0.49    1.62
   3   0  21    1.87    1.92
   3   0 -21   -0.07    1.83
   0  -3  23    1.51    1.92
  -3   0  23   -1.33    1.86
   0   3  23    2.97    1.80
   0   3 -23    1.08    1.40
   0  -3  25    3.26    2.30
   3   0  25    5.29    2.76
   0   3  25    1.09    1.75
  -3   0  25   -2.02    2.12
   0   3  27    3.20    2.58
  -1   3  28    4.65    2.54
  -3   1  28   -3.04    2.63
   1  -3  26   -0.66    2.08
   3  -1  26    2.13    2.31
  -3   1  26    2.65    2.15
  -1   3  26   -0.21    1.68
   3   1 -24    1.99    2.17
  -3   1  24    2.59    1.87
  -1   3  24   -1.11    2.10
   3  -1  24   -0.67    1.96
   1  -3  24    0.81    1.75
   1  -3  22   10.00    2.85
   1   3 -22    6.71    2.32
  -1   3  22   10.90    2.80
  -3   1  22    7.75    2.47
   1   3 -22   10.34    2.50
   3  -1  22    8.77    2.66
   3   1 -22   11.03    2.70
  -1   3  20   35.64    4.20
   1   3 -20   41.82    4.28
   3  -1  20   34.98    4.55
  -3   1  20   42.07    4.62
   1  -3  20   37.55    4.73
   3   1 -20   40.10    3.58
   3   1 -20   41.71    4.45
   1   3 -20   39.29    3.95
   1   3 -18   29.46    3.46
  -1   3  18   37.08    4.00
   1   3 -18   38.44    3.73
   3   1 -18   37.89    3.18
  -3   1  18   34.35    3.91
   1  -3  18   42.50    4.69
   3  -1  18   32.98    4.18
   3   1 -18   27.55    3.60
   3   1 -16   34.04    2.79
   3   1 -16   31.03    3.65
  -3   1  16   36.27    3.79
  -1   3  16   36.89    3.75
   1  -3  16   31.40    2.35
   1   3 -16   33.74    3.60
   3  -1  16   34.78    4.11
   1  -3  16   33.19    3.90
   1   3 -16   39.18    3.60
   3   1 -14   43.39    3.96
   1   3 -14   41.28    3.71
   1  -3  14   39.27    2.31
  -1   3  14   39.90    3.65
   3   1 -14   45.29    2.92
   1   3 -14   45.87    3.57
   3  -1  14   41.81    4.17
  -3   1  14   42.63    3.69
   1  -3  14   45.74    4.32
   3   1 -12   99.09    5.56
   1   3 -12   93.89    4.64
  -3   1  12   97.91    5.00
  -1   3  12   98.70    5.17
   3  -1  12  106.33    6.12
   3   1 -12  101.92    3.85
   1   3 -12   98.44    5.15
   1  -3  12   93.94    3.04
   1  -3  12  102.44    5.90
   1  -3  10  228.41    3.99
   1   3 -10  238.85    7.18
   3   1 -10  244.72    8.16
  -1   3  10  234.37    7.12
   1  -3  10  224.43    7.94
   1   3 -10  230.23    6.64
  -3   1  10  232.93    8.12
   3   1 -10  248.60    7.16
  -1   3  10  237.22    7.08
   3  -1  10  226.94    8.20
  -3   1  10  233.21    6.80
   3   1 -10  239.17    5.17
  -1   3   8   84.05    3.91
   1   3  -8   87.34    3.83
   1  -3   8   87.43    4.53
  -1   3   8   83.00    3.61
   3   1  -8   87.02    3.80
   3   1  -8   86.13    2.74
   3   1  -8   91.26    4.80
  -3   1   8   84.87    3.57
   3  -1   8   79.53    4.49
   1  -3   6   10.31    1.62
   3   1  -6   12.98    1.03
   3  -1   6   11.70    1.77
   3   1  -6   12.92    2.06
   1   3  -6   10.62    1.13
   1   3  -6   11.91    1.45
   3   1  -6   11.37    1.33
  -3   1   6   10.28    1.14
   3  -1   4  200.21    5.14
  -1   3   4  186.18    3.40
   3   1  -4  194.87    3.29
   1   3  -4  198.19    4.64
   3   1  -4  204.05    5.74
   1  -3   4  202.89    4.94
   1   3  -2  258.96    4.81
   3   1  -2  245.91    4.10
   3   1  -2  243.32    4.72
   1  -3   2  241.94    4.35
  -1  -3  -2  245.48    4.38
   3   1  -2  243.51    3.74
  -1   3   2  241.05    3.92
   3  -1   2  236.45    3.65
   1   3   0  185.08    3.94
   3  -1   0  200.32    4.06
  -1   3   0  184.62    3.84
   1  -3   0  185.33    3.18
  -3  -1   0  186.79    3.61
   3  -1   0  193.16    3.67
   1   3   2  226.52    4.36
   3  -1  -2  237.28    4.68
  -3   1  -2  258.91    3.21
   3  -1  -2  238.11    5.11
   1  -3  -2  243.17    3.18
  -1   3  -2  230.34    4.82
  -3  -1   4  175.48    3.25
   3  -1  -4  188.75    5.44
   3  -1  -4  182.86    3.08
   1  -3  -4  182.22    3.32
  -1  -3   6    8.30    1.33
   3  -1  -6   10.24    1.14
   1  -3  -6    9.02    0.93
  -3  -1   6   11.84    1.56
   3  -1  -6    8.97    1.75
   3   1   6    9.05    0.73
   1  -3  -8   79.91    2.75
   3   1   8   86.55    2.75
   3   1   8   87.80    4.29
   1   3   8   92.59    3.64
  -3   1  -8   90.60    2.55
   3  -1  -8   82.74    4.47
  -1  -3   8   92.09    3.20
  -1  -3   8   87.63    4.27
  -3  -1   8   89.76    3.90
  -3  -1   8   87.17    4.06
   3  -1  -8   94.33    3.83
   3   1  10  243.07    5.42
   1   3  10  222.80    6.95
   3  -1 -10  233.97    7.78
   3  -1 -10  247.03    6.96
   3  -1 -10  221.10    4.03
  -1  -3  10  230.71    5.51
   3   1  10  228.64    7.68
  -3   1 -10  242.34    4.86
  -3  -1  10  242.13    7.23
  -1  -3  10  243.42    7.89
   1   3  10  228.81    6.31
  -3   1 -12   97.48    3.58
   3  -1 -12  108.36    5.05
   3   1  12   94.11    5.58
  -3  -1  12   98.33    5.19
   1   3  12   88.86    4.45
  -1   3 -12   90.96    4.42
   1   3  12   95.29    5.21
  -1  -3  12   96.54    3.99
  -1  -3  12   89.55    5.39
   3  -1 -12   97.71    5.43
  -1   3 -14   40.20    3.37
   3   1  14   38.56    3.96
   1   3  14   39.36    3.50
  -3   1 -14   42.66    2.74
  -1  -3  14   35.80    2.84
   3  -1 -14   45.36    4.16
  -3  -1  14   42.51    3.95
   1   3  14   39.18    3.82
  -1  -3  14   42.63    4.19
   1   3  16   31.53    3.71
   3  -1 -16   27.60    3.55
  -1   3 -16   35.90    3.32
  -1  -3  16   29.56    2.79
  -1  -3  16   34.65    4.02
  -3   1 -16   33.37    2.65
   3  -1 -16   36.34    2.55
   3   1  16   30.76    3.88
  -3  -1  16   34.72    3.82
   1   3  18   24.55    3.48
   3   1  18   25.76    3.65
  -1   3 -18   37.15    3.48
   3  -1 -18   36.79    2.85
   3  -1 -18   32.08    3.78
  -1  -3  18   34.26    4.20
  -3  -1  18   30.94    3.88
   3   1  20   36.18    4.61
   3  -1 -20   35.06    4.08
  -3  -1  20   38.78    4.59
  -1  -3  20   38.32    4.79
  -1   3 -20   37.74    3.66
   1   3  20   34.67    4.36
  -1   3 -22    5.97    1.97
  -1  -3  22   12.25    3.07
   1   3  22    7.01    2.48
  -3  -1  22   12.88    2.93
   3   1  22    9.64    2.82
  -1   3 -22   10.14    2.35
   1   3  24   -2.95    1.99
  -3  -1  24   -2.85    2.39
  -1  -3  24   -2.55    2.46
   3   1  24    1.91    1.97
   1   3  26    1.56    2.13
   3   1  26   -0.14    1.86
  -1  -3  26   -1.29    1.89
  -3   2  27   -0.90    2.09
  -2   3  27    0.93    1.85
  -2   3  25   -0.03    1.52
  -3   2  25   -0.11    2.09
   2  -3  25    0.91    2.33
   3   2 -25    1.54    1.95
   3  -2  25    2.33    2.22
  -3   2  23    7.90    2.53
   3  -2  23   10.01    2.88
   2  -3  23   11.31    3.10
   2   3 -23   13.28    2.84
  -2   3  23    8.39    2.54
   3   2 -23    9.52    2.69
   2   3 -21   29.30    3.83
  -3   2  21   36.38    4.35
   3  -2  21   27.73    4.17
   2  -3  21   26.90    4.09
   2   3 -21   35.10    3.80
   3   2 -21   33.75    4.14
  -2   3  21   31.21    4.13
  -3   2  19   25.52    3.58
  -2   3  19   27.31    3.47
   2  -3  19   31.28    4.32
   3  -2  19   35.33    4.45
   2   3 -19   30.45    3.34
   3   2 -19   28.38    3.64
   2   3 -19   25.13    3.40
   3   2 -19   29.80    3.19
   2  -3  17   61.91    5.47
   3   2 -17   64.65    5.07
  -2   3  17   70.62    5.19
  -3   2  17   69.45    5.14
   3   2 -17   69.86    4.32
   3  -2  17   69.69    5.75
   2   3 -17   68.96    4.60
   2   3 -17   69.45    5.25
   2  -3  15  240.49    9.95
   3  -2  15  246.81   10.09
  -3   2  15  250.86    8.93
   3   2 -15  230.93    9.01
   2   3 -15  217.98    8.63
  -2   3  15  230.82    8.52
   3   2 -15  223.42    6.99
   2  -3  15  198.32    4.43
   2   3 -15  233.15    7.80
  -2   3  13  112.75    5.62
   2  -3  13  114.63    6.55
   2  -3  13  102.01    2.80
   2   3 -13  115.03    5.12
   2   3 -13  110.98    5.88
   3   2 -13  117.82    4.71
   3  -2  13  121.84    6.74
  -3   2  13  119.39    5.72
   3   2 -13  116.37    6.20
  -3   2  11  173.00    6.19
   2  -3  11  164.16    7.25
   2   3 -11  158.20    5.52
   3  -2  11  168.80    7.44
  -2   3  11  165.87    6.17
   3   2 -11  168.31    7.09
   2   3 -11  166.16    6.60
   3   2 -11  161.12    4.96
   3   2  -9  522.34    9.97
  -2   3   9  486.80   10.26
  -2   3   9  493.27    9.42
  -3   2   9  470.64    8.89
   3   2  -9  502.84   11.16
   3  -2   9  495.50   11.74
   3   2  -9  495.41    7.73
  -3   2   9  507.59   11.33
   2   3  -9  503.28    8.92
   2  -3   9  479.65   11.31
   3  -2   7  357.01    9.11
  -3   2   7  346.75    6.34
   3   2  -7  365.23    7.45
   3   2  -7  358.21    8.63
   3   2  -7  354.56    5.91
  -2   3   7  332.44    6.56
   2  -3   7  349.04    8.67
   2   3  -7  361.54    6.94
   3   2  -5    6.20    1.22
  -2   3   5    9.66    0.96
   2   3  -5    8.58    1.13
  -2   3   5    7.96    0.72
   3  -2   5    6.31    1.40
   2  -3   5    9.51    1.60
  -3   2   5    8.77    0.88
   3   2  -5    9.02    1.04
   2   3  -5    8.54    1.24
   3   2  -3  774.32    7.79
  -2   3   3  740.66    4.96
  -2   3   3  743.32    6.36
   3  -2   3  767.17    9.88
   3   2  -3  790.33    8.97
   2   3  -3  773.84    8.70
   2  -3   3  776.26    9.08
   3   2  -1   60.15    2.24
  -2   3   1   59.89    2.13
   3   2  -1   64.36    1.95
   3  -2   1   61.53    2.25
  -2  -3  -1   60.88    2.40
   2  -3   1   57.39    1.90
  -3  -2  -1   60.09    2.41
   2   3  -1   61.44    2.43
   2  -3  -1   61.42    2.33
   2   3   1   64.75    2.52
   3  -2  -1   66.83    2.66
  -3  -2   3  773.90    7.96
   2  -3  -3  775.06    6.47
  -3   2  -3  765.03    5.64
   3  -2  -5   12.62    1.07
  -3  -2   5   12.13    1.18
  -3  -2   5   13.93    1.66
  -2  -3   5   11.92    1.31
   2  -3  -5   11.13    0.83
   3  -2  -5   12.68    1.83
   2  -3  -7  362.23    4.53
  -3  -2   7  364.08    7.38
   3  -2  -7  363.56    8.65
   3  -2  -7  374.82    6.57
   2  -3  -9  513.48    6.18
   3  -2  -9  531.81    9.17
   3  -2  -9  480.77   10.81
  -3   2  -9  518.46    6.96
  -2  -3   9  518.91    8.65
  -2  -3   9  505.69   10.51
   2   3   9  505.86    8.36
  -3  -2   9  521.15    9.66
   3   2   9  500.90    7.14
   2   3  11  170.66    6.60
  -2  -3  11  170.37    5.50
  -3   2 -11  174.82    4.76
  -2   3 -11  168.48    5.19
   3   2  11  178.44    5.14
   3  -2 -11  180.65    7.16
  -3  -2  11  179.05    6.74
  -3  -2  11  164.43    5.98
   3   2  11  167.72    6.80
  -2  -3  11  167.33    6.76
   2   3  11  173.09    5.45
  -2  -3  13  113.64    6.16
   3   2  13  115.25    4.66
  -3  -2  13  110.64    5.33
   2   3  13  117.40    5.11
   2   3  13  111.41    6.02
  -3  -2  13  122.91    6.23
  -3   2 -13  121.35    4.31
   3  -2 -13  113.14    6.03
  -2  -3  13  112.43    4.92
   3   2  13  109.13    6.14
  -2   3 -13  125.40    5.07
  -3   2 -15  244.99    6.53
   2   3  15  225.49    7.71
   2   3  15  234.53    9.46
   3  -2 -15  248.95    9.20
  -2  -3  15  233.22    9.46
   3   2  15  238.53    9.76
  -2  -3  15  220.17    7.25
  -2   3 -15  227.07    7.14
  -3  -2  15  243.93    9.50
  -3  -2  17   68.77    5.52
  -2   3 -17   58.81    3.93
  -3   2 -17   66.96    3.76
   2   3  17   64.52    5.44
   3   2  17   58.94    5.34
  -2  -3  17   70.42    5.71
   2   3  19   34.11    4.38
   3   2  19   29.37    4.17
  -3   2 -19   29.48    2.73
  -2   3 -19   30.01    3.01
  -3  -2  19   34.08    4.29
  -2  -3  19   31.78    4.23
  -3  -2  21   34.10    4.57
   2   3  21   27.84    4.13
  -2  -3  21   28.07    4.25
   3   2  21   32.02    4.49
  -2   3 -21   30.32    3.19
  -3  -2  23    7.44    2.55
  -2  -3  23    8.22    2.61
   2   3  23   10.32    2.95
   3   2  23    9.40    2.90
   3   2  25   -1.95    1.96
   2   3  25   -1.01    2.11
   2   3  27    4.91    2.52
  -3   3  26    2.18    1.64
   3  -3  24    4.90    2.41
  -3   3  24    9.83    2.79
   3   3 -24    7.51    2.59
   3   3 -22    7.67    2.57
  -3   3  22    5.33    2.06
   3  -3  22   10.03    3.08
   3   3 -20   59.25    4.63
  -3   3  20   48.00    4.68
   3   3 -20   42.73    4.53
   3  -3  20   52.05    5.46
   3  -3  18  164.76    9.06
   3   3 -18  173.01    7.32
  -3   3  18  171.58    8.09
   3   3 -18  165.97    8.24
   3   3 -16   51.76    3.83
   3  -3  16   38.13    1.63
  -3   3  16   50.34    4.20
   3   3 -16   48.04    4.51
   3  -3  16   51.04    4.93
   3   3 -14  133.53    5.55
   3   3 -14  136.56    7.08
  -3   3  14  139.70    6.29
   3  -3  14  148.16    7.74
   3  -3  12  556.87   13.90
  -3   3  12  549.74   11.36
   3   3 -12  529.47   12.74
   3   3 -12  553.95   10.26
   3   3 -10  491.19   11.35
  -3   3  10  481.13    9.51
   3  -3  10  491.47   12.18
   3   3 -10  478.09    8.72
   3   3  -8   93.35    3.59
   3   3  -8   94.44    4.25
  -3   3   8   85.67    3.50
   3  -3   8   89.26    4.89
   3   3  -6  674.17    9.37
  -3   3   6  634.85    7.49
   3  -3   6  657.68   11.65
   3   3  -6  672.29    8.80
  -3   3   4  733.47    5.79
   3   3  -4  766.91    9.46
   3  -3   4  754.04   10.70
   3   3  -4  750.81    8.92
   3   3  -2   86.06    3.04
  -3   3   2   84.62    2.45
  -3  -3  -2   89.54    3.28
   3  -3   2   88.27    3.01
   3   3   0    1.52    0.83
   3  -3   0    2.69    0.54
  -3   3   0    2.87    0.67
   3  -3   0    2.10    1.10
  -3   3  -2   80.68    3.11
  -3  -3   2   92.00    2.15
  -3  -3   4  785.47    9.34
  -3  -3   6  663.18    9.15
  -3  -3   8   91.28    3.92
   3  -3  -8   65.48    1.59
  -3  -3  10  486.93    9.51
   3   3  10  473.58    7.93
   3  -3 -12  496.64    6.20
  -3  -3  12  535.07   10.78
  -3   3 -12  535.59    9.01
   3   3  12  515.86    9.30
   3   3  12  549.31   12.75
   3   3  14  134.45    7.01
  -3   3 -14  143.63    5.17
  -3  -3  14  152.20    7.34
   3  -3 -14  131.03    3.65
   3   3  14  130.35    5.36
  -3  -3  14  125.11    5.68
  -3  -3  16   49.62    4.66
   3  -3 -16   36.48    2.18
   3   3  16   45.76    3.54
  -3   3 -16   38.36    2.92
   3   3  16   42.95    4.42
   3   3  18  153.67    8.84
  -3   3 -18  154.16    5.87
  -3  -3  18  158.93    8.72
  -3   3 -20   47.31    3.52
   3   3  20   47.26    5.26
   3   3  22   11.35    3.05
   3   3  24    7.77    2.85
   3   3  26    5.39    2.63
   0   4   0   33.47    1.28
   4   0   0   29.44    1.88
   4   0   0   36.02    2.25
   0   4   0   30.67    1.93
   0   4   2    8.12    1.14
   0   4  -2    9.20    1.43
   4   0   2    7.91    0.99
   4   0  -2    8.81    1.35
   0  -4  -2    9.11    1.02
   4   0   2   12.49    1.45
   4   0  -2    8.86    1.78
  -4   0   4    1.96    0.49
   0  -4  -4    1.42    0.71
   0   4   4    2.30    0.74
   0   4  -4    1.81    0.91
   4   0  -4    1.99    1.55
   0   4   4    2.07    0.81
   0  -4   6  304.58    7.16
   0   4  -6  302.50    7.14
   0  -4  -6  305.17    5.68
   4   0  -6  297.81    5.52
   0   4  -6  301.81    4.41
   4   0  -6  306.53    8.32
  -4   0   6  281.57    3.50
   0  -4   8   19.04    2.32
   0  -4  -8   21.23    1.76
   0   4  -8   18.10    2.18
   4   0   8   18.01    2.27
   4   0  -8   15.64    2.37
   4   0  -8   15.20    0.95
   0   4   8   17.25    1.97
   4   0  -8   17.34    1.79
   4   0 -10   29.59    3.25
  -4   0  10   23.53    2.26
   4   0  10   25.64    2.80
   0  -4 -10   28.06    2.16
   0   4  10   26.96    2.51
   0   4  10   25.93    2.38
   0  -4  10   26.92    2.86
   4   0 -10   26.12    1.37
   0   4 -10   26.38    2.65
   4   0 -10   27.04    2.44
   0   4  12   18.50    2.35
   4   0 -12   19.54    1.42
   0   4 -12   16.15    2.32
   0   4  12   16.97    2.19
  -4   0  12   17.07    2.20
   4   0  12   17.34    2.64
   4   0 -12   19.48    2.89
   0  -4  12   22.76    2.96
   4   0 -12   18.22    2.29
   0  -4  14    2.90    1.69
   0   4  14    5.78    2.02
   4   0 -14    4.99    2.19
   0   4 -14    7.17    1.93
   4   0 -14    2.99    0.91
  -4   0  14    2.97    1.52
   0   4 -14    5.92    2.13
   4   0  14    0.39    1.34
  -4   0  16   -0.45    1.27
   4   0  16   -1.01    1.66
   0   4 -16   -2.97    1.72
   0  -4  16   -1.33    1.65
   0   4  16    0.09    1.40
   4   0 -16    0.91    1.90
   4   0 -16    2.07    1.02
   0   4 -16    0.65    1.16
   0   4 -18   18.42    2.76
  -4   0  18   16.16    2.79
   4   0  18   14.62    3.00
   0  -4  18   23.82    3.73
   0   4 -18   22.03    2.99
   0   4  18   12.09    2.59
   4   0 -18   15.82    2.95
   4   0 -18   19.46    2.07
   0   4  20   17.40    3.29
  -4   0  20   15.32    3.23
   4   0  20   17.27    3.36
   4   0 -20   14.47    3.22
   0   4 -20   15.01    2.72
   0  -4  20   13.88    3.26
   0   4 -20   12.73    2.55
   0   4 -22   -1.23    1.57
   4   0 -22   -1.24    1.79
   0   4 -22    0.68    1.32
   0   4  22   -0.88    1.64
  -4   0  22   -0.41    1.90
   4   0  22   -2.51    2.28
   0  -4  24   22.47    4.17
   0   4  24   19.96    3.59
   4   0  24   17.65    3.72
   4   0  26    4.63    2.68
   0   4  26    2.19    2.02
   0  -4  26    0.68    1.93
  -1   4  27   -2.37    2.26
   4   1 -25    6.61    2.48
  -1   4  25    2.85    2.07
   4  -1  25   -2.58    2.01
   1  -4  25    3.32    1.94
  -4   1  25    0.18    1.56
  -4   1  23    6.76    2.30
   4  -1  23    6.10    2.56
   1  -4  23    5.08    2.38
  -1   4  23    3.70    2.08
   4   1 -23    8.52    2.62
   1   4 -23   10.01    2.54
   4   1 -21   12.12    2.89
   1   4 -21   11.40    2.56
   1  -4  21    9.47    2.64
   4  -1  21    8.59    2.61
  -1   4  21   10.29    2.69
   1   4 -21   17.71    3.04
  -4   1  21   10.83    2.77
   1   4 -19   37.67    4.07
   4   1 -19   40.10    4.53
   1   4 -19   43.28    4.16
  -1   4  19   32.88    3.91
  -4   1  19   38.69    4.26
   4  -1  19   40.61    4.80
   4   1 -19   43.51    3.37
   1  -4  19   41.17    4.87
   4   1 -17    3.84    2.07
   1  -4  17    3.24    1.80
   4   1 -17    2.94    1.25
  -4   1  17    5.63    1.96
   1   4 -17    5.19    1.62
   1   4 -17    2.86    1.84
  -1   4  17    3.00    1.47
   4  -1  17    1.80    1.73
  -1   4  15   52.33    4.25
   4  -1  15   45.71    4.66
   4   1 -15   43.25    4.31
   1   4 -15   53.59    4.52
   1  -4  15   47.81    4.69
  -4   1  15   45.99    3.95
   1   4 -15   51.25    4.05
   4   1 -15   52.17    3.05
   4   1 -13   15.93    1.58
   4  -1  13   17.58    2.97
   1   4 -13   19.17    2.49
   1  -4  13   19.40    3.03
   1   4 -13   17.22    2.65
  -4   1  13   18.86    2.38
   4   1 -13   17.28    2.81
  -1   4  13   15.95    2.34
   1   4 -11   58.72    3.80
   1  -4  11   55.35    4.27
  -4   1  11   57.88    3.54
   4   1 -11   62.89    3.88
   4   1 -11   58.83    2.54
   4   1 -11   61.13    4.48
  -1   4  11   55.64    3.78
  -1   4  11   59.75    3.75
   4  -1  11   60.72    4.58
   4   1  -9  306.54    7.39
   4   1  -9  304.16    5.05
  -1   4   9  302.20    7.94
  -1   4   9  278.24    6.83
   1   4  -9  295.45    7.68
   1  -4   9  300.40    8.78
  -4   1   9  297.15    6.84
   4   1  -9  305.91    9.26
   4  -1   9  287.31    8.87
   4  -1   7   63.16    3.84
   4   1  -7   67.31    3.08
  -1   4   7   59.62    3.27
   1   4  -7   61.60    3.28
   4   1  -7   60.30    2.12
   4   1  -7   65.15    4.26
  -1  -4  -7   58.36    2.95
   1  -4   7   66.27    3.75
   1   4  -7   62.02    2.49
   4  -1   5  220.06    6.01
   1  -4   5  231.05    5.91
   4   1  -5  222.94    6.91
   1   4  -5  228.09    5.76
  -1   4   5  221.23    4.40
  -1   4   5  208.83    4.27
   4   1  -5  210.37    3.72
  -1  -4  -5  227.41    5.18
   1   4  -3  130.98    4.08
   4   1  -3  126.19    2.97
   4   1  -3  126.03    4.05
   4  -1   3  120.22    3.02
  -1  -4  -3  123.60    3.59
  -1   4   3  127.45    2.94
   4   1  -3  126.11    4.73
  -1   4   3  118.63    3.23
   4  -1   1    3.26    0.92
   4   1  -1    5.04    1.14
  -1   4   1    3.92    0.91
   1   4  -1    4.46    1.05
   1  -4   1    3.90    0.85
  -1   4   1    4.91    0.97
   4   1  -1    4.81    1.32
  -4  -1   1    2.63    0.80
   4  -1  -1    2.13    1.14
   4  -1  -1    1.75    0.52
   1   4   1    2.71    0.94
   4  -1  -1    4.44    1.25
  -4   1  -1    1.28    0.91
  -1   4  -1    1.88    0.88
  -1   4  -3  124.94    4.19
  -4   1  -3  119.03    2.43
   1   4   3  114.38    3.63
  -4  -1   3  111.97    2.88
   4  -1  -3  116.50    4.42
   1  -4  -3  119.64    3.20
   1  -4  -3  125.88    2.86
   4  -1  -5  225.48    3.95
  -1   4  -5  234.17    6.26
  -4  -1   5  223.87    3.95
   1   4   5  220.89    5.25
   1  -4  -5  233.62    4.45
   4  -1  -5  223.07    6.75
   4  -1  -7   64.60    2.77
   4  -1  -7   58.99    3.94
  -4  -1   7   65.17    2.27
  -1   4  -7   56.57    1.59
   1  -4  -7   64.69    2.51
  -4  -1   7   58.52    3.41
  -1  -4   9  300.00    8.41
  -4  -1   9  292.50    8.07
   4   1   9  266.62    4.41
   1   4   9  288.36    6.99
   4  -1  -9  297.52    9.01
   1  -4  -9  308.37    5.86
   4   1   9  270.51    8.05
   4  -1  -9  301.40    7.06
   1  -4 -11   61.00    2.93
  -1  -4  11   54.84    4.12
   4   1  11   57.15    4.28
   1   4  11   59.65    3.59
   4  -1 -11   62.18    3.69
  -4  -1  11   51.86    3.81
   4  -1 -11   61.16    4.51
   1   4  11   51.52    3.59
   4  -1 -11   48.12    1.62
  -4   1 -11   57.72    2.21
  -4  -1  13   20.86    2.64
  -1   4 -13   17.03    2.37
   4   1  13   17.73    2.77
   4  -1 -13   20.30    3.07
   4  -1 -13   17.24    1.26
   1   4  13   17.07    2.48
  -1  -4  13   18.06    2.77
   1  -4 -13   17.23    1.85
   1   4  13   17.61    2.31
   1   4  15   44.46    4.19
   4  -1 -15   42.13    2.26
   1  -4 -15   43.58    3.00
  -1  -4  15   45.32    4.41
  -4  -1  15   49.79    4.31
  -1   4 -15   40.05    3.52
   4   1  15   39.54    4.26
   4  -1 -15   42.01    4.17
   4  -1 -17    2.28    0.83
  -4  -1  17    0.47    1.46
  -1   4 -17   -0.05    1.62
  -1  -4  17    2.33    1.67
   4   1  17    2.55    2.03
   4  -1 -17   -0.74    1.89
   1   4  17    2.35    1.49
   4  -1 -19   36.43    4.28
   1   4  19   38.74    4.47
  -1   4 -19   34.53    3.54
  -4  -1  19   39.35    4.45
   4   1  19   40.61    4.81
  -1  -4  19   42.33    5.00
   1   4  21   11.04    2.78
  -1  -4  21   15.03    3.42
   4   1  21   10.97    3.13
  -1   4 -21   10.81    2.53
  -1   4 -21   10.07    2.29
  -1  -4  23    4.96    2.30
  -1   4 -23    9.48    2.52
   1   4  23    9.84    2.75
   4   1  23    6.36    2.32
   1   4  25    1.64    1.71
   4   1  25    2.05    2.04
  -1  -4  25   -0.90    1.85
   1   4  27    2.02    2.30
  -2   4  26   -1.25    1.86
   4  -2  24   -0.16    1.66
  -2   4  24    5.61    2.48
  -4   2  24    2.31    2.03
   2   4 -24    2.53    1.96
   4   2 -24    2.13    2.13
   2  -4  24   -1.19    2.10
   4   2 -22    6.82    2.44
   2   4 -22    4.42    2.14
   2  -4  22    4.13    2.06
   4  -2  22    5.48    2.38
  -2   4  22    5.99    2.18
  -4   2  22    4.55    1.69
   4   2 -20   21.09    3.65
  -2   4  20   21.70    3.30
  -4   2  20   23.29    3.62
   2   4 -20   21.63    3.18
   2  -4  20   19.09    3.60
   4  -2  20   16.28    3.39
   2   4 -20   16.37    3.10
   4   2 -18   40.91    4.48
   2   4 -18   50.72    4.32
   4   2 -18   45.59    3.57
   2   4 -18   43.44    4.41
   4  -2  18   42.49    4.73
   2  -4  18   37.06    4.45
  -4   2  18   44.32    4.34
  -2   4  18   40.38    4.07
   4  -2  16   19.22    3.20
   4   2 -16   13.66    2.86
  -4   2  16   14.17    2.41
  -2   4  16   14.23    2.38
   4   2 -16   17.19    2.21
   2   4 -16   20.63    2.67
   2   4 -16   18.78    3.10
   2  -4  16   18.00    3.06
   4   2 -14   40.94    4.15
   4   2 -14   42.03    2.85
  -4   2  14   37.94    3.41
   2   4 -14   40.83    4.06
   4  -2  14   39.72    4.24
  -2   4  14   36.64    3.41
   2  -4  14   34.00    3.91
   2   4 -14   38.95    3.35
   4  -2  12  402.19   11.97
   2   4 -12  401.81   10.63
  -2   4  12  408.64   10.04
   4   2 -12  421.32   11.92
   4   2 -12  417.59    7.86
   2  -4  12  428.46   12.24
  -4   2  12  409.25    9.63
   2   4 -12  403.94    9.67
   2  -4  10  183.73    7.44
   4   2 -10  193.98    7.72
   4   2 -10  198.26    6.49
   2   4 -10  177.55    5.98
   4   2 -10  191.01    4.82
   4  -2  10  198.27    7.93
  -2   4  10  177.23    5.90
  -4   2  10  179.69    5.61
  -2   4   8   35.95    2.31
   4  -2   8   42.68    3.56
   4   2  -8   41.69    2.80
   2  -4   8   40.46    3.27
  -2   4   8   35.78    2.92
   2   4  -8   38.39    2.37
  -4   2   8   39.69    2.30
   2   4  -8   40.86    2.75
   4   2  -8   37.07    3.43
   4   2  -8   39.84    2.12
   4   2  -6  458.24    9.94
   2  -4   6  451.70    9.21
  -2   4   6  425.88    5.57
   2   4  -6  449.58    8.10
   4   2  -6  430.34    6.31
   4  -2   6  451.70    9.82
   4   2  -6  452.34    7.99
  -2  -4  -6  467.08    8.32
   2   4  -6  432.30    6.98
   2  -4   4  292.02    6.33
   4   2  -4  290.90    5.14
   2   4  -4  298.86    6.23
   4  -2   4  296.95    6.97
   4   2  -4  287.68    6.30
  -2   4   4  280.37    4.60
  -2   4   4  292.09    4.09
   2   4  -2  117.56    3.82
  -2   4   2  113.04    3.24
   2  -4   2  108.59    3.19
   4   2  -2  110.96    3.24
   4   2  -2  116.06    3.91
   4   2  -2  113.98    3.09
   4  -2   2  119.07    3.59
  -2  -4  -2  111.30    3.58
   2  -4   0  156.34    3.82
   4  -2   0  159.47    4.38
  -2   4   0  153.00    4.11
  -4  -2   0  151.66    4.10
  -2   4   0  159.43    3.20
   2   4   0  167.46    4.45
  -2   4  -2  105.59    3.83
  -4   2  -2  108.18    2.93
   4  -2  -2  108.55    3.76
   2  -4  -2  110.13    3.15
   4  -2  -2  106.06    3.80
   2   4   2  101.99    3.57
  -4  -2   2  104.38    3.06
   4  -2  -4  279.08    3.28
   2  -4  -4  296.58    4.72
  -4  -2   4  286.70    5.46
   4  -2  -4  284.43    7.04
  -4  -2   4  294.93    5.29
  -4  -2   6  460.16    6.77
   4  -2  -6  454.33    6.28
   4  -2  -6  439.27    9.76
  -4  -2   6  445.33    8.43
  -2  -4   6  479.55    8.71
   2  -4  -6  465.38    5.80
   2  -4  -8   36.53    1.76
   4  -2  -8   37.64    2.32
   4   2   8   33.18    1.58
  -4  -2   8   40.60    3.04
   4  -2  -8   31.79    3.17
   4   2  10  184.51    4.28
  -4  -2  10  182.67    6.45
   2   4  10  179.74    5.55
  -4   2 -10  185.19    4.02
   4  -2 -10  187.61    7.48
   4  -2 -10  196.05    5.84
   2  -4 -10  195.96    4.33
  -2  -4  12  437.24   11.71
   4   2  12  423.65    7.61
   4  -2 -12  428.73   11.68
   2  -4 -12  447.05    7.17
  -4   2 -12  440.23    6.80
  -4  -2  12  418.33   10.34
   2   4  12  424.67   10.89
   2   4  12  433.56    9.37
   4  -2 -12  463.82    9.97
   4   2  12  420.45   11.54
  -2   4 -14   38.33    3.15
   2  -4 -14   41.52    2.48
   2   4  14   40.62    3.35
  -2  -4  14   44.61    4.21
  -4   2 -14   44.60    2.51
   4   2  14   40.17    4.07
   4  -2 -14   37.54    3.89
   4  -2 -14   35.42    1.68
   2   4  14   37.59    3.72
   2  -4 -16   14.36    1.69
   2   4  16   20.78    3.16
   4  -2 -16   16.01    1.39
  -2  -4  16   17.57    2.99
  -2   4 -16   19.58    2.64
   4   2  16   17.05    3.10
   4  -2 -16   16.23    2.86
  -4   2 -16   14.06    1.69
   2   4  18   46.00    4.76
  -2  -4  18   42.46    4.73
  -2   4 -18   42.97    3.62
   4   2  18   43.72    5.02
  -2   4 -20   16.73    2.55
   2   4  20   26.84    3.94
  -2  -4  20   21.04    3.79
   4   2  20   26.12    4.15
   2   4  22    5.83    2.11
   4   2  22    3.65    1.98
   4   2  24    2.58    2.05
   2   4  24   -3.08    2.22
  -2   4 -24   -1.31    1.65
   2   4  26   -3.30    2.13
   4   2  26    1.26    1.91
   4   3 -25    2.37    2.14
   3   4 -25    0.76    1.91
  -3   4  25    0.10    1.75
   4  -3  25    4.31    2.42
   3  -4  25    3.16    2.26
   3  -4  23    9.79    2.77
  -4   3  23   12.04    2.74
   4  -3  23   14.79    3.47
   4   3 -23   15.50    3.33
   3   4 -23    9.10    2.70
  -3   4  23   13.75    2.93
   4   3 -21   15.65    3.20
  -4   3  21   20.57    3.41
  -3   4  21   15.81    3.07
   3   4 -21   18.15    3.31
   3   4 -21   15.31    2.78
   3  -4  21   12.42    3.41
   4  -3  21   15.00    3.21
  -4   3  19    9.48    2.33
   4   3 -19   10.17    2.07
   3  -4  19   12.36    2.88
  -3   4  19   12.27    2.48
   4   3 -19   10.06    2.65
   3   4 -19    9.78    2.19
   4  -3  19    6.82    2.36
   3   4 -19    7.89    2.63
   4   3 -17   71.33    4.46
  -4   3  17   68.62    5.00
  -3   4  17   71.26    5.13
   4  -3  17   65.06    5.69
   4   3 -17   65.34    5.42
   3   4 -17   72.41    5.71
   3  -4  17   66.53    5.85
   3   4 -17   67.02    4.68
   3   4 -15  203.86    8.86
   3  -4  15  218.46    9.76
  -3   4  15  229.17    8.30
   4   3 -15  210.39    9.15
   4   3 -15  204.85    6.88
   3   4 -15  197.44    7.32
  -4   3  15  217.05    8.04
   4  -3  15  217.56    9.66
   4  -3  13  168.77    8.12
  -3   4  13  156.73    6.33
   4   3 -13  163.78    5.63
   4   3 -13  158.90    7.74
   3   4 -13  152.12    7.25
   3  -4  13  168.17    8.13
  -4   3  13  164.74    6.36
   3   4 -13  167.01    6.26
   4  -3  11   47.11    4.16
   4   3 -11   53.44    3.01
   3  -4  11   51.25    4.34
  -3   4  11   54.80    3.45
  -4   3  11   48.87    3.17
   3   4 -11   60.88    4.49
   3   4 -11   50.96    3.33
   4   3 -11   56.61    4.57
   3  -4   9  252.29    8.53
  -4   3   9  244.99    5.90
   4   3  -9  265.28    7.46
   4  -3   9  267.36    8.96
  -3   4   9  253.48    6.42
   4   3  -9  270.01    8.60
   3   4  -9  255.95    6.66
   4   3  -9  253.93    5.94
   4   3  -7  313.70    7.29
   3  -4   7  294.87    8.28
   4   3  -7  329.59    7.60
   4   3  -7  305.51    6.18
  -4   3   7  305.38    5.20
   3   4  -7  311.16    6.81
   3   4  -7  317.88    6.76
  -3   4   7  299.57    5.72
   4  -3   7  299.86    8.64
   4   3  -5   73.46    3.44
  -3   4   5   70.45    1.92
   4  -3   5   79.24    4.09
  -3   4   5   70.49    1.99
  -3   4   5   72.60    2.20
  -4   3   5   59.13    1.53
   3  -4   5   78.04    3.79
   4   3  -5   72.13    2.95
   3   4  -5   78.64    3.36
   3   4  -5   73.79    3.26
   3  -4   3  309.09    6.15
  -3   4   3  292.52    4.94
   4  -3   3  296.53    6.65
  -3  -4  -3  296.29    6.48
   3   4  -3  296.83    6.18
   4   3  -3  316.36    6.69
   4   3  -3  300.47    5.88
   4  -3   1  167.77    4.03
   4   3  -1  167.77    4.47
   3   4  -1  172.07    2.46
  -4  -3  -1  168.86    4.67
  -3   4   1  165.61    4.19
  -3  -4  -1  178.23    4.74
   3   4  -1  179.69    4.83
   4   3  -1  174.63    3.48
   3  -4   1  169.77    3.57
  -3   4   1  171.05    2.80
   3  -4   1  171.18    4.44
   4  -3  -1  169.68    2.51
   3  -4  -1  164.08    4.46
   3   4   1  172.89    4.80
  -3   4  -1  179.87    4.07
   4  -3  -1  167.09    4.76
  -4  -3   3  304.52    5.96
  -4   3  -3  294.67    6.36
  -3  -4   3  306.17    3.76
  -3   4  -3  308.35    6.61
  -4  -3   3  305.06    4.91
  -4  -3   5   80.41    3.19
  -4   3  -5   75.95    1.85
   3  -4  -5   75.91    2.25
  -3  -4   5   81.95    3.50
  -4  -3   7  315.89    7.48
   3  -4  -7  294.04    4.13
  -4  -3   7  323.44    6.64
  -3  -4   7  331.21    7.42
   3  -4  -9  228.96    3.79
  -4  -3   9  239.52    6.96
   3  -4 -11   47.69    1.93
  -4   3 -11   50.65    2.48
   4   3  11   48.19    2.56
  -4  -3  11   50.53    3.60
   3   4  11   54.12    3.14
   4   3  13  162.41    5.24
  -4   3 -13  163.36    4.85
   3   4  13  172.75    7.55
  -3   4 -13  163.18    5.44
   3  -4 -13  160.20    3.87
   4   3  13  160.43    7.46
   3   4  13  162.41    5.75
   4  -3 -15  174.99    3.58
   3   4  15  193.90    6.95
   3   4  15  222.29    9.37
   4   3  15  197.61    6.34
   3  -4 -15  196.15    4.67
  -3   4 -15  206.08    6.69
  -4   3 -15  215.65    5.79
   4   3  15  215.75    9.45
   3   4  17   61.08    5.48
  -4   3 -17   67.99    3.52
   4   3  17   61.77    5.56
  -3   4 -17   62.09    3.92
   4  -3 -17   57.25    2.40
   4   3  19    7.41    2.44
   3   4  19    5.27    2.43
  -3   4 -19    9.23    1.92
  -4   3 -19    8.71    1.55
   3   4  21   16.41    3.48
   4   3  21   15.72    3.42
   4   3  23   14.69    3.55
   3   4  23    7.25    2.74
   4   3  25    4.92    2.53
   3   4  25    3.11    2.56
  -3   4 -25    5.53    2.38
   4   4 -24   10.04    3.06
   4  -4  24    2.92    2.14
  -4   4  22   24.20    3.62
   4   4 -22   21.95    3.69
   4  -4  22   25.79    4.27
   4   4 -20   30.87    4.23
  -4   4  20   26.77    3.51
   4  -4  20   31.87    4.49
   4   4 -20   31.48    3.63
   4  -4  18  145.04    8.68
  -4   4  18  133.13    6.99
   4   4 -18  134.81    7.98
   4   4 -18  136.84    6.73
   4   4 -16   13.87    3.29
   4   4 -16   14.24    2.22
   4  -4  16   12.24    2.69
  -4   4  16   10.59    1.98
  -4   4  14   40.60    3.40
   4  -4  14   39.77    4.28
   4   4 -14   39.19    3.15
   4   4 -14   34.46    4.18
   4   4 -12  320.03    8.06
  -4   4  12  331.35    8.41
   4   4 -12  329.99   10.65
   4  -4  12  337.03   11.23
   4   4 -10  131.02    4.84
   4  -4  10  134.74    6.68
  -4   4  10  138.43    4.78
   4   4  -8  532.88    9.79
  -4   4   8  510.18    7.57
   4   4  -8  568.64   10.99
   4  -4   8  549.66   12.26
   4   4  -8  545.20    9.26
   4   4  -6  457.20    8.13
   4  -4   6  434.55    9.83
   4   4  -6  471.93    8.74
  -4   4   6  412.98    4.65
  -4   4   6  433.30    5.16
   4   4  -4  432.32    7.74
   4  -4   4  421.64    8.47
  -4   4   4  428.47    5.72
   4  -4   2  515.48    7.57
  -4   4   2  491.96    7.05
  -4  -4  -2  517.35    8.81
   4   4  -2  514.06    8.42
   4   4  -2  507.26    5.37
   4   4   0   71.31    3.25
   4  -4   0   63.59    3.13
  -4  -4   0   65.03    3.06
  -4   4   0   67.75    2.38
   4  -4   0   69.97    2.05
   4  -4  -2  488.87    8.47
  -4   4  -2  482.34    8.07
  -4  -4   4  421.37    7.76
  -4  -4   4  413.21    5.71
  -4   4  -4  418.08    8.86
  -4  -4   6  466.63    8.49
  -4   4  -6  354.73    3.47
  -4  -4   8  562.36    9.92
   4   4  12  340.84    7.49
   4   4  14   38.83    4.03
  -4   4 -14   39.29    2.77
   4   4  14   44.59    3.07
   4   4  16   10.89    2.53
  -4   4 -16    7.13    1.52
   4   4  16    9.22    1.88
   4   4  18  132.87    8.37
  -4   4 -18  138.16    5.30
   4   4  20   27.95    4.39
   4   4  22   19.83    3.93
   4   4  24    8.52    3.01
   4   4  26    5.79    3.03
   0  -5   1    3.66    0.66
   5   0  -1    5.89    1.37
   5   0  -1    2.66    1.27
  -5   0   1    5.47    0.95
   0   5   1    5.15    1.16
   5   0   1    4.99    0.99
   5   0   1    3.30    1.12
   0   5  -1    4.48    1.23
   5   0  -1    2.65    1.17
   5   0   1    4.30    1.21
   5   0   3  747.35    6.82
   0   5  -3  747.51   10.68
   0   5   3  716.96    9.37
   0  -5  -3  732.99    8.42
   5   0  -3  704.68   11.91
   5   0   3  702.41    8.69
   5   0  -3  736.20    9.85
   0  -5  -3  734.94    9.32
   0   5   5   57.35    2.76
   0   5   5   59.64    2.73
   0  -5  -5   57.70    2.72
   0   5  -5   62.47    3.41
  -5   0   5   59.54    1.91
   5   0  -5   60.83    4.05
   0  -5  -7    3.21    1.00
   5   0  -7   -0.22    1.76
   0   5  -7    3.78    0.92
  -5   0   7    1.18    0.41
   5   0  -7    2.08    0.88
   0   5  -7    1.74    1.28
   5   0  -9  203.37    7.92
   0   5  -9  191.41    6.74
   5   0   9  199.41    7.26
   0  -5  -9  200.37    5.50
   5   0  -9  198.71    5.70
   0  -5   9  197.22    7.10
   5   0  11    4.82    1.66
   5   0 -11    4.22    0.62
   0  -5 -11    5.12    1.16
   5   0 -11    5.13    2.11
   0  -5  11    4.27    1.52
   0   5  11    5.25    1.39
   5   0 -11    5.12    1.23
   0   5 -11    5.03    1.54
   0  -5  13    5.59    1.86
   5   0  13    5.37    1.96
   5   0 -13    5.86    0.85
   5   0 -13    6.14    2.31
   0   5  13    7.38    1.82
   0   5 -13    8.57    1.99
   0  -5 -13    5.41    1.33
   0   5 -15  179.30    7.42
   0   5  15  179.25    7.89
   0  -5 -15  178.52    6.43
   5   0  15  165.50    8.61
   0   5 -15  177.77    7.79
   5   0 -15  187.35    8.61
   0  -5  15  176.28    8.69
   5   0 -15  167.20    4.34
   5   0 -17   16.00    3.10
   0   5  17   13.59    2.59
   5   0 -17   16.63    1.62
   0   5 -17   18.83    2.89
   0  -5  17   18.04    3.29
   5   0  17   11.46    2.68
   0   5 -17   16.01    2.87
   0  -5  19    7.00    2.50
   5   0  19    7.72    2.52
   5   0 -19   10.46    2.91
   0   5  19    9.50    2.45
   0   5 -19    6.62    2.22
   0   5 -19    6.88    2.11
   0   5 -21   44.04    4.52
   5   0  21   41.78    5.19
   0   5  21   40.04    4.62
   0  -5  21   39.96    5.13
   5   0 -21   38.68    4.66
   0   5 -21   45.73    4.51
   5   0 -23   -0.86    1.88
   5   0  23    3.90    2.37
   0   5 -23   -2.29    1.80
   0   5  23    0.51    1.69
   0  -5  23    3.46    2.33
   0   5  25   -1.73    1.74
   0  -5  25   -0.88    1.81
   0   5  27   28.39    4.74
  -1   5  26    0.83    1.64
   5  -1  24    1.42    2.13
   1  -5  24    5.16    2.71
   5   1 -24    6.31    2.57
  -1   5  24    0.86    1.83
   1   5 -22    2.53    1.90
   1  -5  22    5.80    2.57
  -1   5  22    6.23    2.53
   1   5 -22   -2.37    2.09
   5   1 -22    4.20    2.07
   5  -1  22    1.05    1.66
   1   5 -20   11.21    2.75
  -5   1  20    8.75    2.36
   1  -5  20   19.61    3.84
  -1   5  20    7.86    2.33
   5   1 -20   12.61    3.07
   5  -1  20   12.07    2.99
   1   5 -20   14.73    2.78
  -5   1  18    0.71    1.56
   5   1 -18    2.23    2.14
   1   5 -18    2.77    1.68
   5   1 -18    5.08    1.26
   1  -5  18    0.86    1.56
   5  -1  18    2.45    1.86
   1   5 -18    3.83    2.12
  -1   5  18    5.51    1.95
   1   5 -16   22.86    3.09
   5   1 -16   25.43    2.13
   5  -1  16   20.60    3.36
   1   5 -16   33.76    3.85
   5   1 -16   25.87    3.76
  -5   1  16   29.02    3.27
  -1   5  16   20.50    2.94
   1  -5  16   28.98    3.89
   1  -5  14   15.91    2.87
   5   1 -14   19.05    1.66
   1   5 -14   15.66    2.85
  -1  -5 -14   19.99    2.41
   1   5 -14   22.68    2.91
  -1   5  14   16.55    2.44
   5   1 -14   17.22    3.01
   5  -1  14   18.46    3.10
  -5   1  14   14.31    2.19
  -1  -5 -12    4.28    1.35
   5   1 -12    3.22    0.83
   1   5 -12    4.02    1.45
   5   1 -12    3.29    2.02
  -1   5  12    3.40    1.34
   1  -5  12    2.88    1.67
   5  -1  12    2.19    1.61
   5  -1  10   37.26    3.58
   5   1 -10   37.51    3.77
   1  -5  10   40.38    3.61
   5   1 -10   36.77    2.77
   5   1 -10   36.77    1.88
  -1  -5 -10   38.46    2.83
  -1   5  10   35.11    2.62
   1   5 -10   38.77    3.14
   1   5  -8   17.53    1.55
   5  -1   8   18.49    2.34
  -1  -5  -8   18.45    1.90
   1   5  -8   18.47    2.10
   5   1  -8   18.72    2.94
   1  -5   8   16.79    2.19
   5   1  -8   18.42    1.84
   5   1  -8   19.64    1.35
   5  -1   6  130.07    5.07
   5   1  -6  140.88    6.24
  -1   5   6  132.11    3.90
  -1   5   6  138.52    3.98
   1  -5   6  137.29    5.05
   1   5  -6  143.25    5.10
  -1  -5  -6  144.39    4.64
   5   1  -6  138.04    3.23
  -1   5   4   49.72    2.19
  -1   5   4   47.23    2.40
  -1  -5  -4   50.94    2.67
   5   1  -4   53.04    3.71
   5  -1   4   47.56    2.21
   1   5  -4   47.22    2.89
   5   1  -2  285.36    7.19
   5   1  -2  263.38    6.15
   1   5  -2  285.83    6.41
   5  -1   2  255.30    4.36
  -1   5   2  272.91    5.67
   5   1  -2  273.41    5.64
  -5   1   2  276.32    4.15
   5  -1   2  260.46    5.36
  -1  -5  -2  280.16    5.61
   5  -1   0  243.85    5.37
   5   1   0  230.78    5.49
   5   1   0  253.97    5.98
  -5  -1   0  233.57    5.13
   5  -1   0  247.14    5.75
  -1   5   0  235.75    5.56
  -1   5   0  241.79    4.28
   5  -1   0  247.01    4.28
   1   5   0  235.46    5.66
  -5   1   0  252.64    5.89
   5  -1  -2  272.52    6.71
   5  -1  -2  270.80    6.13
   1  -5  -2  275.05    5.59
  -1   5  -2  257.36    6.28
  -5   1  -2  276.09    5.21
   1   5   2  268.97    6.03
  -5   1  -2  253.46    4.97
  -5  -1   2  257.23    4.94
  -5   1  -4   45.31    1.68
   1   5   4   49.38    2.60
  -5  -1   4   48.24    2.61
  -5  -1   4   50.15    2.11
   1  -5  -4   53.30    2.47
   1   5   4   49.78    2.68
  -1   5  -4   53.24    3.09
   5  -1  -4   48.58    3.39
   1  -5  -6  144.45    4.01
   5  -1  -6  137.97    3.47
  -1   5  -6  139.07    5.32
   5  -1  -6  141.47    6.07
   1   5   6  145.65    4.68
  -5  -1   6  136.72    3.32
  -1   5  -8   14.99    1.02
   1  -5  -8   16.69    1.52
  -1   5  -8   14.86    2.08
  -5  -1   8   14.72    2.09
   5  -1  -8   16.95    1.57
   5  -1  -8   13.48    2.43
  -5  -1   8   16.42    1.25
   5  -1 -10   29.70    3.29
   5  -1 -10   32.40    2.51
   1   5  10   38.80    2.93
   5   1  10   35.27    3.33
   1  -5 -10   39.88    2.42
  -1   5 -10   37.31    3.33
   5  -1 -12    3.90    1.24
   1   5  12    5.02    1.54
  -1  -5  12    3.48    1.41
   1   5  12    5.16    1.53
   5   1  12    2.54    1.52
   1  -5 -12    3.39    0.94
   5  -1 -12    1.44    1.68
  -1  -5  14   20.76    3.08
  -1   5 -14   21.29    2.74
   5  -1 -14   18.80    3.11
   1   5  14   20.98    2.80
   5  -1 -14   14.11    0.92
  -1   5 -14   23.65    3.02
   1  -5 -14   19.56    2.02
   5   1  14   24.45    3.32
   5  -1 -16   15.88    1.20
  -1  -5  16   24.97    3.61
  -1   5 -16   24.89    3.26
   1  -5 -16   20.81    2.17
  -1   5 -16   21.96    2.99
   5  -1 -16   26.67    3.80
   1   5  16   20.42    3.08
   5   1  16   23.24    3.70
   5  -1 -18    3.40    2.15
  -1   5 -18    0.33    1.57
  -1   5 -18    1.65    1.43
   5   1  18    3.39    2.17
   1   5  18    0.27    1.69
  -1  -5  18    2.36    1.80
  -1   5 -20    8.85    2.31
   5  -1 -20   16.33    3.25
  -1   5 -20   10.96    2.52
  -1  -5  20   14.56    3.15
   5   1  20   13.51    3.24
   1   5  20   13.14    3.03
   5   1  22    3.80    2.56
  -1  -5  22    7.02    2.65
   1   5  22    5.74    2.29
  -1   5 -22    1.39    1.62
   1   5  24    3.91    2.22
   5   1  24    5.69    2.81
  -1   5 -24    6.11    2.10
   1   5  26    7.47    2.76
   5  -2  25    2.01    2.13
   2  -5  25    2.39    1.95
  -2   5  25   -0.41    1.49
   5   2 -25    2.49    2.18
  -5   2  23    5.71    2.30
  -2   5  23    4.07    1.76
   2   5 -23    3.90    2.19
   5  -2  23    8.47    3.03
   2  -5  23    1.61    2.11
   5   2 -23    5.31    2.45
  -5   2  21    3.65    1.70
   2   5 -21    6.23    2.26
   2  -5  21    4.35    2.28
   2   5 -21    1.80    1.82
   5  -2  21    4.80    2.64
   5   2 -21    4.12    2.23
  -2   5  21    5.85    2.07
   2  -5  19    8.19    2.59
   2   5 -19    4.51    1.97
   5  -2  19    4.35    2.19
   5   2 -19    3.44    2.17
  -5   2  19    5.93    1.95
  -2   5  19    7.53    2.15
   2   5 -19    2.90    1.55
  -5   2  17   25.34    3.20
   5   2 -17   30.51    3.97
   5   2 -17   28.12    2.59
   5  -2  17   35.92    4.42
  -2   5  17   30.52    3.52
   2   5 -17   29.15    3.80
   2   5 -17   32.38    3.53
   2  -5  17   31.24    4.13
  -2   5  15    9.63    2.03
   2   5 -15   11.53    2.84
   5  -2  15    7.37    2.27
   5   2 -15    5.92    2.50
   2   5 -15    8.54    2.01
   2  -5  15    8.12    2.17
   5   2 -15   10.53    1.59
  -5   2  15    7.58    1.67
   5   2 -13   36.81    4.20
   5   2 -13   41.74    2.58
   5  -2  13   41.55    4.28
   2  -5  13   41.55    4.16
  -5   2  13   37.03    3.09
   2   5 -13   39.11    3.43
  -2   5  13   46.40    3.61
   2  -5  11   21.33    2.85
  -2   5  11   20.50    2.25
  -2  -5 -11   23.49    2.52
   5   2 -11   25.72    1.92
  -5   2  11   26.00    2.29
   5  -2  11   25.43    3.24
   2   5 -11   26.63    2.71
   5   2 -11   25.63    3.41
  -2   5   9   21.20    1.93
   5  -2   9   17.11    1.11
   5   2  -9   21.35    3.14
   5   2  -9   22.02    2.26
   5  -2   9   17.68    2.50
   2   5  -9   19.04    2.23
   2   5  -9   19.00    1.78
   5   2  -9   20.53    1.59
   2  -5   9   18.04    2.43
  -2  -5  -9   21.61    2.24
  -2  -5  -7   17.74    1.91
   2   5  -7   17.32    1.73
   2  -5   7   16.82    2.17
   5  -2   7   19.48    2.44
   2   5  -7   16.29    1.89
  -2   5   7   17.71    1.43
   5   2  -7   18.01    1.49
   5  -2   7   15.56    1.15
   5   2  -7   17.74    1.80
   5   2  -7   21.13    2.85
   2  -5   5   97.80    4.09
   5   2  -5  102.66    4.31
   2   5  -5  101.04    4.10
   5   2  -5  101.10    3.24
  -2   5   5  104.25    3.29
  -2  -5  -5  101.01    4.08
   5  -2   5  101.44    4.45
  -2   5   5  101.80    2.90
   5   2  -5  102.01    5.04
  -2  -5  -3   75.34    3.29
  -2   5   3   73.57    2.89
  -5   2   3   72.02    1.71
   5  -2   3   80.89    3.38
   2   5  -3   78.42    3.53
   5   2  -3   70.14    3.46
   5   2  -3   74.11    2.84
   5   2  -1   32.45    2.04
  -2   5   1   31.25    2.14
  -5  -2  -1   30.71    2.25
   2   5  -1   31.22    2.27
  -2   5   1   31.43    1.98
   2  -5   1   30.97    1.92
   5   2  -1   33.41    2.51
   5  -2  -1   33.92    1.36
  -5   2  -1   31.28    2.01
  -5  -2   1   32.05    2.04
  -2   5  -1   34.79    2.36
   2   5   1   32.89    2.35
   5  -2  -1   32.38    2.28
   5  -2  -1   35.27    2.49
  -2   5  -1   33.51    1.89
  -5   2  -1   37.16    2.16
   2  -5  -1   34.95    2.20
  -5  -2   3   68.21    2.81
   5  -2  -3   70.09    3.68
  -5   2  -3   73.06    2.60
   2  -5  -3   66.12    2.05
  -2   5  -3   66.00    3.44
  -5   2  -3   70.60    2.45
   2   5   3   65.93    3.23
  -5  -2   3   64.85    2.80
   2  -5  -3   65.65    2.71
  -2   5  -3   66.30    3.07
  -5  -2   5   94.38    3.67
   2   5   5  102.18    4.06
   5  -2  -5  101.10    4.94
   2  -5  -5   99.74    3.15
   5  -2  -5   95.11    2.29
  -5  -2   5  102.38    3.35
  -5  -2   7   18.01    2.16
   2  -5  -7   15.81    1.36
  -5  -2   7   14.83    1.38
   5  -2  -7   16.15    1.36
  -2  -5   7   17.54    2.01
   5  -2  -7   16.68    2.50
   2   5   7   19.20    2.00
  -5   2  -9   12.08    0.84
  -5  -2   9   19.74    2.49
   2  -5  -9   21.50    1.61
   5  -2  -9   20.35    1.88
   5  -2  -9   21.00    2.90
   5   2   9   16.89    1.11
   5  -2 -11   28.82    3.64
   5   2  11   21.59    1.53
   2  -5 -11   26.46    1.87
   2   5  11   26.11    2.53
   5  -2 -11   24.66    2.31
  -5   2 -11   23.11    1.27
  -5   2 -13   40.81    1.93
   2  -5 -13   42.80    2.50
   5  -2 -13   42.50    3.20
   5   2  13   40.02    3.96
   2   5  13   38.73    3.19
   5  -2 -13   42.98    4.35
   2   5  13   40.80    3.69
   2  -5 -15   10.16    1.43
   2   5  15    6.03    2.04
   5   2  15   13.39    2.75
  -2   5 -15    9.70    2.24
   5  -2 -15   10.88    2.75
   2   5  17   30.54    3.85
   5   2  17   33.06    4.26
   5  -2 -17   30.26    4.05
  -2   5 -17   30.42    3.27
   2   5  19    1.33    1.74
  -2   5 -19    1.88    1.47
   5   2  19    4.77    2.42
  -2   5 -21    2.33    1.80
   2   5  21    5.39    2.34
   5   2  21    3.96    2.43
   5   2  23    1.94    1.90
  -2   5 -23    5.65    2.26
   2   5  23   -1.38    1.94
   5   2  25   -0.81    1.92
   2   5  25    0.29    1.78
   2   5  27    5.36    2.71
   5   3 -26    2.78    2.51
   3   5 -24    0.27    1.81
   3  -5  24    4.31    2.71
  -3   5  24    0.72    1.53
   5   3 -24    1.95    2.25
   5  -3  24   -0.54    1.90
  -3   5  22    6.26    2.22
  -5   3  22    5.24    2.34
   5  -3  22    4.74    2.53
   5   3 -22   11.12    3.15
   3   5 -22    3.95    2.06
   3  -5  22    8.52    2.95
   5   3 -20   27.33    3.96
  -5   3  20   24.79    3.53
   3   5 -20   24.58    3.86
  -3   5  20   23.99    3.35
   5  -3  20   26.67    4.19
   3  -5  20   25.02    4.11
   3   5 -20   24.75    3.34
   3   5 -18   22.12    3.19
  -3   5  18   24.92    3.20
   5  -3  18   17.53    3.39
   5   3 -18   22.03    2.68
   5   3 -18   26.81    3.98
   3   5 -18   18.86    3.39
   3  -5  18   24.43    3.80
  -5   3  18   19.74    2.81
   5   3 -16   13.52    3.10
   3  -5  16    9.55    2.55
   3   5 -16    9.34    2.04
  -5   3  16   10.60    2.06
   5  -3  16   10.86    2.77
  -3   5  16   10.38    2.16
   5   3 -16    9.17    1.81
   3   5 -16   10.25    2.97
  -5   3  14   49.90    3.65
   3   5 -14   51.64    4.62
   3  -5  14   50.06    4.75
   5   3 -14   52.45    3.29
   3   5 -14   51.06    3.92
  -3   5  14   46.80    3.72
   5  -3  14   50.38    4.78
   5   3 -14   51.41    4.93
   3   5 -12  120.20    5.47
  -5   3  12  118.16    4.91
   3  -5  12  114.87    6.64
   5  -3  12  118.27    6.73
   5   3 -12  106.62    6.46
   5   3 -12  120.77    4.57
  -3   5  12  120.49    5.30
   5   3 -10  119.49    4.23
  -5   3  10  116.16    4.15
  -3  -5 -10  131.07    5.79
  -3   5  10  115.67    4.62
   3  -5  10  114.47    6.09
   5   3 -10  129.90    6.69
   5  -3  10  115.92    6.34
   3   5 -10  118.83    5.06
   3   5  -8   46.21    3.06
   5  -3   8   54.69    4.13
   5   3  -8   53.62    3.33
   5   3  -8   54.81    4.21
   3   5  -8   50.39    3.01
   3  -5   8   56.50    3.91
  -3  -5  -8   54.64    3.49
   5   3  -8   49.95    2.65
  -3   5   8   48.80    2.52
  -3   5   6   91.18    2.86
   5   3  -6   93.70    3.50
   5   3  -6   96.59    4.33
   3  -5   6   96.49    4.49
  -3  -5  -6  105.18    4.46
   5  -3   6   95.05    4.84
   3   5  -6  101.99    4.04
   3   5  -6   97.37    4.13
  -3   5   6   96.94    2.69
   3   5  -4  112.73    4.29
   3  -5   4  109.97    4.11
  -3   5   4  112.90    3.38
   5   3  -4  113.80    4.48
   5  -3   4  106.78    4.57
   5   3  -4  112.45    3.80
  -5  -3  -2  117.87    4.43
   3   5  -2  132.13    4.55
  -3   5   2  124.89    3.88
   5  -3   2  133.92    4.31
   5   3  -2  119.78    4.00
  -3  -5  -2  126.84    4.37
   3  -5   2  116.10    3.53
  -3   5   2  130.16    4.23
   5   3  -2  127.08    3.51
  -3   5   0    0.52    0.54
  -5  -3   0    0.83    0.85
   3   5   0    1.68    1.03
  -3   5   0   -0.06    0.72
   5  -3   0    1.63    0.76
  -5   3   0    0.48    0.87
   5  -3   0    1.44    1.13
   3  -5   0    1.23    0.93
  -5  -3   2  117.04    4.00
  -3   5  -2  112.21    4.37
   3   5   2  115.16    4.29
  -3   5  -2  123.31    3.94
   5  -3  -2  119.59    4.43
  -5  -3   4  102.26    3.42
  -3   5  -4   99.06    4.18
  -5  -3   4  108.99    3.82
   3  -5  -4  110.16    3.35
  -5   3  -4  108.98    2.94
  -3  -5   6   98.91    4.28
  -5  -3   6   95.63    3.62
   3  -5  -6   93.56    2.89
   5  -3  -6   87.26    2.36
  -5  -3   8   46.76    3.38
   5  -3  -8   40.92    3.61
   3  -5  -8   49.12    2.05
  -5  -3   8   52.54    2.83
  -3  -5   8   50.10    3.30
   3  -5 -10  121.32    3.28
   5   3  10  117.38    3.44
   5  -3 -10  111.18    6.05
  -5  -3  10  119.17    5.52
   3   5  12  124.27    5.15
   5  -3 -12  109.45    6.34
  -5   3 -12  108.24    3.33
   3  -5 -12  117.59    3.45
   5   3  12  111.57    3.72
   3  -5 -14   49.67    2.43
   3   5  14   61.73    4.01
   5   3  14   53.03    4.74
  -5   3 -14   52.18    2.48
   5   3  14   49.33    2.85
   3   5  14   59.09    4.68
  -3   5 -16    9.48    2.05
   3   5  16   13.88    2.66
   5   3  16   14.13    3.07
  -5   3 -16    9.17    1.28
  -3   5 -18   22.00    2.64
   3   5  18   20.28    3.55
   5   3  18   11.89    3.01
   3   5  20   22.57    3.88
   5   3  20   19.21    3.77
   5   3  22    9.82    3.27
   3   5  22    6.18    2.50
   3   5  24    1.82    2.19
   5   3  24    3.95    2.74
  -3   5 -24    1.20    1.56
   3   5  26    1.37    2.08
   5   4 -25    6.16    2.70
   4   5 -25    2.46    2.02
   4  -5  23   34.17    5.10
   5   4 -23   36.77    4.93
   5  -4  23   23.39    4.23
   4   5 -23   30.60    4.47
   4   5 -21    4.47    2.19
   5   4 -21    6.93    2.69
  -5   4  21    1.60    1.55
   5  -4  21    0.78    1.97
  -4   5  21    5.19    1.86
   4  -5  21    7.99    2.80
   4   5 -19   43.02    4.16
   5   4 -19   35.65    4.55
   4  -5  19   34.68    4.74
   5  -4  19   43.15    5.11
  -5   4  19   37.03    3.92
   5   4 -19   39.32    3.77
  -4   5  19   37.51    3.91
   4   5 -19   39.48    4.83
  -4   5  17   94.84    5.63
   4  -5  17   85.89    6.68
  -5   4  17   86.04    5.41
   4   5 -17   82.15    6.51
   4   5 -17   89.32    5.51
   5   4 -17   93.60    5.28
   5   4 -17   82.82    6.44
   5  -4  17   91.66    6.89
  -5   4  15   40.34    3.42
   4   5 -15   34.60    3.30
   4  -5  15   41.13    4.62
   5   4 -15   46.87    3.50
   5   4 -15   42.00    4.81
   4   5 -15   47.52    4.83
   5  -4  15   48.81    4.84
  -4   5  15   41.78    3.54
  -4   5  13  169.26    6.30
  -5   4  13  157.78    5.93
   4   5 -13  157.09    6.29
   5  -4  13  169.07    8.31
   4  -5  13  156.50    8.04
   5   4 -13  167.91    8.33
   5   4 -13  164.90    5.94
   4   5 -13  165.71    8.02
   5   4 -11  170.62    5.67
   4  -5  11  169.63    7.87
  -5   4  11  167.54    5.27
   5   4 -11  180.63    8.07
   4   5 -11  167.91    6.05
   5  -4  11  178.39    8.08
  -4   5  11  165.48    5.56
   4  -5   9    1.51    1.25
  -5   4   9    1.15    0.64
   4   5  -9   -0.73    1.07
   5  -4   9    1.44    1.28
   5   4  -9    1.28    0.87
   4   5  -9   -1.34    1.50
  -4   5   9    1.61    0.83
   5   4  -7  920.08   11.90
   4   5  -7  911.25   12.71
  -4   5   7  912.97    9.06
  -4  -5  -7  987.79   14.75
   4   5  -7  910.95   12.64
  -4   5   7  900.53    8.07
   5   4  -7  913.36   13.35
   4  -5   7  913.51   14.95
   5  -4   7  903.09   15.40
  -5   4   5  414.61    5.37
   4   5  -5  416.74    8.40
  -4   5   5  418.85    6.13
   5  -4   5  406.15    9.35
   5   4  -5  407.26    8.70
   5   4  -5  414.37    7.95
   4  -5   5  424.49    9.01
  -5  -4  -3  384.85    8.37
   4  -5   3  379.58    7.16
   5   4  -3  379.45    7.53
  -4   5   3  382.80    6.60
   4   5  -3  387.50    7.99
  -4  -5  -3  379.37    8.18
   5  -4   3  378.69    7.82
   4   5  -1  467.67    4.80
   4  -5   1  457.45    6.30
   5   4  -1  475.25    6.29
   5  -4   1  470.75    6.93
   5   4  -1  463.58    8.44
   4  -5   1  456.12    8.15
  -4  -5  -1  465.76    8.65
  -4   5   1  453.30    7.87
   4   5  -1  460.05    8.71
   5  -4   1  439.56    8.44
  -5  -4  -1  453.00    8.61
  -4   5   1  457.22    5.56
  -4   5  -1  477.81    7.51
   5  -4  -1  451.08    4.48
   4  -5  -1  467.05    8.47
   5  -4  -1  467.16    8.87
   4   5   1  490.72    9.06
  -5   4  -3  379.65    7.70
  -4   5  -3  393.16    8.20
  -5  -4   3  388.55    7.75
  -5  -4   5  419.78    6.80
  -5   4  -5  424.28    5.49
  -4  -5   5  441.11    8.82
  -5  -4   5  426.72    8.25
  -4   5  -5  430.76    9.74
  -5   4  -5  401.44    9.12
  -4   5  -7  900.21   15.71
  -5  -4   7  930.40   12.40
   4  -5  -7  900.12    8.35
  -5   4  -7  876.25   14.99
  -4  -5   7  914.95   13.30
  -4  -5   9    0.08    0.80
   4  -5  -9    0.62    0.47
  -5  -4   9    1.35    0.99
   5   4  11  171.59    4.85
   4  -5 -11  134.09    2.86
   5   4  13  159.25    5.02
  -5   4 -13  157.68    4.56
   4   5  13  158.41    5.76
   5   4  15   40.37    2.93
   4   5  15   39.72    3.27
   4  -5 -15   29.34    1.47
  -5   4 -15   38.31    2.55
   5   4  15   45.44    4.59
  -4   5 -15   40.80    3.10
   4   5  15   52.49    4.82
   5   4  17   89.74    6.87
   4   5  17  102.31    7.14
  -4   5 -17   89.79    4.64
  -5   4 -17   95.20    3.88
   5   4  19   32.55    4.73
   4   5  19   39.09    4.92
   5   4  21    2.98    2.61
   4   5  21    4.14    2.47
   5   4  23   28.93    4.91
   4   5  23   36.24    5.35
   4   5  25   10.51    3.43
   5   4  25    9.44    3.32
  -4   5 -25   13.64    3.05
   5   5 -26    9.07    3.17
   5   5 -24    5.58    2.72
   5  -5  24    8.62    2.91
   5   5 -22   47.02    5.60
   5  -5  22   54.57    6.13
   5   5 -20   29.28    4.40
   5  -5  20   36.13    4.91
  -5   5  20   33.24    3.84
   5  -5  18   16.44    3.27
   5   5 -18   19.53    3.55
   5   5 -18   17.00    2.67
  -5   5  18   20.53    2.89
   5   5 -16   58.91    4.33
  -5   5  16   66.51    4.48
   5  -5  16   66.50    5.90
   5   5 -16   57.36    5.56
   5   5 -14  153.35    8.28
  -5   5  14  156.97    6.12
   5  -5  14  153.43    8.33
   5   5 -14  137.45    6.02
   5   5 -12   34.25    4.08
  -5   5  12   31.67    2.54
   5  -5  12   27.43    3.47
   5   5 -12   32.89    2.88
   5  -5  10  327.29   10.61
   5   5 -10  324.53    8.15
  -5   5  10  323.87    6.53
  -5   5   8  536.10    6.48
   5   5  -8  520.49    9.89
   5  -5   8  520.86   12.38
   5   5  -8  548.81   10.76
   5   5  -6    7.08    1.32
   5  -5   6   11.12    1.92
  -5   5   6    8.28    0.90
   5   5  -6   10.35    1.89
  -5   5   4  565.26    7.83
   5  -5   4  589.50   10.26
   5   5  -4  570.99   10.01
  -5  -5  -2  443.50    9.16
  -5   5   2  428.14    7.58
   5   5  -2  448.92    5.60
   5  -5   2  446.18    7.40
   5   5  -2  441.06    8.78
  -5  -5   0  143.71    5.11
   5   5   0  150.55    5.27
   5  -5   0  152.72    5.26
   5  -5   0  160.24    3.37
  -5   5   0  161.19    3.92
   5  -5  -2  443.29    9.15
  -5   5  -2  422.60    8.05
  -5  -5   4  606.72   10.52
  -5  -5   4  574.47    6.99
  -5   5  -4  570.68   10.78
  -5   5  -6   13.03    2.04
  -5   5  -6    6.03    0.80
  -5  -5   6    7.19    1.29
  -5  -5   6    7.84    1.20
  -5  -5   8  552.91   10.59
  -5  -5  10  365.14    9.03
   5   5  12   31.92    2.47
   5   5  14  151.19    5.54
  -5   5 -14  154.56    5.03
   5   5  16   64.97    5.66
  -5   5 -16   60.76    3.48
   5   5  18   20.09    3.60
   5   5  20   43.66    5.50
   5   5  22   48.25    6.22
   5   5  24    9.36    3.26
  -5   5 -26   10.52    2.98
   0   6   0  664.44   10.25
   6   0   0  642.91    9.85
   0   6   0  678.13    6.46
   6   0   0  657.78    8.31
   6   0   0  662.39   10.39
  -6   0   2  234.14    4.84
   0  -6  -2  234.93    5.17
   0  -6   2  225.66    3.51
   6   0   2  232.39    5.17
   6   0   2  221.85    5.55
   6   0  -2  221.54    6.90
   0   6  -2  224.25    6.27
   0   6   2  227.04    5.90
   6   0  -2  237.28    6.06
   6   0  -4   35.10    3.25
   6   0   4   37.39    1.60
   0   6   4   34.88    2.45
   6   0   4   41.93    2.54
   0  -6  -4   42.84    2.60
   0   6  -4   39.74    2.96
   0  -6  -4   38.51    2.33
  -6   0   4   40.13    1.92
   6   0  -6  661.74   13.69
  -6   0   6  656.84   11.25
   0   6  -6  655.94   11.81
   0  -6  -6  672.60    9.93
  -6   0   6  660.12    6.76
   0   6   6  660.12    9.95
   0   6   6  676.67    9.90
   0  -6  -8   21.28    2.00
   0   6  -8   22.95    2.57
  -6   0   8   20.51    1.13
   0   6  -8   22.91    1.66
   6   0  -8   21.17    3.02
   0   6   8   22.39    2.12
   6   0  -8   22.02    1.90
   6   0 -10   29.30    2.41
   0  -6 -10   30.26    2.49
   6   0 -10   23.49    3.28
   6   0  10   29.62    3.27
   0   6 -10   24.91    2.89
   6   0  12  100.95    6.12
   6   0 -12  117.26    6.71
   0  -6 -12  117.00    4.86
   0  -6  12  101.32    6.00
   6   0 -12  106.64    5.02
   0   6 -12  109.92    5.86
   6   0  14   13.59    2.72
   6   0 -14    7.90    0.77
   6   0 -14   14.39    3.04
   0   6 -14   16.13    2.67
   0  -6  14   10.70    2.50
   0  -6 -14   14.18    1.96
   0   6  14    9.93    1.98
   6   0  16   80.60    6.44
   0  -6 -16   78.76    4.51
   0   6 -16   78.27    5.34
   0   6  16   78.43    5.51
   6   0 -16   79.70    6.18
   6   0 -16   57.73    2.11
   0   6 -16   73.20    5.37
   0  -6  16   80.73    6.31
   0   6 -18   97.15    6.42
   0   6  18   96.53    6.57
   6   0  18   96.80    7.37
   0  -6  18  100.82    7.44
   0   6 -18  101.65    6.37
   6   0 -18  104.43    7.11
   0   6 -20    5.91    2.03
   6   0  20   -0.81    1.82
   0  -6  20    1.46    1.75
   6   0 -20    1.16    1.98
   0   6 -20    0.86    1.85
   0   6  20    1.70    1.92
   0   6 -22    9.54    2.56
   0  -6  22    9.98    2.93
   0   6  22   10.13    2.81
   0   6 -22    6.05    2.26
   6   0  22   13.04    3.25
   6   0 -22    7.27    2.64
   6   0 -24   38.48    4.95
   6   0  24   47.89    5.99
   0   6  24   46.10    5.29
   0   6  26    5.76    2.51
  -1   6  25    7.23    2.45
   6  -1  25   12.23    3.51
   6   1 -25    8.26    2.91
   1  -6  25    8.00    2.98
   1   6 -23    7.74    2.50
   1   6 -23    7.81    2.63
   6   1 -23    5.78    2.70
  -1   6  23    6.82    2.24
   6  -1  23   14.95    3.71
   1  -6  23    8.77    3.02
   1   6 -21   13.15    2.96
   6  -1  21   15.21    3.32
   1  -6  21   10.85    2.99
   1   6 -21    7.68    2.31
   6   1 -21   10.79    3.04
  -1   6  21   10.45    2.56
   6  -1  19   38.85    4.94
   1  -6  19   47.07    5.33
   1   6 -19   47.47    4.76
   1   6 -19   44.50    4.53
   6   1 -19   45.64    4.99
  -1   6  19   45.61    4.54
   1  -6  17   24.22    3.81
  -1   6  17   23.46    3.34
   6   1 -17   27.32    3.97
   6  -1  17   30.65    4.26
   1   6 -17   26.05    3.48
   1   6 -17   34.41    4.09
   6   1 -17   28.57    2.15
   1   6 -15   46.52    4.43
   1   6 -15   41.79    3.96
   6  -1  15   41.20    4.59
   6   1 -15   42.22    4.61
  -1   6  15   45.38    3.98
   1  -6  15   39.82    4.43
   6   1 -15   43.47    2.39
   6   1 -13   34.50    1.98
  -1  -6 -13   41.46    3.31
   6   1 -13   38.47    4.13
   1   6 -13   36.02    3.44
  -1   6  13   34.14    3.14
   1  -6  13   36.34    3.98
   6  -1  13   35.25    3.97
   1   6 -11   83.40    4.91
  -1  -6 -11   82.30    4.28
   6  -1  11   76.74    5.29
   1  -6  11   79.48    5.26
  -1   6  11   72.85    3.99
   6   1 -11   77.69    2.75
   6   1 -11   80.26    4.28
   6   1 -11   82.61    5.76
   1   6  -9  131.23    4.02
   6   1  -9  137.58    4.99
  -1  -6  -9  133.76    5.09
   6  -1   9  127.91    6.09
   6   1  -9  128.10    3.32
   1  -6   9  127.31    5.91
   6   1  -9  137.80    6.96
   1   6  -9  123.79    5.56
   1   6  -7  235.60    7.16
  -1   6   7  229.53    5.67
   6   1  -7  238.80    8.69
   6   1  -7  255.04    6.22
   6  -1   7  229.38    7.29
  -1   6   7  228.83    5.62
  -1  -6  -7  247.02    6.59
   6  -1   7  228.34    4.99
  -1   6   5  573.93    8.12
   6   1  -5  573.96   12.53
  -1  -6  -5  565.40    9.41
  -1   6   5  547.02    8.70
  -6   1   5  549.70    5.84
   6  -1   5  550.65    7.96
   1   6  -5  547.10   10.33
   6   1  -3  866.32   14.27
   6  -1   3  857.16   10.48
  -6   1   3  856.67    8.10
  -1   6   3  872.25   11.04
   1   6  -3  899.35   12.54
   6   1  -3  857.85   11.10
   6   1  -3  865.37   12.36
  -1  -6  -3  859.72   10.65
  -6   1   1  408.84    8.74
  -1   6   1  426.02    6.33
   6   1  -1  426.66    7.68
   6   1  -1  440.11    9.25
  -1   6   1  411.30    7.87
   1  -6   1  403.81    5.74
   6  -1   1  417.55    7.13
   6   1  -1  393.83    8.02
   1   6  -1  408.83    8.30
   6   1   1  442.16    7.54
  -1   6  -1  428.48    8.44
  -6   1  -1  420.68    7.74
   6  -1  -1  433.32    8.50
   6   1   1  429.41    8.06
   6   1   1  421.92    7.97
   6  -1  -1  427.12    5.91
   1   6   1  409.97    8.08
  -6   1  -1  431.25    7.47
  -6  -1   1  427.84    7.21
   6  -1  -1  442.59    8.47
   1   6   3  851.39   11.65
  -6  -1   3  861.67    9.61
   6   1   3  835.35    9.61
   1  -6  -3  888.48   10.96
   6  -1  -3  843.86   13.41
   6  -1  -3  864.12   11.96
  -6  -1   3  851.51   11.16
  -6   1  -3  846.73    9.10
  -1   6  -3  848.36   12.49
   1  -6  -3  875.89    9.22
   1   6   5  537.12    9.30
  -6  -1   5  548.47    7.26
   6   1   5  520.63    6.00
  -1   6  -5  534.19   10.50
   1   6   5  574.34    9.40
  -6  -1   5  537.35    9.45
   1  -6  -5  567.39    8.71
   6  -1  -5  525.12   11.61
   1   6   7  233.03    6.38
   6  -1  -7  237.43    5.04
   6  -1  -7  230.87    8.34
   1  -6  -7  238.17    5.74
  -6  -1   7  227.88    4.56
  -1   6  -7  224.01    7.33
  -1   6  -9  123.31    5.90
   1  -6  -9  138.84    4.54
   1   6   9  131.90    5.24
   6  -1  -9  136.74    6.86
  -6  -1   9  135.91    3.51
  -1   6  -9  127.22    2.99
   6  -1  -9  128.64    4.35
   6  -1 -11   76.98    5.49
   6  -1 -11   75.27    3.92
   6   1  11   75.40    5.07
  -1   6 -11   71.27    4.81
   1  -6 -11   88.03    3.86
   1  -6 -13   37.06    2.70
   6  -1 -13   42.98    3.36
   6   1  13   42.26    4.26
  -1   6 -13   30.81    3.41
   6  -1 -13   45.40    4.47
   1   6  15   45.30    4.23
   6  -1 -15   46.82    4.79
   1  -6 -15   36.88    2.85
  -1   6 -15   43.82    4.28
   6   1  15   42.93    4.56
   1   6  17   24.21    3.54
   6  -1 -17   24.42    3.85
  -1   6 -17   28.43    3.69
   6   1  17   38.25    4.83
  -1   6 -17   27.04    3.34
  -1   6 -19   39.60    4.07
  -1   6 -19   42.46    4.50
   6   1  19   39.31    5.07
   1   6  19   46.30    4.92
   6  -1 -19   41.54    4.74
   6   1  21   10.60    3.24
  -1   6 -21    4.17    1.96
   6  -1 -21    8.79    2.71
  -1   6 -21    7.50    2.28
   1   6  21    8.57    2.69
  -1   6 -23    8.21    2.50
   1   6  23   10.35    3.02
   6   1  25   13.98    3.69
   1   6  25   17.21    3.69
   1   6  27    6.52    2.81
   6   2 -26   14.50    3.62
  -2   6  24    8.59    2.71
   6  -2  24    8.56    3.06
   6   2 -24   12.21    3.24
   2  -6  24    9.80    3.03
   2   6 -24    5.40    2.49
   2  -6  22   19.68    4.09
  -2   6  22   18.52    3.25
   6   2 -22   15.86    3.57
   2   6 -22   17.09    3.37
   2   6 -22   20.27    3.53
   6  -2  22   15.68    3.83
   2   6 -20    4.30    2.52
  -2   6  20    2.35    1.49
   6   2 -20    2.58    2.11
   6  -2  20    1.73    1.89
   2  -6  20   -1.08    1.75
   2   6 -20    2.26    1.60
   6   2 -18   18.09    3.57
   2   6 -18   16.02    3.29
   2  -6  18   18.94    3.61
   6  -2  18   19.27    3.63
   2   6 -18   18.26    2.95
  -2   6  18   18.54    2.94
   2   6 -16   30.50    3.56
   6   2 -16   40.72    2.82
   2  -6  16   37.83    4.59
  -2   6  16   34.43    3.55
   6   2 -16   30.47    4.00
   2   6 -16   36.52    4.28
   6  -2  16   32.54    4.19
   6   2 -14    9.85    1.44
   6  -2  14   10.76    1.03
   6   2 -14    9.66    2.80
  -2   6  14   11.57    1.99
   2   6 -14   14.78    2.39
   2  -6  14   11.25    2.54
   6  -2  14   10.95    2.44
   6  -2  12    2.11    0.73
   2   6 -12    1.77    1.46
   6  -2  12    3.52    2.00
  -2   6  12    2.82    1.07
   6   2 -12    2.08    0.86
   2  -6  12    1.35    1.46
   6   2 -12    2.42    2.11
   2  -6  10   59.56    4.43
   6   2 -10   63.86    3.79
  -2   6  10   55.33    3.19
  -2  -6 -10   62.07    3.90
   2   6 -10   60.20    3.15
   2   6 -10   57.61    3.87
   6  -2  10   57.46    2.22
   6   2 -10   61.33    2.82
   6   2 -10   62.22    5.12
   6  -2  10   53.93    4.45
   6   2  -8  240.51    8.98
   6   2  -8  244.28    6.80
   2  -6   8  231.90    7.64
  -2   6   8  232.94    5.56
   2   6  -8  229.65    7.15
  -2  -6  -8  247.48    7.12
   2   6  -8  245.42    5.93
   6  -2   8  234.37    4.62
   6  -2   8  237.80    8.17
   6   2  -8  243.19    5.25
   6   2  -6   93.03    3.28
   6  -2   6  102.52    4.84
  -2  -6  -6   95.79    4.29
   2   6  -6   90.08    4.29
  -2   6   6   92.81    3.43
   6  -2   6   93.55    3.20
   6   2  -6   93.75    5.34
  -2   6   6   93.84    3.19
   2  -6   6   89.46    4.31
   2   6  -4  302.40    7.47
  -2  -6  -4  328.13    7.45
  -2   6   4  319.09    6.50
   6   2  -4  328.46    8.90
  -6   2   4  305.53    4.15
   6  -2   4  331.18    7.54
  -2  -6  -4  318.10    7.17
   6   2  -4  304.20    7.67
   6   2  -2  605.25    8.84
  -2  -6  -2  589.48    9.34
   2   6  -2  611.20   10.31
  -2   6   2  597.33    9.21
  -2   6   2  611.51    8.74
   6   2  -2  575.33   10.05
   2  -6   2  569.40    7.75
  -2   6   0  289.23    5.57
  -6   2   0  301.42    6.91
  -2   6   0  281.17    6.70
   2   6   0  272.98    6.80
   2  -6   0  269.09    5.52
   6  -2   0  296.84    7.08
  -6  -2   0  279.78    6.44
   6   2   0  281.54    6.88
  -6   2   0  282.33    6.48
   2   6   2  587.95    9.97
  -6  -2   2  570.67    8.73
  -6   2  -2  597.75    8.52
   6  -2  -2  601.63   10.23
   2  -6  -2  596.55    9.15
  -2   6  -2  596.79    8.87
   6  -2  -2  582.62   10.20
  -6   2  -2  601.83    8.50
  -6  -2   2  591.72    8.82
  -2   6  -2  581.77   10.15
   2  -6  -4  325.74    5.19
   2   6   4  340.30    7.48
   6  -2  -4  337.39    8.77
  -6  -2   4  319.80    6.80
  -2   6  -4  326.17    8.20
  -6  -2   4  340.04    6.48
   2   6   4  313.31    7.40
   2  -6  -4  327.42    6.47
  -2   6  -4  324.47    7.50
  -6   2  -4  320.74    5.30
  -6  -2   6   96.14    3.41
  -6  -2   6   92.74    4.06
   2   6   6  100.07    4.31
   6  -2  -6   91.65    5.21
  -2   6  -6   87.05    4.68
   2  -6  -6   92.83    3.43
  -6   2  -6   76.28    2.09
  -2  -6   6   97.34    4.63
   6  -2  -6   91.86    2.58
   2   6   8  236.45    6.98
  -2   6  -8  219.98    7.77
   6  -2  -8  232.13    5.15
  -6  -2   8  241.73    5.36
   2  -6  -8  243.06    5.54
   6  -2  -8  228.67    8.56
   6  -2 -10   57.54    3.17
   2  -6 -10   63.12    2.97
   6  -2 -10   61.83    4.94
  -2   6 -10   56.52    4.36
   6  -2 -12    1.73    2.07
   6   2  12    2.97    1.90
   6  -2 -12    0.68    0.97
   2  -6 -12    1.17    0.84
   6   2  14   10.43    2.59
   6  -2 -14   10.03    1.81
   2  -6 -14    8.63    1.34
   6  -2 -14    8.00    2.45
   2   6  14   11.92    2.23
  -2   6 -16   28.80    3.58
  -2   6 -16   34.48    3.48
   2   6  16   41.24    4.31
   6  -2 -16   40.60    4.59
   6   2  16   38.47    4.69
  -2   6 -18   17.27    2.76
   6   2  18   23.35    3.85
  -2   6 -18   19.56    3.22
   6  -2 -18   23.11    3.56
   2   6  18   18.25    3.35
   2   6  20    0.75    1.62
   6   2  20    1.50    1.74
  -2   6 -20    4.06    1.94
  -2   6 -20    2.46    1.69
   2   6  22   20.12    3.83
   6   2  22   14.88    3.58
  -2   6 -22   15.01    3.06
   2   6  24    7.81    2.55
  -2   6 -24    9.24    2.76
   6   2  24    7.86    3.11
   2   6  26   11.01    3.60
   6   3 -27   10.76    3.26
   6   3 -25   -3.08    2.56
   3  -6  23    1.29    1.81
   6  -3  23    4.97    2.67
   6   3 -23    2.65    2.24
   3   6 -23    3.41    2.31
  -3   6  21   12.48    2.61
   3  -6  21    9.00    2.80
   6  -3  21   10.75    3.14
   6   3 -21   10.68    2.99
   3   6 -21   20.31    3.56
   3   6 -21   11.17    3.04
  -3   6  19   12.38    2.50
   3   6 -19    9.58    2.96
   3  -6  19   10.56    2.89
   6  -3  19   12.37    2.99
   6   3 -19   10.33    2.82
   3   6 -19    8.45    2.19
   3   6 -17   31.61    3.61
   3  -6  17   24.35    3.77
  -3   6  17   30.63    3.43
   6   3 -17   32.40    2.89
   6  -3  17   29.13    4.19
   6   3 -17   25.92    3.97
   3   6 -17   27.64    3.93
  -6   3  17   29.96    3.31
   3   6 -15   14.28    2.49
   3   6 -15   15.74    3.19
   6   3 -15   14.40    1.93
   6   3 -15   10.82    3.10
   3  -6  15   16.24    3.08
   6  -3  15   15.28    2.95
  -3   6  15   13.47    2.18
   6  -3  13    7.48    2.39
   3   6 -13    6.26    1.80
   6   3 -13    5.28    1.27
   3  -6  13    2.89    1.79
  -3   6  13    4.47    1.38
   6   3 -13    9.37    3.07
   6   3 -11   35.99    4.29
   6  -3  11   30.60    3.75
   6   3 -11   32.64    2.40
  -3   6  11   25.68    2.40
   3   6 -11   32.73    3.08
   3  -6  11   31.40    3.57
   6   3  -9   25.82    3.35
   3  -6   9   28.66    3.06
   3   6  -9   30.78    2.48
  -3  -6  -9   27.63    2.67
  -3   6   9   26.75    2.02
   6  -3   9   33.00    3.49
   6   3  -9   29.41    2.16
   3   6  -9   28.65    2.64
  -3   6   7  121.55    3.45
  -3  -6  -7  120.50    5.16
   6  -3   7  127.17    5.95
   6   3  -7  119.23    6.17
   3   6  -7  114.70    4.91
   6   3  -7  110.98    5.06
   3  -6   7  115.92    5.25
   6   3  -7  117.97    4.10
   3   6  -7  121.24    4.58
  -3   6   7  122.77    3.72
   6   3  -5   38.07    3.04
  -3  -6  -5   38.85    2.89
   3   6  -5   36.65    2.81
   6   3  -5   38.60    2.43
  -3   6   5   39.32    2.27
   6  -3   5   40.99    3.21
   3  -6   5   38.01    2.73
  -3   6   3  396.92    7.93
  -3   6   3  373.11    7.09
   3   6  -3  375.07    8.31
   6   3  -3  374.45    8.48
   6  -3   3  401.90    8.18
  -3  -6  -3  369.03    7.93
   6   3  -3  383.03    6.81
   6   3  -3  384.52    7.48
  -3  -6  -1    2.06    1.07
  -3   6   1    1.95    0.96
   6   3  -1    4.44    1.19
  -3   6   1    1.83    1.02
   6  -3   1    2.72    1.39
   3   6  -1    5.65    1.39
  -6  -3  -1    2.62    1.11
   3  -6   1    2.24    1.05
  -6   3   1    4.22    1.41
   6  -3   1    2.67    0.91
  -6  -3   1    1.49    0.96
  -3   6  -1    2.47    1.12
   3   6   1    3.20    1.19
  -3   6  -1    0.95    0.71
  -6   3  -1    1.45    0.99
  -6  -3   1    2.08    0.94
   6  -3  -1    3.23    0.62
   6  -3  -1    3.15    1.27
  -6   3  -3  416.78    6.87
   6  -3  -3  402.79    8.78
   3  -6  -3  403.08    7.44
   3  -6  -3  400.53    5.01
  -6  -3   3  394.24    7.66
  -6   3  -3  400.25    6.77
   3   6   3  380.23    8.36
  -3   6  -3  393.38    8.92
  -3   6  -3  405.37    8.01
  -3   6  -5   39.38    2.96
  -3   6  -5   35.04    3.04
  -6  -3   5   42.32    2.57
  -6  -3   5   40.37    2.47
  -3  -6   5   38.27    2.88
   6  -3  -5   29.92    1.15
   3  -6  -5   40.11    2.26
   6  -3  -5   36.53    3.25
   3   6   7  123.05    5.10
   6  -3  -7  115.21    5.83
  -6  -3   7  125.51    4.29
  -3  -6   7  122.79    5.24
   3  -6  -7  116.54    3.61
   6  -3  -7  122.20    3.17
  -6  -3   7  120.30    4.64
   6  -3  -9   31.36    2.02
  -6  -3   9   30.84    2.25
   6  -3  -9   27.38    3.39
   3  -6  -9   29.57    1.87
   6   3  11   27.57    1.65
   3  -6 -11   34.35    2.07
  -6   3 -11   20.81    1.21
   6  -3 -11   27.49    3.68
   6   3  13    4.20    0.94
  -6   3 -13    3.29    0.63
   6  -3 -13    6.91    2.46
   3  -6 -13    5.32    0.95
  -6   3 -15    9.91    1.02
   6   3  15   12.86    2.68
   3  -6 -15   12.83    1.48
   3   6  15   14.24    2.67
   3   6  17   33.47    4.20
  -3   6 -17   30.42    3.22
   6   3  17   33.00    4.49
  -3   6 -19   11.22    2.25
   6   3  19   14.03    3.16
   3   6  19   10.88    2.86
   6   3  21   14.98    3.55
  -3   6 -21   13.82    2.93
   3   6  21   15.97    3.42
  -3   6 -23    6.64    2.30
   6   3  23    3.53    2.53
   3   6  23    6.16    2.73
   6   3  25   -1.78    1.96
   3   6  25    1.77    2.30
  -3   6 -25    1.56    1.81
   6   4 -26    3.25    2.48
   6  -4  24    0.16    2.08
   4  -6  24   -2.71    2.05
   4   6 -24    2.02    2.53
   6   4 -24    0.47    2.11
   6  -4  22   64.12    6.66
   4  -6  22   60.50    6.58
   4   6 -22   67.96    6.41
   6   4 -22   64.25    6.27
   4  -6  20   15.40    3.31
  -4   6  20   10.55    2.36
   6  -4  20    7.84    2.69
   4   6 -20   14.11    2.84
  -6   4  20   11.13    2.41
   4   6 -20    9.33    2.83
   6   4 -20    6.05    2.52
   6   4 -18   24.60    4.05
   6  -4  18   19.77    3.50
   4   6 -18   22.30    3.95
  -4   6  18   28.93    3.36
  -6   4  18   26.34    3.20
   6   4 -18   29.09    3.14
   4  -6  18   18.54    3.54
   4   6 -18   20.77    3.10
   6   4 -16   37.81    4.80
  -4   6  16   37.56    3.53
   4  -6  16   29.68    4.06
   6  -4  16   40.89    4.79
   4   6 -16   36.28    3.70
   4   6 -16   36.80    4.63
  -6   4  16   33.63    3.34
   6   4 -16   38.26    3.28
   6   4 -14   87.71    4.51
   6  -4  14   80.56    6.09
   6   4 -14   78.55    6.33
   4   6 -14   81.92    5.00
  -6   4  14   82.84    4.37
  -4   6  14   84.87    4.65
   4  -6  14   81.44    6.16
   4   6 -14   90.83    6.37
   6  -4  12   48.93    4.61
  -4   6  12   42.98    3.11
   4   6 -12   44.96    3.57
   6   4 -12   46.10    3.12
   4  -6  12   47.10    4.46
   6   4 -12   43.17    4.70
  -6   4  12   48.54    2.95
   4   6 -10   75.97    4.32
  -4   6  10   76.27    3.54
   6  -4  10   81.13    5.50
   6   4 -10   80.17    3.85
   6   4 -10   73.02    5.39
   4   6 -10   75.03    4.08
   4  -6  10   69.23    4.93
  -4   6   8  421.24    6.75
   6   4  -8  412.61    9.92
   6  -4   8  434.07   11.50
   6   4  -8  424.56    8.53
   4   6  -8  408.85    9.34
   4   6  -8  416.60    9.02
  -4   6   8  440.39    6.51
   4  -6   8  425.62   10.78
  -4   6   8  420.06    6.14
   6   4  -6    6.73    1.74
  -4   6   6    6.57    0.99
   4  -6   6    9.47    1.72
   6   4  -6    6.76    1.25
   6  -4   6    9.60    1.83
  -6   4   6    6.83    0.76
   4   6  -6    7.38    1.50
  -4  -6  -6    9.17    1.74
   6  -4   4  249.63    7.27
   6   4  -4  254.27    6.54
   4   6  -4  247.53    6.89
   4  -6   4  255.96    6.49
  -4  -6  -4  251.26    7.11
  -4   6   4  254.56    5.71
  -4   6   4  272.27    7.28
   6   4  -4  260.24    7.40
   4   6  -2  652.35   11.12
  -6  -4  -2  646.18   11.21
   6   4  -2  659.28    8.39
  -4   6   2  668.30   10.58
   4  -6   2  644.65    9.95
   6   4  -2  660.58   10.47
   6  -4   2  639.38   10.01
  -4   6   2  630.34    6.34
  -4   6   2  640.11    9.76
  -4  -6  -2  631.13   10.78
   6  -4   0  393.05    6.16
  -6  -4   0  380.69    8.23
  -4   6   0  389.47    6.30
  -6   4   0  402.88    8.16
   4   6   0  384.57    8.55
   6  -4   0  388.18    8.62
  -4   6   0  376.42    8.04
   4  -6   0  381.05    7.85
  -6  -4   2  653.67   10.72
  -4   6  -2  675.10   10.00
   4   6   2  658.17   11.28
   6  -4  -2  662.67   11.47
  -4   6  -2  644.45   11.38
  -4  -6   4  254.30    3.61
  -4   6  -4  274.75    7.44
  -4  -6   4  271.62    7.34
  -6   4  -4  273.14    5.41
  -6  -4   4  275.02    6.83
  -6  -4   4  263.11    5.70
  -6  -4   6    6.45    1.19
  -4   6  -6    8.74    1.85
  -6  -4   6    9.00    1.44
   4  -6  -6    8.40    1.16
  -4  -6   6    7.30    1.45
   4  -6  -8  435.58    6.58
  -6  -4   8  427.49    8.72
  -4  -6   8  436.20   10.05
   4  -6 -10   72.18    2.65
  -6  -4  10   79.80    4.00
   6   4  12   40.93    2.39
   4  -6 -12   39.86    1.94
  -6   4 -14   82.19    3.01
   4   6  14   88.26    4.80
   6   4  14   81.11    3.53
   4  -6 -14   74.37    2.65
   4   6  16   32.35    4.06
  -6   4 -16   28.18    1.87
  -4   6 -16   36.30    3.14
   6   4  16   32.53    4.26
  -4   6 -18   28.16    2.97
   6   4  18   25.33    3.95
   4   6  18   21.72    3.71
   6   4  20   15.70    3.68
   4   6  20   14.05    3.44
   6   4  22   75.01    7.68
   4   6  22   71.65    7.37
   4   6  24    0.00    2.02
  -4   6 -24    6.58    2.60
   6   4  24   -1.62    3.01
   4   6  26    4.08    2.69
  -4   6 -26    2.23    1.97
   6   5 -25    7.01    3.02
   5   6 -25    3.80    2.57
   5  -6  23   25.22    4.60
   5   6 -23   26.48    4.48
   6   5 -23   28.30    4.68
   6  -5  23   21.81    4.18
   6  -5  21   27.81    4.54
   5  -6  21   31.63    5.01
   5   6 -21   31.49    4.86
   6   5 -21   34.64    4.87
   5   6 -19   29.95    3.70
  -5   6  19   19.59    2.81
   5   6 -19   21.75    3.86
   6   5 -19   15.53    3.57
  -6   5  19   18.66    2.82
   5  -6  19   20.24    3.94
   6   5 -19   28.03    3.41
   6  -5  19   27.37    4.31
   5  -6  17   76.43    6.47
   6   5 -17   76.41    6.65
  -5   6  17   83.08    5.07
   5   6 -17   78.77    6.60
   6   5 -17   81.98    5.18
   5   6 -17   84.73    5.59
  -6   5  17   83.03    5.05
   6  -5  17   81.37    6.69
  -5   6  15    0.62    0.97
   5  -6  15    0.01    1.54
   6   5 -15    1.64    2.26
   6   5 -15    4.53    1.61
   5   6 -15    0.42    1.14
   6  -5  15    3.20    2.09
  -6   5  15    2.74    1.26
   6   5 -13   77.70    4.41
  -5   6  13   79.61    4.11
   5  -6  13   76.61    5.91
   5   6 -13   78.92    4.74
   6  -5  13   86.40    6.20
  -6   5  13   76.66    3.84
   6   5 -13   74.75    6.00
   6  -5  11   84.55    5.74
   6   5 -11   99.78    6.45
   5   6 -11   88.56    4.75
   6   5 -11   79.78    4.25
  -5   6  11   85.69    3.67
  -6   5  11   86.59    3.36
   5  -6  11   88.23    5.87
   6   5  -9   99.55    4.52
  -5   6   9   97.14    3.24
   5  -6   9   99.42    5.71
   5   6  -9   94.45    4.66
   5   6  -9   97.37    4.87
   6   5  -9  100.06    5.15
  -5   6   9   96.96    2.94
   6  -5   9   95.59    5.75
   5   6  -7  410.49    9.43
   5  -6   7  398.24   10.25
  -5   6   7  397.67    6.12
   5   6  -7  394.19    9.10
   6   5  -7  401.79    8.85
   6   5  -7  396.62    9.63
   6  -5   7  390.53   10.45
  -6   5   7  369.71    4.96
   5   6  -5  277.91    7.50
  -5   6   5  296.29    5.96
   6   5  -5  290.05    8.09
  -6   5   5  286.00    5.44
   6  -5   5  272.56    7.88
   6   5  -5  292.35    7.42
   5  -6   5  286.78    7.68
   5   6  -3  684.92   11.72
  -5  -6  -3  697.51   12.12
  -6  -5  -3  683.97   12.33
   6   5  -3  681.56   11.35
   6  -5   3  715.11   10.98
  -6   5   3  686.65    9.55
  -5   6   3  693.86    9.99
   5  -6   3  691.05   10.09
  -5   6   3  730.04   11.97
   5   6  -1  287.22    4.26
  -5  -6  -1  262.76    7.30
   6   5  -1  260.55    7.12
   5  -6   1  274.26    5.27
   6  -5   1  291.24    5.68
   5  -6   1  275.92    7.17
  -5   6   1  278.17    6.90
   6   5  -1  278.19    5.26
  -5   6   1  280.41    5.10
   6  -5   1  264.78    7.29
   5   6  -1  276.09    7.50
  -5   6   1  292.96    7.34
  -6  -5  -1  268.96    7.42
   5   6   1  270.20    7.47
  -5   6  -1  282.91    6.45
  -6  -5   1  280.90    7.37
   5  -6  -1  294.31    7.53
   6  -5  -1  275.76    3.90
   6  -5  -1  287.41    7.71
  -6  -5   3  708.35   11.72
  -5  -6   3  704.91   12.11
  -5   6  -3  692.15   11.73
  -5  -6   5  292.64    7.89
  -6  -5   5  295.67    7.60
  -5   6  -5  306.51    8.75
  -6   5  -5  273.83    7.89
  -5  -6   5  291.74    4.93
  -6  -5   5  280.98    5.78
  -6   5  -5  297.84    5.51
  -6  -5   7  397.48    7.67
  -6   5  -7  380.68    5.02
  -6  -5   7  412.37    9.18
  -5  -6   7  407.29    9.56
  -6  -5   9  106.61    4.85
  -6  -5  11   97.09    4.83
   6   5  13   80.01    3.73
   5   6  13   78.03    4.22
  -6   5 -15    2.64    1.09
   5   6  17   86.34    6.78
   6   5  17   90.19    7.07
  -5   6 -17   80.86    4.34
   5   6  19   20.12    3.76
   6   5  19   21.73    4.17
   6   5  21   40.66    5.73
   5   6  21   34.62    5.27
   6   5  23   23.09    4.80
   5   6  23   39.38    5.90
  -5   6 -25   10.64    2.91
   5   6  25    7.57    3.64
   6   5  25   11.53    3.76
   6   6 -26    7.74    3.27
   6   6 -24    4.76    2.73
   6  -6  22   65.64    6.91
   6   6 -22   76.79    7.18
   6   6 -20    3.63    2.58
   6  -6  20    9.50    2.91
  -6   6  18   14.26    2.40
   6   6 -18   13.50    3.52
   6  -6  18   13.10    3.22
   6   6 -18   15.55    2.74
   6  -6  16   89.12    6.89
   6   6 -16   77.75    5.17
  -6   6  16   70.50    4.38
   6   6 -16   85.83    7.02
   6   6 -14   19.82    3.94
  -6   6  14   16.55    2.00
   6   6 -14   16.25    2.44
   6  -6  14   22.18    3.58
  -6   6  12    6.39    1.20
   6  -6  12    8.01    2.22
   6   6 -12    8.45    1.75
   6  -6  10   54.44    4.58
  -6   6  10   52.81    2.24
   6   6 -10   56.17    3.75
   6   6 -10   46.88    3.79
  -6   6   8  615.83    7.02
   6   6  -8  653.07   12.03
   6   6  -8  654.62   12.73
   6  -6   8  601.84   13.66
   6  -6   6   62.08    4.00
   6   6  -6   68.23    4.19
  -6   6   6   64.95    2.71
   6   6  -6   66.87    3.90
   6  -6   4  270.68    7.21
   6   6  -4  282.00    7.75
  -6  -6  -4  279.09    8.19
  -6   6   4  276.45    6.25
   6  -6   2  617.62    9.03
   6   6  -2  602.22   11.37
   6   6  -2  626.28    7.16
   6  -6   2  603.49   11.11
  -6   6   2  635.15   11.53
  -6   6   2  606.34   10.11
  -6  -6  -2  585.54   11.47
  -6  -6   0  480.87   10.18
  -6   6   0  512.51    7.40
   6  -6   0  486.35    6.37
   6   6   0  483.32   10.29
   6  -6   0  510.42   10.37
   6  -6  -2  622.62   11.83
  -6  -6   2  615.40   11.56
  -6   6  -2  611.71   10.19
  -6  -6   4  276.93    7.87
  -6   6  -4  266.30    7.74
  -6  -6   6   71.87    4.09
  -6  -6   6   69.08    2.89
  -6  -6   8  666.35   10.09
   6   6  14   19.95    2.30
  -6   6 -16   73.46    3.72
   6   6  18   11.11    2.97
   6   6  20    8.29    2.86
   6   6  22   81.77    8.13
   6   6  24    2.72    2.65
  -6   6 -26    4.56    2.47
   7   0  -1   69.77    3.66
   0   7  -1   71.32    3.76
  -7   0   1   70.26    3.01
   0   7   1   70.26    2.53
   7   0  -1   69.11    3.76
   0   7   1   67.81    3.63
   7   0   1   68.18    3.56
   7   0   1   71.15    3.12
   7   0   1   71.89    3.54
   7   0  -1   70.38    4.04
   0   7   3  962.71   12.94
   0  -7   3  960.42    7.84
   0   7  -3  959.78   14.09
   0  -7  -3  983.61   12.85
   7   0  -3  939.43   15.60
   7   0   3  964.94   12.38
  -7   0   3  959.75   10.46
   0  -7  -3  968.84   11.35
   7   0   3  985.01   10.40
   7   0  -3  959.95   13.09
   0  -7  -5  286.90    7.06
  -7   0   5  285.90    5.32
   7   0   5  269.26    3.94
   0   7  -5  290.68    8.12
   7   0   5  280.37    6.60
  -7   0   5  283.52    7.53
   7   0  -5  283.24    9.17
   0   7   5  277.31    6.97
  -7   0   7   10.26    0.99
   7   0  -7    9.43    1.26
   0   7   7   10.49    1.61
   0   7   7    9.55    1.47
   7   0  -7    7.24    2.14
   0  -7  -7   10.04    1.59
   0   7  -7   11.24    1.96
   0  -7  -9  257.24    6.96
   7   0  -9  254.82    9.68
   7   0  -9  271.21    6.67
   0   7  -9  264.86    5.34
   0   7   9  246.83    6.96
   0   7  -9  236.36    8.20
  -7   0   9  230.68    3.81
   7   0 -11    4.44    1.28
   7   0 -11    5.51    2.39
   0   7 -11    5.47    1.70
   7   0  11    8.90    2.05
   0  -7 -11    5.17    1.42
   0   7 -13    0.78    1.22
   7   0  13   -0.18    1.53
   0  -7 -13    1.37    1.03
   7   0 -13    1.57    2.35
   0   7  15   96.05    5.80
   7   0  15  104.15    7.14
   0  -7 -15   93.30    4.94
   0   7 -15   86.06    5.88
   7   0 -15  100.45    6.96
   7   0 -17   -1.57    2.14
   0   7 -17   -0.28    1.56
   7   0  17   -0.63    1.80
   0   7  17    1.23    1.41
   0   7 -17    1.59    1.83
   0   7 -19   14.04    2.99
   7   0 -19   17.87    3.44
   0   7  19   17.38    3.16
   7   0  19   17.38    3.66
   0   7 -19   20.36    3.36
   7   0  21   39.68    5.38
   7   0 -21   48.66    5.40
   0   7 -21   50.64    5.17
   0   7  21   32.14    4.35
   0   7 -21   42.02    4.66
   0   7 -23    1.25    1.76
   0   7  23    2.72    1.96
   7   0  23    4.39    2.76
   7   0 -23   -0.63    2.07
   0   7  25    2.77    2.00
   7   1 -26   13.32    3.59
   7   1 -24    9.31    3.20
  -1   7  24    1.14    2.07
   7  -1  24    7.50    3.09
   1   7 -22   15.66    3.44
  -1   7  22   12.16    2.69
   1  -7  22   13.33    3.67
   7  -1  22   17.17    3.79
   1   7 -22   17.05    3.30
   7   1 -22   26.50    4.26
   1   7 -20    5.49    2.46
   1  -7  20    3.52    2.26
   7  -1  20    5.68    2.63
  -1   7  20    4.64    1.85
   1   7 -20   10.18    2.59
   7   1 -20    5.29    2.57
   1   7 -18    1.13    1.78
   1   7 -18    6.03    2.20
   1  -7  18    4.04    2.28
   7   1 -18    5.77    2.59
   7  -1  18    5.24    2.32
  -1   7  18    4.83    1.89
   7   1 -16   64.76    5.80
  -1   7  16   65.70    4.95
   1  -7  16   66.54    5.96
   7   1 -16   54.49    2.30
   7  -1  16   65.90    5.99
   1   7 -16   66.33    5.26
   7   1 -14   32.31    1.77
  -1   7  14   35.22    3.33
   7  -1  14   36.95    4.43
   1   7 -14   36.94    3.90
   1  -7  14   35.20    4.10
   7   1 -14   38.77    4.48
  -1  -7 -12   25.30    2.71
   1   7 -12   18.28    2.65
   7   1 -12   19.16    3.23
   1  -7  12   21.93    3.09
   7  -1  12   21.16    3.19
   7   1 -12   18.31    1.36
  -1   7  10   64.23    3.60
   7   1 -10   65.64    3.71
   1   7 -10   65.94    3.08
   7  -1  10   61.30    4.67
  -1  -7 -10   71.65    4.08
   1   7 -10   57.71    4.18
   7   1 -10   74.90    5.58
   7   1  -8  342.90   11.05
   1   7  -8  317.63    9.01
   7  -1   8  335.50    6.66
  -1  -7  -8  346.89    8.35
   7  -1   8  310.53    9.16
   7   1  -8  368.26    7.95
  -1   7   8  326.76    7.29
  -7   1   6  283.76    4.53
   7   1  -6  296.33    9.83
  -1  -7  -6  293.16    7.38
  -1   7   6  286.56    6.34
   1   7  -6  284.99    8.16
  -1   7   6  281.38    6.79
   7  -1   6  286.97    6.35
  -7   1   4  382.73    5.97
   1   7  -4  380.81    9.03
   7   1  -4  392.96   10.69
  -1   7   4  380.66    7.94
  -1  -7  -4  399.23    8.48
   7  -1   4  389.07    7.68
  -1  -7  -4  387.73    7.80
  -1   7   2  560.53    9.90
   1   7  -2  530.15   10.32
   7  -1   2  543.41    8.12
   7   1  -2  546.14   11.70
   7   1  -2  540.61   10.36
   1  -7   2  546.34    7.00
  -1  -7  -2  540.85    9.01
   7  -1   2  535.47    9.43
  -1   7   2  561.92    8.17
  -7   1   2  530.66   11.14
   7   1  -2  548.88    9.52
   1   7   0  603.33    5.62
   7  -1   0  588.37    7.98
  -7   1   0  589.19   10.54
   7   1   0  605.56    9.11
  -7   1   0  591.95    9.81
   7   1   0  576.19   10.31
   1   7   0  579.68   10.49
  -7  -1   0  599.51    9.49
  -1   7   0  590.07   10.43
   7   1   0  602.49   11.18
   7  -1   0  608.78   10.09
  -1   7   0  608.26    7.53
   7  -1   0  591.55   10.42
   7   1   2  561.80    9.31
  -1   7  -2  535.07   10.41
   7   1   2  541.44    9.46
   7  -1  -2  540.52   10.06
   7  -1  -2  547.28   10.93
  -7   1  -2  563.10    8.94
   1  -7  -2  563.77    9.69
  -7  -1   2  540.91    8.55
   7   1   2  546.03    9.70
   1   7   2  541.28   10.02
  -1   7  -4  393.23    8.54
   7   1   4  406.51    6.93
  -1   7  -4  382.30    9.23
  -7  -1   4  388.24    8.35
   7  -1  -4  379.11   10.07
  -7  -1   4  388.46    6.90
   1  -7  -4  395.58    6.82
   1   7   4  385.48    8.49
   1  -7  -4  398.17    7.97
   1  -7  -6  289.17    6.81
  -7  -1   6  281.63    7.51
   7   1   6  268.07    3.95
   7  -1  -6  283.39    9.38
   1   7   6  290.42    7.27
  -1   7  -6  281.61    8.36
   1   7   6  295.63    7.51
  -7  -1   6  304.09    5.78
  -1   7  -8  327.29    9.47
   7  -1  -8  331.00    6.48
  -7  -1   8  331.09    5.76
   1  -7  -8  335.04    7.50
   1   7   8  323.47    8.08
   7  -1  -8  340.18   10.81
   7  -1 -10   64.58    5.19
  -1   7 -10   60.53    4.46
   7  -1 -10   62.96    3.31
  -1   7 -10   63.83    2.35
   1  -7 -10   67.08    3.52
   7  -1 -12   24.74    3.80
   7  -1 -12   21.94    2.37
  -1   7 -12   14.74    2.60
   1  -7 -12   23.75    2.29
   7   1  12   22.53    3.14
  -1   7 -14   29.96    3.59
   7   1  14   35.29    4.17
   7  -1 -14   39.90    4.53
   1  -7 -14   37.56    2.91
  -1   7 -16   65.94    5.43
   7  -1 -16   74.12    6.22
   1   7  16   75.37    5.56
   7   1  16   68.11    6.13
   1   7  18    4.25    1.76
   7   1  18   11.58    3.16
  -1   7 -18    3.40    1.83
  -1   7 -18    4.49    2.26
   7  -1 -18    3.82    2.34
  -1   7 -20    3.44    1.89
   7   1  20    3.28    2.00
  -1   7 -20    5.45    2.18
   1   7  20    5.66    2.32
   7  -1 -20    9.16    3.02
  -1   7 -22   13.94    3.03
   7   1  22   19.45    4.10
   1   7  22   16.21    3.31
   7  -1 -22   17.57    3.57
   7   1  24    6.02    3.27
   1   7  24    2.79    2.27
  -1   7 -24    8.46    2.67
   1   7  26   11.45    3.20
   7   2 -27   13.27    3.79
   7   2 -25    8.56    3.18
   7  -2  23    7.66    2.99
   7   2 -23    3.60    2.21
  -2   7  23    5.31    2.24
   2  -7  23    5.51    2.63
   2   7 -23    9.48    3.04
   7  -2  21   18.48    3.83
   2   7 -21   15.67    3.15
   2   7 -21   18.91    3.64
  -2   7  21   16.57    3.09
   2  -7  21   20.43    4.15
   7   2 -21   21.37    3.79
  -2   7  19   10.13    2.37
   7  -2  19    5.75    2.14
   7   2 -19    9.64    2.86
   2   7 -19   11.10    3.01
   2   7 -19   12.15    2.80
   2  -7  19   11.43    2.95
   2   7 -17   63.43    5.52
   7  -2  17   59.44    5.86
  -2   7  17   59.59    4.81
   7   2 -17   64.54    5.95
   2  -7  17   59.96    5.78
   2   7 -17   64.47    5.21
   7   2 -15    5.15    2.41
   7   2 -15    3.08    0.95
   7  -2  15    4.84    2.18
   2  -7  15    2.79    1.80
  -2   7  15    5.53    1.65
   2   7 -15    2.48    1.59
   7  -2  15    2.58    0.66
  -2   7  13   52.80    3.74
   7   2 -13   59.41    2.90
   2  -7  13   56.02    4.92
   7  -2  13   48.56    2.18
   7  -2  13   57.85    5.18
   7   2 -13   56.83    5.25
   2   7 -13   55.91    4.37
   2   7 -11   31.03    3.22
   2   7 -11   21.45    2.28
   7  -2  11   24.02    3.31
   7   2 -11   26.79    1.94
  -2   7  11   24.83    2.31
   7  -2  11   23.68    1.72
   2  -7  11   28.34    3.35
   7   2 -11   28.80    4.00
  -2   7  11   23.29    2.23
  -2  -7  -9   43.74    3.31
   7   2  -9   44.37    4.42
   2  -7   9   40.19    3.50
   7  -2   9   38.30    3.66
  -2   7   9   39.74    2.53
   2   7  -9   43.03    3.55
   7   2  -9   37.68    2.23
   7  -2   9   40.71    2.28
   2   7  -9   47.39    2.93
   7   2  -9   42.50    3.06
  -2   7   7  361.19    6.85
  -2  -7  -7  368.97    8.84
  -2   7   7  369.00    7.47
   7  -2   7  343.23    9.48
   7  -2   7  359.19    6.82
   7   2  -7  375.94   11.35
   7   2  -7  369.13    6.84
   2   7  -7  353.08    9.17
  -2  -7  -5  428.47    9.10
  -2  -7  -5  394.93    8.43
  -2   7   5  409.43    7.95
  -7   2   5  412.74    5.46
   2   7  -5  399.54    9.35
   7  -2   5  411.89    9.22
   7   2  -5  422.79   11.27
   7   2  -5  404.20    9.69
  -2  -7  -3  660.59   10.62
  -2   7   3  679.68   10.62
   2   7  -3  655.41   11.70
   7   2  -3  678.75   13.14
   7   2  -3  652.90   11.72
   7   2  -3  669.27   10.24
  -2   7   3  709.85   10.43
   2  -7   1  697.11    9.09
   7   2  -1  713.08   11.84
   2   7  -1  691.88   11.75
  -7   2   1  731.36   12.36
   7   2  -1  723.18   12.35
  -2   7   1  716.53   11.28
  -7  -2  -1  712.67   11.14
  -2   7   1  738.22    9.63
   7   2  -1  717.42   10.53
  -7  -2   1  693.05   10.56
   7   2   1  699.14   11.46
   7   2   1  729.81   10.86
   7  -2  -1  723.79   11.37
  -7  -2   1  696.36   10.47
  -7   2  -1  712.96   10.51
   2  -7  -1  741.86   11.34
  -2   7  -1  694.63   11.57
  -7   2  -1  692.64   10.89
   7  -2  -1  708.29    7.73
   7  -2  -1  703.41   11.79
   2   7   1  715.06   11.81
   2   7   3  693.25   11.60
   2  -7  -3  683.64   10.52
  -7  -2   3  697.21   10.09
  -7   2  -3  696.05    9.68
  -2   7  -3  702.67   10.86
   2  -7  -3  677.16    8.21
  -7   2  -3  656.27    9.30
   7  -2  -3  699.72   12.69
  -2   7  -3  687.18   12.16
   7  -2  -3  696.22   11.87
   7  -2  -5  397.62   10.62
  -7  -2   5  423.98    7.63
   2   7   5  394.37    8.93
  -2   7  -5  406.78    9.22
  -7   2  -5  397.47    6.03
  -7  -2   5  418.14    8.60
  -2   7  -5  400.18    9.80
   2  -7  -5  414.88    7.95
   2   7   5  430.68    9.01
  -2   7  -7  355.88    9.89
  -7  -2   7  360.05    6.83
   7  -2  -7  363.27    5.70
   2   7   7  355.06    8.60
   2  -7  -7  357.70    7.32
  -7  -2   7  357.79    8.56
   7  -2  -7  333.38   10.41
  -2   7  -9   34.11    3.44
  -2   7  -9   40.07    1.67
   7  -2  -9   40.15    2.35
   2  -7  -9   42.61    2.66
  -7  -2   9   39.56    2.30
   7  -2  -9   34.81    3.93
   7  -2 -11   23.68    3.54
   2  -7 -11   26.84    2.24
  -2   7 -11   25.00    3.22
   7  -2 -11   30.87    2.51
   7  -2 -13   63.73    5.46
   7  -2 -13   57.47    3.64
   7   2  13   56.10    4.88
   2  -7 -13   63.13    3.41
  -2   7 -13   63.07    5.11
   7  -2 -15    4.86    2.37
   2   7  15    5.77    2.07
  -2   7 -15    3.37    1.66
   2  -7 -15    4.87    1.31
   7   2  15    2.12    1.65
   7   2  17   64.92    6.28
  -2   7 -17   78.23    5.17
   2   7  17   61.03    5.40
   7  -2 -17   60.93    5.72
  -2   7 -17   64.12    5.53
   7   2  19    5.91    2.73
   2   7  19    9.80    2.74
  -2   7 -19    9.76    2.54
   7  -2 -19   13.31    3.26
  -2   7 -19    9.16    2.38
  -2   7 -21   15.51    3.16
   2   7  21   24.65    4.12
   7   2  21   16.22    3.95
   2   7  23    4.33    2.38
  -2   7 -23    7.89    2.54
   7   2  23    8.57    3.48
  -2   7 -25   14.93    3.34
   2   7  25   10.86    3.44
   7   3 -26    5.24    2.78
   7  -3  24    0.23    2.16
   3  -7  24    4.29    2.49
   7   3 -24    4.38    2.67
   3   7 -24    7.64    2.76
   3  -7  22   11.84    3.30
   7   3 -22   15.90    3.67
   3   7 -22   14.06    3.42
   7  -3  22   14.60    3.49
   3   7 -20    4.56    2.20
   3   7 -20    1.26    2.07
  -3   7  20    3.11    1.63
   7  -3  20    1.75    1.85
   7   3 -20    3.88    2.37
   3  -7  20    0.83    1.72
   7   3 -18   16.03    3.43
   7  -3  18   15.31    3.36
   3   7 -18   14.29    2.81
  -3   7  18   10.41    2.28
   3   7 -18   15.45    3.44
   3  -7  18   20.16    3.85
  -3   7  16    5.65    1.78
   7   3 -16    8.80    1.65
   7   3 -16    9.93    2.95
   3   7 -16    6.90    2.14
   7  -3  16    4.29    2.14
   3   7 -16    5.19    2.61
   3  -7  16    7.30    2.43
   7   3 -14    3.17    1.04
   7   3 -14    3.60    2.26
   7  -3  14    3.13    1.93
   3  -7  14    0.33    1.42
  -3   7  14    3.36    1.45
   3   7 -14    1.73    1.26
   7  -3  12   21.61    3.30
  -3   7  12   26.27    2.58
   3  -7  12   25.07    3.38
   3   7 -12   21.05    2.69
   7   3 -12   24.10    3.82
   7   3 -12   23.76    2.15
   7   3 -10   14.76    1.69
  -3   7  10   10.94    1.40
   7   3 -10   12.05    2.97
   3  -7  10   13.78    2.50
   7  -3  10   14.37    2.61
  -3   7  10   11.44    1.53
   3   7 -10   13.25    2.21
   3   7 -10   10.61    1.78
   7  -3   8  115.86    6.07
   7   3  -8  119.37    4.31
   3   7  -8  112.56    4.65
  -3   7   8  112.76    3.97
  -3   7   8  110.70    3.68
   3   7  -8  111.16    5.25
   3  -7   8  113.56    5.54
   7   3  -8  104.07    6.23
   7   3  -6   19.33    1.86
  -3  -7  -6   18.40    2.21
   3  -7   6   19.43    2.21
   7   3  -6   18.37    2.46
  -3   7   6   18.66    1.76
   7   3  -6   19.30    2.95
   7  -3   6   19.77    2.56
   3   7  -6   18.11    2.26
  -3   7   4  200.20    5.63
   7  -3   4  210.91    6.55
   7   3  -4  211.97    6.96
   3   7  -4  205.13    6.68
  -3  -7  -4  204.06    6.34
  -3   7   4  210.78    6.39
   3  -7   2  170.64    4.97
  -3   7   2  189.55    5.48
   3   7  -2  165.28    5.90
   7   3  -2  172.95    6.15
   7  -3   2  183.98    5.26
  -3  -7  -2  181.42    5.82
  -3   7   2  174.49    5.53
   7   3  -2  173.64    5.04
  -7   3   2  188.89    6.50
   3   7   0  206.83    6.64
  -7  -3   0  201.91    6.13
   7  -3   0  199.85    6.42
  -3   7   0  204.11    4.94
  -7  -3   0  197.88    6.03
  -3   7   0  202.66    6.21
  -7   3   0  214.56    6.36
   3  -7   0  208.17    5.57
  -7   3   0  210.82    6.18
   3  -7  -2  187.13    5.70
   3   7   2  173.42    6.03
  -7  -3   2  177.78    5.55
  -7   3  -2  181.75    5.25
  -3   7  -2  178.55    5.24
   7  -3  -2  179.21    6.25
  -3   7  -2  165.09    5.91
  -7   3  -2  188.28    5.47
  -7  -3   2  167.92    5.46
   3  -7  -4  201.53    4.05
  -7  -3   4  201.82    5.67
  -3   7  -4  199.26    6.31
   3  -7  -4  194.25    5.47
   3   7   4  207.65    6.69
   7  -3  -4  205.74    7.16
  -7   3  -4  207.90    5.10
  -3   7  -4  197.53    6.94
  -7  -3   4  201.81    5.78
  -7   3  -4  209.06    5.10
   7  -3  -6   16.75    1.04
  -7  -3   6   17.80    1.94
  -3   7  -6   18.04    2.46
  -7  -3   6   22.46    2.08
  -7   3  -6   19.89    1.50
   7  -3  -6   22.35    3.10
  -3   7  -6   17.26    2.31
   3  -7  -6   20.16    1.83
  -7  -3   8  118.67    4.37
  -7  -3   8  107.32    4.89
  -3   7  -8  111.66    5.96
   7  -3  -8  112.73    3.35
   7  -3  -8  107.53    6.11
  -7   3  -8   94.72    2.44
   3  -7  -8  111.32    3.95
  -3   7 -10   12.33    2.40
  -7  -3  10   12.20    1.53
   7  -3 -10   17.34    1.66
   7  -3 -10   10.52    2.50
   3  -7 -10    9.96    1.34
   7  -3 -12   23.46    2.18
   3  -7 -12   23.04    1.96
  -3   7 -12   22.62    3.30
   7   3  12   15.45    1.10
   7  -3 -12   16.69    3.24
   3  -7 -14    0.51    0.75
   7   3  14    3.08    1.99
  -3   7 -14    2.64    1.67
   7  -3 -14    0.83    1.97
  -3   7 -16    1.41    1.71
   7   3  16    7.80    2.60
   3   7  16    5.31    1.97
  -3   7 -18   11.92    2.45
  -3   7 -18   15.49    3.02
   3   7  18   13.65    3.07
   7   3  18   13.44    3.17
   7   3  20    2.52    2.34
  -3   7 -20    6.23    2.35
   3   7  20    5.08    2.56
  -3   7 -22   14.33    2.96
   7   3  22   11.10    3.65
   3   7  22   16.33    3.65
  -3   7 -24    5.78    2.49
   3   7  24    1.47    2.07
   7   3  24    5.58    3.17
   3   7  26    3.68    2.83
   7   4 -25   -3.37    2.62
   4   7 -25    0.32    2.31
   7  -4  23    6.24    2.58
   4  -7  23    2.38    2.43
   7   4 -23    8.01    2.76
   4   7 -23    0.47    2.29
   4   7 -21   10.89    3.38
   4  -7  21    7.92    2.59
   4   7 -21   10.85    2.84
   7   4 -21    9.57    3.33
   7  -4  21   10.99    3.16
   7  -4  19    9.02    2.85
   4  -7  19    8.07    2.49
   4   7 -19   11.36    2.52
   4   7 -19    8.74    2.82
  -4   7  19    8.70    2.07
   7   4 -19    9.22    2.75
   7   4 -17   22.10    3.84
  -4   7  17   21.52    2.89
   7   4 -17   29.18    2.97
   4   7 -17   24.75    3.40
   4  -7  17   28.20    4.17
   7  -4  17   27.76    4.25
   4   7 -17   30.66    4.40
  -4   7  15    8.26    1.93
   4  -7  15    8.01    2.36
   7   4 -15    7.45    1.61
   7  -4  15    6.49    2.26
   7   4 -15    8.86    2.99
   4   7 -15    6.01    1.99
   4   7 -15   11.26    3.09
   7  -4  13    8.99    2.20
   7   4 -13    6.48    1.58
   7   4 -13   11.60    3.29
  -4   7  13    8.21    1.63
   4   7 -13    8.50    1.98
   4  -7  13    7.67    2.23
   7   4 -11   25.83    3.94
  -4   7  11   19.62    1.82
  -4   7  11   21.44    2.14
   7  -4  11   21.67    3.15
   4  -7  11   25.10    3.38
   7   4 -11   26.22    2.47
   4   7 -11   18.87    2.50
   4   7 -11   20.53    2.52
   4  -7   9   79.50    5.08
   4   7  -9   73.73    4.12
   7   4  -9   74.15    3.76
  -4   7   9   74.74    3.05
   7  -4   9   81.71    5.49
   4   7  -9   73.66    4.38
  -4   7   9   73.81    3.06
   7   4  -9   76.53    5.76
  -4   7   9   75.52    2.95
   7  -4   7   81.17    5.02
  -4   7   7   84.50    3.38
  -7   4   7   60.62    1.85
   4  -7   7   76.43    4.42
   4   7  -7   77.74    4.40
   7   4  -7   74.13    4.57
   7   4  -7   80.03    3.82
   7   4  -5  154.02    6.19
   7   4  -5  152.16    5.23
   4   7  -5  149.81    5.82
   7  -4   5  152.90    6.26
  -4   7   5  153.02    4.79
   4  -7   5  147.30    5.40
  -4   7   5  166.57    6.16
  -7   4   3  539.36   11.45
  -4  -7  -3  507.96   10.30
  -4   7   3  536.30   10.06
   7   4  -3  497.72    9.54
   7  -4   3  517.17   10.18
  -4   7   3  521.65    9.29
   7   4  -3  535.01   11.01
   7   4  -3  516.64    8.33
   4   7  -3  508.41   10.46
  -4   7   1   11.57    1.19
  -4   7   1   14.50    1.85
  -4   7   1   11.69    1.69
  -7  -4  -1   10.66    1.68
   4   7  -1   12.64    1.94
  -4  -7  -1   14.09    1.89
   7   4  -1   12.40    1.56
   7  -4   1   14.33    2.11
   7  -4   1   13.58    1.56
  -7   4   1   13.56    1.93
   4  -7   1   11.77    1.71
   7  -4  -1   13.71    1.25
   4  -7  -1   14.47    1.89
  -7  -4   1   16.05    1.86
  -4   7  -1   13.76    1.49
  -7  -4   1   12.29    1.82
  -7   4  -1   16.05    1.91
  -4   7  -1   12.05    1.81
   7  -4  -1   12.26    1.92
   4   7   1   15.26    2.04
  -7  -4   3  534.08    9.99
  -4   7  -3  521.38    9.74
  -4   7  -3  525.71   11.19
  -7   4  -3  539.93    9.02
   4  -7  -3  527.25    5.91
   4   7   3  505.38   10.57
  -7   4  -3  540.71    8.79
   7  -4  -3  511.54   10.90
  -4   7  -5  149.79    6.46
  -4   7  -5  154.70    6.07
  -7  -4   5  154.27    5.38
   4  -7  -5  165.19    4.99
  -7   4  -5  158.35    4.30
  -7  -4   5  150.58    4.87
  -4  -7   5  137.47    2.69
   4  -7  -7   84.34    3.43
  -7  -4   7   86.63    4.05
  -7  -4   7   80.17    3.87
  -7  -4   9   77.92    4.27
  -7  -4   9   81.97    4.00
   4  -7  -9   82.89    3.27
  -7  -4  11   17.12    2.02
   4  -7 -11   18.64    1.67
  -7   4 -13    4.77    0.68
   7   4  13    5.86    1.01
   4  -7 -13    7.65    1.17
   7   4  15    7.62    2.52
  -7   4 -15    2.78    0.48
  -4   7 -17   27.02    3.08
   4   7  17   31.19    4.33
   7   4  17   29.95    4.49
  -4   7 -19    7.01    2.46
   7   4  19    8.03    2.82
   4   7  19   10.13    2.84
  -4   7 -21   10.08    2.76
   7   4  21   15.23    3.87
   4   7  21    9.67    3.07
   7   4  23    6.86    3.50
   4   7  23    7.83    3.56
  -4   7 -23    6.19    2.59
  -4   7 -25    2.92    2.15
   4   7  25    0.95    2.18
   7   5 -26    0.32    2.30
   5   7 -26    0.91    2.19
   7   5 -24    9.18    3.39
   5   7 -24    5.18    3.08
   7  -5  22   30.63    4.87
   7   5 -22   30.38    4.84
   5  -7  22   30.98    5.14
   5   7 -22   41.25    5.54
   5   7 -20    0.22    2.21
   5  -7  20   -2.23    1.86
   7  -5  20    1.33    2.05
   7   5 -20    1.03    2.15
   5   7 -20    2.53    1.73
   7  -5  18    1.69    1.75
  -5   7  18    1.40    1.38
   5   7 -18    3.42    1.88
   5   7 -18    5.86    3.12
   7   5 -18    3.23    1.65
   5  -7  18    4.59    2.42
   7   5 -18    0.69    2.32
   7   5 -16   11.82    3.38
  -5   7  16   13.68    2.11
   7   5 -16   12.29    2.16
   7  -5  16   12.67    3.02
   5   7 -16   15.24    3.27
   5  -7  16   13.20    3.12
   5   7 -16   14.67    2.63
   7   5 -14    7.38    2.90
   5  -7  14    8.02    2.31
   7   5 -14    5.91    1.61
  -5   7  14    5.54    1.41
   7  -5  14   10.47    2.84
   5   7 -14    6.56    1.86
   7   5 -12   21.52    3.75
   7  -5  12   16.54    3.00
   5  -7  12   16.05    2.90
  -5   7  12   14.96    1.80
   7   5 -12   15.32    2.09
  -5   7  12   14.14    1.59
   5   7 -12   15.31    2.41
   7  -5  10    4.77    1.73
  -5   7  10    1.88    0.72
   5  -7  10    0.08    1.28
   7   5 -10    3.26    1.30
   7   5 -10    6.18    2.51
  -5   7  10    1.74    0.85
   5   7 -10    1.00    1.08
   5   7 -10   -0.24    1.45
  -5   7   8  162.50    4.38
  -5   7   8  146.69    3.65
   5  -7   8  149.43    6.62
   5   7  -8  155.55    6.20
   7  -5   8  154.13    7.14
   7   5  -8  153.82    5.76
   7   5  -8  156.16    6.61
   5   7  -8  156.35    6.10
  -7   5   6   21.59    1.53
   7   5  -6   22.11    2.26
   5  -7   6   22.16    2.40
  -5   7   6   21.38    1.82
   5   7  -6   25.60    2.63
   7  -5   6   22.10    2.76
  -5   7   6   17.85    0.91
   7   5  -6   18.73    2.53
   5  -7   4    7.45    1.28
   7  -5   4    8.73    1.55
  -5  -7  -4   12.10    1.98
  -5   7   4    6.86    1.24
   7   5  -4   10.42    2.18
   7   5  -4   10.03    1.67
  -5   7   4    6.48    0.64
   5   7  -4    7.93    1.55
  -5  -7  -2  275.96    7.89
  -7  -5  -2  288.18    8.19
  -5   7   2  285.44    4.87
   5   7  -2  282.84    8.04
  -7   5   2  306.94    8.55
   7  -5   2  276.81    7.92
   5  -7   2  283.81    7.46
   7  -5   2  298.14    6.92
   7   5  -2  280.90    7.65
  -5   7   2  287.82    7.22
   7   5  -2  285.69    5.91
  -5   7   2  301.38    7.78
   5   7   0  283.96    8.09
  -5  -7   0  270.24    7.62
  -5   7   0  270.21    7.46
   7  -5   0  287.14    5.35
   7  -5   0  283.51    8.06
  -5   7   0  283.33    6.03
   5  -7   0  274.95    7.46
  -7  -5   0  266.77    7.62
  -7   5   0  296.71    7.76
  -5   7  -2  278.80    8.18
  -5   7  -2  297.76    7.37
  -7  -5   2  295.02    7.91
   7  -5  -2  280.25    8.18
   5   7   2  278.58    8.10
  -7   5  -4    9.71    1.41
  -7  -5   4   14.56    1.90
  -5   7  -4   14.26    1.97
  -7  -5   6   24.66    2.13
  -7  -5   6   23.36    2.35
  -7   5  -6   25.71    1.76
  -5  -7   6   22.75    1.47
  -7  -5   8  162.27    5.97
  -7  -5   8  160.23    5.47
  -7  -5  10    1.28    0.82
  -7   5 -14    4.87    1.01
   7   5  16   17.62    3.48
   7   5  18    0.43    1.73
   5   7  18    3.24    1.81
   5   7  20   -0.83    1.95
   7   5  20    3.00    2.46
  -5   7 -22   26.14    4.12
   7   5  22   43.15    6.22
   5   7  22   34.35    5.54
  -5   7 -24    5.44    2.45
   5   7  24    3.04    2.74
   7   5  24    9.30    3.77
  -5   7 -26    3.34    2.20
   7   6 -25    2.53    2.41
   6   7 -25    1.72    2.31
   6   7 -23    8.95    3.38
   7  -6  23   10.69    3.30
   6  -7  23   10.44    3.34
   7   6 -23   10.19    3.70
   7  -6  21   14.51    3.80
   7   6 -21   18.41    4.16
   6   7 -21   18.89    4.14
   6  -7  21   21.29    4.19
   6   7 -19   14.41    3.76
   7   6 -19   17.83    3.88
   6  -7  19    8.23    2.81
   7  -6  19   18.01    3.73
   6   7 -19   13.54    2.78
   7   6 -17   18.57    3.91
   7  -6  17   18.18    3.46
   6  -7  17   17.71    3.55
   6   7 -17   24.35    4.22
   6   7 -17   24.77    3.36
   7   6 -17   20.32    2.90
   6   7 -15   13.22    3.56
   6   7 -15    9.53    2.08
  -6   7  15   11.09    1.80
   6  -7  15   10.45    2.90
   7   6 -15   11.08    2.20
   7  -6  15    9.04    2.65
   7   6 -15   10.56    3.35
   6  -7  13   25.50    3.61
   7   6 -13   33.17    4.54
   7  -6  13   23.30    3.48
   7   6 -13   30.72    3.08
   6   7 -13   31.76    3.27
  -6   7  13   29.06    2.30
   7  -6  11   22.97    3.33
   6   7 -11   25.25    2.90
  -6   7  11   19.39    1.57
   7   6 -11   20.72    2.43
   6  -7  11   23.71    3.30
   6   7 -11   18.98    2.74
  -6   7  11   21.24    1.52
   6  -7   9   81.20    5.31
  -6   7   9   65.35    1.94
  -6   7   9   82.60    2.86
   7  -6   9   78.31    5.41
   6   7  -9   84.56    4.87
   7   6  -9   83.46    4.62
   7   6  -9   80.99    5.02
   6   7  -9   85.47    4.77
   7  -6   7   74.27    4.78
   6   7  -7   80.44    4.50
   6  -7   7   81.66    4.79
  -6   7   7   79.87    3.16
  -7   6   7   77.39    2.79
   7   6  -7   74.14    4.69
   6   7  -7   72.67    4.51
   7   6  -7   79.85    4.39
   6   7  -5   31.52    2.93
   7   6  -5   31.09    2.77
   6  -7   5   33.62    2.82
  -6   7   5   30.16    2.20
   7   6  -5   34.56    3.36
   7  -6   5   33.43    2.99
  -7   6   5   31.32    2.12
   7   6  -3  566.42   11.40
   6   7  -3  556.58   11.51
   6  -7   3  561.79   11.04
  -7   6   3  564.11    9.70
   6  -7   3  558.87    9.48
  -6  -7  -3  572.63   11.92
   7  -6   3  578.66   10.17
  -6   7   3  565.48    9.99
  -7  -6  -3  552.58   11.97
  -6  -7  -1    5.79    1.46
   7  -6   1    7.63    1.13
   6  -7   1    7.57    1.66
   7   6  -1    6.79    1.53
   7   6  -1    7.62    1.20
  -7  -6  -1    5.87    1.64
  -6   7   1    8.89    1.14
   6   7  -1    7.96    1.72
   7  -6   1    7.15    1.80
  -6   7   1    8.08    1.54
   6   7  -1    7.64    1.02
   7  -6  -1    4.28    1.56
   6  -7  -1    6.12    1.73
  -7  -6   1    6.65    1.62
   6   7   1    5.91    1.57
  -6   7  -1    6.08    1.32
  -6   7  -3  555.51   11.12
  -6   7  -5   28.54    2.88
  -7   6  -7   79.35    2.84
  -7  -6   7   72.96    3.39
  -6  -7   7   76.42    3.00
  -7  -6   9   83.70    4.07
  -6  -7   9   82.70    3.69
  -7   6 -15    9.72    1.42
   7   6  17   25.87    4.10
   7   6  19   16.86    3.73
   6   7  19   17.83    4.02
   7   6  21   19.37    4.21
   6   7  21   17.07    4.21
   6   7  23    2.61    2.37
   7   6  23    6.46    3.43
  -6   7 -25    3.16    2.51
   7   7 -24    3.58    3.01
   7   7 -22   44.31    5.91
   7  -7  22   46.30    5.88
   7  -7  20   28.80    4.62
   7   7 -20   33.76    5.26
   7   7 -18   10.58    3.38
   7  -7  18    6.81    2.79
   7   7 -18    6.42    1.94
   7  -7  16   74.41    6.53
   7   7 -16   93.21    5.97
   7   7 -16   98.73    7.86
   7   7 -14  133.93    6.70
   7   7 -14  142.19    8.77
   7  -7  14  132.58    8.25
   7  -7  12   45.15    4.58
   7   7 -12   35.40    3.35
  -7   7  12   29.36    1.72
   7   7 -10  109.56    5.99
   7  -7  10  105.52    6.45
   7   7 -10  114.54    5.68
   7   7  -8  349.66   10.14
   7   7  -8  353.45    9.72
  -7   7   8  353.22    6.15
   7  -7   8  334.16   10.36
   7  -7   6    4.29    1.38
   7   7  -6    5.44    1.55
   7   7  -6    8.72    2.42
  -7   7   6    6.53    1.09
   7  -7   4   74.87    3.94
  -7  -7  -4   79.10    4.78
   7   7  -4   71.84    4.35
  -7   7   4   77.38    3.72
   7   7  -2  618.13   12.53
  -7  -7  -2  575.76   12.29
  -7   7   2  611.01   11.15
   7  -7   2  610.14    9.37
   7  -7   2  598.74   12.07
   7   7  -2  621.32    7.68
   7  -7   0  118.25    5.55
  -7  -7   0  118.59    5.52
   7   7   0  116.50    5.58
  -7   7  -2  605.11   10.50
   7  -7  -2  618.26   12.73
  -7   7  -4   70.13    4.17
  -7  -7   8  352.64    7.29
  -7   7  -8  353.57    5.53
  -7  -7  10  107.09    4.68
   7   7  18    8.98    3.02
   7   7  20   39.35    5.77
   7   7  22   46.51    6.70
   8   0   0  127.85    4.27
   0   8   0  123.50    3.21
   8   0   0  117.92    4.98
   0   8   0  119.24    5.15
   8   0   0  115.66    5.04
   8   0   0  120.94    5.23
   8   0  -2    8.93    1.83
  -8   0   2    8.78    1.34
   0  -8  -2    8.81    1.63
   0   8   2    7.39    1.60
   8   0   2   10.18    1.65
   8   0  -2   10.35    2.15
   0   8  -2    5.44    1.56
   8   0   2    7.80    1.37
   8   0   2    8.92    1.74
   0  -8  -4  142.64    4.79
  -8   0   4  141.29    4.33
   8   0   4  141.95    3.90
   8   0  -4  138.91    5.52
   8   0   4  145.65    5.28
  -8   0   4  138.23    5.51
   8   0  -4  141.02    6.77
   0  -8  -4  143.00    5.37
   0   8  -4  143.85    5.97
   0   8   4  147.12    5.56
  -8   0   4  148.80    4.38
   0   8   6    2.00    1.08
   0  -8  -6    0.08    0.89
   8   0  -6    0.22    1.81
   0   8  -6   -2.00    1.54
   8   0   6    2.07    1.33
  -8   0   6    0.08    0.53
   8   0  -8    1.33    0.81
   0   8  -8    2.70    1.52
   0   8   8    2.24    1.05
   0   8   8    1.39    0.93
  -8   0   8    2.07    0.63
   0  -8  -8    2.30    1.22
   8   0  -8    1.62    2.00
   0  -8 -10  238.02    7.25
   8   0 -10  243.74    6.76
   0   8 -10  229.41    8.63
   8   0  10  244.54    9.04
   0   8 -10  248.23    5.52
   8   0 -10  241.16    9.91
   0   8 -12   13.21    2.52
   0  -8 -12   11.69    1.90
   8   0 -12   12.05    1.90
   8   0 -12   13.29    3.08
   8   0  12   14.23    2.70
   8   0 -14   69.09    6.07
   8   0  14   72.58    5.97
   0   8 -14   75.90    5.64
   8   0  16   33.71    4.69
   0   8 -16   30.56    3.83
   8   0 -16   45.80    5.05
   0   8  16   43.69    4.20
   0   8 -18    1.63    1.83
   0   8 -18    6.87    2.43
   8   0  18    1.00    1.71
   0   8  18    1.28    1.58
   8   0 -18    1.52    2.25
   0   8 -20   26.27    3.97
   8   0  20   25.83    4.55
   8   0 -20   25.88    4.40
   0   8  20   22.40    3.65
   0   8 -20   18.66    3.40
   0   8 -22    1.43    1.82
   8   0  22   -0.34    2.15
   0   8  22   -0.46    1.60
   0   8 -22    3.55    2.23
   8   0 -22   -1.30    2.46
   0   8  24   21.60    4.10
   8   0 -24   19.05    4.04
   0   8 -24   15.58    3.51
   8   0  24   24.25    4.99
   8   1 -25    6.25    3.08
   8   1 -23   16.76    3.93
  -1   8  23   16.74    3.40
   8  -1  23   11.84    3.39
   1   8 -23   10.35    3.06
   1   8 -23   15.79    3.22
   1   8 -21    8.50    2.92
   8  -1  21    5.13    2.42
  -1   8  21    4.36    1.93
   1   8 -21   10.59    2.79
   8   1 -21    8.91    3.10
   1   8 -19    7.05    2.60
   8   1 -19    5.11    2.77
   8  -1  19    8.10    2.93
  -1   8  19    5.51    2.08
   1   8 -19    9.26    2.74
   8  -1  17   57.94    5.96
  -1   8  17   46.47    4.38
   8   1 -17   50.06    5.44
   1   8 -17   50.00    4.85
   8  -1  15   70.07    6.09
  -1   8  15   72.84    4.96
   8   1 -15   74.64    6.21
   1   8 -15   77.66    5.71
   8  -1  13   29.09    3.85
   8   1 -13   26.37    3.97
   1   8 -13   30.21    3.55
   8  -1  13   37.30    2.67
   8   1 -11   12.80    2.95
   1   8 -11   17.72    2.62
   8   1 -11   16.25    2.08
   8  -1  11   20.01    2.06
   8  -1  11   17.83    2.90
   1   8 -11   17.44    1.89
  -1  -8  -9   66.26    3.94
  -1   8   9   60.32    3.45
   8   1  -9   63.57    5.34
   8   1  -9   64.71    3.64
   1   8  -9   53.81    4.22
   8  -1   9   65.74    3.36
   8  -1   9   60.31    4.49
  -1   8   7  292.21    7.49
   1   8  -7  271.55    8.61
  -1  -8  -7  292.62    7.98
   8   1  -7  283.28   10.31
   8  -1   7  285.30    6.87
  -8   1   7  273.73    4.72
   8  -1   5  372.47    8.11
  -1  -8  -5  364.92    8.76
  -1  -8  -5  353.87    8.02
   1   8  -5  363.61    9.57
   8   1  -5  365.59   11.17
  -1   8   5  358.33    8.38
  -8   1   5  360.83    6.30
  -1  -8  -3   16.48    1.92
   8   1  -3   12.64    2.14
   8   1  -3   17.52    2.17
   8   1  -3   18.78    2.88
   8  -1   3   15.90    1.59
  -1  -8  -3   18.54    2.18
   1  -8   3   16.49    1.49
  -1   8   3   18.21    2.10
  -8   1   3   23.66    2.97
  -8   1   3   17.42    1.56
   1   8  -3   15.93    2.15
   8  -1   3   18.20    2.09
   8   1  -1  309.37    9.09
   1   8  -1  316.57    8.48
   8  -1   1  323.41    7.47
  -1   8   1  317.41    8.16
  -8   1   1  312.21    8.60
  -1   8   1  337.25    6.24
   8   1  -1  304.52    8.22
   8   1  -1  312.36    7.79
   8  -1   1  311.67    6.61
   8   1   1  328.08    7.33
   8  -1  -1  316.12    6.03
   1   8   1  305.19    8.19
  -8  -1   1  333.78    7.40
  -1   8  -1  323.99    8.47
   8  -1  -1  328.39    8.51
  -8   1  -1  328.45    7.83
   8   1   1  313.38    8.06
  -8   1  -1  331.92    7.72
   1  -8  -1  328.30    8.16
   8   1   1  311.92    8.34
   8  -1  -1  314.96    8.23
   8  -1  -3   19.84    2.40
   1  -8  -3   18.43    2.08
   8   1   3   18.62    2.28
  -8  -1   3   17.80    1.80
   1   8   3   15.84    2.14
  -8   1  -3   19.59    1.94
   8   1   3   17.71    2.08
   8  -1  -3   18.48    2.66
   8   1   3   18.60    2.02
  -1   8  -3   19.20    2.43
   1  -8  -3   17.90    1.76
  -1   8  -3   20.78    2.17
  -8  -1   3   16.33    1.69
   1   8   5  357.06    8.75
  -8  -1   5  374.84    7.21
   8   1   5  374.68    6.35
   1  -8  -5  359.86    7.12
   8  -1  -5  347.60   10.49
   1  -8  -5  360.95    8.23
  -1   8  -5  351.51    9.52
  -8  -1   5  352.94    8.65
   8  -1  -7  293.42    6.00
   1   8   7  281.69    7.65
  -8  -1   7  291.25    5.95
   1  -8  -7  288.32    7.38
   8  -1  -7  279.78    9.99
  -1   8  -7  284.64    9.08
   1   8   7  282.39    7.91
   8  -1  -9   65.00    5.38
  -8  -1   9   62.09    2.61
   8  -1  -9   59.67    3.05
   1  -8  -9   64.47    3.65
  -1   8  -9   55.31    4.37
   8  -1 -11   19.13    3.60
  -1   8 -11   25.39    3.18
   1  -8 -11   17.29    2.13
   8  -1 -11   16.95    1.89
  -1   8 -11   18.91    1.45
   8  -1 -13   37.90    4.50
   8   1  13   35.85    4.21
   1  -8 -13   30.09    2.76
  -1   8 -13   28.69    3.49
   8  -1 -13   29.48    2.82
   8   1  15   76.01    6.27
   8  -1 -15   89.57    6.85
  -1   8 -15   71.24    5.64
   1   8  15   94.53    5.98
  -1   8 -17   48.52    4.87
   8   1  17   67.47    6.36
   1   8  17   59.92    5.25
   8  -1 -17   48.49    5.37
  -1   8 -19   12.08    2.76
  -1   8 -19    4.85    2.08
   8   1  19    7.78    2.76
   1   8  19    3.92    2.15
   8  -1 -19   11.57    3.18
  -1   8 -21    3.56    2.18
   8   1  21   10.72    3.52
   8  -1 -21    4.84    2.56
   1   8  21   10.61    3.01
  -1   8 -21   10.62    2.98
  -1   8 -23   14.79    3.30
   8   1  23   10.27    3.28
   1   8  23   10.48    2.97
   1   8  25   12.49    3.24
   8   2 -26   17.04    3.97
   8   2 -24    4.09    2.59
   2   8 -22    9.44    2.73
   8  -2  22    1.66    1.97
   2   8 -22   -1.01    2.31
   8   2 -22   10.10    3.37
   2   8 -20   22.75    3.79
   2  -8  20   15.79    3.52
   8   2 -20   18.06    3.80
   2   8 -20   15.37    3.25
   8  -2  20   20.79    4.01
  -2   8  20   22.59    3.31
   8   2 -18   18.41    3.72
   2  -8  18   11.56    3.05
   8  -2  18   20.91    3.77
  -2   8  18   18.11    2.82
   2   8 -18   19.19    3.40
   2   8 -18   19.11    3.48
   2   8 -16   63.39    5.28
   8   2 -16   54.20    2.66
  -2   8  16   64.17    4.74
   2  -8  16   58.11    5.60
   8   2 -16   64.96    6.11
   8  -2  16   57.79    5.70
  -2   8  14   68.77    4.45
   2   8 -14   69.60    5.28
   8   2 -14   65.09    2.95
   2  -8  14   73.35    5.90
   8   2 -14   70.83    6.05
   8  -2  14   64.03    5.71
   8  -2  14   54.17    2.49
   8   2 -12   83.45    6.42
  -2   8  12   78.82    4.25
   8   2 -12   80.88    3.28
   2   8 -12   71.84    5.08
   2  -8  12   75.65    5.51
   2   8 -12   77.25    3.93
   8  -2  12   68.78    3.03
   8  -2  12   76.79    5.86
  -2   8  12   69.77    3.94
  -2   8  10  138.71    5.03
   8   2 -10  155.64    8.24
   8  -2  10  129.42    6.88
   2   8 -10  130.40    6.40
   8  -2  10  143.26    4.53
   2   8 -10  141.13    5.03
  -2   8   8  245.74    6.15
   8  -2   8  245.88    8.62
   8   2  -8  232.87    9.64
  -2   8   8  244.86    6.64
   2   8  -8  226.93    7.94
   8  -2   8  244.22    6.18
   8  -2   6   28.77    2.84
   8   2  -6   25.30    3.48
  -2   8   6   24.49    2.24
   2   8  -6   24.41    2.69
  -8   2   4  572.58    7.10
   8   2  -4  592.65   12.11
  -2   8   4  575.09   10.40
   2   8  -4  569.53   11.77
   8   2  -4  555.63   10.17
   8   2  -4  574.41   13.47
  -2  -8  -4  565.01   10.45
  -2  -8  -4  594.16   11.30
  -2   8   2  270.44    7.38
  -8   2   2  277.37    8.70
  -2  -8  -2  258.60    7.04
   8   2  -2  278.98    8.71
  -2   8   2  276.39    6.45
   2   8  -2  276.72    8.07
   8   2  -2  263.73    7.89
   8   2  -2  270.10    7.02
   2  -8   2  263.60    5.82
   8  -2   0    3.86    1.31
   2   8   0    1.43    0.46
   2  -8   0    3.60    1.22
   8  -2   0    3.04    0.92
   2   8   0    3.09    1.26
  -8  -2   0    2.98    1.20
  -8   2   0    1.96    1.36
   8   2   0    3.43    1.70
   8  -2   0    1.99    1.41
  -8   2   0    3.72    1.42
  -2   8   0    3.55    1.32
   8   2   0    1.64    1.39
  -8  -2   2  266.29    6.82
   8  -2  -2  257.88    7.69
   2   8   2  267.77    7.80
  -8  -2   2  262.15    6.76
   2  -8  -2  275.54    7.31
   8   2   2  272.28    7.13
   8  -2  -2  273.29    8.00
   8   2   2  262.60    7.14
  -2   8  -2  259.43    7.78
  -8   2  -2  271.03    6.79
  -2   8  -2  265.16    6.76
   8   2   2  268.62    7.57
  -8   2  -2  253.40    6.90
  -8  -2   4  588.85    9.77
  -8  -2   4  555.16   10.33
  -8   2  -4  571.00    8.81
   8  -2  -4  573.39   12.79
   2   8   4  569.76   11.28
   8  -2  -4  562.69   11.57
   2  -8  -4  562.65   10.14
  -2   8  -4  566.32   10.79
  -2   8  -4  563.61   11.95
   2  -8  -4  564.82    8.19
   8   2   4  560.78    9.26
   8  -2  -6   27.33    3.46
  -8   2  -6   21.93    1.47
  -8  -2   6   27.58    2.13
  -8  -2   6   28.64    2.62
   2   8   6   24.29    2.44
   2  -8  -6   25.27    2.26
  -2   8  -6   24.32    2.81
   2   8   6   31.83    2.85
   8   2   6   26.35    1.86
  -2   8  -8  227.58    8.47
   8  -2  -8  241.13    5.12
  -8  -2   8  238.30    5.77
   2  -8  -8  248.72    6.70
   8  -2  -8  232.67    9.35
  -2   8 -10  126.53    3.09
   8  -2 -10  130.81    4.46
   2  -8 -10  139.97    5.14
   8  -2 -10  142.10    7.83
  -2   8 -10  120.96    6.58
  -8  -2  10  143.75    4.40
  -2   8 -12   70.00    5.32
   2  -8 -12   76.37    3.98
   8  -2 -12   70.57    3.83
   8  -2 -12   76.87    6.18
  -2   8 -14   59.33    5.14
   2  -8 -14   66.92    3.84
   8   2  14   68.33    5.70
   8  -2 -14   70.56    6.07
   8  -2 -14   62.07    3.92
  -2   8 -16   55.14    5.20
   8  -2 -16   62.14    5.89
   8   2  16   67.62    6.21
   2   8  16   71.14    5.59
   2   8  18   20.53    3.55
  -2   8 -18   19.10    3.49
   8   2  18   26.84    4.44
   8  -2 -18   24.69    4.01
  -2   8 -18   23.32    3.33
  -2   8 -20   12.80    2.74
  -2   8 -20   21.36    3.54
   8  -2 -20   20.50    3.84
   8   2  20   16.45    4.18
   2   8  20   14.28    3.33
  -2   8 -22    5.81    2.45
   2   8  22    3.61    2.51
   8   2  22    1.46    2.44
  -2   8 -24    1.84    1.93
   8   2  24    1.21    2.16
   2   8  24    0.60    1.92
   2   8  26    8.02    3.12
   8   3 -25    2.44    2.54
   3  -8  23    9.24    3.32
   8   3 -23    5.60    2.68
   3   8 -23    7.15    2.96
   8  -3  23    8.82    3.13
   3  -8  21    1.62    2.07
   8   3 -21    5.75    2.76
   3   8 -21    1.06    2.16
   8  -3  21    0.99    2.29
   3   8 -21    7.63    2.59
   8  -3  19    2.59    2.11
   3  -8  19    0.97    1.74
   3   8 -19    0.42    2.04
   8   3 -19   -1.34    2.22
   3   8 -19    1.37    1.65
  -3   8  19    1.78    1.58
   8  -3  17   58.42    5.81
   3   8 -17   66.11    5.82
  -3   8  17   53.85    4.36
   3   8 -17   54.01    4.96
   3  -8  17   57.52    5.84
   8   3 -17   40.03    4.99
   8  -3  15   15.21    3.18
   3  -8  15   17.73    3.29
  -3   8  15   16.89    2.44
   8   3 -15   16.99    3.59
   3   8 -15   18.90    3.04
   8   3 -15   21.92    2.17
  -3   8  13   95.44    4.62
   3   8 -13   87.54    5.60
   8   3 -13   96.57    7.04
   3  -8  13  103.79    6.72
   8  -3  13   89.35    6.48
  -3   8  13   89.99    4.69
   8   3 -13  102.44    4.28
  -3   8  11   32.66    2.48
   8   3 -11   27.32    4.29
  -3   8  11   28.01    2.33
   3  -8  11   28.87    3.41
   8   3 -11   33.02    2.46
   3   8 -11   28.06    3.13
   8  -3  11   27.65    3.63
   3   8 -11   31.46    2.75
   8   3  -9   53.52    3.06
   8  -3   9   52.09    4.49
  -3   8   9   54.98    3.08
  -3   8   9   52.60    2.81
   3  -8   9   53.88    4.18
   3   8  -9   53.47    4.04
   8   3  -9   58.11    5.21
   3   8  -9   50.83    3.45
   3   8  -7  276.27    8.59
   8  -3   7  284.56    9.22
  -3   8   7  303.23    7.18
   8   3  -7  282.37   10.20
   8   3  -5   82.06    5.38
  -3   8   5   75.82    3.74
   3   8  -5   72.41    4.34
   8  -3   5   78.29    4.39
   8   3  -5   74.51    4.63
  -3  -8  -5   71.33    4.06
  -3  -8  -3   44.25    3.18
  -8   3   3   46.24    3.74
   8   3  -3   46.46    2.98
   3  -8   3   49.66    2.89
   3   8  -3   47.02    3.48
  -3   8   3   49.28    3.18
   8  -3   3   46.97    3.03
   8   3  -3   45.41    3.58
  -3   8   3   50.08    3.19
  -8  -3  -1  155.02    5.82
  -3   8   1  161.01    5.09
  -8  -3  -1  149.90    5.68
  -3   8   1  160.83    5.85
  -8   3   1  164.98    6.03
   8   3  -1  160.10    5.30
   8   3  -1  156.98    6.17
  -8   3   1  169.60    6.48
   3  -8   1  155.71    4.99
   8  -3   1  156.20    6.08
   3   8  -1  162.02    6.19
   3  -8  -1  160.28    5.78
  -3   8  -1  156.92    4.94
   3   8   1  152.30    6.06
   8  -3  -1  151.62    6.04
  -8   3  -1  158.71    5.46
  -3   8  -1  156.78    5.97
  -8   3  -1  158.37    5.69
  -8  -3   1  160.77    5.64
   8  -3  -1  158.68    3.80
  -8  -3   1  150.78    5.54
  -8  -3   3   56.42    3.27
   3  -8  -3   50.06    3.18
  -8  -3   3   53.14    3.23
   3  -8  -3   50.85    2.37
  -3   8  -3   55.29    3.28
  -8   3  -3   54.17    3.10
  -8   3  -3   53.65    3.08
   8  -3  -3   51.71    3.73
  -3   8  -3   48.10    3.56
   3   8   3   51.32    3.61
  -8  -3   5   76.75    3.75
  -3   8  -5   75.17    4.24
  -3   8  -5   75.53    4.67
  -8   3  -5   70.68    3.07
   8  -3  -5   76.19    4.92
  -8  -3   5   72.58    3.83
   3   8   5   73.64    4.32
   3  -8  -5   73.85    3.68
  -8  -3   7  280.48    7.74
   8  -3  -7  275.21    4.42
  -8  -3   7  293.69    7.12
   8  -3  -7  264.64    9.56
   3  -8  -7  286.25    6.98
  -8   3  -7  269.52    4.87
  -3   8  -7  275.70    9.30
  -3   8  -9   44.94    4.11
   8  -3  -9   54.18    2.52
   8  -3  -9   52.16    4.77
   3  -8  -9   53.33    3.08
  -8  -3   9   53.98    3.07
   3  -8 -11   24.78    2.15
  -3   8 -11   27.18    3.51
   8  -3 -11   32.88    2.31
   8  -3 -11   19.29    3.30
  -8  -3  11   27.24    2.26
  -3   8 -13   88.92    6.22
   3  -8 -13  107.59    4.45
   8  -3 -13  100.95    4.44
   8  -3 -13  101.30    6.95
  -3   8 -15   14.91    3.01
   8   3  15   24.11    3.79
   8  -3 -15   19.68    3.61
   8   3  17   55.01    5.87
   3   8  17   61.06    5.56
  -3   8 -17   49.34    5.16
  -3   8 -19    3.30    1.79
   8   3  19    0.56    1.97
   3   8  19    1.13    2.00
  -3   8 -19    3.91    2.05
  -3   8 -21    0.32    1.63
   8   3  21    1.80    2.43
   3   8  21    0.87    1.92
  -3   8 -23    5.31    2.30
   3   8  23    2.40    2.34
   8   3  23    3.04    2.50
  -3   8 -25   -0.38    2.04
   3   8  25    7.35    3.09
   4   8 -24    1.22    2.44
   8   4 -24    2.79    2.53
   8  -4  22    8.79    3.20
   4  -8  22    3.37    2.14
   8   4 -22    7.21    2.94
   4   8 -22    9.73    3.24
   4  -8  20    6.35    2.84
   4   8 -20    4.19    2.60
   8  -4  20   -0.07    1.82
   4   8 -20    3.17    2.02
   8   4 -20    1.73    2.31
   4   8 -18   31.45    4.02
  -4   8  18   29.61    3.36
   8  -4  18   28.45    4.37
   4  -8  18   25.46    4.22
   8   4 -18   27.15    4.34
   4   8 -18   34.02    4.79
   8  -4  16    7.19    2.54
  -4   8  16    4.13    1.54
   8   4 -16    6.70    2.92
   4  -8  16    3.51    1.96
   4   8 -16    9.05    2.32
   8   4 -16    5.28    1.48
   8   4 -14    6.88    1.60
   8  -4  14    6.84    2.18
   4  -8  14   11.74    2.69
   4   8 -14    7.03    2.00
  -4   8  14    8.48    1.79
   8   4 -14    7.41    3.01
  -4   8  12   83.91    3.85
  -4   8  12   79.68    4.06
   4  -8  12   77.35    5.73
   8  -4  12   89.60    6.40
   4   8 -12   84.19    5.33
   4   8 -12   78.62    4.54
   8   4 -12   82.77    6.72
   8   4 -12   88.52    4.37
  -4   8  10    7.75    1.19
   8   4 -10   13.10    3.38
   4  -8  10    4.00    1.61
   8  -4  10   10.34    2.48
  -4   8  10    8.08    1.27
   4   8 -10    8.15    1.84
   8   4 -10    8.46    1.49
   4   8 -10    9.30    1.96
  -4   8   8   46.07    2.73
   8   4  -8   44.25    4.48
   4  -8   8   45.20    3.63
   4   8  -8   44.46    3.58
   8  -4   8   42.11    3.98
   4   8  -8   53.80    3.75
   8   4  -8   45.68    3.83
   8   4  -8   49.31    3.17
   8  -4   6    9.61    2.05
  -4   8   6    6.67    1.33
   4   8  -6    8.38    1.84
   8   4  -6    5.28    1.78
   8   4  -6    7.11    1.36
   8  -4   4   15.27    2.15
  -4  -8  -4   17.39    2.20
   4   8  -4   13.66    2.05
  -4   8   4   17.69    2.26
  -4   8   4   13.16    1.70
   8   4  -4   17.23    2.48
  -8  -4  -2  142.46    5.87
  -4   8   2  153.13    5.48
  -4   8   2  141.84    3.85
   4   8  -2  142.97    5.97
   4  -8   2  141.54    5.09
   8  -4   2  154.77    5.41
  -4   8   2  142.87    5.40
  -8   4   2  156.08    6.38
   8   4  -2  145.01    4.84
   8   4  -2  147.47    6.21
  -4  -8  -2  133.32    5.52
   4   8   0   12.62    2.05
   8  -4   0   14.31    2.20
  -4   8   0   15.51    2.04
  -8   4   0   16.09    2.12
  -8  -4   0   14.39    1.96
   8  -4   0   15.95    1.56
   4  -8   0   16.08    2.07
  -4   8   0   14.03    1.50
  -8   4  -2  153.93    5.49
   8  -4  -2  136.85    2.95
  -4   8  -2  154.16    5.24
  -8  -4   2  145.98    5.58
   8  -4  -2  137.13    3.38
   4   8   2  147.46    6.05
  -4   8  -2  138.85    5.84
   8  -4  -2  144.48    6.14
  -8  -4   2  141.52    5.52
  -8   4  -2  139.96    5.05
   4  -8  -4   16.11    1.24
  -8  -4   4   18.70    2.13
  -8   4  -4   18.28    1.92
  -4   8  -4   16.88    2.42
   4  -8  -4   14.96    1.77
  -4   8  -4   10.87    1.80
   4   8   4   17.84    2.29
  -8   4  -4   17.74    1.89
  -8  -4   6    4.92    1.41
  -4  -8   6    5.13    0.65
  -8  -4   6    8.09    1.48
  -4   8  -6    9.18    2.04
   4  -8  -6    7.12    1.32
  -8   4  -6    6.48    1.22
  -8  -4   8   51.07    3.25
  -8  -4   8   48.07    3.38
   4  -8  -8   46.95    2.83
  -4   8  -8   47.28    4.20
  -8   4  -8   48.63    2.28
  -8  -4  10    7.78    1.47
  -4   8 -10    7.87    2.18
   4  -8 -10   10.47    1.53
  -8   4 -10    5.49    0.74
  -4   8 -12   78.85    5.91
   8   4  12   71.88    2.58
   4  -8 -12   88.74    3.81
  -8  -4  12   85.27    4.31
  -4   8 -14   12.18    2.75
  -4   8 -16    3.22    1.93
   8   4  16    3.72    2.20
   4   8  18   32.83    4.59
  -4   8 -18   26.00    3.91
   8   4  18   26.24    4.41
  -4   8 -18   30.79    3.36
   8   4  20   -0.73    2.37
   4   8  20    2.13    1.94
  -4   8 -20    1.66    1.93
   4   8  22    8.35    3.47
  -4   8 -22    8.10    2.51
   8   4  22    7.04    3.44
  -4   8 -24   -0.41    1.87
   4   8  24   -0.58    2.17
  -4   8 -26   -1.26    2.07
   5   8 -25   -1.25    2.61
   8   5 -25    3.45    2.73
   5  -8  23    4.60    2.73
   8  -5  23    3.78    2.43
   8   5 -23    8.10    3.15
   5   8 -23    7.16    3.31
   8   5 -21    1.74    2.37
   5  -8  21   -1.85    2.40
   8  -5  21    1.68    1.84
   5   8 -21    4.71    2.79
   8  -5  19    2.59    2.15
   8   5 -19   -2.30    2.28
   5   8 -19    1.16    1.63
   5  -8  19   -1.51    1.92
   5   8 -19    1.29    2.24
   8  -5  17   62.26    6.01
   8   5 -17   65.03    6.60
   5  -8  17   65.18    6.28
  -5   8  17   68.49    4.56
   5   8 -17   62.51    5.29
   8   5 -17   73.88    4.92
   5   8 -17   64.26    6.16
   8  -5  15    5.63    2.49
   8   5 -15    1.81    1.26
   8   5 -15    3.60    2.81
  -5   8  15    4.36    1.51
   5   8 -15    5.28    2.01
   5  -8  15    5.20    2.48
   8   5 -13   90.45    4.91
  -5   8  13   88.20    4.27
   5   8 -13   93.46    5.74
   8   5 -13   88.01    6.94
   8  -5  13   90.82    6.60
   5  -8  13   90.03    6.45
   8   5 -11   38.73    3.17
   8   5 -11   50.01    5.26
  -5   8  11   40.02    2.30
   5  -8  11   41.38    4.19
   5   8 -11   41.20    3.71
   8  -5  11   42.86    4.42
  -5   8  11   46.36    2.71
   5   8 -11   41.43    3.61
  -5   8   9   -0.23    0.68
   5  -8   9    1.01    1.23
   5   8  -9   -1.31    1.24
   8   5  -9   -0.51    0.98
  -5   8   9    1.11    0.64
   8   5  -9    4.58    2.62
   8  -5   9    1.94    1.55
   8   5  -9   -1.21    2.10
   5   8  -9    2.56    1.84
  -8   5   7  133.60    3.43
   8  -5   7  130.16    6.52
   8   5  -7  147.74    5.75
   5   8  -7  139.25    6.15
   8   5  -7  145.23    6.63
  -5   8   7  140.55    4.68
   5  -8   7  135.26    6.02
   5   8  -5    5.94    1.59
   5  -8   5    8.19    1.48
   8   5  -5    7.76    1.60
  -5  -8  -5    7.53    1.86
   8  -5   5    5.09    1.51
  -5   8   5    8.24    1.35
   8   5  -5    6.28    1.89
   8   5  -3   59.91    3.09
   8   5  -3   70.69    4.63
   8  -5   3   56.06    3.58
   5   8  -3   54.91    3.90
   5  -8   3   61.65    3.67
  -5   8   3   65.48    3.67
  -5  -8  -3   61.71    4.01
  -5   8   3   60.44    2.26
   8   5  -1  112.81    4.20
   5   8  -1  109.16    5.31
   5   8  -1   92.95    2.00
  -5  -8  -1  108.81    5.22
  -8   5   1  118.53    5.48
   8  -5   1  117.80    4.30
   5  -8   1  100.93    4.70
  -8  -5  -1  106.10    5.19
   8  -5   1  108.33    5.35
  -5   8   1  112.47    5.01
  -5   8   1  116.56    3.76
   5  -8  -1  110.15    5.00
   8  -5  -1  109.51    3.15
  -8   5  -1  114.03    5.09
  -8  -5   1  103.60    4.94
  -5   8  -1  111.38    4.33
  -5   8  -1  106.09    5.09
   5   8   1  109.81    5.39
   8  -5  -1  103.02    5.28
  -5   8  -3   58.82    4.14
  -5   8  -3   60.38    3.69
   5   8   3   61.63    4.15
   8  -5  -3   59.49    4.22
  -8   5  -3   63.38    3.59
  -8   5  -3   56.43    3.23
   5  -8  -3   63.16    2.15
  -8   5  -5   10.02    1.43
  -5   8  -5    8.11    1.96
  -8  -5   5    9.91    1.71
  -8  -5   7  140.23    5.15
  -8  -5   7  145.29    5.77
  -5  -8   7  130.45    3.34
  -8  -5   9   -0.22    0.82
  -8  -5   9    0.26    1.25
  -8   5 -13   61.65    2.17
   8   5  17   66.15    6.43
  -5   8 -19   -0.40    1.79
   8   5  19    0.93    1.95
   5   8  19    3.00    2.47
  -5   8 -21    1.07    2.02
   5   8  21    2.72    2.06
   8   5  21    1.40    2.66
  -5   8 -23    6.16    2.66
   8   5  23    8.00    3.09
   5   8  23    4.82    2.78
  -5   8 -25    1.04    1.65
   6   8 -24    0.07    2.30
   8   6 -24    4.56    2.91
   8  -6  22   12.95    3.52
   6  -8  22   16.44    4.01
   8   6 -22   14.66    3.90
   8  -6  20    9.12    2.89
   8   6 -20   14.18    3.82
   6   8 -20    6.05    2.82
   6  -8  20    4.56    2.75
   8  -6  18   17.01    3.65
   6   8 -18   19.15    3.44
   8   6 -18   14.19    3.75
   6  -8  18   17.47    3.62
   6   8 -18   20.88    4.16
   6   8 -16   18.78    3.10
   6  -8  16   14.17    3.21
   8   6 -16   12.86    2.36
   6   8 -16   22.59    4.20
   8  -6  16   13.61    3.22
   8   6 -16   16.22    3.92
   8  -6  14   29.74    4.11
  -6   8  14   37.06    2.71
   6   8 -14   35.63    3.73
   6  -8  14   27.58    3.92
   8   6 -14   36.85    3.56
   8   6 -14   37.62    4.99
   6  -8  12   87.91    6.29
   8   6 -12   96.82    7.26
   6   8 -12   82.18    5.31
  -6   8  12   88.36    3.50
   8   6 -12   97.14    5.33
   6   8 -12   96.46    5.73
   8  -6  12   97.54    6.70
  -6   8  12   82.77    3.14
   6   8 -10   28.77    3.09
   8  -6  10   33.44    3.79
  -6   8  10   26.11    1.53
   8   6 -10   26.25    3.31
   6  -8  10   27.59    3.38
   6   8 -10   33.48    3.39
   8   6 -10   31.81    3.07
  -6   8  10   29.93    1.94
  -6   8   8   77.15    3.33
   8  -6   8   75.23    5.18
   6  -8   8   71.68    4.86
  -8   6   8   64.90    2.35
   8   6  -8   70.05    4.26
   8   6  -8   69.39    4.88
   6   8  -8   75.21    4.81
   6   8  -8   69.31    4.54
   6   8  -6   26.11    2.88
   6  -8   6   26.91    2.79
  -6   8   6   23.64    2.11
   8  -6   6   24.26    2.85
  -8   6   6   23.49    1.84
   8   6  -6   25.62    3.24
   8   6  -6   22.41    2.50
  -8   6   4   22.66    2.05
   8   6  -4   20.65    2.46
   6   8  -4   19.24    2.38
  -6   8   4   15.83    0.93
   8  -6   4   18.47    2.25
  -6   8   4   19.52    2.08
  -6  -8  -4   16.47    2.43
   6  -8   4   20.27    2.08
   8   6  -4   25.28    3.21
   8  -6   2  196.53    7.20
   8   6  -2  213.19    7.31
   6   8  -2  204.57    7.44
  -6  -8  -2  206.44    7.40
   8  -6   2  223.13    6.11
  -6   8   2  214.67    4.76
  -8  -6  -2  209.23    7.55
   6  -8   2  210.34    7.02
   8   6  -2  219.28    5.48
  -6   8   2  213.30    6.79
   8  -6   0    2.83    1.65
   6   8   0    0.46    1.11
  -6  -8   0    2.19    1.31
  -8  -6   0    2.05    1.22
  -6   8   0    3.79    1.42
   8  -6   0    1.63    0.65
  -8   6   0    2.82    1.36
   6  -8   0    0.53    1.19
  -6   8   0    2.79    1.08
   8  -6  -2  192.49    3.00
  -6   8  -2  210.60    6.74
  -8  -6   2  214.78    7.31
   6   8   2  202.66    7.47
  -6   8  -2  216.87    7.78
   8  -6  -2  217.78    7.83
  -6   8  -4   16.74    2.27
  -8   6  -6   26.85    2.07
  -8  -6   8   70.63    3.76
  -6  -8   8   66.59    2.87
   8   6  18   22.26    4.29
   8   6  20   15.71    3.80
   6   8  20    7.59    2.99
   6   8  22   13.81    4.10
  -6   8 -22    9.38    2.83
   8   6  22   11.22    3.91
  -6   8 -24    3.11    1.99
   6   8  24    2.61    3.22
   7   8 -23   20.93    4.72
   8   7 -23   16.43    4.33
   7  -8  21    6.85    2.63
   8   7 -21   -0.69    2.40
   8  -7  21    1.29    2.28
   7   8 -21   -3.17    2.83
   7   8 -19   82.71    6.50
   7  -8  19   72.09    7.05
   8  -7  19   68.54    6.85
   8   7 -19   82.32    7.97
   7   8 -19   62.79    6.86
   8   7 -17   90.93    6.13
   7  -8  17   86.90    7.34
   8  -7  17   72.22    6.66
   7   8 -17   96.90    6.63
   8   7 -17   84.53    7.61
   7   8 -17   83.95    7.43
   8   7 -15   12.70    3.40
   7  -8  15    8.20    2.64
   8  -7  15    9.52    2.68
   7   8 -15    9.89    2.33
   8   7 -15    8.64    2.24
   7   8 -15   13.63    3.79
   7   8 -13  177.59    7.86
   8  -7  13  184.13    9.46
   8   7 -13  189.69   10.09
   7  -8  13  160.37    8.82
   8   7 -13  180.54    7.77
   7  -8  11  315.53   11.42
   8   7 -11  349.22   10.25
   7   8 -11  324.95   10.11
   8  -7  11  324.22   11.76
   8   7 -11  344.53   11.02
   7   8 -11  328.61   10.42
  -7   8   9    8.49    1.15
   7   8  -9    8.41    2.41
  -8   7   9    6.73    0.85
   7   8  -9    8.01    1.89
   7  -8   9    8.52    2.03
   8  -7   9   10.98    2.48
   8   7  -9    8.06    1.80
   8   7  -9    9.62    2.44
   7   8  -7  353.80   10.06
  -7   8   7  362.35    7.49
  -8   7   7  359.63    6.88
   8   7  -7  362.80   10.76
   7   8  -7  365.63   10.50
   8  -7   7  332.80   10.16
   7  -8   7  341.42    9.91
   8   7  -7  348.17    9.74
   8   7  -5  226.70    7.84
   7   8  -5  237.84    8.15
   7  -8   5  227.80    7.25
   8  -7   5  224.15    7.51
  -7   8   5  232.79    6.59
   8   7  -5  247.03    8.72
  -8   7   5  230.24    6.27
   8   7  -3  162.96    6.71
  -7  -8  -3  160.26    6.92
  -8   7   3  161.01    5.75
   8  -7   3  151.29    6.55
   7  -8   3  174.22    6.70
   7  -8   3  149.51    5.12
   8  -7   3  165.08    5.57
  -7   8   3  160.37    5.89
  -8  -7  -3  153.25    6.78
   7   8  -3  155.43    6.61
   8   7  -1  354.04    6.76
  -7   8   1  345.10    9.11
   7   8  -1  341.72    9.83
  -8  -7  -1  325.18    9.58
   8  -7   1  346.75    6.65
  -7   8   1  347.96    6.24
   7  -8   1  339.72    9.41
   7   8  -1  346.68    5.58
  -7  -8  -1  329.91    9.58
   8   7  -1  339.64    9.66
   8  -7   1  338.43    9.66
   7   8   1  332.52    9.80
   8  -7  -1  346.48    9.91
  -7   8  -1  330.81    9.53
  -7  -8   1  328.47    9.53
  -8  -7   1  329.28    9.52
  -7   8  -1  347.43    7.90
   7  -8  -1  347.53    9.69
   7  -8  -3   97.19    1.88
  -7   8  -3  150.44    6.01
  -8   7  -7  358.25    6.76
  -8  -7   7  351.06    7.38
  -8  -7   9    7.93    1.59
  -7  -8   9    6.34    1.29
  -7   8  -9    9.35    1.00
  -7  -8  11  322.80    8.07
   8   7  19   80.22    7.74
   7   8  19   91.61    8.12
   8   7  21    2.71    2.22
   7   8  21    1.65    2.23
  -7   8 -23   12.81    3.31
   7   8  23   17.48    4.39
   8   8 -24    1.92    2.77
   8  -8  22   33.86    5.30
   8   8 -22   25.36    4.93
   8  -8  20   71.12    7.08
   8   8 -20   65.58    7.33
   8   8 -18   10.79    2.94
   8  -8  18    7.94    2.65
   8   8 -18   11.29    3.49
   8   8 -16   74.25    5.70
   8  -8  16   71.94    6.50
   8   8 -16   65.40    6.72
   8   8 -14  244.39    9.64
   8   8 -14  245.25   11.75
   8  -8  14  231.58   10.98
   8  -8  12   41.02    4.58
   8   8 -12   37.67    3.84
   8   8 -12   41.34    4.28
   8   8 -10  327.46   10.30
   8   8 -10  322.74   10.66
  -8   8  10  282.24    5.19
   8  -8  10  306.07   11.06
   8   8  -8  446.54   11.64
   8  -8   8  439.79   12.14
  -8   8   8  442.44    7.81
   8   8  -8  464.39   12.42
   8  -8   6    9.53    1.89
   8   8  -6    7.42    1.76
  -8   8   6    5.42    1.17
   8   8  -6   11.44    2.76
   8  -8   4  232.72    7.05
  -8  -8  -4  242.80    8.92
   8  -8   4  236.35    8.31
   8   8  -4  239.95    8.41
  -8   8   4  253.12    7.31
  -8  -8  -2  751.99   15.06
   8  -8   2  751.57   10.79
  -8   8   2  783.80   13.72
   8  -8   2  772.14   14.83
   8   8  -2  773.51    9.11
   8   8  -2  761.50   14.98
  -8  -8   0   43.79    3.80
  -8   8   0   52.86    3.93
   8  -8   0   47.96    4.01
   8   8   0   49.90    4.02
   8  -8  -2  764.77   15.23
  -8  -8   2  754.93   14.84
  -8  -8   8  445.56    8.14
  -8   8  -8  451.18    7.31
  -8  -8  10  300.62    7.48
   8   8  20   72.84    7.69
   8   8  22   43.38    6.53
   9   0  -1   21.61    2.53
   0   9   1   19.18    2.33
   0   9  -1   18.37    2.41
   9   0   1   16.30    2.08
   9   0   1   19.12    2.42
   9   0  -1   16.84    2.54
   0   9   1   22.29    1.68
   9   0   1   22.07    2.07
  -9   0   3  140.73    4.66
   0   9   3  135.50    5.71
   0  -9   3  138.79    3.21
   9   0   3  141.31    5.28
   0   9  -3  142.78    6.22
   0  -9  -3  147.19    5.81
   0  -9  -3  136.50    4.96
   9   0   3  139.68    4.74
   9   0   3  137.60    5.59
   9   0  -3  138.25    6.67
   9   0  -3  137.33    5.73
  -9   0   5   30.27    2.15
   0  -9  -5   29.67    2.44
   0   9   5   28.24    2.70
  -9   0   5   30.38    2.23
   9   0  -5   32.40    3.74
   0   9  -5   28.93    3.00
   9   0   5   29.89    1.79
   0  -9  -5   29.05    2.63
   9   0   5   29.52    2.75
   0   9   7  193.49    6.75
   0  -9  -7  197.48    6.75
   0   9  -7  187.44    7.61
   9   0   7  191.08    6.30
  -9   0   7  197.62    4.90
   9   0  -7  178.75    8.43
   9   0  -9  247.26    6.69
  -9   0   9  225.53    4.54
   9   0  -9  247.24   10.24
   0   9  -9  221.10    8.62
   9   0   9  246.69    7.10
   0   9 -11   11.50    2.43
   9   0 -11    9.57    1.64
   9   0 -11   11.93    3.06
   9   0  11   14.94    2.73
   0   9 -11   15.12    1.74
   0   9 -13   21.52    3.19
   9   0 -13   23.37    3.96
   9   0  13   27.41    3.83
   9   0  15  303.09   12.60
   0   9  15  283.61   10.03
   9   0 -15  278.80   11.94
   0   9 -15  258.40   10.70
   9   0 -17   13.11    3.38
   9   0  17   17.54    3.59
   0   9  17   11.15    2.34
   0   9 -17   14.35    2.98
   9   0 -19    4.28    2.66
   0   9 -19    5.54    2.50
   9   0  19    1.15    2.20
   0   9  19    0.20    1.52
   0   9 -19    4.63    2.35
   9   0  21    9.52    3.29
   0   9 -21    7.02    2.70
   0   9  21    7.01    2.33
   9   0 -21    9.45    3.04
   0   9 -21    8.18    2.58
   0   9  23    1.46    1.91
   9   0  23    3.21    2.86
   9   0 -23    2.06    2.31
   0   9 -23    4.26    2.10
   9   0 -25    0.58    2.44
   9   1 -24    6.15    2.92
   1   9 -22    7.89    2.94
   9   1 -22   10.27    3.38
   1   9 -22    8.05    2.75
   9  -1  22    4.48    2.41
   9   1 -20   30.52    4.62
   1   9 -20   32.30    4.51
   9  -1  20   29.18    4.87
  -1   9  20   33.06    4.25
   1   9 -20   38.61    4.78
   9  -1  18   95.38    7.95
  -1   9  18   91.12    6.27
   9   1 -18  100.80    7.73
   1   9 -18   92.01    6.85
   9  -1  16   47.29    5.45
  -1   9  16   41.25    3.95
   9   1 -16   52.26    5.59
   1   9 -16   46.92    4.83
   1   9 -14  110.67    6.87
  -1   9  14  128.48    6.24
   9  -1  14  126.82    8.04
   9   1 -14  125.84    8.06
   9  -1  14  113.98    4.47
   9   1 -12  215.47   10.13
   9  -1  12  230.06    9.87
   1   9 -12  214.93    9.05
   1   9 -12  229.62    6.25
   9  -1  12  225.57    6.38
   9   1 -10  222.20    7.00
   9  -1  10  208.97    8.65
  -1   9  10  199.40    6.54
   9   1 -10  212.73    9.80
   1   9 -10  208.85    8.51
   9  -1  10  206.42    6.23
   1   9 -10  214.89    6.02
  -9   1   8  114.59    3.16
   1   9  -8  115.33    6.06
   9  -1   8  122.21    4.96
   9   1  -8  132.67    7.55
  -1   9   8  123.20    5.26
  -1   9   6  189.51    6.44
   9   1  -6  188.25    8.56
  -9   1   6  177.63    4.80
   9  -1   6  177.54    6.08
   1   9  -6  178.05    7.22
  -9   1   6  190.32    4.76
   1  -9   4  280.71    5.57
   9   1  -4  270.72    7.81
  -1  -9  -4  265.94    7.23
  -1   9   4  275.16    7.84
   1   9  -4  275.86    8.65
   9   1  -4  281.84   10.12
  -9   1   4  276.53    5.96
   9  -1   4  288.42    7.90
   1  -9   2  104.25    3.36
   9   1  -2  108.67    4.99
  -1   9   2  107.89    5.10
   1   9  -2  104.36    5.31
   9  -1   2  106.00    4.33
   9   1  -2  108.34    5.41
  -1  -9  -2  108.58    4.65
  -9   1   2  104.33    5.56
   9  -1   2  104.55    4.28
   9   1  -2  103.59    5.83
  -1   9   2  110.42    4.00
   9   1   0    4.93    1.25
   9  -1   0    5.12    1.52
   9  -1   0    6.04    1.84
  -1   9   0    6.60    1.18
  -9   1   0    6.23    1.76
   1   9   0    6.23    1.51
   9   1   0    6.77    1.92
   9   1   0    3.43    1.64
  -1   9   0    3.51    1.38
   9   1   0    5.69    1.59
  -9   1   0    6.92    1.75
   9  -1   0    4.81    1.10
   1   9   0    5.37    0.85
   1   9   2  106.16    5.15
   9   1   2  110.83    5.06
  -1   9  -2  110.86    5.39
   9  -1  -2  113.78    5.64
   9   1   2  114.39    5.28
   9  -1  -2  110.81    5.26
   9   1   2  106.99    4.56
   1  -9  -2  109.42    5.02
  -9  -1   2  104.22    4.35
  -9  -1   4  271.78    6.82
  -1  -9   4  239.06    3.35
   1  -9  -4  291.88    6.78
   9  -1  -4  272.21    8.29
   9   1   4  296.32    6.88
  -9  -1   4  281.83    6.87
   9  -1  -4  272.96    9.41
   1  -9  -4  281.27    7.86
  -1   9  -4  267.97    8.64
   9   1   4  273.24    7.80
   1   9   4  280.10    8.26
  -9  -1   6  191.18    5.43
   1   9   6  180.67    6.66
   1  -9  -6  188.83    6.40
   9  -1  -6  164.09    7.88
   9   1   6  175.87    4.05
  -1   9  -6  179.91    7.36
   9   1   6  170.95    6.18
  -9  -1   8  125.19    4.09
   1   9   8  128.72    5.78
   1  -9  -8  124.80    5.30
   9  -1  -8  128.44    4.31
   9  -1  -8  112.88    6.92
  -1   9  -8  119.42    6.30
   9  -1 -10  210.13    5.98
   9  -1 -10  202.59    9.43
  -9  -1  10  206.56    4.83
   1  -9 -10  222.12    7.17
  -1   9 -10  205.36    8.67
   9  -1 -12  227.32    6.96
   1  -9 -12  227.50    7.48
   9  -1 -12  250.47   10.91
   9   1  12  237.28    9.88
  -1   9 -12  234.35    5.06
  -1   9 -12  212.72    9.22
   9   1  14  115.50    7.56
   9  -1 -14  124.65    8.08
  -1   9 -14  108.32    6.99
   9   1  16   48.84    5.49
   1   9  16   53.61    4.84
  -1   9 -16   42.24    4.64
   9  -1 -16   51.39    5.57
   9   1  18   89.62    7.72
   1   9  18   89.98    6.66
   9  -1 -18  107.80    7.99
  -1   9 -18   93.29    6.95
  -1   9 -20   32.61    4.51
  -1   9 -20   30.81    4.00
   9   1  20   31.70    5.12
   1   9  20   27.99    4.16
   9  -1 -20   35.11    4.91
   9  -1 -22    2.89    2.51
   9   1  22    6.39    2.87
   1   9  22    7.69    2.49
  -1   9 -22    6.16    2.34
   1   9  24    4.90    2.43
  -1   9 -24    7.01    2.76
   9   2 -25    6.80    3.29
   9   2 -23   11.29    3.40
   9  -2  23    7.21    3.18
   2   9 -23    9.69    3.17
   9   2 -21   14.21    3.51
   2   9 -21   18.92    3.55
   2   9 -21   14.64    3.45
   9  -2  21   17.44    3.98
   9   2 -19    5.93    2.92
   2   9 -19    5.16    2.15
   9  -2  19    0.38    1.82
  -2   9  19    3.06    1.69
   2   9 -19    8.36    2.88
   9  -2  17   35.27    4.71
   9   2 -17   32.96    4.66
   2   9 -17   37.68    4.36
  -2   9  17   29.33    3.49
  -2   9  15  143.91    6.66
   2   9 -15  125.62    7.38
   9  -2  15  134.23    8.52
   9   2 -15  151.90    9.04
   2   9 -13   46.48    4.41
   9   2 -13   42.24    4.93
   9  -2  13   48.63    4.93
  -2   9  13   48.65    3.65
   2   9 -13   53.97    3.49
   9  -2  13   43.26    2.65
  -2   9  11   16.52    1.97
   9   2 -11   26.86    4.07
   9  -2  11   18.94    2.04
   9  -2  11   22.17    3.40
   2   9 -11   21.50    2.33
   2   9 -11   20.53    3.03
   9  -2   9  217.52    6.31
   9   2  -9  217.89    9.94
   2   9  -9  222.28    8.46
   9  -2   9  216.45    8.64
  -2   9   9  236.84    7.02
   9   2  -7  278.94   10.74
   9  -2   7  268.06    8.76
   2   9  -7  255.23    8.68
  -2   9   7  282.45    7.64
  -9   2   7  283.82    5.07
  -9   2   5  414.48    6.51
  -2   9   5  396.18    9.18
   9   2  -5  395.67   12.10
   2   9  -5  402.24   10.59
   9   2  -5  386.19   10.61
  -2  -9  -5  385.10    9.18
   2  -9   3   82.18    3.42
  -2   9   3   92.98    4.11
   9   2  -3   85.74    4.32
  -2   9   3   85.68    4.48
   2   9  -3   85.27    4.85
   9   2  -3   88.32    5.68
   9   2  -3   79.57    4.88
  -2  -9  -3   81.98    4.22
  -9   2   1  248.92    8.35
   9  -2   1  257.19    8.05
   2   9  -1  252.87    8.12
  -2   9   1  257.83    7.81
  -2   9   1  269.29    6.30
   9   2  -1  255.98    8.78
   9   2  -1  269.19    8.36
   9  -2   1  261.80    6.22
   9   2  -1  250.59    7.28
  -9  -2   1  257.29    7.24
   2  -9  -1  259.44    7.72
  -9  -2   1  251.30    7.15
   9   2   1  262.89    7.21
   2   9   1  250.01    7.96
   9  -2  -1  263.92    5.60
  -9   2  -1  262.58    7.84
   9  -2  -1  256.11    7.74
  -2   9  -1  254.43    7.98
   9   2   1  259.13    8.12
   9   2   1  263.24    8.09
  -9   2  -1  271.70    7.45
   9  -2  -1  265.40    8.19
   2   9   3   84.47    4.69
  -9  -2   3   87.09    4.11
   2  -9  -3   86.94    3.58
  -2   9  -3   86.32    4.27
  -2   9  -3   82.76    4.78
  -9   2  -3   89.03    4.10
  -9  -2   3   87.37    4.12
   9  -2  -3   83.91    5.13
   9  -2  -3   77.91    4.61
   9   2   3   83.37    4.64
   9   2   3   74.52    4.11
   2  -9  -3   86.77    4.42
   2  -9  -5  397.61    7.50
   9  -2  -5  406.79   11.69
   9   2   5  408.13    8.13
   2   9   5  401.84   10.10
  -9   2  -5  398.38    7.04
   2  -9  -5  398.39    9.12
  -2   9  -5  390.49   10.68
  -9  -2   5  422.48    8.71
   9  -2  -7  289.44    5.53
  -9  -2   7  288.23    6.89
   9  -2  -7  265.46   10.17
   2  -9  -7  292.84    7.85
  -2   9  -7  262.78    9.20
   9   2   7  268.86    5.39
   2   9   7  281.00    8.63
   9  -2  -9  218.72    5.31
  -9  -2   9  217.71    5.70
   9  -2  -9  211.77    9.56
   2  -9  -9  233.95    7.05
  -2   9  -9  206.35    8.62
  -2   9 -11   19.11    3.01
   9  -2 -11   22.80    2.11
  -2   9 -11   19.66    1.45
   2  -9 -11   16.48    2.04
   9  -2 -11   16.24    3.68
  -9  -2  11   20.97    1.78
  -2   9 -13   46.19    4.69
   2  -9 -13   56.54    3.75
   9  -2 -13   48.69    3.38
   9  -2 -13   54.79    5.56
  -2   9 -15  123.45    7.63
   9  -2 -15  138.99    8.63
   9   2  15  141.39    8.68
   2   9  17   42.51    4.67
  -2   9 -17   34.04    4.31
   9  -2 -17   31.72    4.57
   9   2  17   41.93    5.23
  -2   9 -19    5.84    2.12
   9  -2 -19    4.69    2.34
   9   2  19    0.18    2.15
   2   9  19    1.22    1.74
  -2   9 -19    6.63    2.47
  -2   9 -21   14.78    3.19
   9   2  21   11.19    3.27
   2   9  21   12.08    3.20
  -2   9 -23    8.73    3.07
   9   2  23   16.46    4.22
   2   9  23   10.03    3.24
  -2   9 -25    3.39    2.62
   2   9  25   10.18    3.20
   9   3 -24   -0.25    2.26
   3   9 -24   -2.22    3.06
   9   3 -22    2.65    2.41
   9  -3  22    3.91    2.58
   3   9 -22   -1.29    2.10
   3   9 -22    2.53    2.54
   3  -9  20    8.76    2.90
   9  -3  20    4.74    2.36
   3   9 -20   14.37    3.67
   9   3 -20    3.96    2.62
   3   9 -20    8.36    2.62
   3  -9  18   36.37    4.85
   3   9 -18   41.18    4.97
  -3   9  18   34.59    3.72
   9  -3  18   39.77    5.18
   9   3 -18   39.35    5.28
   3   9 -18   34.36    4.21
   9   3 -16    1.65    2.18
   3  -9  16    1.42    1.68
   9  -3  16   -2.53    2.35
  -3   9  16   -0.49    1.11
   3   9 -16   -0.16    1.63
   9   3 -14    6.39    1.27
   3  -9  14    8.19    2.55
   9   3 -14   10.81    3.12
   3   9 -14    7.58    2.11
   9  -3  14    6.34    2.40
  -3   9  14    8.70    1.84
   9   3 -12  166.05    5.42
  -3   9  12  171.18    5.88
   9   3 -12  166.21    9.30
   9  -3  12  164.94    8.75
   3   9 -12  177.15    8.00
  -3   9  12  154.65    5.70
   3   9 -12  175.80    6.34
   9   3 -10   61.51    5.81
   9  -3  10   53.26    4.77
   3   9 -10   46.29    4.00
   3   9 -10   54.67    3.69
  -3   9  10   55.39    3.09
  -3   9   8    3.81    1.18
   9   3  -8    8.09    2.69
  -9   3   8    3.26    0.52
   9  -3   8    3.27    1.60
   3   9  -8    3.94    1.45
  -9   3   6   70.68    2.36
  -3   9   6   73.45    3.89
   3   9  -6   78.72    4.85
   9  -3   6   80.20    4.76
   9   3  -6   76.75    5.04
   9   3  -6   76.48    5.66
   3  -9   4   86.47    3.83
  -3  -9  -4   85.54    4.54
  -3   9   4   98.36    4.68
   3   9  -4   85.83    4.92
  -3   9   4   91.61    4.53
   9  -3   4   88.92    4.58
   9   3  -4   97.43    5.84
   9   3  -4   88.65    5.17
   9   3  -4   84.99    4.25
  -3  -9  -2   21.00    2.34
   9   3  -2   23.49    2.35
   3  -9   2   23.64    2.13
   3   9  -2   21.65    2.55
  -9   3   2   22.60    2.86
  -3   9   2   21.30    2.34
   9   3  -2   28.46    3.30
  -3   9   2   21.95    2.24
   9   3  -2   23.22    2.90
   9  -3   0  109.39    3.66
  -9   3   0  103.54    5.26
  -9  -3   0   98.44    4.83
   3   9   0  103.39    5.29
   9  -3   0  102.06    5.26
   9   3   0  106.85    4.77
   3   9   0   92.21    1.94
  -3   9   0  107.66    5.20
  -9   3   0  108.28    4.94
   9   3   0   98.19    5.16
  -9  -3   2   23.04    2.36
   3  -9  -2   19.67    2.27
  -3   9  -2   19.78    2.48
  -9  -3   2   19.71    2.16
  -9   3  -2   18.45    2.25
   3   9   2   19.12    2.53
  -3   9  -2   20.01    2.07
  -9   3  -2   21.59    2.28
   9  -3  -2   18.73    2.56
   3   9   4   86.94    4.89
  -9  -3   4   86.50    4.30
  -9   3  -4   87.90    3.94
   3  -9  -4   86.79    3.28
  -9  -3   4   93.14    4.41
   9  -3  -4   81.62    5.11
   9  -3  -4   92.77    5.20
  -9   3  -4   99.14    4.29
  -3   9  -4   90.90    5.23
   3  -9  -4   85.96    4.29
  -9   3  -6   73.97    3.14
   3  -9  -6   75.22    3.96
  -9  -3   6   79.93    4.00
  -3   9  -6   66.97    4.68
   3   9   6   75.40    4.64
   9  -3  -6   73.77    5.30
   9  -3  -6   69.76    2.27
   3  -9  -8    7.45    1.45
  -3   9  -8    3.50    1.77
  -9   3  -8    4.67    0.75
  -9  -3   8    5.64    1.21
   9  -3  -8    5.08    2.02
   9  -3  -8    5.74    0.82
  -3   9 -10   58.34    4.88
   9  -3 -10   59.91    2.82
   9  -3 -10   50.13    4.92
   3  -9 -10   64.56    3.72
  -9  -3  10   56.25    3.21
  -9  -3  12  180.01    5.65
   3  -9 -12  188.83    6.35
  -3   9 -12  157.30    8.31
   9  -3 -12  163.32    8.87
   9  -3 -12  177.16    5.45
  -3   9 -14    8.16    2.39
   9  -3 -14    1.53    2.04
  -3   9 -16    3.01    1.70
   9  -3 -16    1.62    2.28
   9   3  16    2.31    2.31
  -3   9 -18   33.08    4.58
   3   9  18   39.07    4.76
   9   3  18   40.87    5.30
  -3   9 -20    7.49    2.57
   3   9  20   12.95    3.39
   9   3  20   10.44    3.33
  -3   9 -22   -0.83    1.65
   9   3  22    2.40    2.70
   3   9  22   -2.50    2.34
   3   9  24   -1.38    2.71
  -3   9 -24    2.01    1.93
   4   9 -25   -1.30    2.43
   4  -9  23    2.44    2.56
   9   4 -23   -2.28    2.81
   4   9 -23   -2.90    2.81
   4  -9  21   11.58    3.52
   9  -4  21    6.93    3.17
   4   9 -21    8.65    3.09
   9   4 -21    9.11    3.11
   4   9 -21   10.30    3.08
   9   4 -19   16.71    3.87
   4  -9  19   14.47    3.51
   4   9 -19    9.72    2.62
   4   9 -19   13.78    3.41
   9  -4  19   18.79    3.81
   9   4 -17   11.93    3.59
  -4   9  17   14.65    2.44
   9  -4  17   13.74    3.43
   4   9 -17    9.30    2.55
   4  -9  17   12.93    3.24
   4  -9  15   37.74    4.70
  -4   9  15   35.43    3.25
   9   4 -15   36.09    4.90
   4   9 -15   37.83    4.17
   9  -4  15   35.20    4.50
   9   4 -15   34.03    2.88
   4   9 -13   23.57    2.87
   4  -9  13   26.54    3.68
  -4   9  13   22.49    2.34
   9  -4  13   26.97    3.84
   9   4 -13   31.27    4.62
   4   9 -13   27.50    3.38
   9   4 -13   29.28    2.74
   4  -9  11   15.68    2.81
   9   4 -11   17.54    3.74
   9  -4  11   16.04    2.96
  -4   9  11   13.81    1.67
   4   9 -11   15.62    2.54
   4   9 -11   15.33    2.32
  -4   9  11   14.46    1.61
   9   4 -11   12.23    1.78
  -4   9   9  155.27    5.33
   9   4  -9  161.71    8.69
   9  -4   9  131.59    7.24
   9   4  -9  148.61    5.61
   4   9  -9  141.26    6.72
   4   9  -9  153.66    6.20
  -4   9   7   12.03    1.65
   4   9  -7   11.95    2.20
   9  -4   7   12.44    2.32
   9   4  -7   16.60    3.34
   9   4  -7    8.50    2.22
  -4   9   5   25.30    2.38
   9   4  -5   28.24    3.61
   9  -4   5   29.10    3.00
   4   9  -5   25.34    2.79
   9   4  -5   28.90    3.34
  -4  -9  -5   25.78    2.81
  -4   9   3   19.95    2.32
   4   9  -3   21.95    2.59
  -4   9   3   22.21    2.38
   9  -4   3   19.49    2.30
  -4  -9  -3   20.24    2.45
   9   4  -3   19.72    2.12
   4  -9   3   23.16    2.33
   9   4  -3   21.03    2.83
  -4   9   1   17.29    2.26
  -4   9   1   23.16    2.37
  -4   9   1   18.45    1.71
  -9  -4  -1   20.28    2.49
   4   9  -1   19.02    2.47
  -4  -9  -1   17.17    2.29
   9   4  -1   21.88    2.86
   9  -4   1   20.59    2.02
   9   4  -1   22.02    2.29
  -9   4   1   22.04    2.64
   9  -4   1   19.04    2.66
   4  -9   1   18.45    2.10
   4   9   1   17.38    2.32
   9  -4  -1   20.74    2.69
  -4   9  -1   18.26    1.88
   9  -4  -1   19.84    1.46
  -4   9  -1   16.21    2.21
  -9  -4   1   14.22    1.97
   9  -4  -1   19.47    1.62
  -9   4  -1   19.52    2.43
  -9   4  -1   19.83    2.29
  -9  -4   3   15.87    2.11
   9  -4  -3   16.87    2.45
   4   9   3   19.08    2.53
  -4   9  -3   21.74    2.30
   4  -9  -3   18.21    1.52
  -9   4  -3   16.92    2.09
  -4   9  -3   19.96    2.60
  -9   4  -3   20.10    2.18
   4  -9  -5   26.89    2.47
  -9  -4   5   25.71    2.49
  -9   4  -5   28.11    2.35
  -9   4  -5   29.25    2.46
   4   9   5   22.81    2.77
  -4   9  -5   24.60    2.97
  -4  -9   7   10.19    0.85
  -9   4  -7   14.00    1.53
   4  -9  -7   13.45    1.82
  -4   9  -7    9.62    2.21
  -9  -4   7   13.35    1.87
  -4   9  -9  131.39    7.29
  -9   4  -9  121.92    3.23
   4  -9  -9  149.21    5.38
  -9  -4   9  148.90    5.65
   4  -9 -11   19.60    2.06
  -4   9 -11   14.72    2.85
  -9  -4  11   15.60    1.96
  -4   9 -13   21.81    3.45
  -4   9 -15   32.90    4.27
  -4   9 -17   10.26    2.80
   9   4  17   16.86    3.78
  -4   9 -19   13.54    3.09
   9   4  19   18.78    3.99
   4   9  19   16.49    3.53
  -4   9 -21   10.41    2.81
   4   9  21   12.79    3.47
   9   4  21   16.37    4.24
  -4   9 -23    1.47    1.77
   9   4  23   -1.85    2.85
   4   9  23    5.74    2.88
  -4   9 -25    1.68    2.20
   4   9  25   -2.58    3.46
   9   5 -24    1.16    2.62
   5   9 -24   -0.09    2.56
   5   9 -22    1.86    2.52
   9  -5  22    4.50    2.79
   5  -9  22   -0.92    2.00
   9   5 -22    2.92    2.60
   5   9 -20    8.28    2.65
   5  -9  20    9.48    3.04
   9  -5  20   11.91    3.28
   5   9 -20    6.62    2.97
   9   5 -20   14.52    3.74
   5  -9  18   19.51    3.89
   9   5 -18   21.82    4.45
   9  -5  18   16.73    3.66
   5   9 -18   20.50    3.60
   5   9 -18   19.30    4.06
   5   9 -16   16.27    2.97
   9  -5  16   17.30    3.65
   5  -9  16   12.06    3.19
   9   5 -16   17.06    2.46
   9   5 -16   17.76    4.09
   5  -9  14   18.43    3.32
  -5   9  14   19.39    2.24
   9  -5  14   17.44    3.31
   5   9 -14   12.90    2.58
   9   5 -14   18.84    3.95
   9   5 -14   21.96    2.64
   9  -5  12  127.66    7.71
   5   9 -12  118.37    5.93
   5  -9  12  120.95    7.30
   5   9 -12  112.23    6.40
  -5   9  12  114.44    4.58
   9   5 -12  122.49    5.65
   9   5 -12  125.11    8.32
  -5   9  10   48.83    2.91
   9   5 -10   52.82    5.32
  -5   9  10   43.35    2.44
   5   9 -10   47.86    4.08
   9  -5  10   41.93    4.31
   5  -9  10   41.91    4.01
   9   5 -10   42.44    3.34
   5   9 -10   45.11    3.82
   9   5  -8   32.37    2.94
   5  -9   8   29.49    3.17
   5   9  -8   27.62    3.09
   9   5  -8   37.01    4.36
   9  -5   8   29.10    3.45
  -9   5   8   25.11    1.43
   9   5  -8   32.54    3.51
  -5   9   8   31.94    2.48
  -9   5   6  144.23    4.34
   9  -5   6  138.56    6.67
   5   9  -6  131.64    6.25
  -5   9   6  139.92    5.25
   9   5  -6  137.70    6.72
   9   5  -6  132.40    5.64
   5  -9   4   76.37    4.15
  -5  -9  -4   71.24    4.53
   9  -5   4   70.08    4.42
  -5   9   4   70.72    2.55
  -5   9   4   74.92    4.06
   5   9  -4   68.01    4.45
   9   5  -4   77.32    5.08
   9  -5   2   74.42    4.69
   5   9  -2   65.38    4.43
  -9  -5  -2   63.13    4.29
   9   5  -2   63.68    3.44
  -5  -9  -2   64.12    4.28
  -5   9   2   66.95    2.84
   9  -5   2   66.99    3.82
  -5   9   2   70.04    4.14
   9   5  -2   72.58    4.89
   5  -9   2   71.97    4.09
  -9  -5   0  224.70    7.68
  -5  -9   0  216.43    7.55
  -5   9   0  226.31    5.98
   9  -5   0  228.99    5.84
  -9   5   0  232.62    7.87
   5   9   0  225.00    7.98
  -5   9   0  221.53    7.54
   5  -9   0  229.78    7.18
   9  -5   0  218.74    7.96
  -9  -5   2   60.66    3.95
   9  -5  -2   74.70    4.85
  -5   9  -2   75.09    3.95
   9  -5  -2   70.61    2.40
  -5   9  -2   67.11    4.37
   9  -5  -2   65.34    2.11
   5   9   2   69.76    4.59
  -9   5  -2   76.64    4.34
  -9   5  -2   73.24    4.03
   5   9   4   69.46    4.64
   5  -9  -4   72.72    2.47
  -9   5  -4   80.04    4.13
  -9   5  -4   68.65    3.59
  -5   9  -4   72.91    4.38
  -5   9  -4   69.72    4.79
  -9   5  -6  138.85    4.93
  -5   9  -6  134.81    6.94
  -9   5  -6  147.03    4.83
  -5  -9   8   32.32    1.74
  -5   9  -8   31.74    3.64
  -9   5  -8   34.99    2.33
   5  -9 -10   47.09    3.05
  -5   9 -10   48.38    4.67
  -9   5 -10   44.63    2.25
  -5   9 -12  101.29    7.00
   5  -9 -12  127.41    4.81
  -5   9 -14    8.47    2.48
  -5   9 -16   19.29    3.48
  -5   9 -18   19.86    3.68
   9   5  18   31.19    5.01
  -5   9 -20   11.01    2.79
   9   5  20   10.85    3.43
   5   9  20   14.37    3.53
  -5   9 -22    4.79    2.37
   9   5  22   -0.66    2.60
   5   9  22    0.55    2.04
   5   9  24    2.07    2.39
  -5   9 -24   -2.45    2.31
   6   9 -25    0.95    2.83
   6   9 -23    2.99    3.11
   9   6 -23   -1.54    2.25
   9  -6  21    4.53    2.85
   6   9 -21    1.39    3.13
   9   6 -21    4.47    3.02
   6  -9  21    3.21    2.44
   6  -9  19    5.64    2.28
   9  -6  19    4.46    2.09
   9   6 -19    7.13    2.84
   6   9 -19    9.01    2.60
   6   9 -19    3.45    2.77
   6  -9  17   12.94    3.13
   9  -6  17   22.87    4.17
   6   9 -17   17.57    3.20
   9   6 -17   22.28    4.36
   6  -9  15   16.56    3.20
   9   6 -15   32.41    5.11
   9  -6  15   24.67    3.97
   6   9 -15   24.08    3.36
   9   6 -15   22.72    3.01
   9   6 -13   18.64    2.57
   6  -9  13   17.13    3.13
   9  -6  13   19.02    3.38
   6   9 -13   22.90    3.29
   6   9 -13   21.05    2.96
  -6   9  13   16.71    1.76
   9   6 -13   20.22    4.02
   9   6 -11   16.91    3.67
   9   6 -11   15.35    2.42
  -6   9  11   16.23    1.45
   6  -9  11   14.58    2.68
   6   9 -11   19.58    2.99
   9  -6  11   21.40    3.36
   6   9 -11   17.70    2.83
  -6   9   9   69.12    3.40
   6   9  -9   63.80    4.63
   9   6  -9   65.06    5.09
   9   6  -9   70.86    4.52
   9  -6   9   73.26    5.47
  -6   9   9   54.21    1.99
   6   9  -9   72.02    4.87
   6  -9   9   64.22    4.81
   9  -6   7   30.20    3.36
   6   9  -7   33.34    3.34
   9   6  -7   35.22    3.14
  -6   9   7   37.48    2.70
  -9   6   7   36.86    2.17
   6  -9   7   37.67    3.37
   9   6  -7   36.49    3.91
   9   6  -5    7.60    1.78
  -6   9   5    5.40    0.62
   6   9  -5    5.51    1.59
  -9   6   5    6.41    1.22
   9  -6   5    5.85    1.60
  -6  -9  -5    6.57    1.79
  -6   9   5    7.84    1.51
   9   6  -5    4.26    1.96
   6   9  -3    8.98    1.92
  -6   9   3    8.97    1.58
  -6  -9  -3    6.53    1.85
   6  -9   3    6.05    1.71
   9   6  -3    9.07    2.40
  -6   9   3    6.24    0.92
   9  -6   3    5.13    1.45
   9  -6   3    7.59    2.00
  -9  -6  -3    6.46    1.58
   9   6  -3    4.38    1.27
   9  -6   1   47.50    4.00
  -6  -9  -1   49.17    3.88
   6  -9   1   47.28    3.59
   6   9  -1   53.28    4.07
   9  -6   1   46.09    2.72
  -6   9   1   48.99    2.74
   9   6  -1   50.54    3.08
   6   9  -1   40.93    1.51
  -6   9   1   54.12    3.81
  -9  -6  -1   49.34    3.84
   9  -6  -1   50.43    4.11
  -6   9  -1   51.79    3.31
   9  -6  -1   48.89    2.09
  -9  -6   1   49.69    3.76
   6   9   1   52.31    4.17
  -6   9  -1   45.71    3.70
   6  -9  -1   47.28    3.67
   6   9   3    6.38    1.74
  -9  -6   3    8.91    1.76
   9  -6  -3   10.43    2.38
  -9   6  -3    3.19    1.24
  -6   9  -3    8.96    1.92
  -6   9  -3    7.61    1.77
  -9   6  -3    7.83    1.77
  -6   9  -5    8.48    2.06
  -9   6  -5    7.73    1.55
  -9   6  -7   49.38    2.90
  -6   9  -7   42.80    4.27
  -9  -6   7   38.95    3.02
  -6  -9   9   64.88    2.85
  -6   9 -17   20.35    3.65
  -6   9 -19    7.10    2.62
   9   6  19   13.05    3.75
   6   9  19   13.33    3.58
  -6   9 -21    5.45    2.63
   9   6  21    2.18    2.49
   6   9  21    0.70    2.22
  -6   9 -23    2.00    1.87
   6   9  23   -4.44    3.18
   7   9 -24   -3.16    2.96
   7  -9  22   17.20    3.89
   7   9 -22   14.50    4.17
   9  -7  22    7.45    2.96
   9   7 -22   11.16    3.68
   7  -9  20   17.75    4.00
   7   9 -20   18.31    4.00
   9  -7  20   16.11    3.74
   9   7 -20   11.45    3.65
   7   9 -18   14.11    4.01
   7   9 -18   16.74    3.44
   7  -9  18    8.68    3.13
   9  -7  18    6.87    2.56
   9   7 -18   11.46    3.78
   7   9 -16   29.55    4.65
   7  -9  16   22.23    3.96
   9  -7  16   25.88    4.12
   7   9 -16   27.62    3.82
   9   7 -16   25.12    4.64
   9   7 -16   25.24    3.35
   7   9 -14   60.97    5.06
   7  -9  14   57.28    5.58
   9  -7  14   58.47    5.78
   9   7 -14   56.54    4.62
   9   7 -14   56.02    6.19
   9  -7  12   95.45    6.83
   7  -9  12   93.98    6.69
   9   7 -12   97.41    7.42
   9   7 -12   88.03    5.43
   7   9 -12   95.26    5.96
   7   9 -12   89.31    5.78
   9  -7  10  105.20    6.68
   9   7 -10  115.27    6.04
   7   9 -10  107.96    6.13
   7  -9  10   96.61    6.22
   9   7 -10   99.12    6.38
   7   9 -10  110.45    6.17
  -7   9  10  113.21    4.00
   7   9  -8  134.69    6.68
   7  -9   8  129.82    6.57
   9   7  -8  126.01    6.13
   9   7  -8  130.23    6.90
   9  -7   8  121.18    6.63
  -9   7   8  126.80    3.86
  -7   9   8  129.81    4.71
   7   9  -8  130.27    6.58
   7   9  -6   33.16    3.36
  -9   7   6   38.17    2.60
   9  -7   6   33.66    3.38
  -7   9   6   35.72    2.76
   7  -9   6   34.24    3.15
   9   7  -6   41.03    3.56
   9   7  -6   37.99    4.07
   9  -7   4   65.38    4.01
   9  -7   4   59.75    4.54
   9   7  -4   63.81    4.34
  -9   7   4   64.66    3.70
   7  -9   4   68.70    4.46
   9   7  -4   69.33    5.06
   7   9  -4   66.91    4.61
  -7  -9  -4   69.38    4.84
  -7   9   4   74.58    4.18
   9   7  -2  223.24    5.82
   9  -7   2  216.34    6.07
   7  -9   2  218.27    7.68
  -9  -7  -2  207.17    8.10
  -7   9   2  217.23    4.96
   9  -7   2  212.57    8.11
  -7   9   2  209.27    7.25
   7   9  -2  217.60    8.18
  -7  -9  -2  214.83    8.10
  -7   9   0   33.29    3.20
  -7  -9   0   28.30    3.18
   7  -9   0   31.88    3.24
   9  -7   0   29.91    1.88
  -7   9   0   29.65    2.44
   7   9   0   33.21    3.38
  -9  -7   0   29.45    3.16
   9  -7   0   33.37    3.57
  -9  -7   2  205.90    7.85
   7   9   2  208.14    8.20
  -7   9  -2  207.11    7.08
  -7   9  -2  206.39    8.06
   9  -7  -2  211.69    8.22
   9  -7  -2  196.10    3.18
  -7   9  -4   65.62    4.95
  -9   7  -6   36.54    2.67
  -9  -7   8  124.30    4.93
  -9   7  -8  128.83    4.22
  -7   9 -10   71.48    1.96
  -7  -9  10  102.14    3.97
  -7   9 -20   14.56    3.34
   9   7  20   17.93    4.32
   7   9  20   17.57    3.91
  -7   9 -22   14.87    3.38
   9   7  22   12.03    4.03
   7   9  22   23.97    4.95
   8   9 -23    4.32    3.15
   8  -9  21    1.21    1.86
   9   8 -21   -3.92    3.21
   9  -8  21    3.25    2.96
   8   9 -21   -1.23    3.14
   9   8 -19   35.23    5.69
   8  -9  19   40.16    5.51
   9  -8  19   32.42    5.02
   8   9 -19   35.07    5.59
   9   8 -17   38.88    4.45
   8   9 -17   40.29    4.67
   9  -8  17   30.03    4.61
   8  -9  17   34.21    4.76
   8   9 -17   32.98    5.10
   9   8 -17   33.06    5.36
   9   8 -15   25.30    3.58
   8   9 -15   29.05    3.79
   8  -9  15   28.21    4.22
   9  -8  15   27.57    4.20
   9   8 -15   31.89    4.99
   8   9 -15   31.68    5.06
   8   9 -13   90.77    6.11
   8  -9  13   77.06    6.29
   9  -8  13   78.02    6.36
   9   8 -13   96.82    7.64
   9   8 -13   91.49    5.93
   8   9 -13   85.73    6.02
   9   8 -11  148.56    7.22
   9   8 -11  147.48    7.77
   8  -9  11  137.65    7.75
   9  -8  11  138.07    7.91
   8   9 -11  127.07    7.02
   8   9 -11  151.35    7.47
  -9   8   9   18.37    1.56
   8   9  -9   18.64    2.80
   8  -9   9   16.38    2.73
   9  -8   9   14.09    2.69
  -8   9   9   20.71    1.87
   9   8  -9   19.50    2.66
   9   8  -9   10.11    2.66
   8   9  -9   19.31    3.06
   9   8  -7  154.23    7.05
   9  -8   7  136.71    6.69
   8  -9   7  131.95    6.35
  -8   9   7  143.26    5.19
  -9   8   7  151.14    5.03
   9   8  -7  142.65    7.26
   8   9  -7  152.07    7.40
   8   9  -7  147.68    7.02
   8  -9   5  161.98    6.27
   9  -8   5  163.83    6.49
   8  -9   5  168.12    7.27
  -8   9   5  179.57    6.33
  -9   8   5  169.22    5.94
   9   8  -5  183.92    8.01
   8   9  -5  157.24    7.15
   9   8  -5  166.12    7.26
   8   9  -3   13.37    2.47
   9  -8   3   13.64    2.56
   9   8  -3   14.46    2.30
  -8  -9  -3    8.83    2.11
  -9  -8  -3   11.49    2.33
  -8   9   3   11.66    1.93
   9  -8   3   12.48    1.73
   8  -9   3   10.21    2.17
  -9   8   3   11.47    1.90
  -9  -8  -1  228.89    8.64
  -8  -9  -1  234.27    8.73
   8   9  -1  245.28    8.96
   9  -8   1  236.04    5.67
  -9   8   1  251.42    8.34
   9  -8   1  246.99    8.80
   8  -9   1  256.26    8.79
   8   9  -1  242.58    4.94
  -8   9   1  236.11    8.12
   9   8  -1  246.50    5.94
   8  -9  -1  234.52    8.64
   9  -8  -1  246.40    8.97
  -8   9  -1  239.00    8.65
  -8  -9   1  243.61    8.84
  -9  -8   1  244.81    8.82
  -8   9  -1  235.83    6.65
   8   9   1  223.90    8.65
  -8   9  -3    9.56    2.24
  -9  -8   3   14.55    2.42
  -8   9  -3    9.49    1.74
  -9   8  -7  154.52    5.05
  -8  -9   9   15.13    1.78
  -8   9  -9   17.18    1.55
  -9  -8   9   12.66    1.79
   9   8  21    2.46    2.68
   8   9  21   -1.63    2.33
   9   9 -22   22.10    5.14
   9   9 -20    7.15    3.56
   9  -9  20    2.68    1.98
   9  -9  18   12.38    3.10
   9   9 -18   14.72    4.19
   9   9 -16    7.95    2.58
   9  -9  16    5.87    2.29
   9   9 -16   10.52    3.76
   9   9 -14   22.50    3.34
   9  -9  14   21.89    3.78
   9   9 -14   28.88    4.57
   9   9 -12   34.53    3.80
   9  -9  12   33.43    4.14
   9   9 -12   32.70    4.08
   9  -9  10   43.37    4.37
   9   9 -10   45.45    4.22
   9   9 -10   49.67    4.75
  -9   9  10   40.33    2.28
   9  -9   8  123.08    6.65
  -9   9   8  130.61    4.76
   9   9  -8  139.96    7.02
   9   9  -8  128.10    7.20
  -9   9   6    2.63    1.09
   9   9  -6    3.57    1.46
   9  -9   6    4.16    1.54
   9   9  -6    7.54    2.64
   9   9  -4   18.17    2.75
  -9  -9  -4   20.58    2.92
   9  -9   4   17.21    2.86
   9  -9   4   17.81    2.13
  -9   9   4   17.49    2.27
  -9  -9  -2  105.62    6.15
   9   9  -2  114.93    3.74
   9   9  -2  104.71    6.10
  -9   9   2  114.63    5.70
   9  -9   2  108.49    6.08
  -9   9   0  136.04    6.57
  -9  -9   0  128.59    6.68
   9   9   0  134.11    4.41
   9  -9   0  128.28    6.68
  -9  -9   2  102.57    5.97
   9  -9  -2  116.66    6.53
  -9   9  -8  126.57    4.43
   9   9  20    6.39    3.17
  10   0   0  102.83    5.27
  10   0   0  104.50    4.33
   0  10   0  107.90    5.58
  10   0   0  104.52    5.50
  10   0   0  113.16    5.61
   0  10   2   55.15    2.84
  10   0   2   45.49    3.09
   0  10   2   47.02    3.68
   0  10  -2   46.03    3.77
  10   0   2   50.33    3.82
  10   0  -2   47.86    4.17
  10   0  -2   48.20    3.66
  10   0   2   51.46    3.43
 -10   0   4  538.70    9.53
   0 -10   4  520.50    6.51
   0  10  -4  537.30   12.65
  10   0   4  540.47    9.01
   0 -10  -4  530.99   10.23
  10   0   4  538.47   11.54
  10   0  -4  530.92   13.83
  10   0  -4  542.95   12.00
   0  10   4  566.42   12.17
 -10   0   4  527.96    9.60
   0  10   6   51.00    3.71
 -10   0   6   48.80    2.84
   0  10  -6   47.75    4.07
  10   0   6   50.27    3.64
  10   0  -6   46.77    4.60
 -10   0   6   45.65    2.87
   0  10   8    5.38    1.48
 -10   0   8    6.37    1.09
  10   0  -8    9.64    2.81
  10   0   8    4.91    1.71
   0  10  -8    4.33    1.65
  10   0 -10  470.89    9.74
 -10   0  10  413.78    6.31
   0  10 -10  434.78   12.83
  10   0 -10  453.60   14.50
  10   0  10  441.03   10.03
  10   0 -12   26.49    4.29
  10   0  12   26.78    3.73
   0  10 -12   28.17    2.28
  10   0  12   28.14    2.93
   0  10 -12   26.97    3.58
  10   0  14  218.52   10.53
  10   0 -14  213.83   10.62
   0  10 -14  188.13    9.26
  10   0  14  193.53    6.63
  10   0  16  125.16    8.72
   0  10  16  120.92    6.91
  10   0 -16  116.99    8.25
   0  10 -16  108.16    7.36
   0  10 -18   18.29    3.21
  10   0 -18   20.00    4.04
  10   0  18   18.01    3.75
   0  10  18   12.17    2.65
   0  10 -20   80.17    6.50
  10   0  20   66.88    7.28
   0  10  20   74.60    6.46
  10   0 -20   67.36    6.80
   0  10 -20   66.39    6.25
   0  10 -22   -1.65    2.21
  10   0  22   -0.15    2.24
  10   0 -22    3.35    2.77
   0  10 -24    5.91    2.81
  10   0 -24    2.16    2.52
  10   1 -23   18.68    4.10
   1  10 -23    7.92    2.75
   1  10 -21   10.98    3.12
  10  -1  21    9.59    3.42
   1  10 -21   16.56    3.57
  10   1 -21   15.32    4.02
  10  -1  19   10.10    3.49
  -1  10  19    7.68    2.49
  10   1 -19    9.03    3.28
   1  10 -19    6.87    2.37
  10   1 -17   42.99    5.30
   1  10 -17   41.66    4.85
  -1  10  17   38.69    4.09
  10  -1  17   46.14    5.57
  10  -1  15  284.65   12.55
  -1  10  15  277.01    9.66
   1  10 -15  259.14   11.02
  10   1 -15  267.89   12.07
  10  -1  13   47.70    5.15
   1  10 -13   38.19    4.30
   1  10 -13   46.88    3.16
  10  -1  13   45.62    3.26
  10   1 -13   48.67    5.46
  10  -1  11   59.48    5.05
   1  10 -11   71.29    5.39
  10  -1  11   59.01    3.73
   1  10 -11   64.30    3.57
  10   1 -11   60.92    5.83
   1  10  -9  238.02    9.20
  10   1  -9  273.92    7.71
 -10   1   9  216.12    4.35
  10  -1   9  245.28    9.25
  10  -1   9  251.61    7.50
  10   1  -9  240.82   10.59
  -1  10   9  251.09    7.94
 -10   1   7  165.67    4.59
 -10   1   7  158.87    4.88
   1  10  -7  159.09    7.27
  10   1  -7  156.95    8.41
  10  -1   7  160.93    6.21
  -1  10   7  160.98    6.33
 -10   1   5  113.45    4.07
  10   1  -5  115.69    6.88
   1  10  -5  102.49    5.70
  10  -1   5  109.80    5.25
   1 -10   5  109.16    3.67
  -1  10   5  120.93    5.58
  -1 -10  -5  103.24    4.83
   1 -10   3  121.14    3.69
  -1 -10  -3  118.99    5.14
  10  -1   3  118.04    4.98
  -1  10   3  120.57    5.62
  10   1  -3  114.49    6.54
   1  10  -3  112.32    5.82
  10  -1   3  118.86    4.45
  -1  10   3  125.68    4.70
  10  -1   3  110.91    5.46
  10   1  -3  104.19    5.24
  10   1  -1   61.09    4.08
  10  -1   1   67.94    4.43
  10   1  -1   59.72    4.55
  10  -1   1   64.39    3.40
   1  10  -1   68.04    4.58
  -1  10   1   64.06    4.25
 -10   1   1   73.02    4.69
  10  -1   1   69.12    4.03
  10   1  -1   66.96    4.56
  -1  10   1   66.27    3.13
  10   1   1   59.81    4.18
  10   1   1   63.25    3.63
  -1  10  -1   53.35    4.01
   1  10   1   61.22    2.50
  10  -1  -1   59.59    4.16
  10   1   1   50.50    3.90
   1  10   1   62.76    4.26
  10  -1  -1   58.29    4.18
   1 -10  -3  125.46    4.84
  10   1   3  122.72    5.16
 -10  -1   3  125.52    4.95
   1  10   3  126.65    5.98
 -10  -1   3  129.14    5.03
  -1  10  -3  125.65    6.12
  10  -1  -3  130.72    6.71
  10   1   3  123.19    5.71
  10  -1  -3  121.95    5.93
   1 -10  -5  101.39    4.33
 -10  -1   5  109.99    4.64
   1  10   5  104.08    5.34
  10  -1  -5  102.08    6.37
  10   1   5  111.68    4.07
  10   1   5  110.40    5.37
 -10  -1   5  111.92    4.55
  -1 -10   5   97.50    2.38
  -1  10  -5  101.20    5.75
   1  10   7  163.14    6.74
  -1  10  -7  160.73    7.45
 -10  -1   7  171.79    5.30
  10   1   7  151.95    3.47
  10  -1  -7  161.11    8.38
  10   1   7  157.98    6.31
  10  -1  -9  249.88    6.37
 -10  -1   9  248.90    5.85
  10  -1  -9  230.41   10.28
  -1  10  -9  233.23    9.27
  10  -1 -11   63.68    3.56
  10  -1 -11   59.72    5.60
  -1  10 -11   56.88    5.00
  -1  10 -11   70.15    3.16
 -10  -1  11   60.05    2.68
  10  -1 -13   48.23    5.19
  10  -1 -13   44.82    3.37
  10   1  13   45.64    4.82
  -1  10 -13   45.41    4.72
  10   1  15  285.41   12.48
  10  -1 -15  259.99   11.99
  -1  10 -15  261.49   11.30
  10  -1 -17   42.99    5.38
   1  10  17   46.30    4.66
  10   1  17   39.17    5.18
  -1  10 -17   46.55    5.12
  10  -1 -19    9.97    3.06
  -1  10 -19    8.68    2.68
  10   1  19    7.92    3.35
   1  10  19    4.78    1.97
  10  -1 -21   10.23    3.07
  10   1  21   16.09    4.08
   1  10  21   14.42    3.42
  -1  10 -21   12.16    3.21
  -1  10 -21    9.42    2.96
  -1  10 -23    8.20    2.82
  10  -1 -23   12.68    3.29
   1  10  23   14.09    3.55
  10   2 -24    5.13    3.43
  10   2 -22   10.26    3.72
   2  10 -22    4.98    2.79
  10  -2  22    3.98    2.75
   2  10 -22    5.20    2.44
  10   2 -20   29.33    4.73
  10  -2  20   25.57    4.53
   2  10 -20   28.95    4.21
   2  10 -20   30.80    4.55
  10   2 -18    3.62    2.34
  10  -2  18    4.54    2.75
  -2  10  18    5.75    1.97
   2  10 -18    6.93    2.48
   2  10 -16   33.97    4.34
  -2  10  16   39.09    3.79
  10  -2  16   32.98    4.89
  10   2 -16   32.44    4.72
  10  -2  14   74.46    6.35
  -2  10  14   71.10    4.53
   2  10 -14   69.71    5.63
  10   2 -14   74.68    6.76
  10  -2  12   47.58    4.99
   2  10 -12   51.58    4.73
   2  10 -12   48.93    3.41
  10   2 -12   54.09    5.66
  -2  10  10  240.42    7.62
  10  -2  10  239.21    9.74
   2  10 -10  214.52    8.87
  10   2 -10  235.86   10.77
  10  -2   8   11.77    2.28
  -2  10   8   13.13    1.96
 -10   2   8   12.86    1.38
  10   2  -8   14.04    3.07
 -10   2   8   11.70    1.15
   2  10  -8   12.83    2.38
 -10   2   6   21.72    1.69
  -2  10   6   23.72    2.55
   2  10  -6   24.39    2.91
  10   2  -6   22.41    3.57
  -2 -10  -6   19.85    2.42
  -2  10   4  266.81    8.17
  10   2  -4  268.42   10.30
   2  10  -4  274.62    9.18
   2 -10   4  262.66    6.18
  -2 -10  -4  274.34    8.08
  10   2  -4  256.50    7.86
  -2  10   4  284.22    7.70
  10   2  -4  265.19    9.21
  10  -2   2   87.84    4.04
  10   2  -2   83.54    4.57
   2  10  -2   89.86    5.21
   2 -10   2   86.34    3.59
  -2  10   2   87.51    4.87
  10   2  -2   93.11    5.91
  10   2  -2   85.15    5.14
  -2 -10  -2   82.89    4.47
  -2  10   2   95.06    4.13
  10   2   0   59.36    3.94
   2  10   0   61.43    4.30
  10  -2   0   60.19    3.05
  10  -2   0   58.55    4.32
  -2  10   0   57.16    4.08
  10   2   0   63.26    4.55
  10  -2   0   63.03    3.96
 -10   2   0   59.50    4.21
   2  10   0   55.14    1.81
  10   2   0   62.81    4.37
 -10  -2   2   91.38    4.51
   2  10   2   90.38    5.16
 -10  -2   2   88.70    4.46
  10   2   2   84.21    4.90
  10  -2  -2   91.89    5.29
  -2  10  -2   85.34    5.02
 -10   2  -2   90.39    4.60
  10   2   2   86.40    4.96
  10  -2  -2   84.74    5.06
   2  10   4  258.93    8.54
   2 -10  -4  252.72    6.39
 -10   2  -4  250.70    6.49
 -10  -2   4  264.50    7.37
  10  -2  -4  241.53    8.42
  10   2   4  248.60    7.39
  10  -2  -4  272.01    9.73
  -2  10  -4  248.08    8.78
  10   2   4  245.13    8.05
 -10  -2   4  246.50    7.24
  10   2   6   25.08    2.18
  -2  10  -6   21.56    2.90
 -10  -2   6   22.73    2.22
  10  -2  -6   22.05    3.42
   2  10   6   21.78    2.62
  10  -2  -8   13.94    3.24
  -2  10  -8   13.57    2.62
   2 -10  -8   11.59    1.89
  10  -2  -8   11.24    1.29
 -10  -2   8    9.50    1.48
  10   2   8   10.13    0.99
  10  -2 -10  227.93    5.83
  10  -2 -10  217.46   10.26
   2 -10 -10  237.23    7.71
 -10  -2  10  230.60    6.06
  -2  10 -10  210.97    9.22
  10  -2 -12   45.34    3.05
   2 -10 -12   49.33    3.73
  10  -2 -12   51.76    5.50
  -2  10 -12   48.59    2.24
  -2  10 -12   50.70    4.93
  10  -2 -14   65.49    6.23
  10   2  14   78.28    6.47
  -2  10 -14   64.51    5.72
  10   2  16   45.38    5.52
  10  -2 -16   29.99    4.46
  -2  10 -16   38.31    4.67
  -2  10 -18    7.14    2.52
  10   2  18    3.63    1.94
   2  10  18    6.09    2.30
  10  -2 -18    5.14    2.55
  -2  10 -20   31.20    4.58
  10  -2 -20   28.65    4.75
  -2  10 -20   33.99    4.19
  10   2  20   30.99    5.24
   2  10  20   34.36    4.74
  -2  10 -22   -1.77    1.89
  10   2  22    8.37    3.49
   2  10  22    6.59    3.12
   2  10  24    4.76    2.93
  -2  10 -24   -0.82    2.03
   3  10 -23    0.08    2.40
  10   3 -23    4.08    2.55
  10   3 -21    2.62    2.19
  10  -3  21    2.83    2.26
   3  10 -21    1.73    2.38
   3  10 -21    3.08    2.76
   3  10 -19    4.05    2.77
  10  -3  19    3.40    2.51
  10   3 -19    2.60    2.65
   3  10 -19   -1.64    1.96
  10  -3  17   21.94    4.12
  -3  10  17   16.30    2.60
   3  10 -17   20.49    3.53
  10   3 -17   22.89    4.30
  10  -3  15   12.43    2.95
  10   3 -15   18.73    3.92
  -3  10  15   16.48    2.46
   3  10 -15   17.72    3.22
  10   3 -13   32.89    4.74
  -3  10  13   29.38    2.74
  10  -3  13   30.28    4.16
   3  10 -13   28.26    3.53
   3  10 -13   29.20    2.94
  10  -3  11    9.47    2.43
   3  10 -11    7.13    2.01
  10   3 -11    5.88    3.02
   3  10 -11    9.99    2.11
  10   3  -9   46.78    5.20
 -10   3   9   46.18    2.24
  -3  10   9   52.05    3.49
   3  10  -9   46.71    4.21
  10  -3   9   48.12    4.51
  -3  10   7   84.90    4.50
   3  10  -7   82.81    5.30
  10   3  -7   74.43    6.02
  10  -3   7   88.76    5.40
 -10   3   7   82.60    2.77
   3 -10   5   22.80    2.21
  -3  10   5   23.36    2.51
   3  10  -5   19.10    2.62
  10   3  -5   18.49    3.39
  10  -3   5   21.71    2.60
  10   3  -5   25.20    3.23
  -3 -10  -5   20.31    2.51
  10   3  -3    3.53    1.63
  -3 -10  -3    3.41    1.36
  10   3  -3    7.15    2.48
   3  10  -3    2.40    1.51
  -3  10   3    2.90    1.19
   3 -10   3    0.06    1.05
  -3  10   3    2.36    1.34
  10   3  -3    1.21    1.61
  10  -3   1   41.09    3.70
  -3  10   1   39.46    2.82
  10   3  -1   37.94    3.88
  10  -3   1   36.75    2.46
   3  10  -1   40.13    3.61
  -3  10   1   39.50    3.35
  10   3  -1   33.92    3.01
  10   3  -1   38.93    3.62
  10   3   1   38.81    3.54
 -10  -3   1   39.89    3.23
   3  10   1   37.45    3.44
  10  -3  -1   41.56    2.32
 -10   3  -1   39.88    3.48
  -3  10  -1   40.09    2.82
  10  -3  -1   37.04    3.57
  -3  10  -1   39.99    3.51
  10   3   1   34.17    3.39
  10   3   3    5.74    2.04
  10  -3  -3    0.76    1.61
  10   3   3    4.13    1.70
 -10  -3   3    5.77    1.59
  -3  10  -3    2.50    1.31
 -10   3  -3    7.10    1.92
   3 -10  -3    3.26    1.02
   3  10   3    2.23    1.33
  10  -3  -3    1.16    1.72
 -10   3  -3    4.57    1.69
 -10  -3   5   20.92    2.33
 -10  -3   5   24.22    2.43
 -10   3  -5   20.95    2.11
  10   3   5   19.25    2.25
   3 -10  -5   22.30    2.44
  -3  10  -5   23.22    2.92
  10  -3  -5   23.74    3.28
   3 -10  -5   23.31    1.94
   3  10   5   21.50    2.78
  10  -3  -7   79.48    2.64
 -10  -3   7   83.08    4.25
  10  -3  -7   74.92    5.76
 -10   3  -7   74.45    2.96
   3 -10  -7   79.52    4.41
  10   3   7   81.13    3.67
  -3  10  -7   83.84    5.61
   3  10   7   80.12    5.02
  10   3   9   45.50    2.18
 -10  -3   9   52.74    3.28
  -3  10  -9   46.90    4.45
  10  -3  -9   54.03    2.43
   3 -10  -9   58.07    3.77
  10  -3  -9   41.46    4.64
 -10  -3  11    8.96    1.44
  -3  10 -11    7.73    2.25
  10  -3 -11   10.11    1.36
   3 -10 -11   11.49    1.95
  10  -3 -11    8.99    3.03
  -3  10 -13   25.49    3.70
  10  -3 -13   30.53    4.47
  -3  10 -15   16.95    3.32
  10   3  15   12.51    3.09
  10  -3 -15   15.44    3.44
  -3  10 -17   23.72    3.89
  10   3  17   22.95    4.08
  -3  10 -19    1.13    1.83
  10   3  19    4.02    2.50
   3  10  19    2.50    2.18
  -3  10 -21    3.29    1.93
  10   3  21    6.63    3.31
   3  10  21    0.68    2.09
  -3  10 -23    4.78    2.35
   3  10  23    4.99    2.97
  -3  10 -25   -0.09    1.91
   3  10  25    1.14    2.39
   4  10 -24    2.97    2.98
  10  -4  22    6.77    3.01
  10   4 -22    9.46    3.49
   4  10 -22    4.11    2.73
   4  10 -20   26.54    4.36
  10  -4  20   34.96    5.26
   4  10 -20   35.78    4.94
  10   4 -20   34.33    5.20
  10   4 -18    3.68    2.70
  10  -4  18    4.39    2.34
   4  10 -18    9.23    2.74
  10   4 -16   19.60    4.14
  10  -4  16   17.89    3.69
   4  10 -16   20.57    3.44
   4  10 -14   72.79    5.64
  10   4 -14   75.45    6.97
  10  -4  14   86.47    6.84
  -4  10  14   66.31    4.09
   4  10 -14   73.13    4.69
  10   4 -12   53.68    5.96
   4  10 -12   47.01    4.46
  -4  10  12   49.76    3.18
   4  10 -12   45.79    3.72
  10  -4  12   44.17    4.82
  -4  10  10  124.97    5.16
 -10   4  10  103.66    2.90
   4  10 -10  122.76    6.74
  10  -4  10  120.13    7.25
  10   4 -10  124.13    8.15
   4  10 -10  119.96    5.71
 -10   4   8  133.94    3.41
  -4  10   8  151.76    5.77
  10  -4   8  143.19    7.47
   4  10  -8  138.99    6.88
  10   4  -8  154.57    8.52
  10   4  -6   13.56    3.14
   4  10  -6    9.69    2.19
  -4  10   6   10.69    1.80
  10  -4   6   12.78    2.47
  10   4  -6    6.70    2.10
   4 -10   4  203.47    6.41
  -4 -10  -4  206.50    7.58
   4  10  -4  210.03    8.11
  10   4  -4  213.96    8.99
  -4  10   4  202.14    7.09
  10  -4   4  211.05    7.49
  10   4  -4  201.47    8.19
  10   4  -4  200.01    6.58
   4 -10   2  196.56    6.31
  -4 -10  -2  190.30    7.20
  10   4  -2  190.82    7.73
   4  10  -2  193.61    7.70
  10  -4   2  200.32    6.58
  -4  10   2  190.21    7.04
  -4  10   2  201.98    6.66
  10  -4   2  189.04    7.59
  10   4  -2  186.53    6.31
 -10   4   0    6.76    1.91
  10   4   0    7.14    1.71
  10  -4   0    7.19    1.16
  10   4   0    7.02    2.10
   4  10   0    3.41    1.45
  -4  10   0    7.10    1.27
  10  -4   0    5.93    1.24
 -10  -4   0    6.96    1.69
  10  -4   0    2.59    1.67
  -4  10   0    7.09    1.67
   4  10   2  196.37    7.74
 -10  -4   2  188.51    6.90
  -4  10  -2  200.62    6.53
  10  -4  -2  202.39    7.93
  -4  10  -2  184.53    7.41
 -10   4  -2  198.12    7.10
  10  -4  -4  206.44    8.21
   4  10   4  207.03    8.02
   4 -10  -4  218.75    5.24
 -10   4  -4  217.11    6.60
 -10   4  -4  199.31    6.55
  -4  10  -4  212.52    8.32
 -10  -4   4  211.54    7.32
 -10   4  -6    8.41    1.58
  10  -4  -6    4.67    0.54
   4 -10  -6   10.69    1.80
  -4  10  -6    7.83    2.02
   4  10   6    8.01    1.97
   4 -10  -8  155.95    5.99
 -10  -4   8  145.90    5.83
  10  -4  -8  121.52    2.70
  -4  10  -8  144.53    7.59
 -10   4  -8  138.52    4.12
  -4 -10   8  117.45    2.72
  -4  10 -10  117.97    7.26
   4 -10 -10  123.99    5.40
  10  -4 -10  115.05    3.18
 -10  -4  10  129.51    5.45
  -4  10 -12   48.44    4.94
  -4  10 -14   67.91    5.96
  -4  10 -16   16.27    3.38
  10   4  16   21.77    4.00
  -4  10 -18    3.92    2.35
  10   4  18    8.34    2.96
  -4  10 -20   24.87    4.25
  10   4  20   29.48    5.20
   4  10  20   37.58    5.23
  -4  10 -22    3.81    2.53
   4  10  22    5.16    2.93
  10   4  22    6.63    3.79
  -4  10 -24   -0.24    1.77
   4  10  24    1.17    2.78
   5  10 -25    1.95    2.81
   5  10 -23   15.73    4.31
  10   5 -23   16.78    4.17
   5 -10  21    5.22    2.65
  10  -5  21    8.18    3.19
   5  10 -21    2.78    2.97
  10   5 -21   -0.71    2.63
  10   5 -19   13.90    4.13
   5 -10  19   14.66    3.53
   5  10 -19   16.86    3.96
  10  -5  19   10.50    3.03
   5  10 -19   15.02    3.27
   5 -10  17   64.37    6.40
  10  -5  17   64.78    6.51
   5  10 -17   70.10    6.04
  10   5 -17   66.81    7.06
   5 -10  15    6.04    2.20
  10  -5  15    1.31    1.74
   5  10 -15    0.94    1.62
  10   5 -15    1.55    2.40
  10   5 -15    3.25    1.18
  10   5 -13  131.25    5.96
   5 -10  13  127.91    7.82
   5  10 -13  122.79    7.15
  10  -5  13  132.91    8.22
  -5  10  13  127.52    5.08
  10   5 -13  126.88    8.80
   5  10 -13  129.03    6.35
  -5  10  11  174.92    5.80
   5 -10  11  170.17    8.35
   5  10 -11  165.06    7.87
  10  -5  11  177.21    9.02
  10   5 -11  178.22    6.88
  -5  10  11  153.08    4.85
  10   5 -11  154.40    9.21
   5  10 -11  164.32    6.99
   5  10  -9   58.38    4.65
  10  -5   9   56.10    5.01
  -5  10   9   57.22    3.44
  10   5  -9   54.89    4.87
  10   5  -9   63.30    5.75
   5  10  -9   66.62    4.69
 -10   5   7  182.72    4.78
   5  10  -7  179.21    7.78
  10  -5   7  188.58    8.35
  10   5  -7  181.30    8.94
  -5  10   7  186.51    6.37
  10   5  -7  178.89    8.11
   5  10  -5  263.35    9.17
  -5 -10  -5  260.77    8.91
  -5  10   5  280.82    8.15
  10  -5   5  274.69    9.25
   5 -10   5  261.85    7.75
  10   5  -5  273.84    9.73
  -5  10   3    3.83    0.88
  -5 -10  -3    5.89    1.66
   5  10  -3    7.35    1.89
  10  -5   3    6.69    1.70
  10  -5   3    4.75    2.14
   5 -10   3    5.48    1.59
  -5  10   3    3.57    1.39
  10   5  -3    2.52    1.19
  10   5  -3    6.07    2.21
  -5  10   1  320.81    7.09
 -10  -5  -1  321.92    9.83
  10   5  -1  324.46    8.16
   5  10  -1  335.19   10.26
   5 -10   1  326.42    8.67
  10  -5   1  303.81    7.80
  10  -5   1  311.01    9.81
  -5 -10  -1  322.04    9.59
  -5  10   1  320.89    9.37
  10   5  -1  310.39    9.88
  10  -5  -1  308.18    9.89
  10  -5  -1  328.93    5.78
  10  -5  -1  309.50    6.56
 -10   5  -1  332.57    9.63
  -5  10  -1  322.65    9.73
  -5  10  -1  318.79    7.93
 -10  -5   1  321.07    9.40
   5  10   1  310.14    9.83
 -10  -5   3    4.73    1.53
 -10   5  -3    7.54    1.82
  10  -5  -3    5.83    1.93
  -5  10  -3    6.50    1.36
  -5  10  -3    3.64    1.69
  10  -5  -3    5.70    0.72
   5  10   3    6.13    1.83
 -10   5  -3    4.92    1.60
  -5  10  -5  252.39    9.45
 -10   5  -5  260.18    7.42
   5  10   5  262.96    9.31
 -10   5  -5  271.73    7.26
 -10   5  -7  182.12    5.62
  -5  10  -7  181.72    8.47
   5 -10  -9   53.89    3.60
  -5  10  -9   51.89    4.89
 -10   5  -9   53.44    2.68
  -5 -10   9   44.83    2.09
   5 -10 -11  172.40    6.23
  -5  10 -11  144.46    8.44
  -5  10 -13  108.72    7.55
  -5  10 -15    3.63    2.17
  10   5  17   78.04    7.33
  -5  10 -17   60.53    6.07
  -5  10 -19   11.56    3.06
  10   5  19   21.40    4.52
   5  10  19   16.98    3.83
  -5  10 -21   -0.64    1.95
  10   5  21    2.70    2.71
   5  10  21   -0.42    1.88
  -5  10 -23   11.22    3.12
   5  10  23   13.15    3.95
   6  10 -24   -0.91    3.15
   6  10 -22   -1.34    2.55
  10   6 -22    5.51    3.66
  10   6 -20   22.23    4.63
   6 -10  20   14.39    3.71
  10  -6  20   16.92    3.68
   6  10 -20   20.00    3.90
   6  10 -20   20.69    4.51
   6 -10  18    8.04    2.86
  10  -6  18    8.56    2.77
   6  10 -18    5.70    2.87
   6  10 -18    9.77    2.84
  10   6 -18   13.31    3.86
  10   6 -16   11.11    3.79
   6 -10  16   12.88    3.02
  10  -6  16   12.30    2.98
   6  10 -16   11.02    2.68
  10   6 -14   34.42    3.49
   6 -10  14   30.54    4.14
  10   6 -14   30.94    4.84
  10  -6  14   35.14    4.58
   6  10 -14   29.47    3.78
   6  10 -14   23.06    3.21
   6 -10  12   58.65    5.31
   6  10 -12   67.41    5.30
  10  -6  12   65.27    5.78
  10   6 -12   68.11    4.66
   6  10 -12   69.99    5.03
  10   6 -12   65.87    6.38
  10   6 -10   65.68    4.48
  10   6 -10   65.67    6.17
   6 -10  10   60.96    4.91
  10  -6  10   66.19    5.50
  -6  10  10   59.35    2.48
  -6  10  10   60.63    3.42
  10   6 -10   59.59    5.15
   6  10 -10   64.18    4.75
   6  10 -10   58.43    4.78
  -6  10   8   62.65    3.64
   6  10  -8   64.38    4.81
  10   6  -8   65.32    4.44
  10  -6   8   63.30    5.04
  -6  10   8   52.84    1.92
 -10   6   8   61.87    2.62
  10   6  -8   63.11    5.18
  -6  10   6    8.66    0.87
 -10   6   6   12.80    1.65
   6  10  -6   14.06    2.50
  10  -6   6   11.86    2.34
  -6  10   6   11.43    1.82
  10   6  -6   12.63    2.70
  -6  10   4  129.99    3.63
  10  -6   4  127.05    5.93
  -6  10   4  142.59    5.96
   6 -10   4  137.81    6.02
  -6 -10  -4  137.84    6.67
  10   6  -4  142.37    7.21
   6  10  -4  140.32    6.85
 -10  -6  -2   99.78    5.69
  -6 -10  -2   95.74    5.52
  -6  10   2  100.00    3.76
  10  -6   2   89.43    4.39
  10   6  -2   94.43    4.33
  -6  10   2   96.04    5.12
   6  10  -2  100.86    5.76
  10  -6   2   91.94    5.57
  10   6  -2   98.81    5.92
   6 -10   2   89.04    4.89
  10   6   0   58.75    3.72
   6  10   0   62.12    4.65
  -6 -10   0   55.04    4.26
 -10  -6   0   49.29    3.96
  10  -6   0   57.71    2.93
  10  -6   0   54.36    4.43
  -6  10   0   56.99    4.25
   6 -10   0   63.90    4.30
  -6  10   0   57.98    3.36
 -10  -6   2   88.53    5.24
  -6  10  -2   98.15    4.88
   6  10   2  100.28    5.85
  10  -6  -2   88.55    2.54
  -6  10  -2   94.18    5.53
  10  -6  -2   92.72    2.51
  10  -6  -2   96.62    5.80
   6 -10  -4  136.94    3.36
  -6  10  -4  139.04    7.07
   6  10   4  133.12    6.81
 -10   6  -4  139.07    5.98
 -10  -6   4  133.07    6.35
 -10   6  -4  145.71    5.59
 -10   6  -6   11.50    1.95
  -6  10  -6   10.85    2.55
 -10   6  -6   17.14    2.37
 -10   6  -8   61.09    3.47
  -6  10  -8   56.78    5.19
  -6  10 -10   58.02    5.44
 -10   6 -10   58.10    3.04
  -6  10 -12   67.63    6.08
  -6  10 -14   25.52    4.05
  -6  10 -16   15.65    3.47
  -6  10 -18   11.44    3.19
  10   6  18   12.26    3.92
  -6  10 -20   13.01    3.43
  10   6  20   17.31    4.35
   6  10  20   22.93    4.38
  -6  10 -22    3.12    1.76
  10   6  22    2.80    2.53
   6  10  22    0.58    2.59
   7  10 -23   -3.79    2.97
  10   7 -21    0.85    2.63
   7 -10  21   -3.25    2.40
   7  10 -21    2.08    3.03
  10  -7  21   -0.49    2.00
   7  10 -19    5.96    3.18
   7 -10  19    4.25    2.48
  10  -7  19    1.62    1.88
   7  10 -19    6.59    2.90
  10   7 -19    4.72    3.36
  10   7 -17   19.61    4.56
   7  10 -17   20.09    4.30
   7 -10  17   16.10    3.66
  10  -7  17   16.36    3.72
   7  10 -17   20.01    3.61
  10   7 -15    7.95    2.09
   7 -10  15    8.25    2.68
  10  -7  15    6.99    2.67
   7  10 -15    9.71    2.54
  10   7 -15   10.96    3.51
   7  10 -13   38.63    4.25
  10   7 -13   44.48    5.57
   7 -10  13   41.45    4.75
  10  -7  13   39.79    4.68
  10   7 -13   45.99    4.25
   7  10 -13   37.71    4.03
  10   7 -11   15.00    2.48
   7  10 -11   19.83    3.08
  -7  10  11   21.10    1.94
   7 -10  11   17.15    2.93
  10  -7  11   15.16    3.03
  10   7 -11   11.67    2.80
  10   7 -11   20.71    4.07
   7  10 -11   18.53    2.94
  10   7  -9   18.75    2.68
   7 -10   9   17.63    2.92
  -7  10   9   18.74    1.99
 -10   7   9   17.39    1.36
   7  10  -9   21.18    3.06
  10  -7   9   21.99    3.38
  10   7  -9   19.21    3.34
   7  10  -9   20.66    3.11
   7  10  -7   73.40    5.16
   7 -10   7   77.77    4.91
  10   7  -7   72.39    5.51
  10  -7   7   64.39    4.85
  -7  10   7   77.14    4.15
  10   7  -7   77.34    5.01
 -10   7   7   79.50    3.55
  -7 -10  -5    5.98    1.95
 -10   7   5    7.33    1.41
  10  -7   5    7.11    1.74
   7  10  -5   10.73    2.29
  -7  10   5    8.02    1.62
  10   7  -5   14.59    3.01
   7 -10   5    7.82    2.12
  10   7  -5    7.89    1.95
  -7  10   3   11.74    2.02
  10  -7   3   11.75    2.51
 -10  -7  -3   12.02    2.29
  -7 -10  -3   13.14    2.53
  10   7  -3   13.36    1.80
   7  10  -3   11.44    2.31
  -7  10   3   12.44    1.26
  10  -7   3   13.83    1.92
  10   7  -3   14.47    3.01
   7 -10   3   11.10    2.25
 -10  -7  -1   15.66    2.58
  10   7  -1   16.01    1.99
  -7  10   1   14.85    2.34
  10  -7   1   16.44    1.71
   7  10  -1   13.57    0.99
  10  -7   1   17.64    2.93
  -7  10   1   14.41    1.72
   7  10  -1   16.56    2.62
   7 -10   1   17.06    2.67
  -7 -10  -1   17.32    2.65
   7  10   1   14.38    2.59
  10  -7  -1   16.24    2.84
  -7 -10   1   16.90    2.65
 -10  -7   1   13.61    2.36
  -7  10  -1   17.09    2.66
  10  -7  -1   16.94    1.34
  -7  10  -1   18.57    2.27
  10  -7  -3    8.83    2.32
 -10  -7   3   11.22    2.13
  -7  10  -3   12.79    2.42
  -7  10  -3   12.43    2.15
   7  10   3   13.50    2.36
   7 -10  -3   11.45    0.99
  -7  10  -5    4.34    1.53
 -10   7  -5    8.34    1.79
 -10   7  -5    4.69    1.40
 -10   7  -7   83.95    3.95
  -7  10  -7   82.08    6.07
  -7  10  -9   16.43    3.13
  -7  10 -11   16.58    3.28
  -7  10 -13   34.52    4.56
  -7  10 -15    6.44    2.39
  -7  10 -17   17.28    3.61
  -7  10 -19    5.00    2.63
  10   7  19   -1.70    2.20
  -7  10 -21    0.16    1.80
  10   7  21    0.42    2.50
   7  10  21   -1.95    2.65
   8  10 -22    5.73    3.69
   8 -10  20   15.64    3.65
  10  -8  20   18.83    4.14
   8  10 -20   19.62    4.68
  10   8 -20   15.02    4.35
  10   8 -18    4.16    2.88
   8 -10  18    7.88    3.08
   8  10 -18    6.09    2.79
   8  10 -18   15.16    4.00
  10  -8  18    3.83    2.38
  10  -8  16    8.19    2.87
   8 -10  16    3.84    2.19
   8  10 -16    9.03    3.47
   8  10 -16    4.89    2.16
  10   8 -16    5.38    2.16
  10   8 -16    9.89    3.52
  10   8 -14   31.55    3.81
   8 -10  14   26.83    4.09
   8  10 -14   29.35    3.87
  10  -8  14   36.02    4.63
  10   8 -14   30.14    4.87
   8 -10  12    8.86    2.65
  10  -8  12   13.30    2.98
  10   8 -12    8.35    2.61
  10   8 -12   18.27    4.15
   8  10 -12   12.22    2.73
   8  10 -12    9.65    2.37
  10   8 -12   11.79    2.54
   8 -10  10   66.75    5.37
  10  -8  10   62.80    5.34
   8  10 -10   72.41    5.41
  -8  10  10   67.51    3.39
  10   8 -10   65.67    5.57
  10   8 -10   70.83    5.16
   8  10 -10   66.82    5.28
  10   8  -8   23.97    3.01
   8  10  -8   22.36    3.07
  -8  10   8   24.15    2.34
   8 -10   8   24.06    3.13
  10  -8   8   20.56    3.02
 -10   8   8   24.10    2.00
  10   8  -8   21.05    3.53
   8  10  -8   26.03    3.76
 -10   8   6    4.98    1.30
   8  10  -6    7.02    2.05
   8 -10   6    3.42    1.26
  10  -8   6    6.58    1.85
  10   8  -6    7.31    1.93
   8 -10   6    4.71    2.11
  -8  10   6    5.08    1.38
  10   8  -6    6.64    2.65
   8  10  -4   53.39    4.43
   8 -10   4   50.99    4.20
  -8 -10  -4   44.84    4.28
  10  -8   4   52.46    3.62
  -8  10   4   55.30    3.94
  10   8  -4   52.89    4.71
  10  -8   4   59.75    4.88
 -10   8   4   52.62    3.61
  10   8  -4   54.40    4.39
  10   8  -2    5.48    1.28
  -8  10   2    6.45    1.67
  -8 -10  -2    7.03    2.12
  10  -8   2    3.51    1.04
 -10   8   2    5.54    1.49
   8  10  -2    6.79    2.09
   8 -10   2    3.33    1.74
  10  -8   2    7.54    2.43
 -10  -8  -2    6.31    1.98
   8  10   0   80.95    5.44
 -10  -8   0   83.09    5.39
  -8 -10   0   85.22    5.52
  10  -8   0   85.20    3.14
  -8  10   0   87.13    4.03
   8  10   0   88.59    3.04
   8 -10   0   90.13    5.49
  10  -8   0   81.11    5.52
  -8  10   0   86.50    5.33
  10   8   0   83.64    3.99
  10  -8  -2    3.62    0.52
 -10  -8   2    5.05    1.82
  -8  10  -2    4.90    1.70
  -8  10  -2    4.87    1.45
  10  -8  -2    2.33    1.84
  -8 -10   2    5.75    2.01
  -8  10  -4   47.04    4.38
  -8  10  -6    3.80    2.02
 -10   8  -6    2.41    1.44
 -10   8  -8   31.60    2.51
  -8  10 -18   -0.02    2.04
  -8  10 -20    9.83    3.02
  10   8  20   13.37    4.07
   8  10  22    7.04    3.70
   9  10 -21   -3.88    3.69
  10   9 -21    3.22    3.14
  10   9 -19    1.77    2.65
   9 -10  19    1.35    2.03
  10  -9  19    5.78    2.65
   9  10 -19    2.95    3.04
   9  10 -17    4.48    2.09
  10  -9  17    4.56    2.59
   9 -10  17    7.17    3.10
   9  10 -17    5.89    3.09
  10   9 -17   14.35    4.35
  10   9 -15   23.66    3.62
   9  10 -15   22.66    3.73
   9 -10  15   26.27    4.18
  10  -9  15   21.70    3.72
  10   9 -15   20.34    4.27
   9  10 -15   24.70    4.76
  10   9 -13    0.89    1.47
   9 -10  13    2.23    1.81
   9  10 -13   -0.39    1.61
  10  -9  13    1.07    1.54
   9  10 -13   -1.37    2.23
  10   9 -13    3.21    2.77
  10   9 -11   39.70    4.12
   9  10 -11   29.57    3.67
  10  -9  11   35.84    4.29
   9 -10  11   41.50    4.52
  10   9 -11   35.26    4.37
   9  10 -11   35.04    4.22
  10   9  -9    1.96    1.49
   9  10  -9    0.49    1.30
  10  -9   9    2.46    1.63
  -9  10   9    3.04    0.99
 -10   9   9    2.50    0.90
  10   9  -9    4.53    2.47
   9  10  -9    3.99    2.29
   9 -10   9    0.16    1.23
   9  10  -7   36.10    3.85
  10   9  -7   35.58    3.76
   9 -10   7   35.40    3.51
  10  -9   7   35.15    3.60
  -9  10   7   38.63    3.00
 -10   9   7   37.37    2.81
   9  10  -7   46.44    4.73
  10   9  -7   36.74    4.26
  10  -9   5   60.96    4.92
   9 -10   5   75.23    5.37
   9  10  -5   77.01    5.41
   9 -10   5   67.44    4.23
  10  -9   5   69.85    4.41
  -9  10   5   78.69    4.58
 -10   9   5   66.13    4.10
  10   9  -5   70.62    5.46
  10   9  -5   70.18    5.14
  -9 -10  -3   49.94    4.50
 -10  -9  -3   48.67    4.43
   9 -10   3   48.72    4.29
   9  10  -3   49.21    4.36
 -10   9   3   53.94    3.95
  -9  10   3   52.53    4.03
  10  -9   3   48.58    3.20
  10  -9   3   52.87    4.58
  10   9  -3   45.77    4.24
  -9 -10  -1   75.40    5.42
   9  10  -1   77.33    5.49
 -10  -9  -1   88.42    5.75
 -10   9   1   72.97    4.89
  -9  10   1   82.39    5.17
   9 -10   1   76.82    5.39
   9  10  -1   78.11    3.01
  10  -9   1   81.42    5.60
  10   9  -1   80.36    3.61
  -9  10  -1   79.66    5.41
 -10  -9   1   77.50    5.41
  -9 -10   1   74.55    5.29
  10  -9  -1   80.00    5.61
   9 -10  -1   73.91    5.28
  -9  10  -3   49.38    4.54
 -10  -9   3   49.72    4.31
  -9 -10   3   47.64    4.32
 -10   9  -7   29.59    2.60
  -9  10 -21    3.77    2.55
   9  10  21    0.28    2.56
  10  10 -20   21.87    5.40
  10 -10  20   16.91    4.02
  10 -10  18    3.10    2.53
  10  10 -18    7.75    3.47
  10 -10  16   42.55    5.41
  10  10 -16   47.04    6.26
  10  10 -16   43.69    4.94
  10 -10  14   59.75    6.13
  10  10 -14   62.68    5.67
  10  10 -14   63.63    6.69
  10  10 -12    0.87    1.57
  10 -10  12    4.99    2.28
  10  10 -12    2.16    2.29
  10 -10  10  139.74    7.87
  10  10 -10  155.85    8.45
  10  10 -10  151.09    8.02
  10  10  -8   87.02    6.00
  10 -10   8   96.50    6.03
  10  10  -8  100.65    6.69
 -10  10   8  100.66    4.58
  10  10  -6   55.20    4.82
  10 -10   6   48.03    3.91
 -10  10   6   55.70    3.81
  10  10  -6   59.54    5.27
  10 -10   6   49.56    4.71
  10  10  -4  140.57    7.46
 -10 -10  -4  135.36    7.54
  10 -10   4  137.75    5.68
 -10  10   4  149.89    6.60
  10 -10   4  141.45    7.54
 -10 -10  -2  152.31    7.80
 -10  10   2  154.38    7.04
  10  10  -2  155.29    7.79
  10 -10   2  142.77    7.41
  10  10   0  582.13    9.35
 -10 -10   0  547.86   14.61
  10 -10   0  578.18   14.64
 -10  10   0  585.97   14.41
 -10 -10   2  153.81    7.78
 -10  10  -2  149.51    7.78
  11   0  -1   39.99    3.63
   0  11   1   36.14    2.26
  11   0   1   42.82    3.06
   0  11   1   36.49    3.44
   0  11  -1   41.92    3.86
  11   0   1   44.20    3.70
  11   0   1   43.31    3.81
  11   0  -1   36.02    3.70
  11   0   1   32.83    3.44
  11   0  -3    7.15    2.11
  11   0   3    7.16    1.66
   0 -11  -3    4.05    1.33
   0  11   3    4.78    1.68
  11   0  -3    5.58    2.35
   0  11  -3    2.89    1.49
  11   0   3    4.92    1.92
   0  11   3    5.58    1.32
   0  11   5   85.56    5.11
   0 -11  -5   79.97    4.31
 -11   0   5   83.16    3.98
  11   0   5   75.45    3.35
   0  11  -5   75.56    5.19
   0 -11   5   75.57    2.63
  11   0   5   84.38    5.00
  11   0  -5   77.26    5.88
 -11   0   5   80.50    3.96
 -11   0   7  110.75    4.62
 -11   0   7  115.27    4.46
   0  11  -7  107.88    6.33
  11   0  -7  110.20    7.30
  11   0   7  116.18    5.73
   0  11   7  113.97    5.79
  11   0  -9   85.32    4.21
   0  11   9   80.59    5.00
 -11   0   9   85.37    3.41
   0  11  -9   81.72    5.80
  11   0  -9   88.15    6.85
  11   0   9   87.25    4.97
  11   0 -11   17.32    2.15
  11   0 -11   19.10    3.56
  11   0  11   21.60    3.36
   0  11 -11   22.59    3.47
  11   0  11   21.74    2.78
   0  11 -13   17.14    3.19
  11   0 -13   28.63    4.50
  11   0  13   23.84    3.88
   0  11 -13   24.39    2.23
  11   0  13   20.92    2.64
  11   0  15   99.60    7.70
  11   0 -15   96.19    7.66
   0  11 -15   84.65    6.67
  11   0 -17    5.51    2.78
  11   0  17    5.82    2.82
   0  11  17    2.87    1.76
   0  11 -17    4.63    2.33
   0  11 -19    6.58    2.47
  11   0  19    2.85    2.85
   0  11  19    4.29    2.00
  11   0 -19    6.30    2.89
   0  11 -21   -1.02    2.04
   0  11 -21    8.27    3.08
  11   0 -21    1.73    2.44
  11   0  21    2.26    2.72
   0  11 -23   -1.58    2.13
  11   0 -23    1.66    2.40
   1  11 -22   19.82    4.09
   1  11 -22    7.60    2.91
  11  -1  22   14.79    4.04
  11   1 -22   15.33    3.88
  11   1 -20   25.97    4.61
  11  -1  20   30.98    5.31
   1  11 -20   27.20    4.30
   1  11 -20   27.32    4.42
  11   1 -18    6.15    2.94
  11  -1  18    4.48    2.57
  -1  11  18    5.69    1.95
   1  11 -18    3.76    2.30
   1  11 -16   11.54    2.79
  11   1 -16    7.27    2.99
  11  -1  16    8.30    3.11
  -1  11  16    9.72    2.21
  11  -1  14   63.95    6.03
   1  11 -14   57.67    5.47
   1  11 -14   54.31    3.44
  11   1 -14   64.62    6.40
  11  -1  14   53.54    3.63
   1  11 -12   17.31    3.15
  11  -1  12   23.77    3.66
  11   1 -12   16.93    3.70
  11  -1  12   21.52    2.63
   1  11 -12   24.37    2.49
 -11   1  10   92.10    2.78
  11  -1  10  106.01    6.53
   1  11 -10  105.68    6.64
  -1  11  10  115.45    5.79
  11  -1  10  106.65    5.33
  11   1 -10  115.96    7.83
 -11   1   8   22.58    2.05
 -11   1   8   26.60    1.98
  -1  11   8   25.33    2.78
  11   1  -8   22.15    3.94
  11  -1   8   23.49    2.77
   1  11  -8   21.27    2.94
 -11   1   6    4.82    1.09
  11   1  -6    3.63    2.25
  -1  11   6    6.45    1.60
  -1 -11  -6    5.80    1.50
   1  11  -6    5.39    1.85
  11  -1   6    4.86    1.68
   1 -11   6    6.19    1.20
 -11   1   6    5.25    1.13
  11   1  -4  115.36    7.04
  -1 -11  -4  109.11    5.21
  -1  11   4  106.70    5.58
   1 -11   4  108.06    3.60
   1  11  -4  104.66    6.00
  11  -1   4  103.87    5.57
  11   1  -4   96.86    5.35
  -1  11   4  112.82    4.93
  11   1  -2   89.91    5.93
  -1 -11  -2   92.53    4.80
  -1  11   2   88.86    5.23
   1  11  -2   86.97    5.39
  11  -1   2   89.45    4.42
  -1  11   2   93.20    4.00
  11   1  -2   86.19    5.46
  11  -1   2   96.56    4.50
  11   1  -2   89.69    5.10
  11  -1   0  148.09    6.71
  11   1   0  156.00    6.68
   1  11   0  146.17    6.83
  -1  11   0  145.75    6.76
  11  -1   0  157.74    6.73
  11   1   0  151.16    6.95
  11  -1   0  149.78    5.24
  11   1   0  155.80    7.16
   1  11   2   94.22    3.54
   1  11   2   89.35    5.34
 -11  -1   2   86.76    4.41
  -1  11  -2   88.03    5.32
  11  -1  -2   94.34    5.68
  11   1   2   86.06    5.19
  11   1   2   87.10    4.94
  11  -1  -2   86.10    5.21
   1  11   4  110.27    5.87
 -11  -1   4  105.54    4.75
   1 -11  -4  107.46    4.74
  11  -1  -4  106.09    5.85
  -1  11  -4  107.70    6.02
  11  -1  -4  104.64    6.50
  11   1   4  112.20    4.75
  11   1   4  108.99    5.73
 -11  -1   4  105.08    4.78
   1 -11  -6    2.94    1.19
 -11  -1   6    5.68    1.36
  11  -1  -6    4.22    2.32
  -1 -11   6    2.93    0.61
   1  11   6    3.15    1.29
  11   1   6    4.89    1.15
 -11  -1   6    3.43    1.20
  11   1   6    6.45    2.12
  -1  11  -6    2.81    1.49
  -1  11  -8   23.95    3.26
   1  11   8   27.74    3.05
  11   1   8   25.38    3.08
 -11  -1   8   24.24    2.15
  11  -1  -8   21.58    3.66
  11  -1 -10  108.68    4.48
 -11  -1  10  111.81    4.02
  11  -1 -10  113.66    7.71
  -1  11 -10  104.69    6.77
  11   1  10  118.84    5.86
  -1  11 -12   21.93    3.50
  11  -1 -12   28.26    4.38
  -1  11 -12   29.76    2.27
  11   1  12   27.03    3.26
  11   1  14   53.33    5.55
  11  -1 -14   54.82    5.92
  -1  11 -14   55.61    5.44
  -1  11 -16    9.19    2.77
  11   1  16    8.46    2.86
  11  -1 -16    8.73    3.01
  -1  11 -18    9.21    2.77
  11   1  18    4.30    2.25
   1  11  18    7.13    2.38
  11  -1 -18    8.27    3.40
  -1  11 -20   22.50    4.05
  11   1  20   32.77    5.51
   1  11  20   29.07    4.27
  11  -1 -20   25.38    4.55
  -1  11 -22   12.36    3.46
  11   1  22   23.06    5.22
  11  -1 -22   13.50    3.71
  -1  11 -24    7.55    2.98
  11   2 -23    4.72    3.03
   2  11 -23    1.77    2.38
   2  11 -23   -1.74    2.44
  11   2 -21    7.35    2.85
  11  -2  21    0.74    2.04
   2  11 -21    1.17    2.16
   2  11 -21    2.42    2.13
  11   2 -19   21.61    4.35
  11  -2  19   19.84    4.25
   2  11 -19   20.13    3.91
  11   2 -17    0.03    2.65
  11  -2  17   -1.30    1.87
  -2  11  17    2.28    1.53
   2  11 -17    3.56    1.96
  -2  11  15   28.12    3.20
  11  -2  15   27.83    4.38
  11   2 -15   23.16    4.31
   2  11 -15   24.77    3.90
  11  -2  13   19.98    3.53
  11   2 -13   13.62    3.45
   2  11 -13   18.89    3.25
   2  11 -13   14.83    2.19
  11  -2  11  121.79    7.46
   2  11 -11  107.79    6.78
   2  11 -11  134.72    5.65
  11   2 -11  103.91    7.67
  -2  11   9    7.54    1.72
 -11   2   9    6.18    0.85
 -11   2   9    9.09    1.32
  11   2  -9   13.46    3.49
  11  -2   9    7.40    2.14
   2  11  -9    6.25    2.01
  -2  11   7    3.55    1.32
  11   2  -7    5.70    2.50
  11  -2   7    6.21    1.83
 -11   2   7    5.81    1.11
   2  11  -7    6.03    1.75
 -11   2   7    4.12    0.96
  -2 -11  -5  170.61    6.73
  -2  11   5  173.88    6.95
  11   2  -5  167.54    8.76
   2  11  -5  177.13    7.88
   2 -11   5  174.12    5.25
  11   2  -3   35.92    3.25
  -2  11   3   41.08    3.59
   2  11  -3   35.80    3.60
   2 -11   3   34.76    2.41
  11   2  -3   34.38    3.80
  -2 -11  -3   33.03    3.13
  11   2  -3   35.96    4.15
  -2  11   3   35.04    2.85
  11   2  -1   70.31    4.47
  -2  11   1   74.87    3.69
  11  -2   1   67.23    4.75
  11  -2   1   71.03    3.68
   2  11  -1   75.44    5.00
  11   2  -1   75.27    5.40
  -2  11   1   72.64    4.78
  11   2  -1   71.59    4.98
   2  11   1   72.70    2.57
 -11  -2   1   68.71    4.15
 -11   2  -1   75.44    4.67
  11   2   1   60.34    4.57
  11  -2  -1   69.69    4.53
  -2  11  -1   65.58    4.58
  11   2   1   69.39    4.87
   2  11   1   68.70    4.80
  11  -2  -1   67.75    4.84
   2  11   3   34.55    3.49
 -11  -2   3   36.77    3.06
  11  -2  -3   32.74    3.47
  11   2   3   34.91    3.29
   2 -11  -3   31.52    2.58
 -11   2  -3   40.62    3.18
  11  -2  -3   37.42    3.92
  -2  11  -3   37.33    3.65
  11   2   3   35.55    3.56
  11   2   5  191.86    6.29
 -11  -2   5  185.75    6.60
 -11  -2   5  180.39    6.39
  11  -2  -5  187.36    8.74
  -2  11  -5  173.18    7.79
  11   2   5  171.23    7.14
   2 -11  -5  171.82    5.65
   2  11   5  177.32    7.50
   2  11   7    6.84    1.89
  11   2   7    8.87    2.38
 -11  -2   7    4.61    1.23
  11  -2  -7    7.46    2.50
  11   2   7    7.10    1.19
  -2  11  -7    6.19    2.01
  -2 -11   7    4.57    0.58
  11  -2  -9    8.68    2.96
  11  -2  -9    6.78    1.16
 -11  -2   9    7.03    1.40
  -2  11  -9    7.96    2.06
  11  -2 -11  109.28    4.33
  11  -2 -11  116.23    7.97
  -2  11 -11  109.23    7.11
  -2  11 -13   15.17    3.04
  11  -2 -13   11.23    3.20
  11  -2 -15   26.30    4.34
  -2  11 -15   20.55    3.69
  11   2  15   27.91    4.33
  -2  11 -17   -0.18    1.81
  11   2  17    5.86    2.63
  11  -2 -17    4.60    2.80
  -2  11 -19   26.44    4.14
  11   2  19   27.25    5.05
   2  11  19   27.34    4.08
  11  -2 -19   26.06    4.62
  11   2  21    1.44    2.67
   2  11  21    3.01    2.54
  -2  11 -21    4.22    2.52
  -2  11 -23    3.89    2.50
   2  11  23    0.76    2.14
  -2  11 -25    9.27    3.17
  11   3 -22    6.42    3.41
  11  -3  22    3.34    2.57
   3  11 -22    5.96    2.63
   3  11 -22    6.23    3.07
  11   3 -20    3.15    2.87
  11  -3  20    1.82    1.86
   3  11 -20    5.82    2.87
   3  11 -20    5.52    2.67
  11  -3  18   12.75    3.41
  11   3 -18   16.08    3.96
   3  11 -18   10.02    2.96
  11  -3  16   14.39    3.54
  -3  11  16    7.55    1.88
   3  11 -16   11.01    2.87
  11   3 -16   11.16    3.45
  11   3 -14    3.35    2.46
  11  -3  14    5.69    2.43
  -3  11  14    4.91    1.56
   3  11 -14    4.56    2.15
   3  11 -14    5.00    1.73
  11   3 -12   44.62    5.41
  11  -3  12   32.88    4.39
   3  11 -12   27.75    3.59
   3  11 -12   32.83    3.14
 -11   3  10   58.88    2.70
  11   3 -10   59.74    6.08
   3  11 -10   54.51    4.76
  11  -3  10   60.76    5.32
  -3  11  10   59.13    3.99
 -11   3   8   27.64    1.82
 -11   3   8   25.83    1.72
  11   3  -8   31.15    4.41
  11  -3   8   30.24    3.58
   3  11  -8   27.51    3.41
  -3  11   8   26.65    2.74
   3 -11   6   90.68    4.24
  -3  11   6   94.35    5.05
   3  11  -6   91.57    5.77
  11   3  -6   94.69    6.98
  11  -3   6   96.18    5.59
  -3 -11  -6   93.35    5.23
  -3 -11  -4  104.82    5.51
   3 -11   4  112.35    4.59
   3  11  -4  114.07    6.35
  -3  11   4  105.95    5.51
  11   3  -4  110.60    7.04
  11  -3   4  105.06    5.32
  11   3  -4  114.63    6.50
  11   3  -4  112.02    5.49
  -3  11   2   64.57    3.84
  11  -3   2   59.96    3.47
  11  -3   2   58.08    4.55
  -3  11   2   61.62    4.37
  11   3  -2   62.61    5.23
  11   3  -2   60.61    4.73
  11   3  -2   58.04    4.08
   3 -11   2   64.61    3.54
   3  11  -2   58.19    4.47
  -3 -11  -2   60.28    4.20
  11   3   0  197.28    7.20
  11  -3   0  205.79    8.15
  11  -3   0  206.75    5.72
   3  11   0  206.27    8.24
  -3  11   0  203.05    7.83
  11   3   0  191.59    8.15
  11   3   0  197.22    8.06
   3  11   2   59.93    4.55
 -11  -3   2   65.19    4.22
 -11   3  -2   65.17    4.38
  11  -3  -2   67.02    4.88
  -3  11  -2   65.18    4.73
  11   3   2   65.18    4.67
  11   3   2   63.43    4.58
  11  -3  -4  115.08    6.34
   3 -11  -4  112.25    4.38
 -11  -3   4  107.37    5.27
  11  -3  -4  109.61    6.37
 -11   3  -4  116.68    5.12
  11   3   4  114.03    5.56
  -3  11  -4  106.15    6.10
  11   3   4  116.39    6.09
   3  11   4  111.01    6.09
   3  11   6   93.84    5.59
 -11  -3   6   91.37    4.88
 -11   3  -6   91.56    3.83
  11  -3  -6   91.42    6.22
  11   3   6   93.17    4.49
  -3  11  -6   91.16    5.90
  11   3   8   28.85    2.19
  -3  11  -8   23.39    3.36
  11  -3  -8   26.91    1.70
 -11  -3   8   27.85    2.62
  11  -3  -8   26.89    4.07
  11  -3 -10   58.44    2.72
  11  -3 -10   53.95    5.48
 -11  -3  10   60.14    3.62
  -3  11 -10   50.00    4.91
  -3  11 -12   28.08    3.98
  -3  11 -12   26.90    1.63
  11  -3 -12   32.71    4.72
  -3  11 -14    5.76    2.16
  11  -3 -14    2.38    2.26
  -3  11 -16    8.80    2.64
  11  -3 -16    1.70    2.24
  11   3  16    5.74    2.40
  -3  11 -18   10.26    2.93
  11   3  18   11.52    3.36
  -3  11 -20    2.97    1.97
  11   3  20    1.19    2.15
   3  11  20    3.72    2.60
  -3  11 -22    1.93    2.00
  11   3  22    3.85    2.82
   3  11  22    1.05    2.04
  -3  11 -24   11.31    3.41
   3  11  24   22.25    4.89
   4  11 -23    8.82    3.81
   4  11 -21    3.95    2.98
  11  -4  21    7.69    2.95
  11   4 -21    1.49    2.82
   4  11 -21   -0.32    2.17
  11  -4  19   30.20    4.76
   4  11 -19   28.52    4.52
  11   4 -19   27.70    4.90
  11  -4  17   22.30    4.08
  11   4 -17   21.33    4.41
   4  11 -17   19.91    3.60
  11   4 -15    3.06    2.86
  11  -4  15   -0.84    2.01
   4  11 -15   -1.82    1.89
  11   4 -13   91.84    7.65
   4  11 -13   85.68    6.22
  11  -4  13   82.59    6.71
  -4  11  13   81.70    4.27
   4  11 -13   88.44    5.12
 -11   4  11   60.49    2.38
  11   4 -11   72.79    6.76
   4  11 -11   68.17    5.38
  11  -4  11   68.37    5.90
   4  11 -11   75.47    4.74
  -4  11  11   68.99    4.14
 -11   4   9    0.92    0.42
  11   4  -9    2.34    2.41
 -11   4   9    1.14    0.42
  -4  11   9   -0.56    1.24
   4  11  -9    3.65    1.90
  11  -4   9    1.66    1.85
  -4  11   7  197.44    7.10
   4  11  -7  186.02    8.19
  11  -4   7  186.04    8.33
  11   4  -7  189.82    9.64
  11   4  -7  203.56    9.02
   4 -11   5  288.00    7.82
  -4 -11  -5  284.12    9.36
   4  11  -5  293.09   10.12
  -4  11   5  302.27    8.98
  11  -4   5  300.93    9.67
  11   4  -5  290.69   10.51
  11   4  -5  312.24   11.57
  -4 -11  -3   43.13    3.72
  11   4  -3   41.82    4.45
   4  11  -3   45.87    4.17
   4 -11   3   45.83    3.29
  -4  11   3   45.84    3.79
  11  -4   3   41.25    3.38
  11   4  -3   40.90    4.25
  11   4  -3   43.42    3.40
  11   4  -1  237.21    7.68
  11  -4   1  235.36    8.91
  11  -4   1  246.24    6.44
   4  11  -1  239.82    9.04
  -4 -11  -1  235.84    8.38
  -4  11   1  233.71    6.58
  11   4  -1  238.36    9.19
  -4  11   1  246.81    8.58
  11  -4   1  245.19    7.07
  11   4  -1  238.60    9.02
 -11  -4   1  228.06    8.05
  11  -4  -1  240.50    5.56
   4  11   1  221.94    8.63
  -4  11  -1  223.20    6.96
  11  -4  -1  234.24    8.87
  11   4   1  231.75    8.68
  -4  11  -1  238.24    8.68
  11   4   1  230.34    8.68
   4  11   3   43.97    4.03
 -11   4  -3   38.75    3.38
 -11  -4   3   43.63    3.63
   4 -11  -3   45.69    2.77
  11  -4  -3   44.16    4.25
  -4  11  -3   38.96    3.81
  11   4   3   49.63    4.35
   4  11   5  301.77   10.13
   4 -11  -5  299.55    6.54
 -11  -4   5  301.48    9.09
  -4  11  -5  287.19   10.27
 -11   4  -5  296.01    7.99
 -11   4  -7  198.20    5.65
  -4  11  -7  199.01    8.94
  -4  11  -9    1.83    1.55
  -4 -11   9    1.34    0.52
  11   4   9    5.47    1.40
  11  -4  -9    1.35    0.46
 -11   4  -9    3.69    0.86
  -4  11 -11   71.45    5.96
  -4  11 -13   78.39    6.51
  -4  11 -15    1.21    2.10
  -4  11 -17   19.70    3.87
  11   4  17   27.15    4.89
  11   4  19   37.60    5.75
   4  11  19   42.72    5.45
  -4  11 -21    2.64    2.10
  11   4  21   -1.80    2.72
   4  11  21    0.60    2.00
  -4  11 -23    4.13    2.53
   4  11  23    4.40    2.47
   5  11 -24    6.08    3.49
   5  11 -22   14.19    4.20
  11   5 -22   21.01    4.80
  11  -5  20   37.66    5.40
   5  11 -20   35.70    5.03
   5  11 -20   28.31    5.03
  11   5 -20   36.44    5.64
  11   5 -18   -0.84    2.66
  11  -5  18    1.94    2.31
   5  11 -18    2.21    2.07
   5  11 -16   48.49    5.25
  11  -5  16   45.69    5.47
  11   5 -16   39.60    5.79
  11   5 -14   68.54    7.03
   5  11 -14   64.69    5.56
  11  -5  14   68.11    6.20
   5  11 -14   60.99    4.63
  11   5 -12   13.05    3.53
  11  -5  12   15.09    3.17
   5  11 -12   10.27    2.50
  -5  11  12   10.75    1.50
   5  11 -12   13.73    2.59
  -5  11  10  160.03    6.10
   5  11 -10  140.39    7.46
  11  -5  10  154.36    8.46
  11   5 -10  146.09    9.13
   5  11 -10  160.65    7.15
 -11   5   8  146.47    4.12
  -5  11   8  152.89    6.11
   5  11  -8  140.76    7.32
  11  -5   8  138.48    7.65
  11   5  -8  141.92    7.75
  11   5  -8  140.36    8.51
   5  11  -6   23.38    3.11
  -5  11   6   19.69    2.51
   5 -11   6   22.98    2.71
  11  -5   6   17.85    2.86
  11   5  -6   25.95    3.96
  11   5  -6   15.08    3.04
  -5 -11  -6   24.69    3.14
  -5 -11  -4  327.67   10.24
   5  11  -4  330.52   10.74
  -5  11   4  339.03    9.66
  11  -5   4  308.73    9.73
  11   5  -4  344.77   11.80
  11   5  -4  337.37   11.15
  11   5  -4  308.74    8.38
   5 -11   4  333.81    8.93
  11  -5   2  297.21   10.14
  -5  11   2  295.24    6.91
   5 -11   2  302.67    8.53
  11  -5   2  281.28    8.40
  -5  11   2  308.93    9.51
  11   5  -2  289.01    8.12
  -5 -11  -2  289.89    9.54
   5  11  -2  305.26   10.32
  11   5  -2  291.55   10.16
  -5  11   0   15.39    2.43
  -5 -11   0   12.69    2.25
  11   5   0   15.68    2.40
  -5  11   0   11.39    1.72
   5  11   0   15.33    2.60
  11  -5   0   11.65    1.72
  11   5   0   19.69    3.30
 -11  -5   0    9.46    2.10
  11  -5   0   15.07    1.58
  11  -5   0   10.07    2.55
   5  11   2  298.05   10.15
 -11  -5   2  289.85    9.34
  11  -5  -2  288.02   10.03
  11  -5  -2  284.18    6.11
  -5  11  -2  284.59    9.74
 -11  -5   4  334.58    9.97
   5 -11  -4  344.54    6.61
   5  11   4  326.50   10.71
 -11   5  -4  313.43    8.95
  -5  11  -4  318.56   10.74
  11  -5  -4  342.30   11.10
  -5  11  -6   15.22    2.74
 -11   5  -6   19.69    2.21
 -11   5  -8  145.15    4.88
  -5  11  -8  141.12    7.94
   5 -11 -10  153.01    6.43
  -5  11 -10  145.82    8.44
  -5  11 -12   11.73    3.02
  -5  11 -14   61.82    6.03
  -5  11 -16   46.19    5.50
  -5  11 -18    5.14    2.81
  11   5  18    0.03    2.18
  -5  11 -20   29.94    4.68
  11   5  20   33.73    5.77
   5  11  20   47.22    5.98
  -5  11 -22   10.24    3.11
   5  11  22   17.13    4.38
   6  11 -23    2.14    3.03
  11  -6  21    1.66    2.29
   6  11 -21    5.73    3.25
  11   6 -19   18.79    4.36
   6  11 -19   24.67    4.72
  11  -6  19   16.87    3.85
   6  11 -19   22.64    4.21
   6 -11  17   15.70    3.48
  11  -6  17   16.19    3.50
   6  11 -17   18.30    3.55
  11   6 -17   20.89    4.55
   6 -11  15    4.96    2.30
  11  -6  15    7.39    2.68
   6  11 -15   11.18    2.81
  11   6 -15    9.38    3.58
  11   6 -15    3.81    1.42
  11   6 -13   59.75    4.48
   6  11 -13   54.99    5.11
  11  -6  13   61.04    5.93
  11   6 -13   56.18    6.28
   6  11 -13   62.09    4.87
   6  11 -11   85.48    6.05
  11  -6  11   84.77    6.47
  -6  11  11   92.14    4.43
   6  11 -11   86.00    5.56
  11   6 -11   85.47    7.35
  -6  11   9   26.14    2.52
   6  11  -9   25.99    3.39
  -6  11   9   25.28    1.55
  11  -6   9   27.31    3.58
 -11   6   9   22.33    1.46
   6  11  -9   37.15    3.98
  11   6  -9   33.11    4.74
  11   6  -9   27.58    3.83
 -11   6   7  100.29    4.00
   6  11  -7   91.98    5.94
  -6  11   7   98.62    4.96
  11  -6   7   89.31    5.95
  11   6  -7   97.49    7.00
  11   6  -7   89.70    6.32
   6 -11   5  124.92    5.89
   6  11  -5  122.98    6.75
  -6 -11  -5  128.68    6.83
  -6  11   5  118.03    3.59
  11  -6   5  107.87    6.01
  -6  11   5  128.05    5.90
  11   6  -5  127.90    7.21
   6 -11   3    2.47    1.61
   6  11  -3    1.53    1.53
  -6  11   3    2.89    0.87
  11  -6   3    3.91    1.33
  11  -6   3    4.31    2.15
  -6  11   3    1.77    1.32
  11   6  -3    3.88    1.41
  11   6  -3    3.55    2.19
  -6 -11  -3    2.00    1.55
  11   6  -1  110.00    5.07
  11  -6   1  100.66    6.20
 -11  -6  -1  107.08    6.06
  -6  11   1  106.51    4.42
  -6 -11  -1  103.83    5.97
  11  -6   1  107.28    4.66
  -6  11   1  117.86    6.10
  11   6  -1  105.72    6.26
   6  11  -1  107.43    6.26
   6 -11   1  108.61    5.53
 -11  -6   1  109.44    5.95
  11  -6  -1  110.94    3.49
  -6  11  -1  104.86    4.92
  11  -6  -1  110.97    3.74
   6  11   1  100.62    6.06
  11  -6  -1  102.22    6.19
  -6  11  -1  106.92    6.02
  11  -6  -3    4.89    2.13
   6  11   3    1.75    1.49
   6 -11  -3    2.55    0.81
  -6  11  -3    1.64    1.49
 -11  -6   3    3.29    1.54
  11  -6  -3    1.97    0.39
  -6  11  -5  121.23    6.95
 -11   6  -5  130.93    5.89
 -11   6  -5  124.44    5.38
 -11  -6   5  117.78    6.22
  -6  11  -7   87.10    6.33
 -11   6  -7   84.03    4.40
  -6  11  -9   22.46    3.51
  -6  11 -11   71.92    6.26
  -6  11 -13   48.42    5.47
  -6  11 -15   10.00    3.01
  -6  11 -17   12.50    3.12
  -6  11 -19   21.34    4.26
  11   6  19   32.48    5.53
  -6  11 -21    3.46    2.19
  11   6  21    5.45    3.25
   6  11  21    3.14    2.62
   6  11  23    7.51    3.48
   7  11 -22    3.95    3.20
   7  11 -20   10.66    3.60
   7 -11  20    9.66    3.35
  11   7 -20    5.70    3.25
  11  -7  20    7.88    3.18
   7 -11  18   11.93    3.35
  11  -7  18    4.42    2.29
   7  11 -18   10.28    2.98
   7  11 -18   12.32    3.94
  11   7 -18   11.11    3.74
  11   7 -16    4.71    3.01
   7 -11  16    1.76    1.93
   7  11 -16    3.12    1.96
  11  -7  16   -0.40    1.85
   7 -11  14    4.62    2.34
   7  11 -14    3.76    2.20
  11  -7  14    9.23    2.80
  11   7 -14    5.18    1.94
   7  11 -14    6.98    2.37
   7 -11  12   21.76    3.45
   7  11 -12   25.20    3.61
  11   7 -12   24.76    3.22
  11  -7  12   24.60    3.80
  11   7 -12   25.68    4.72
   7  11 -12   28.04    3.69
   7  11 -10   24.23    3.35
  11   7 -10   22.75    4.16
  11  -7  10   27.69    3.74
  -7  11  10   26.79    2.43
  11   7 -10   32.45    4.18
   7  11 -10   24.93    3.38
  11   7 -10   28.00    3.24
 -11   7   8   11.92    1.44
   7  11  -8    9.45    2.26
  -7  11   8   10.76    1.79
  11  -7   8   10.62    2.51
  11   7  -8    8.96    2.66
 -11   7   6    0.81    1.00
   7  11  -6    0.72    1.49
  11  -7   6    2.52    1.60
  -7  11   6    3.12    1.43
   7 -11   6    5.85    2.21
  11   7  -6    2.91    2.38
   7 -11   4    5.15    1.84
  11  -7   4    9.35    2.56
  -7 -11  -4    4.04    1.75
   7  11  -4    3.28    1.65
  11  -7   4    5.18    1.62
  -7  11   4    2.58    0.74
  -7  11   4    5.50    1.54
  11   7  -4    6.11    2.67
  -7  11   2   22.02    2.81
  11  -7   2   25.30    3.41
 -11  -7  -2   25.86    3.26
   7 -11   2   24.61    2.95
   7  11  -2   22.76    3.15
  11   7  -2   21.67    2.38
  11  -7   2   26.62    2.48
  -7  11   2   22.67    2.09
  11   7  -2   28.98    3.92
  -7 -11  -2   24.33    3.14
   7  11   0    8.36    0.86
  11  -7   0   10.76    2.75
  11   7   0   13.26    2.34
  -7 -11   0    9.02    2.22
  11  -7   0   10.61    1.33
   7  11   0    9.09    2.46
  -7  11   0    9.34    1.72
  -7  11   0    9.78    2.19
   7 -11   0   14.75    2.64
 -11  -7   0   11.40    2.38
   7  11   2   25.96    3.40
  11  -7  -2   22.91    3.46
 -11  -7   2   26.33    3.15
  11  -7  -2   19.75    1.19
  -7  11  -2   26.96    3.31
  -7  11  -2   24.90    2.87
  11  -7  -2   21.27    1.24
  -7  11  -4    5.58    2.12
 -11  -7   4    4.13    1.70
   7 -11  -4    3.19    0.66
  -7  11  -6    1.49    1.77
 -11   7  -6    2.03    1.66
 -11   7  -6    3.82    1.75
  -7  11  -8   14.81    3.03
 -11   7  -8    7.68    1.72
  -7  11 -10   25.44    3.85
  -7  11 -12   23.24    3.93
  -7  11 -14    7.92    2.70
  -7  11 -16    2.14    2.23
  -7  11 -18    4.53    2.64
  -7  11 -20    6.69    2.77
  11   7  20    5.43    3.10
   7  11  22    3.25    2.43
   8  11 -21   -2.86    3.18
   8 -11  19   13.02    3.72
   8  11 -19   14.66    4.26
  11  -8  19    7.57    3.06
  11   8 -19    1.56    2.68
   8  11 -17   14.52    3.93
   8 -11  17    7.33    2.60
   8  11 -17    9.40    2.89
  11  -8  17    4.18    2.33
  11   8 -17   10.93    3.67
  11   8 -15   13.65    2.68
   8 -11  15   18.59    3.81
   8  11 -15   17.79    3.42
  11  -8  15   16.42    3.49
  11   8 -15   21.08    4.74
  11   8 -13   -0.60    1.46
   8 -11  13    2.82    2.19
   8  11 -13    4.27    1.85
  11  -8  13   -2.08    1.87
  11   8 -13    2.90    2.57
   8  11 -13   -0.28    1.90
  11   8 -11    9.81    2.20
  11   8 -11   14.13    3.58
   8  11 -11   11.60    2.50
  11  -8  11   15.23    3.09
  11   8 -11   10.45    2.74
   8 -11  11   11.89    2.69
   8  11 -11   12.39    2.74
   8  11  -9    4.12    2.01
   8 -11   9    6.51    2.22
  -8  11   9    3.36    1.18
  11  -8   9    2.13    1.65
  11   8  -9    0.45    2.17
  11   8  -9    2.39    1.57
   8  11  -9    6.13    2.53
  11   8  -7   22.50    3.16
  -8  11   7   24.16    2.61
  11  -8   7   18.14    2.91
   8  11  -7   20.86    3.09
 -11   8   7   21.77    2.18
   8 -11   7   24.06    3.36
  11   8  -7   18.91    3.36
   8 -11   5   62.99    4.75
 -11   8   5   73.06    4.24
  -8 -11  -5   64.67    5.16
  11  -8   5   67.63    4.54
  -8  11   5   66.64    4.38
   8  11  -5   68.89    5.23
  11   8  -5   72.92    5.84
  11  -8   5   65.88    5.33
  11  -8   3   68.71    5.31
 -11  -8  -3   79.81    5.66
 -11   8   3   83.13    4.89
  11   8  -3   73.64    3.84
  11  -8   3   76.17    4.17
  -8  11   3   67.23    2.67
   8  11  -3   76.14    5.52
  -8  11   3   80.54    5.06
  -8 -11  -3   74.16    5.46
  11   8  -3   82.23    5.89
   8 -11   3   78.53    5.18
   8 -11   1   37.26    3.73
   8  11  -1   39.95    4.12
  -8 -11  -1   39.27    3.94
  11  -8   1   39.24    2.54
  11  -8   1   31.77    3.91
  -8  11   1   40.88    2.79
 -11  -8  -1   37.64    3.83
  -8  11   1   38.06    3.71
  11   8  -1   32.10    2.75
 -11  -8   1   42.93    4.14
  11  -8  -1   44.11    2.14
  -8 -11   1   42.34    4.16
   8  11   1   43.30    4.25
  -8  11  -1   40.37    3.25
  -8  11  -1   42.82    4.11
  11  -8  -1   40.28    4.23
  -8  11  -3   72.40    5.40
   8 -11  -3   70.99    2.36
  11  -8  -3   84.88    6.15
 -11  -8   3   77.46    5.44
 -11  -8   5   66.64    5.03
  -8  11  -5   64.80    5.55
  -8  11  -7   21.79    3.59
  -8  11  -9    2.82    1.96
  -8  11 -11   12.58    2.92
  -8  11 -13   -1.83    2.17
  -8  11 -15   15.97    3.78
  -8  11 -17    7.33    2.96
  -8  11 -19   14.48    3.52
   8  11  21    8.99    3.61
   9 -11  20    7.20    3.02
  11  -9  20    6.18    2.84
   9  11 -20    4.81    3.28
  11   9 -20    8.35    4.15
  11   9 -18    2.26    2.64
   9 -11  18   -0.03    1.87
  11  -9  18   -0.97    2.05
   9  11 -18   -0.86    2.44
   9  11 -16    6.26    2.61
   9 -11  16    0.87    2.23
  11  -9  16    6.28    2.40
   9  11 -16    7.98    3.08
  11   9 -16    8.05    3.38
  11   9 -14   17.59    3.14
   9  11 -14   19.84    3.55
   9 -11  14   14.70    3.42
  11  -9  14   14.07    3.17
  11   9 -14   15.77    3.75
   9  11 -14   14.74    2.96
  11   9 -12   10.22    2.58
   9  11 -12   12.30    2.77
  11   9 -12   11.22    3.56
   9 -11  12    9.18    2.55
  11  -9  12    9.17    2.65
  11   9 -12    3.20    2.33
   9  11 -12   12.08    2.81
  11   9 -10   40.86    4.21
   9 -11  10   40.54    4.31
  11  -9  10   42.88    4.62
   9  11 -10   45.81    4.59
  11   9 -10   45.10    4.91
   9  11 -10   37.40    4.38
  11   9  -8   94.82    6.24
   9 -11   8   97.33    5.94
  11  -9   8   84.04    5.76
  -9  11   8   91.51    4.66
   9  11  -8   93.88    6.27
 -11   9   8   87.36    4.03
  11   9  -8   98.21    6.78
   9  11  -8  103.43    6.64
   9 -11   6   41.59    4.13
  11  -9   6   42.65    3.82
  -9  11   6   44.73    3.55
  11  -9   6   37.45    4.31
  11   9  -6   41.72    4.22
 -11   9   6   44.64    3.36
  11   9  -6   43.25    4.67
   9  11  -6   40.51    4.13
  -9  11   4    1.23    1.42
  11  -9   4   -0.41    1.83
   9 -11   4    3.02    1.92
   9  11  -4    3.99    1.82
  -9 -11  -4    4.24    1.87
 -11   9   4    2.64    1.31
  11  -9   4    0.34    0.94
   9  11  -2   89.09    6.03
 -11   9   2   92.50    5.49
  11  -9   2   84.19    3.97
 -11  -9  -2   92.40    6.20
  11   9  -2   86.72    4.01
   9 -11   2   89.78    5.91
  -9  11   2   92.62    5.63
  -9 -11  -2   89.36    6.12
  11  -9   2   93.23    6.26
  -9 -11   0  250.39    9.94
   9 -11   0  255.87    9.73
   9  11   0  256.38   10.18
   9  11   0  246.16    5.20
  11   9   0  238.41    6.88
 -11  -9   0  254.83    9.95
  11  -9   0  246.09    9.90
  -9  11   0  239.81    9.30
  -9  11  -2   87.27    6.04
 -11  -9   2   90.98    6.08
  -9 -11   2   87.10    5.95
  -9  11  -2   80.36    4.63
  11  -9  -2   86.14    6.14
 -11  -9   4    3.31    1.71
  -9  11  -4    5.06    1.92
  -9  11  -6   39.30    4.58
  -9  11  -8   81.99    6.68
  -9  11 -10   37.93    4.91
  -9  11 -12    7.77    2.62
  -9  11 -14   13.07    3.49
  -9  11 -16    5.32    2.80
  -9  11 -18    4.13    2.39
  -9  11 -20    3.37    2.26
  10 -11  19   33.15    5.34
  11 -10  19   38.64    5.65
  11  10 -19   35.55    6.23
  10  11 -19   29.86    5.66
  10  11 -17   40.84    5.34
  10 -11  17   30.53    4.96
  11 -10  17   31.88    4.89
  10  11 -17   42.25    6.32
  11  10 -17   42.22    6.20
  11  10 -15   34.02    4.47
  10 -11  15   30.21    4.56
  11 -10  15   33.12    4.77
  10  11 -15   34.06    4.49
  11  10 -15   30.69    5.15
  11  10 -13   40.30    4.60
  10  11 -13   52.46    5.25
  10 -11  13   36.86    4.76
  11 -10  13   37.34    4.62
  11  10 -13   53.36    6.36
  11  10 -13   30.09    4.31
  10  11 -13   40.24    4.76
  11  10 -11  101.75    6.91
  10  11 -11  103.54    6.99
  10 -11  11   90.45    6.68
  11 -10  11  102.28    7.13
  11  10 -11   93.12    7.03
  10  11 -11  109.22    7.39
  11  10  -9    1.05    1.77
  10 -11   9   -0.72    1.34
  10  11  -9   -0.74    1.53
  11 -10   9   -0.62    1.44
  11  10  -9   -1.34    2.34
  10  11  -9    1.94    2.40
  10  11  -7  111.50    6.97
  11 -10   7  107.36    6.97
  10 -11   7   96.78    5.71
  11 -10   7   97.59    5.88
  10 -11   7  110.94    6.93
 -10  11   7  109.46    5.34
 -11  10   7  110.17    5.13
  11  10  -7  105.86    6.94
  10  11  -7  110.92    7.11
  11  10  -7  102.60    6.62
  10 -11   5  241.63    9.76
  11 -10   5  247.22   10.21
  11  10  -5  249.93   10.13
  11 -10   5  233.62    8.01
  10  11  -5  259.46   10.38
 -10  11   5  245.95    8.52
 -11  10   5  263.19    8.63
  11  10  -5  253.88   10.45
 -11 -10  -3   53.41    5.03
 -10 -11  -3   59.75    5.26
 -10  11   3   56.03    4.38
 -11  10   3   54.77    4.25
  10 -11   3   61.81    5.09
  11 -10   3   58.07    5.03
  10  11  -3   55.92    4.99
 -10  11   1  203.39    8.56
  10 -11   1  208.03    8.94
 -11 -10  -1  188.32    8.92
 -10 -11  -1  207.47    9.33
  11 -10   1  200.28    9.08
 -11  10   1  211.02    8.75
  10  11  -1  200.72    4.92
  11  10  -1  194.62    5.71
  10  11  -1  197.49    9.16
 -10  11  -1  200.40    8.94
  10 -11  -1  210.28    9.23
 -11 -10   1  208.35    9.27
  10  11   1  203.07    5.62
 -10 -11   1  217.01    9.50
  11 -10  -1  199.28    9.12
 -11  10  -1  213.37    9.25
  11  10   1  204.50    6.38
 -10  11  -3   61.87    5.34
 -10 -11   3   54.90    4.95
 -11 -10   3   55.48    5.01
 -10  11  -5  241.84   10.73
 -11 -10   5  245.51   10.19
 -10  11  -7  102.55    7.43
 -10  11 -17   38.92    5.44
 -10  11 -19   33.74    5.23
  11 -11  18    5.41    2.83
  11  11 -18   -1.73    2.99
  11  11 -16   39.28    5.02
  11 -11  16   36.23    5.04
  11  11 -16   35.83    5.66
  11  11 -14   82.63    6.79
  11 -11  14   72.22    6.68
  11  11 -14   80.23    7.66
  11  11 -12    4.69    2.03
  11 -11  12    5.01    2.14
  11  11 -12    9.27    3.00
  11 -11  10   95.31    6.60
  11  11 -10   95.82    6.84
  11  11 -10   96.40    7.16
  11  11  -8  122.83    7.60
  11 -11   8  117.75    7.50
  11 -11   8  106.05    6.41
  11  11  -8  118.36    7.68
  11 -11   6   34.40    4.23
  11 -11   6   29.98    3.19
  11  11  -6   29.28    3.85
  11  11  -6   38.60    4.63
 -11  11   6   27.32    2.99
 -11 -11  -4  170.34    8.92
 -11  11   4  185.59    7.82
  11  11  -4  175.87    8.82
  11 -11   4  168.36    8.50
 -11 -11  -2  145.77    8.14
  11 -11   2  146.70    7.89
 -11  11   2  151.53    7.44
 -11  11   0  222.81    9.46
 -11 -11   0  217.29    9.78
  11 -11   0  211.58    9.50
  11  11   0  222.71    5.96
 -11 -11   2  147.54    8.17
 -11  11  -2  155.33    8.29
 -11  11  -4  175.83    9.23
 -11 -11   4  177.31    8.94
  12   0   0  554.18   13.26
   0  12   0  548.96   13.65
  12   0   0  547.63   13.23
  12   0  -2    4.71    1.90
   0  12   2    4.75    1.22
  12   0   2    5.44    1.63
   0 -12  -2    3.15    1.20
   0  12   2    7.39    2.03
  12   0  -2    5.56    2.24
   0  12  -2    6.45    1.99
  12   0   2    6.45    2.22
 -12   0   4   30.61    2.71
   0 -12  -4   31.19    2.96
  12   0  -4   37.67    3.87
   0  12   4   33.77    2.79
   0  12   4   25.76    3.16
   0  12  -4   32.07    3.57
  12   0   4   36.80    2.77
  12   0  -4   36.61    4.30
  12   0   4   33.74    3.62
   0 -12  -6  213.02    7.33
 -12   0   6  220.24    6.74
 -12   0   6  218.40    6.73
   0  12  -6  202.44    8.83
  12   0  -6  215.46   10.10
  12   0   6  220.15    8.34
   0  12   6  227.44    8.55
   0 -12   6  204.94    4.44
 -12   0   8    2.06    0.85
 -12   0   8    4.41    1.25
  12   0  -8    6.11    2.95
  12   0   8    3.22    1.79
   0  12  -8    2.43    1.96
   0  12   8    5.46    1.75
  12   0 -10   87.57    4.48
   0  12 -10   79.10    6.06
  12   0 -10  101.73    7.58
  12   0  10   87.64    5.29
   0  12 -12    6.97    2.46
  12   0 -12   10.48    3.26
  12   0  12   13.76    3.10
   0  12 -12   13.21    2.01
  12   0  12    7.55    1.85
  12   0 -14   24.66    4.36
  12   0  14   25.45    4.17
   0  12 -14   26.97    4.10
  12   0  14   24.83    3.02
  12   0 -16   14.81    3.90
   0  12 -16   12.78    3.30
  12   0  16   20.43    4.04
   0  12 -18    4.20    2.26
  12   0  18    7.99    3.40
   0  12  18    9.92    2.62
  12   0 -18    9.20    3.48
  12   0  20   20.37    4.59
   0  12 -20   16.99    3.72
  12   0 -20   15.99    4.19
  12   0 -22    2.79    2.67
   0  12 -22    0.38    1.90
   0  12 -24   14.59    3.80
   1  12 -23    2.87    2.19
  12   1 -21    3.28    2.64
   1  12 -21   11.13    3.33
  12  -1  21    8.27    3.10
   1  12 -21    3.34    2.46
  12   1 -19   46.99    6.17
  12  -1  19   52.78    6.64
   1  12 -19   46.21    5.48
  12   1 -17    8.68    3.03
  12  -1  17    8.10    3.06
  -1  12  17   12.49    2.54
   1  12 -17   11.65    2.86
  12   1 -15   41.76    5.42
   1  12 -15   39.85    4.83
  12  -1  15   44.57    5.38
  12   1 -13   36.83    5.05
  12  -1  13   34.08    4.58
   1  12 -13   38.13    3.06
  12  -1  13   30.94    3.16
   1  12 -13   36.70    4.46
  12  -1  11  162.02    8.61
   1  12 -11  137.71    7.90
  12  -1  11  149.56    6.68
  12   1 -11  169.65    9.75
  -1  12   9   35.63    3.48
 -12   1   9   35.10    2.25
 -12   1   9   34.43    2.62
  12  -1   9   33.05    3.48
   1  12  -9   31.78    3.91
  12   1  -9   34.42    4.91
   1 -12   7   33.21    2.33
 -12   1   7   35.52    2.61
  -1  12   7   32.94    3.35
 -12   1   7   34.12    2.58
  12   1  -7   28.79    4.32
   1  12  -7   28.21    3.60
  12  -1   7   31.12    3.38
  -1 -12  -5  320.34    9.22
  -1  12   5  353.47   10.61
   1 -12   5  323.57    6.35
   1  12  -5  327.35   11.11
  12   1  -5  315.29   12.03
 -12   1   5  322.27    8.08
  -1  12   3   22.33    2.38
  12   1  -3   17.93    3.19
  12   1  -3   16.19    2.63
  -1  12   3   20.41    2.82
  -1 -12  -3   24.29    2.77
   1  12  -3   18.93    2.82
  12  -1   3   17.70    2.12
  -1  12   1  264.57    6.45
  12  -1   1  243.94    9.09
   1  12  -1  251.72    9.41
  -1  12   1  258.28    9.32
  12  -1   1  254.69    8.29
  12   1  -1  258.36    9.63
  12   1  -1  266.00    9.99
  12   1  -1  252.35    8.86
   1  12   1  256.56    5.32
  12   1   1  245.42    8.85
   1  12   1  241.33    9.10
  -1  12  -1  257.10    9.42
  12  -1  -1  246.56    9.07
  12   1   1  259.35    9.47
  12   1   1  255.53    8.97
  12  -1  -1  245.52    9.03
  12  -1  -3   19.99    2.98
 -12  -1   3   24.16    2.48
  12  -1  -3   18.89    3.15
   1  12   3   24.16    3.09
   1  12   3   21.12    2.04
   1 -12  -3   17.79    2.23
  12   1   3   17.87    2.38
  -1  12  -3   22.99    3.01
  12   1   3   19.15    2.93
   1  12   5  336.17   10.56
   1 -12  -5  330.40    8.61
 -12  -1   5  343.16    8.88
  -1  12  -5  314.13   10.83
  12  -1  -5  324.03   11.90
  12   1   5  327.01    7.72
  12   1   5  313.37   10.00
   1  12   7   35.65    3.61
 -12  -1   7   34.85    2.83
 -12  -1   7   30.88    2.81
  12  -1  -7   36.99    4.62
  12   1   7   34.21    2.09
  -1  12  -7   34.69    3.92
  -1 -12   7   29.18    1.52
  12   1   7   36.20    3.65
  12  -1  -9   34.27    2.59
 -12  -1   9   37.88    2.70
  12  -1  -9   30.69    4.29
  -1  12  -9   34.86    4.03
  12   1   9   32.93    3.45
   1  12   9   33.65    3.58
  12  -1 -11  147.56    9.14
  -1  12 -11  133.91    7.96
  12   1  11  137.38    6.56
  12  -1 -13   39.71    5.38
  -1  12 -13   33.52    4.41
  12   1  13   43.38    4.99
  12   1  13   37.38    3.65
  -1  12 -15   40.76    4.91
  12  -1 -15   49.90    5.94
  12   1  15   54.52    5.99
  -1  12 -17   12.07    3.19
  12  -1 -17   11.25    3.38
  12   1  17   12.80    3.63
  12  -1 -19   62.91    6.89
   1  12  19   52.31    5.51
  12   1  19   47.57    6.31
  -1  12 -19   51.21    5.78
  -1  12 -21    3.17    2.33
  12   1  21    5.58    2.95
  12  -1 -21    5.18    2.72
  -1  12 -23    1.58    2.21
  12   2 -22   17.68    4.55
   2  12 -22   17.24    4.11
   2  12 -22   18.98    4.24
  12   2 -20    8.33    3.38
  12  -2  20   17.94    4.03
   2  12 -20   17.21    3.73
  12   2 -18   13.53    3.79
  12  -2  18   19.12    4.09
  12   2 -16    7.93    3.16
  12  -2  16    7.30    2.64
  -2  12  16    3.29    1.35
   2  12 -16    4.96    1.96
  12  -2  14   14.24    3.16
  12   2 -14   15.51    3.83
   2  12 -14   14.33    3.05
   2  12 -14   13.14    2.18
  12  -2  12   60.34    5.61
   2  12 -12   49.57    4.99
   2  12 -12   69.21    4.30
  12   2 -12   54.06    5.89
  12   2 -10   44.01    5.47
 -12   2  10   49.87    2.92
   2  12 -10   37.55    4.22
  12  -2  10   42.26    4.44
  -2  12  10   48.42    3.90
 -12   2   8   41.58    2.55
 -12   2   8   41.38    2.57
  12   2  -8   41.05    5.03
   2  12  -8   41.53    4.22
  12  -2   8   43.80    4.18
  -2  12   8   44.10    3.76
  12   2  -6  292.73   12.03
   2  12  -6  284.41   10.47
  -2  12   6  291.06    9.49
  -2 -12  -6  284.83    9.12
   2 -12   6  285.28    6.86
   2 -12   4    3.86    1.23
  -2 -12  -4    1.15    1.11
  12   2  -4    1.93    1.66
  -2  12   4    2.64    1.45
  12   2  -4   -2.02    2.83
   2  12  -4    2.73    1.46
  -2  12   2   95.59    4.50
  12  -2   2   84.47    5.68
  -2 -12  -2   80.77    4.91
   2  12  -2   78.53    5.42
  -2  12   2   83.84    5.34
  12   2  -2   78.89    5.00
  12   2  -2   82.42    6.07
  12   2  -2   83.39    5.81
  12   2   0  655.91   13.95
  12  -2   0  640.87   14.73
  12   2   0  623.25   15.15
  12  -2   0  651.85   11.04
   2  12   0  668.12   15.26
  -2  12   0  642.24   14.67
  12  -2   0  642.88   13.35
  12   2   0  654.81   15.09
 -12  -2   2   84.97    4.83
   2  12   2   81.68    5.46
  12   2   2   87.29    5.41
  12  -2  -2   83.02    5.55
  -2  12  -2   78.03    5.27
  12  -2  -2   83.28    5.58
  12   2   2   81.65    5.44
   2  12   2   84.82    3.25
  12  -2  -4    3.71    2.32
 -12  -2   4    3.02    1.41
   2 -12  -4    3.40    1.32
  12   2   4    3.90    1.56
   2  12   4    3.86    1.72
  12   2   4    8.54    2.26
  -2  12  -4    3.31    1.61
  12  -2  -4    2.44    2.03
   2  12   6  297.83   10.14
  12  -2  -6  279.34   11.36
   2 -12  -6  300.83    7.86
  -2  12  -6  289.90   10.64
  12   2   6  296.20    7.27
  12   2   6  279.81    9.47
 -12  -2   6  294.57    8.65
  12  -2  -8   43.30    5.11
  12  -2  -8   40.47    2.49
 -12  -2   8   42.07    3.15
  12   2   8   39.17    2.10
  -2  12  -8   37.75    4.17
   2  12   8   40.37    3.94
  12   2   8   39.01    3.90
  -2  12 -10   43.76    4.68
  12  -2 -10   43.38    5.25
  12   2  10   54.47    4.55
  12  -2 -12   58.69    6.13
  -2  12 -12   55.79    5.49
  -2  12 -12   63.51    3.08
  12   2  12   65.76    4.87
  -2  12 -14   16.17    3.43
  12   2  14   19.30    3.69
  12  -2 -14   15.81    3.71
  -2  12 -16    5.51    2.30
  12   2  16   12.08    3.47
  12  -2 -16    8.13    3.17
  -2  12 -18   23.40    4.09
  12   2  18   23.85    4.83
  12  -2 -18   27.39    4.80
  -2  12 -20   14.51    3.42
  12  -2 -20   12.49    3.75
  12   2  20   20.96    4.80
   2  12  20   13.12    3.27
  -2  12 -22   14.62    3.69
  -2  12 -24   21.95    4.33
   3  12 -23    3.78    3.21
   3  12 -21    7.50    3.37
  12   3 -21   10.69    3.62
  12  -3  21   13.33    3.69
   3  12 -21    5.17    2.32
  12   3 -19   20.08    4.32
  12  -3  19   24.43    4.46
   3  12 -19   20.57    4.00
  12  -3  17   -1.72    1.99
  12   3 -17   -0.01    2.29
   3  12 -17   -0.78    2.12
  12  -3  15    5.75    2.39
   3  12 -15    0.67    1.42
  12   3 -15    2.69    2.47
  12   3 -13   15.21    3.65
  12  -3  13   23.69    3.93
   3  12 -13   21.69    3.52
   3  12 -13   19.70    2.62
 -12   3  11   62.49    2.96
  12   3 -11   57.00    6.00
   3  12 -11   59.62    5.27
  12  -3  11   58.98    5.59
   3  12 -11   64.02    4.44
  -3  12  11   64.55    4.42
  -3  12   9   34.84    3.29
 -12   3   9   32.66    2.01
  12  -3   9   37.31    4.22
  12   3  -9   35.98    5.07
   3  12  -9   27.26    3.64
   3 -12   7   45.64    3.17
  -3  12   7   44.33    3.77
   3  12  -7   49.13    4.57
  12  -3   7   52.57    4.54
  12   3  -7   46.98    5.38
  -3  12   5  226.58    8.28
  -3 -12  -5  219.42    8.26
   3 -12   5  220.70    6.51
   3  12  -5  214.65    9.02
  12   3  -5  214.19   10.30
  12  -3   5  222.76    8.23
  12   3  -5  217.94    9.49
  -3 -12  -3  302.99    9.61
   3  12  -3  293.63   10.42
   3 -12   3  299.68    7.54
  -3  12   3  314.55    9.99
  12   3  -3  295.53   11.44
  12   3  -3  304.91   10.83
  12   3  -3  291.50    9.06
  12   3  -1  161.83    6.93
  12  -3   1  149.01    7.38
  12  -3   1  158.37    5.55
  -3 -12  -1  159.13    7.05
   3  12  -1  148.70    7.38
  -3  12   1  153.46    7.11
  12   3  -1  151.34    7.92
  12   3  -1  161.84    7.79
  12   3   1  145.25    6.68
 -12  -3   1  154.18    6.72
  12   3   1  141.20    7.22
   3  12   1  153.42    7.53
  -3  12  -1  151.80    7.27
   3  12   1  143.80    3.30
  12   3   1  149.57    7.29
  12  -3  -1  136.06    7.01
 -12  -3   3  295.27    9.03
   3 -12  -3  292.93    7.60
  12   3   3  285.20    9.53
   3  12   3  283.98   10.09
  -3  12  -3  292.62   10.27
  12   3   3  283.45    9.80
 -12   3  -3  287.56    8.65
  12  -3  -3  292.61   10.27
   3 -12  -5  224.55    6.48
 -12  -3   5  229.51    7.97
   3  12   5  227.99    9.09
  12   3   5  222.99    7.71
  12  -3  -5  228.94    9.77
  -3  12  -5  221.51    9.24
  12   3   5  224.36    8.68
 -12   3  -5  216.97    6.58
  12   3   7   45.35    3.09
 -12  -3   7   42.82    3.63
  12  -3  -7   44.93    2.26
  -3  12  -7   41.82    4.31
  12  -3  -7   40.12    4.71
  12   3   7   51.24    4.48
   3  12   7   42.30    4.08
  12   3   9   28.24    1.83
  -3  12  -9   35.06    4.24
  12  -3  -9   31.94    4.57
  12  -3 -11   49.92    5.53
  -3  12 -11   52.27    5.18
  -3  12 -13   18.33    3.67
  12  -3 -13   17.02    3.73
  -3  12 -15    0.66    2.02
  12  -3 -15    2.93    2.76
  12   3  17   -1.13    1.97
  -3  12 -17   -2.23    1.92
  12   3  19   25.29    4.84
   3  12  19   28.81    4.48
  -3  12 -19   32.54    4.78
  -3  12 -21    7.15    3.06
  12   3  21   11.95    4.05
   3  12  21    9.89    3.18
  -3  12 -23   -2.43    1.97
   4  12 -24    2.47    2.93
   4  12 -22   11.34    3.91
  12  -4  20   16.43    3.88
  12   4 -20   11.31    3.75
   4  12 -20   15.43    3.62
   4  12 -20   24.57    4.70
  12  -4  18    8.91    3.09
   4  12 -18   14.76    3.43
  12   4 -18    9.87    3.61
  12   4 -16   32.02    5.21
  12  -4  16   24.83    4.38
   4  12 -16   29.32    4.20
  12   4 -14   11.03    3.52
  12  -4  14   10.25    2.85
   4  12 -14    5.28    2.30
   4  12 -14    6.34    2.10
  12  -4  12   10.50    2.81
   4  12 -12    7.05    2.52
  12   4 -12    6.71    2.88
   4  12 -12   11.46    2.38
  -4  12  10   12.06    2.10
   4  12 -10   14.81    2.90
  12  -4  10   18.14    3.37
  12   4 -10   11.33    3.31
  -4  12   8   74.85    4.71
   4  12  -8   74.86    5.63
  12   4  -8   70.12    6.55
  12  -4   8   69.65    5.56
   4 -12   6  115.12    5.18
  -4 -12  -6  111.98    6.20
  -4  12   6  119.43    5.96
   4  12  -6  105.10    6.49
  12  -4   6  114.55    6.52
  12   4  -6  121.49    8.04
  12   4  -6  114.07    7.09
  -4 -12  -4  147.94    6.99
   4  12  -4  134.79    7.20
  -4  12   4  141.17    6.64
   4 -12   4  142.27    5.67
  12  -4   4  147.17    6.73
  12   4  -4  139.27    8.17
  12   4  -4  138.17    7.57
  12   4  -4  143.25    6.29
  12  -4   2  202.50    6.51
  -4 -12  -2  204.98    8.16
   4  12  -2  189.58    8.43
  -4  12   2  204.65    8.16
  12  -4   2  207.00    7.20
  12  -4   2  192.92    8.52
  12   4  -2  187.53    8.53
  12   4  -2  191.46    9.08
   4 -12   2  203.39    6.75
  12   4  -2  196.39    7.34
 -12  -4   0  241.78    8.69
   4  12   0  257.31    9.76
  12  -4   0  253.78    6.49
  12   4   0  253.55    8.48
  -4  12   0  259.13    9.35
  12   4   0  243.30    9.45
  12  -4   0  223.89    9.11
  12   4   0  232.93    9.36
   4  12   2  194.25    8.49
  12  -4  -2  191.98    8.51
  -4  12  -2  195.42    8.39
  12   4   2  186.03    8.12
 -12  -4   2  197.48    7.71
  12   4   2  179.68    7.91
   4  12   4  141.81    7.27
   4 -12  -4  138.67    4.91
 -12  -4   4  140.43    6.53
 -12   4  -4  135.81    6.08
  12   4   4  139.71    6.56
  -4  12  -4  138.99    7.32
  12   4   4  128.94    6.89
  12  -4  -4  139.57    7.40
 -12  -4   6  106.76    5.75
 -12   4  -6  102.89    4.64
  -4  12  -6  105.98    6.64
  12   4   6  116.81    5.54
   4  12   6  109.38    6.48
 -12   4  -8   63.44    3.01
  12   4   8   72.13    3.93
  -4  12  -8   70.62    5.82
  -4  12 -10   15.85    3.25
  -4  12 -12    4.37    2.08
  -4  12 -14    9.29    2.90
  -4  12 -16   27.94    4.53
  -4  12 -18    6.35    2.73
  12   4  18   18.17    4.32
  -4  12 -20   13.11    3.37
  12   4  20   12.29    3.92
   4  12  20   12.84    3.31
  -4  12 -22   16.18    3.81
   4  12  22   14.02    4.01
   5  12 -23    2.17    3.19
  12  -5  21    0.47    2.24
   5  12 -21    3.42    2.78
   5  12 -21    1.91    2.49
  12   5 -21    0.22    2.51
  12  -5  19   23.15    4.46
   5  12 -19   17.24    3.66
  12   5 -19   17.25    4.53
  12   5 -17   16.36    4.21
  12  -5  17   19.59    4.09
   5  12 -17   15.34    3.65
  12  -5  15    2.08    2.11
  12   5 -15    1.00    2.68
   5  12 -15    3.59    2.27
   5  12 -15   -0.61    1.72
   5  12 -13   37.63    4.46
  12  -5  13   38.80    4.90
   5  12 -13   46.18    4.19
  12   5 -13   42.73    5.75
  12   5 -11   48.31    5.86
  -5  12  11   54.97    3.85
   5  12 -11   47.70    4.74
  12  -5  11   55.41    5.50
   5  12 -11   55.59    4.54
 -12   5   9    3.26    0.71
  -5  12   9    5.15    1.53
  12   5  -9    0.88    2.50
   5  12  -9    3.84    1.85
  12  -5   9    7.57    2.39
   5 -12   7   74.37    4.55
  12  -5   7   71.92    5.55
  12   5  -7   72.18    5.95
  12   5  -7   87.38    6.95
   5  12  -7   76.93    5.72
  -5  12   7   75.47    4.68
  12   5  -5  104.87    7.29
  -5 -12  -5  102.71    6.09
   5  12  -5  102.39    6.30
  -5  12   5  108.45    5.78
  12  -5   5  112.72    6.39
  12   5  -5  110.79    7.01
   5 -12   5  105.48    5.30
   5 -12   3   23.12    2.64
  12  -5   3   28.93    3.81
  -5 -12  -3   27.56    3.35
  -5  12   3   23.14    2.07
  12   5  -3   31.66    4.39
   5  12  -3   25.42    3.35
  12  -5   3   27.52    3.16
  -5  12   3   24.83    2.96
  12   5  -3   26.18    2.91
  12   5  -3   26.40    3.67
  12  -5   1  102.72    6.43
  12   5  -1  113.57    5.59
  12  -5   1  111.00    4.51
   5  12  -1  122.61    6.91
  -5 -12  -1  106.39    6.10
  -5  12   1  105.92    4.67
  12   5  -1  115.34    6.90
  12  -5   1  107.46    5.15
  -5  12   1  111.79    6.16
  12   5  -1  109.60    6.62
 -12  -5   1  107.68    6.03
  12  -5  -1  108.78    3.85
  12  -5  -1  108.69    6.54
  12  -5  -1  100.20    4.31
  -5  12  -1  109.83    6.28
  12   5   1  103.71    6.37
  12   5   1  102.33    5.49
   5  12   1  102.29    6.27
  12  -5  -3   30.97    3.95
   5 -12  -3   27.55    2.21
 -12  -5   3   27.38    3.18
  12  -5  -3   23.40    1.84
   5  12   3   24.02    3.29
  -5  12  -3   33.98    3.80
  12   5   3   30.24    3.83
 -12  -5   5  115.72    6.17
   5 -12  -5  119.38    4.17
  -5  12  -5  112.55    6.87
 -12   5  -5  111.07    5.47
   5  12   5  114.99    6.75
 -12   5  -7   69.81    3.91
  -5  12  -7   76.61    5.99
  -5  12  -9    1.99    1.61
  -5  12 -11   49.89    5.36
  -5  12 -13   31.51    4.49
  -5  12 -15    4.36    2.41
  -5  12 -17   17.45    3.50
  -5  12 -19   26.61    4.44
  12   5  19   17.33    4.28
  -5  12 -21    0.21    1.79
   5  12  21    1.99    2.66
   5  12  23    0.96    2.32
   6  12 -22    2.83    3.40
  12   6 -20   14.93    4.49
   6  12 -20   13.34    3.89
  12  -6  20   13.63    3.75
   6  12 -20    8.57    3.47
  12   6 -18    4.58    3.31
  12  -6  18    6.01    2.64
   6  12 -18   13.32    3.28
  12  -6  16   11.30    3.36
   6  12 -16    4.56    2.16
  12   6 -16   10.43    3.48
  12   6 -14   33.08    5.43
   6  12 -14   37.67    4.62
  12  -6  14   33.42    4.75
   6  12 -14   31.38    3.93
   6  12 -12   63.37    5.60
  12  -6  12   67.19    6.20
  12   6 -12   67.58    6.93
   6  12 -12   63.23    5.01
  -6  12  10   61.65    4.02
   6  12 -10   57.80    5.11
  12  -6  10   63.41    5.74
  12   6 -10   58.68    6.21
   6  12 -10   72.36    5.22
 -12   6   8   29.17    2.12
  -6  12   8   26.47    2.80
  12   6  -8   32.98    4.69
   6  12  -8   30.15    3.71
  12  -6   8   28.28    3.73
  12   6  -8   27.41    4.12
   6 -12   6   25.07    3.00
  -6  12   6   33.84    3.28
   6  12  -6   25.81    3.47
  12   6  -6   21.98    4.00
  12  -6   6   27.86    3.53
  12   6  -6   22.26    3.57
  -6 -12  -6   32.19    3.74
  12  -6   4   36.19    4.14
  -6 -12  -4   34.88    3.79
   6  12  -4   39.03    4.01
  -6  12   4   34.36    2.34
  12  -6   4   36.21    3.55
   6 -12   4   36.00    3.45
  -6  12   4   36.07    3.52
  12   6  -4   41.38    4.53
   6  12  -2   58.41    4.98
  12  -6   2   52.75    4.82
  -6  12   2   56.25    3.29
  12  -6   2   54.64    3.91
  -6  12   2   59.74    4.52
  12   6  -2   56.13    3.93
  12   6  -2   55.17    4.99
   6 -12   2   57.87    4.19
  -6 -12  -2   53.42    4.58
  -6  12   0   -0.25    1.18
  12   6   0    2.17    1.73
  -6 -12   0   -0.03    1.36
  12  -6   0   -0.06    0.75
   6  12   0    1.73    1.59
  -6  12   0    0.76    1.12
 -12  -6   0    2.40    1.64
  12  -6   0    0.29    0.93
  12   6   0   -0.27    2.10
  12  -6   0    0.33    1.84
 -12  -6   2   62.16    4.71
   6  12   2   58.03    4.90
  12  -6  -2   66.07    2.70
  12  -6  -2   58.58    5.07
  -6  12  -2   59.74    4.85
   6 -12  -4   34.23    2.16
 -12  -6   4   33.53    3.62
   6  12   4   27.94    3.56
  -6  12  -4   34.28    3.99
 -12  -6   6   27.63    3.30
  -6  12  -6   27.31    3.70
 -12   6  -6   21.92    2.67
  -6  12  -8   34.05    4.34
  -6  12 -10   64.37    5.93
  -6  12 -12   55.78    5.81
  -6  12 -14   31.76    4.80
  -6  12 -16    7.88    3.17
  -6  12 -18   13.91    3.47
  -6  12 -20    7.72    2.87
  12   6  20    9.78    3.69
   6  12  22    2.55    2.28
   7  12 -21    6.25    3.51
  12  -7  19    3.31    2.41
   7  12 -19    5.42    2.60
  12   7 -19    4.61    2.91
   7  12 -19    6.67    3.24
   7  12 -17    6.93    2.66
  12  -7  17    7.29    2.79
  12   7 -17    8.57    3.82
  12   7 -15   22.54    4.91
   7  12 -15   19.21    3.44
  12  -7  15   24.97    4.42
   7  12 -15   17.77    3.08
   7  12 -13    3.68    2.00
  12  -7  13    8.43    2.66
  12   7 -13    1.71    2.80
   7  12 -13    1.38    1.93
  12   7 -11   16.01    3.75
   7  12 -11   11.45    2.73
  12  -7  11   11.75    3.02
   7  12 -11   17.55    3.08
  12   7  -9   36.73    4.92
  -7  12   9   29.66    2.86
  12  -7   9   34.75    4.25
   7  12  -9   32.58    3.92
  12   7  -9   34.86    4.59
   7  12  -9   44.80    4.45
   7  12  -7   41.81    4.40
  -7  12   7   39.26    3.39
  12  -7   7   38.66    4.07
  12   7  -7   45.64    5.26
   7 -12   7   42.90    3.94
  12   7  -7   39.94    4.69
 -12   7   7   41.49    2.87
  -7 -12  -5   22.31    3.29
   7  12  -5   28.96    3.58
  12  -7   5   20.63    2.93
  -7  12   5   24.90    2.94
  12  -7   5   31.47    4.13
   7 -12   5   26.95    3.19
  12   7  -5   26.38    3.98
   7 -12   3   15.09    2.66
  12  -7   3    8.69    2.60
  12   7  -3   12.65    2.09
  -7 -12  -3   16.12    2.86
   7  12  -3   14.71    2.69
  12  -7   3   15.25    2.20
  -7  12   3   12.13    1.57
  -7  12   3   11.30    2.20
  12   7  -3   19.17    3.60
  12   7  -1    4.58    1.74
 -12  -7  -1    3.94    1.75
   7  12  -1    2.77    1.65
  -7 -12  -1    4.00    1.92
  12   7  -1   10.90    3.12
  12  -7   1    2.32    1.00
  -7  12   1    4.19    1.22
  -7  12   1    4.91    1.74
  12  -7   1    6.15    2.50
   7 -12   1    6.18    2.09
  -7  12  -1    6.78    2.07
  12   7   1    7.93    2.13
   7  12   1    4.12    1.91
 -12  -7   1    3.54    1.74
  12  -7  -1    4.68    0.88
  -7 -12   1    3.72    1.60
  12  -7  -1    3.62    0.87
  -7  12  -1    3.76    1.45
  12  -7  -1   -0.78    1.96
   7  12   3   12.91    2.57
  -7  12  -3    9.92    2.29
 -12  -7   3   15.71    2.75
   7 -12  -3   12.67    1.33
  12  -7  -3   12.97    2.88
  -7  12  -5   26.21    3.71
 -12  -7   5   22.49    3.08
  -7  12  -7   35.41    4.34
  -7  12  -9   28.44    4.14
  -7  12 -11    8.55    2.64
  -7  12 -13    4.57    2.28
  -7  12 -15   19.35    3.89
  -7  12 -17    6.36    2.66
  -7  12 -19    3.99    2.44
  12   7  19   11.14    3.91
   7  12  21    3.36    2.93
   8  12 -20   13.12    4.44
  12  -8  20    5.52    2.68
   8  12 -18   -0.42    2.07
  12  -8  18    3.02    2.43
   8  12 -18    7.71    3.33
  12   8 -18    4.54    3.21
  12   8 -16    4.04    3.37
   8  12 -16    1.35    2.26
  12  -8  16    5.43    2.33
   8  12 -14   16.69    3.27
  12  -8  14   17.37    3.54
  12   8 -14   14.29    2.76
  12   8 -14   17.40    4.41
   8  12 -14   14.97    2.99
  12   8 -12   10.01    3.37
   8  12 -12   11.28    2.69
  12  -8  12   10.29    2.79
   8  12 -12    8.66    2.47
  12   8 -12   10.10    2.44
   8  12 -10   29.68    3.86
  12  -8  10   29.34    3.95
  12   8 -10   30.59    4.73
  12   8 -10   25.07    4.02
   8  12 -10   26.01    3.64
   8  12  -8    5.61    2.16
   8  12  -8   10.61    2.87
  12  -8   8    5.16    1.98
   8 -12   8    7.98    2.37
  -8  12   8    6.01    1.60
  12   8  -8    6.79    2.55
 -12   8   8    6.45    1.27
   8 -12   6    3.31    1.77
  12  -8   6    5.50    2.17
 -12   8   6    6.45    1.57
  12  -8   6    3.32    1.49
  -8  12   6    4.75    1.60
   8  12  -6    2.08    1.44
  12   8  -6    2.55    2.29
  12  -8   4   64.93    5.51
  -8 -12  -4   66.20    5.38
 -12   8   4   65.35    4.37
  12  -8   4   70.92    4.49
  -8  12   4   67.89    4.80
   8  12  -4   68.46    5.47
  12   8  -4   70.71    5.79
   8 -12   4   70.29    5.03
   8 -12   2   12.23    2.58
  12   8  -2   12.17    2.07
 -12  -8  -2   12.17    2.73
   8  12  -2   12.73    2.66
  12  -8   2   10.88    2.91
  -8 -12  -2   15.78    2.96
  12  -8   2   13.80    1.82
  -8  12   2   11.47    2.39
  12   8  -2   19.20    3.59
  12  -8   0   22.20    3.52
  12   8   0   21.64    2.61
  -8  12   0   20.73    2.95
 -12  -8   0   21.51    3.22
  -8 -12   0   22.18    3.23
  12  -8   0   24.06    1.84
  -8  12   0   23.12    2.54
   8  12   0   24.31    3.41
   8  12   0   17.81    1.14
   8  12   2   10.83    2.59
  -8  12  -2    8.46    2.13
 -12  -8   2   12.85    2.67
  -8 -12   2   16.13    2.90
  12  -8  -2   10.89    2.84
   8 -12  -4   56.72    2.06
 -12  -8   4   66.60    5.32
  -8  12  -4   64.36    5.43
 -12  -8   6    3.83    1.74
  -8  12  -6    5.97    2.47
  -8  12  -8    5.79    2.55
  -8  12 -10   23.46    4.11
  -8  12 -12    8.35    2.67
  -8  12 -14   15.80    3.66
  -8  12 -16    5.75    2.71
  -8  12 -18    5.11    2.95
   9 -12  19   16.05    3.77
  12  -9  19   14.72    3.96
   9  12 -19   19.95    4.83
  12   9 -17    2.40    2.87
   9 -12  17    4.16    2.74
   9  12 -17    4.75    2.37
  12  -9  17    5.15    2.76
   9  12 -17   12.06    3.84
   9 -12  15   18.79    3.83
   9  12 -15   25.79    4.06
  12  -9  15   21.93    4.04
  12   9 -15   27.19    5.10
  12   9 -13    0.13    1.49
   9 -12  13    3.08    1.96
   9  12 -13    3.29    2.12
  12  -9  13    4.72    2.49
  12   9 -13    4.12    2.64
   9  12 -13   -1.51    2.11
   9  12 -11   43.19    4.65
  12  -9  11   41.11    4.71
  12   9 -11   48.37    5.87
   9  12 -11   48.93    4.97
  12   9 -11   41.26    4.93
  12   9 -11   45.61    4.70
   9  12  -9   17.82    3.18
  12  -9   9   16.47    3.00
  -9  12   9   19.82    2.34
   9  12  -9   18.99    3.47
  12   9  -9   26.20    4.19
  12   9  -9   24.61    3.56
 -12   9   7    6.22    1.44
   9 -12   7    1.99    1.74
  12  -9   7    3.91    2.14
  12  -9   7    4.73    1.81
  -9  12   7    6.50    1.63
  12   9  -7    7.96    2.68
   9  12  -7    6.49    2.07
  12  -9   5  124.40    7.55
   9  12  -5  141.13    7.85
  12  -9   5  127.93    6.15
  -9 -12  -5  136.75    7.79
  -9  12   5  131.31    6.43
  12   9  -5  122.41    7.54
 -12   9   5  127.13    5.92
   9 -12   5  131.66    7.10
  12  -9   3   24.64    3.66
   9  12  -3   24.09    3.55
  -9 -12  -3   26.88    3.74
  12  -9   3   22.31    2.42
 -12   9   3   23.98    3.02
   9 -12   3   14.45    2.81
  -9  12   3   25.28    3.26
  12   9  -3   27.13    4.08
   9  12  -1   50.21    4.76
  -9 -12  -1   60.50    5.23
  12  -9   1   47.72    4.74
  12  -9   1   47.65    2.78
 -12  -9  -1   50.84    4.82
  -9  12   1   50.07    4.49
  12   9  -1   51.21    3.49
   9 -12   1   52.04    4.62
   9  12   1   47.17    2.40
  -9 -12   1   53.76    4.89
 -12  -9   1   48.01    4.53
  12   9   1   53.47    3.70
  12  -9  -1   43.29    4.69
  -9  12  -1   52.60    4.71
   9  12   1   49.57    4.81
   9 -12  -3   17.47    1.18
 -12  -9   3   28.99    3.71
  -9 -12   3   25.28    3.48
  -9  12  -3   26.30    3.67
  -9  12  -5  127.60    7.89
 -12  -9   5  125.76    7.40
  -9  12  -7    6.38    2.30
  -9  12  -9   18.59    3.64
  -9  12 -11   40.71    5.17
  -9  12 -13   -1.47    2.25
  -9  12 -15   22.75    4.41
  -9  12 -17    4.12    2.47
  -9  12 -19   15.11    4.03
  12  10 -18    0.60    2.87
  10 -12  18    1.72    2.09
  12 -10  18   -2.69    2.66
  10  12 -18   -3.10    2.77
  10 -12  16   20.28    4.04
  12 -10  16   24.45    4.25
  10  12 -16   22.78    4.10
  10  12 -16   34.58    5.60
  12  10 -16   25.22    5.05
  10  12 -14   35.91    4.74
  12  10 -14   35.59    4.56
  10 -12  14   31.25    4.67
  12 -10  14   30.39    4.52
  12  10 -14   44.68    6.09
  10  12 -14   28.26    4.25
  12  10 -12   -0.53    1.56
  10  12 -12   -0.33    1.85
  10 -12  12    2.52    1.70
  12 -10  12    1.18    1.77
  12  10 -12    7.73    3.27
  12  10 -12    2.39    2.34
  10  12 -12    1.20    2.05
  12 -10  10   96.07    6.80
  12  10 -10   95.37    7.19
  10  12 -10  110.27    7.44
  12  10 -10  101.03    6.97
  10  12 -10  103.20    7.10
  10 -12   8   52.25    4.99
  10  12  -8   47.49    4.92
  12 -10   8   43.42    4.95
  12 -10   8   47.72    4.45
 -10  12   8   43.99    3.52
  12  10  -8   46.17    5.26
  10  12  -8   45.49    4.91
  12  10  -8   40.58    4.48
  10 -12   6   23.10    3.52
  12 -10   6   19.81    3.43
  10  12  -6   19.50    3.24
  12 -10   6   22.78    2.97
 -12  10   6   22.48    2.65
 -10  12   6   25.19    2.94
  12  10  -6   20.13    3.65
 -10 -12  -4  103.56    7.11
  12 -10   4   99.16    5.01
 -10  12   4  112.05    6.27
  12  10  -4  106.09    7.15
  12 -10   4  102.50    6.98
 -12  10   4  104.92    5.86
  10  12  -4  110.31    7.16
  10 -12   4   98.69    6.42
 -12 -10  -2   56.45    5.20
 -10 -12  -2   52.34    5.05
  12  10  -2   58.07    3.42
 -12  10   2   61.97    4.86
 -10  12   2   54.42    4.60
  10 -12   2   61.41    5.18
  12 -10   2   55.64    5.19
  10  12  -2   54.17    5.05
 -12 -10   0   76.74    5.93
 -10 -12   0   71.04    5.71
  10  12   0   68.17    2.83
 -12  10   0   71.76    5.48
 -10  12   0   70.37    5.44
  10 -12   0   78.03    5.83
  12 -10   0   71.87    5.87
  12  10   0   71.15    3.94
 -10  12  -2   57.57    5.19
 -12 -10   2   52.18    4.97
 -10 -12   2   58.00    5.18
  12 -10  -2   66.45    5.81
 -10  12  -4  108.89    7.36
 -12 -10   4   97.69    6.73
 -10 -12   4  107.34    7.06
 -12 -10   6   20.58    3.36
 -10  12  -6   18.58    3.44
 -10  12  -8   36.84    4.82
 -10  12 -10   93.92    7.76
 -10  12 -12   -2.77    1.97
 -10  12 -14   30.40    4.97
 -10  12 -16   30.38    4.98
 -10  12 -18    3.52    2.78
  11 -12  17   20.40    4.26
  12 -11  17   14.42    3.81
  11  12 -17   18.80    4.72
  12  11 -17   17.56    4.79
  12  11 -15   56.79    5.94
  11  12 -15   56.14    6.08
  11 -12  15   54.73    6.16
  11  12 -15   76.78    7.88
  12 -11  15   55.07    6.29
  12  11 -15   59.53    7.08
  12  11 -13   24.07    3.86
  11  12 -13   20.52    3.58
  12  11 -13   24.67    4.59
  11 -12  13   26.67    4.24
  12 -11  13   14.00    3.27
  12  11 -13   15.91    3.46
  11  12 -13   17.58    3.86
  12  11 -11   34.41    4.47
  11  12 -11   30.80    4.40
  11 -12  11   35.69    4.42
  12 -11  11   34.42    4.32
  12  11 -11   31.39    4.74
  11  12 -11   28.70    4.22
  11  12  -9   69.39    5.98
  11 -12   9   78.69    6.42
  11 -12   9   75.33    5.73
  12 -11   9   61.17    5.28
  12  11  -9   63.44    6.06
  11  12  -9   68.41    6.12
  12  11  -9   76.08    6.20
  12 -11   9   70.07    6.20
  11 -12   7   81.65    6.22
  11  12  -7   74.78    6.06
  12 -11   7   69.93    5.07
 -11  12   7   86.95    5.08
  12  11  -7   81.86    6.35
  12  11  -7   67.52    6.00
  11  12  -7   80.65    6.40
  12 -11   7   83.18    6.55
  12 -11   5  157.35    8.70
  11  12  -5  157.92    8.63
  12 -11   5  146.29    6.47
 -11  12   5  169.54    7.57
 -12  11   5  174.15    7.49
  12  11  -5  163.92    8.93
  11 -12   5  158.58    8.52
  11 -12   3   18.50    3.22
 -11  12   3   21.16    3.07
 -12 -11  -3   18.67    3.29
 -11 -12  -3   21.78    3.52
 -12  11   3   22.31    3.07
  11  12  -3   21.58    3.43
  12 -11   3   20.79    3.47
 -12  11   1  101.69    6.46
 -12 -11  -1   93.48    6.74
 -11 -12  -1   90.70    6.62
  12  11  -1  102.94    4.25
 -11  12   1   95.11    6.23
  11 -12   1  100.35    6.78
  12 -11   1  108.88    7.20
  11  12   1  104.40    4.09
  12  11   1  103.39    4.70
 -11  12  -1   93.33    6.41
 -12 -11   1  104.28    7.04
 -11 -12   1   89.99    6.72
 -12  11  -1   99.72    6.72
  12 -11  -1   93.60    6.78
 -12 -11   3   23.31    3.59
 -11 -12   3   23.71    3.61
 -11  12  -3   19.59    3.32
 -12  11  -3   21.52    3.53
 -11  12  -5  158.25    9.21
 -12 -11   5  163.11    8.97
 -11 -12   5  167.54    9.04
 -11  12  -7   80.81    6.90
 -11  12  -9   61.45    6.41
 -11  12 -11   21.20    4.03
 -11  12 -13   15.51    3.76
 -11  12 -15   42.77    5.85
 -11  12 -17   17.97    4.40
  12 -12  18   11.75    3.60
  12 -12  16   30.53    4.94
  12  12 -16   33.73    5.86
  12  12 -14   39.18    5.11
  12 -12  14   24.14    4.31
  12  12 -14   41.65    6.15
  12  12 -14   29.80    4.71
  12 -12  12   57.23    5.76
  12  12 -12   57.10    5.85
  12  12 -12   45.97    5.43
  12  12 -10  149.24    8.98
  12 -12  10  152.72    9.13
  12 -12  10  144.56    8.25
  12  12 -10  152.94    9.27
  12  12  -8   25.17    3.84
  12 -12   8   23.78    3.26
  12 -12   8   32.39    4.50
  12  12  -8   27.68    4.42
  12  12  -6   18.79    3.71
  12  12  -6   16.98    3.49
  12 -12   6   17.80    3.53
 -12  12   6   10.61    2.14
  12 -12   4  217.63   10.09
 -12  12   4  223.77    9.05
 -12 -12  -2   60.62    5.69
 -12  12   2   57.81    4.92
  12 -12   2   55.26    5.33
 -12 -12   0    1.54    1.76
 -12  12   0    2.72    1.83
  12 -12   0   -0.20    1.92
 -12  12  -2   55.94    5.36
 -12 -12   2   54.60    5.35
 -12  12  -4  215.69   10.64
 -12 -12   4  210.41   10.43
 -12 -12   6   17.71    3.38
 -12  12  -6   21.17    3.76
 -12  12  -8   29.18    4.61
 -12  12 -10  127.09    9.30
 -12  12 -12   42.23    5.63
 -12  12 -14   20.87    4.38
  13   0  -1   19.07    3.07
  13   0   1   20.45    3.19
  13   0  -1   20.21    3.04
   0  13   1   24.79    3.31
   0  13  -1   23.83    3.22
  13   0   1   23.11    2.99
  13   0  -3   33.28    3.73
   0 -13  -3   31.38    3.12
   0  13   3   33.18    3.71
   0  13  -3   36.80    3.96
  13   0  -3   27.42    3.88
  13   0   3   36.02    3.20
  13   0   3   37.50    4.07
   0  13   3   31.62    2.62
 -13   0   5  131.55    5.50
   0  13   5  128.31    6.84
   0  13   5  129.05    5.59
  13   0   5  118.61    4.68
   0  13  -5  130.28    7.31
  13   0  -5  121.71    7.97
  13   0   5  143.52    7.27
   0 -13  -5  137.22    6.14
   0 -13   7    1.47    0.75
 -13   0   7    0.56    1.05
   0  13   7    3.00    1.81
 -13   0   7   -0.44    1.10
  13   0  -7    1.41    2.45
   0  13  -7    2.55    1.94
  13   0   7   -0.91    1.89
   0 -13   9    2.28    0.99
 -13   0   9    1.75    1.06
  13   0  -9    2.04    3.08
  13   0   9   -2.11    1.98
   0  13  -9    1.18    1.55
   0  13   9    2.11    1.59
  13   0 -11   13.24    3.83
  13   0  11   15.08    3.00
  13   0  11    6.93    2.12
   0  13 -11   10.21    2.67
  13   0 -13    2.41    2.77
  13   0  13    0.46    1.76
  13   0  13   -0.40    1.54
   0  13 -13    0.99    1.80
   0  13 -15   -4.13    2.50
  13   0 -15   -3.24    2.70
  13   0  15    3.67    2.11
  13   0  17    1.34    2.07
   0  13 -17    2.87    1.86
  13   0 -19   13.69    3.93
  13   0  19   14.58    4.21
   0  13 -19   10.84    3.37
  13   0 -21   -4.61    3.35
   0  13 -21   -0.21    2.24
   0  13 -23    5.23    3.19
   1  13 -22    4.22    2.54
  13   1 -20   20.18    4.67
  13  -1  20   17.73    4.38
   1  13 -20   12.73    3.64
  13  -1  18   18.28    4.03
  13   1 -18   17.72    4.26
   1  13 -18   15.50    3.57
  13   1 -16   12.57    3.60
  13  -1  16   16.39    3.96
   1  13 -16   13.12    3.18
  13   1 -14   34.64    5.18
  13  -1  14   46.00    5.64
   1  13 -14   33.62    4.45
  13   1 -12   10.04    3.19
  13  -1  12   10.33    2.85
  13  -1  12    9.95    2.27
   1  13 -12    5.10    2.16
   1  13 -12    9.64    2.13
 -13   1  10   66.55    3.81
   1  13 -10   67.27    5.81
  13  -1  10   67.41    5.64
  13  -1  10   60.40    4.71
  13   1 -10   63.86    6.34
  -1  13  10   59.26    4.69
  -1  13   8   65.70    4.89
 -13   1   8   63.82    3.60
   1  13  -8   59.72    5.32
  13  -1   8   57.89    4.68
  13   1  -8   77.37    6.70
   1 -13   8   58.63    3.06
 -13   1   6   98.96    4.69
  -1 -13  -6  107.51    5.70
  -1  13   6  115.76    6.42
   1 -13   6  106.11    3.77
   1  13  -6  102.14    6.64
  13   1  -6   97.94    7.27
  -1  13   4    9.16    1.66
  -1 -13  -4   10.68    2.16
  -1  13   4   13.03    2.44
   1  13  -4    9.24    2.29
  13   1  -4    8.45    2.62
  13   1  -4   11.38    2.46
  13   1  -2   39.30    3.99
  -1 -13  -2   44.46    3.76
  -1  13   2   52.86    4.52
   1  13  -2   42.84    4.27
  13  -1   2   47.57    3.74
  13  -1   2   47.89    4.44
  -1  13   2   47.31    3.15
  13   1  -2   46.70    4.73
  13  -1   0  159.96    7.70
  13   1   0  152.15    7.38
   1  13   0  154.36    7.70
  -1  13   0  155.27    7.69
  13  -1   0  153.35    7.16
  13   1   0  153.59    7.81
  13   1   0  151.82    7.51
  13   1   2   48.70    4.43
   1  13   2   43.02    4.19
  -1  13  -2   43.60    4.25
  13  -1  -2   43.81    4.54
  13   1   2   46.57    3.95
  13  -1  -2   43.02    4.27
  13   1   2   39.52    4.18
   1  13   2   45.79    2.67
 -13  -1   4   13.57    2.11
  13  -1  -4   10.54    2.98
   1 -13  -4   13.01    2.10
  13   1   4   13.73    2.03
   1  13   4   12.75    2.40
  -1  13  -4    9.20    2.30
  13   1   4   15.28    2.88
   1  13   4   13.09    1.91
  13  -1  -4   11.96    2.69
   1  13   6  108.58    6.38
   1 -13  -6  106.98    5.26
 -13  -1   6  106.96    5.23
  13   1   6  107.85    4.33
  -1  13  -6   99.70    6.51
  13  -1  -6   99.33    7.32
  13   1   6  102.41    6.22
   1  13   8   63.00    4.90
 -13  -1   8   57.03    3.92
  -1 -13   8   48.86    1.95
  -1  13  -8   51.18    4.92
  13  -1  -8   61.49    6.11
  13   1   8   57.88    4.65
 -13  -1  10   59.40    4.16
  13  -1 -10   62.91    6.29
  -1  13 -10   54.93    5.39
  13   1  10   57.52    4.60
  13  -1 -12    7.49    2.93
  13   1  12    8.11    2.24
  -1  13 -12    8.79    2.61
  13  -1 -14   44.27    5.76
  -1  13 -14   36.35    4.88
  13   1  14   36.40    4.99
  13   1  14   39.81    3.84
  13  -1 -16   13.40    3.75
  -1  13 -16   13.03    3.39
  13   1  16   12.14    3.42
  13   1  18   14.74    3.81
   1  13  18   19.33    3.34
  -1  13 -18   14.79    3.33
  13  -1 -18   17.48    4.10
  -1  13 -20   19.22    4.11
  13   1  20   14.74    4.23
  13  -1 -20   17.45    4.10
  -1  13 -22    6.71    2.80
   2  13 -23    0.80    2.10
   2  13 -21   18.78    4.08
  13  -2  19   73.27    7.74
   2  13 -19   57.94    6.36
  13   2 -19   66.55    7.23
  13   2 -17    8.13    3.30
  13  -2  17    7.31    2.84
   2  13 -17    4.86    2.35
  13   2 -15    4.49    2.77
  13  -2  15    5.87    2.48
   2  13 -15    4.92    2.30
  13  -2  13   26.04    4.09
  13   2 -13   29.29    4.75
   2  13 -13   19.94    3.53
   2  13 -13   27.82    2.96
 -13   2  11   74.24    3.70
   2  13 -11   69.80    5.94
  13  -2  11   65.54    5.78
  13   2 -11   65.96    6.57
  -2  13  11   78.38    5.17
  13   2  -9   27.49    4.42
 -13   2   9   25.71    2.16
  -2  13   9   19.84    2.68
  13  -2   9   23.78    3.42
   2  13  -9   22.20    3.49
  -2  13   7   40.72    3.91
  13   2  -7   47.37    5.24
 -13   2   7   37.32    2.75
   2  13  -7   42.56    4.55
   2 -13   7   36.82    2.68
  -2  13   5  175.26    7.77
  -2 -13  -5  168.26    7.31
   2  13  -5  176.26    8.58
  13   2  -5  188.16    9.87
   2 -13   5  168.72    5.25
  -2  13   3  238.74    7.43
  13   2  -3  226.17   10.23
  -2 -13  -3  233.29    8.55
  13   2  -3  229.75    8.76
  -2  13   3  247.32    9.40
   2  13  -3  222.66    9.41
  13  -2   3  235.87    9.46
  13  -2   1  136.18    7.36
  13   2  -1  138.88    7.75
   2  13  -1  135.64    7.39
  -2  13   1  157.88    7.69
  13   2  -1  144.43    7.68
  13   2  -1  140.96    7.01
  13   2   1  140.53    7.32
   2  13   1  141.27    3.64
  13   2   1  149.67    7.24
   2  13   1  148.79    7.65
  -2  13  -1  147.36    7.50
  13  -2  -1  147.05    7.11
  13   2   1  141.70    7.50
  13  -2  -1  143.86    7.44
  13   2   3  232.88    8.41
 -13  -2   3  238.05    8.18
   2  13   3  224.94    9.31
   2 -13  -3  231.29    7.46
  13  -2  -3  232.77    9.47
  13  -2  -3  241.42    9.85
  -2  13  -3  230.72    9.48
  13   2   3  215.86    8.95
   2  13   3  235.95    6.06
   2  13   5  189.25    8.47
   2 -13  -5  180.85    6.48
 -13  -2   5  179.27    7.07
  13  -2  -5  186.56    9.29
  -2  13  -5  186.50    8.75
  13   2   5  195.09    8.38
  13   2   5  184.56    6.58
   2  13   7   39.73    4.08
 -13  -2   7   39.76    3.43
  13   2   7   37.02    2.55
  -2  13  -7   34.32    4.14
  13   2   7   34.85    3.86
  13  -2  -7   33.50    4.66
  -2  13  -9   25.34    3.66
  13  -2  -9   20.78    3.80
 -13  -2   9   28.53    3.01
   2  13   9   26.53    3.45
  13   2   9   28.76    3.49
  13  -2 -11   70.74    6.84
  -2  13 -11   70.39    6.16
  13   2  11   69.01    5.11
  -2  13 -13   22.56    4.05
  13  -2 -13   21.56    4.17
  13   2  13   26.13    3.52
  -2  13 -15    5.56    2.47
  13   2  15    7.85    2.87
  13  -2 -15   11.47    3.41
  -2  13 -17    9.20    3.09
  13   2  17    6.83    2.84
  13  -2 -17    1.28    2.19
  13  -2 -19   57.38    6.67
   2  13  19   66.13    6.46
  13   2  19   55.93    7.07
  -2  13 -19   54.64    6.23
  -2  13 -21   16.35    3.86
   3  13 -22   20.82    4.57
   3  13 -22   20.80    4.58
  13   3 -20    6.09    3.08
  13  -3  20    2.88    2.23
   3  13 -20    1.39    2.35
  13   3 -18   42.11    5.98
  13  -3  18   36.74    5.48
   3  13 -18   34.71    4.95
  13  -3  16    9.55    3.34
   3  13 -16    8.72    2.88
  13   3 -16   10.84    3.31
  13   3 -14   12.02    3.68
  13  -3  14   12.83    3.24
   3  13 -14   11.83    3.11
   3  13 -14   11.89    2.19
  13   3 -12  118.00    8.77
   3  13 -12  116.55    7.71
  13  -3  12  113.04    7.94
   3  13 -12  114.63    5.91
  -3  13  10   25.84    3.01
  13   3 -10   24.57    4.59
  13  -3  10   24.29    3.82
   3  13 -10   28.32    3.76
   3 -13   8   68.33    3.93
  13   3  -8   61.29    6.27
  -3  13   8   63.37    4.64
   3  13  -8   68.39    5.63
  13  -3   8   67.27    5.46
  -3 -13  -6  430.33   12.04
  -3  13   6  423.29   11.80
  13   3  -6  421.80   14.94
   3  13  -6  391.56   12.82
   3 -13   6  413.93    9.04
  13  -3   6  413.74   12.08
  13   3  -4   12.56    2.39
  -3 -13  -4   18.86    2.87
   3  13  -4   16.83    3.11
  -3  13   4   16.87    2.77
  13   3  -4   15.01    3.13
  13   3  -4   19.60    4.07
   3 -13   4   16.15    2.05
  13  -3   2  119.54    6.99
  -3 -13  -2  120.01    6.42
   3  13  -2  105.52    6.60
  13   3  -2  121.38    7.60
  -3  13   2  131.52    6.97
  13   3  -2  130.32    7.50
  13   3  -2  121.10    6.26
   3  13   0  806.65   17.82
  13  -3   0  813.51   12.60
  13   3   0  762.71   17.82
  13   3   0  797.54   15.95
  -3  13   0  791.25   16.92
  13   3   0  791.38   17.51
  13  -3   0  799.62   17.40
 -13  -3   2  119.40    6.12
   3  13   2  121.13    7.04
  13   3   2  119.19    6.88
  -3  13  -2  125.49    6.94
  13   3   2  112.40    6.72
  13  -3  -2  111.28    6.78
   3  13   2  120.41    3.66
 -13  -3   4   12.96    2.33
   3  13   4   16.08    2.86
   3 -13  -4   14.40    1.96
  13  -3  -4   11.55    2.90
  13   3   4   11.61    2.32
  13   3   4   20.84    3.40
  -3  13  -4   16.22    2.90
  13  -3  -4   15.13    2.94
   3  13   6  410.99   12.68
  13   3   6  410.05    9.83
 -13  -3   6  398.67   10.91
   3 -13  -6  422.18    9.33
  13  -3  -6  398.91   13.72
  -3  13  -6  402.67   13.13
  13   3   6  383.12   11.74
 -13  -3   8   65.74    4.56
  13  -3  -8   60.33    5.95
  -3  13  -8   65.47    5.68
  13   3   8   63.95    3.21
  13   3   8   68.17    5.29
   3  13   8   71.37    5.47
  -3  13 -10   14.79    3.11
  13  -3 -10   21.27    3.90
  13  -3 -12   96.74    8.02
  -3  13 -12  106.08    7.63
  -3  13 -14   11.61    3.02
  13  -3 -14    9.84    3.11
  -3  13 -16    8.45    2.82
  13   3  16   13.03    3.58
  -3  13 -18   39.01    5.30
  13   3  18   52.93    6.71
  -3  13 -20    4.47    2.51
  13   3  20    6.80    3.22
   3  13  20    4.19    2.47
  -3  13 -22   17.72    4.03
   4  13 -23    1.40    3.43
   4  13 -21   20.66    4.37
   4  13 -21   23.83    4.88
  13  -4  19   25.86    4.77
   4  13 -19   20.28    4.24
  13   4 -19   18.52    4.24
  13  -4  17    0.42    1.91
   4  13 -17   -1.14    1.78
  13   4 -17    2.49    2.43
  13   4 -15    7.50    3.03
  13  -4  15    2.86    2.45
   4  13 -15    2.53    1.97
  13   4 -13    7.55    3.19
  13  -4  13    7.29    2.52
   4  13 -13   10.36    2.98
   4  13 -13    7.08    2.05
  -4  13  11   36.18    3.42
   4  13 -11   35.39    3.62
   4  13 -11   39.06    4.60
  13  -4  11   41.60    4.90
  13   4 -11   36.81    5.23
  13   4  -9   68.16    6.82
   4  13  -9   64.94    5.57
  13  -4   9   72.75    5.89
  -4  13   9   77.33    4.99
   4 -13   7   10.08    1.95
  -4  13   7    9.65    2.07
   4  13  -7    8.10    2.46
  13   4  -7    9.90    3.27
  13  -4   7   11.66    2.59
  -4 -13  -5  152.16    7.47
   4  13  -5  153.62    8.06
  -4  13   5  157.57    7.31
  13   4  -5  157.34    9.24
   4 -13   5  150.87    5.91
  13  -4   5  159.53    7.61
  13   4  -5  167.70    8.83
  13  -4   3  275.17   10.52
  -4 -13  -3  290.76   10.09
   4  13  -3  308.40   11.20
   4 -13   3  284.40    8.09
  -4  13   3  305.18   10.35
  13   4  -3  287.02   11.79
  13  -4   3  306.75    9.50
  13   4  -3  286.17   11.04
  13   4  -3  278.95    9.20
  13  -4   1  141.88    7.70
  13  -4   1  140.69    5.41
   4  13  -1  136.02    7.52
  -4 -13  -1  130.21    6.82
  -4  13   1  136.24    7.06
  13  -4   1  142.47    5.95
  13   4  -1  135.65    7.86
  13   4  -1  127.33    7.37
  13   4  -1  136.64    6.58
  13   4   1  132.64    6.66
   4  13   1  142.44    7.64
 -13  -4   1  141.51    6.96
  -4  13  -1  128.39    6.97
  13   4   1  120.36    7.07
  13   4   1  127.73    7.21
  13  -4  -1  130.26    7.37
   4  13   3  288.01   10.71
 -13  -4   3  289.72    9.72
   4 -13  -3  296.55    7.75
  13   4   3  279.70   10.00
  -4  13  -3  295.86   10.86
  13   4   3  273.57   10.25
  13  -4  -3  280.19   10.69
   4 -13  -5  166.44    5.63
 -13  -4   5  169.63    7.41
  13   4   5  158.63    7.04
  -4  13  -5  157.96    8.25
 -13   4  -5  150.09    6.11
  13   4   5  160.59    7.92
   4  13   5  156.15    8.03
  13   4   7    8.73    2.00
   4  13   7   11.93    2.64
  -4  13  -7   13.01    2.82
 -13  -4   7    8.89    2.08
  13   4   7   10.28    2.77
  -4  13  -9   78.22    6.35
  -4  13 -11   38.79    4.79
  -4  13 -13    9.45    2.92
  -4  13 -15    9.01    2.80
  13   4  17   -0.43    2.10
  -4  13 -17    1.84    1.94
  -4  13 -19   19.58    3.87
  13   4  19   38.62    6.11
  -4  13 -21   17.31    3.88
   4  13  21   35.12    5.60
   5  13 -22    1.33    2.84
  13  -5  20   -0.78    2.09
   5  13 -20    1.07    2.49
   5  13 -20    2.66    2.71
  13  -5  18    1.22    1.93
   5  13 -18   -0.23    1.95
  13   5 -18    2.69    2.71
  13   5 -16   -2.88    2.75
  13  -5  16   -0.18    1.83
   5  13 -16    2.56    2.34
  13   5 -14   18.60    4.65
  13  -5  14    8.96    2.82
   5  13 -14   11.49    2.98
   5  13 -14   19.04    3.10
   5  13 -12    1.06    1.54
  13  -5  12   -0.26    1.78
  13   5 -12   -2.48    2.48
   5  13 -12    1.48    1.68
  -5  13  12    2.48    1.39
  -5  13  10   29.19    3.08
   5  13 -10   28.64    4.01
  13  -5  10   33.70    4.50
  13   5 -10   22.80    4.31
   5 -13   8   53.52    4.03
  -5  13   8   49.00    4.02
   5  13  -8   56.52    5.21
  13   5  -8   49.38    5.77
  13  -5   8   53.44    5.19
  -5 -13  -6   31.22    3.75
  -5  13   6   34.61    3.50
   5  13  -6   35.24    4.04
  13  -5   6   37.78    4.15
  13   5  -6   35.02    4.88
  13   5  -6   33.20    4.42
   5 -13   6   37.40    3.45
   5 -13   4    9.22    2.17
  13   5  -4    4.83    2.64
  -5 -13  -4    9.61    2.44
  -5  13   4    7.32    1.42
   5  13  -4    9.00    2.38
  13   5  -4    6.63    2.11
  -5  13   4    4.97    1.68
  13  -5   4   11.18    2.36
  13  -5   4    7.59    2.65
  13   5  -4    1.28    2.30
  13  -5   2   45.97    4.64
  13  -5   2   57.03    3.66
   5  13  -2   57.46    5.09
  -5 -13  -2   54.50    4.71
  -5  13   2   45.82    3.21
  -5  13   2   48.06    4.28
  13  -5   2   52.32    4.11
  13   5  -2   53.67    5.34
  13   5  -2   47.40    4.87
  13   5  -2   48.04    4.03
  13   5   0  267.20    9.01
 -13  -5   0  271.15    9.82
  13   5   0  253.52   10.31
  13  -5   0  262.12    6.75
  -5 -13   0  264.58    9.93
  13  -5   0  242.25    7.50
  -5  13   0  262.44    9.88
   5  13   0  253.44   10.22
  13   5   0  246.51    9.99
  13  -5   0  247.38   10.04
   5  13   2   50.40    4.74
  13   5   2   56.64    4.93
 -13  -5   2   50.56    4.37
  13  -5  -2   46.71    4.75
  13  -5  -2   43.79    2.89
  -5  13  -2   46.79    4.42
  13   5   2   52.63    4.91
  13   5   4   12.25    3.05
  -5  13  -4    8.14    2.35
  13   5   4    9.52    2.64
   5  13   4    9.12    2.37
   5 -13  -4    9.19    1.52
 -13  -5   4    8.74    2.20
  13  -5  -4    6.53    2.59
  13  -5  -4    6.44    1.05
  13   5   6   33.93    3.53
  -5  13  -6   30.68    3.97
 -13  -5   6   39.14    3.77
   5  13   6   39.93    4.38
 -13  -5   8   54.69    4.57
  13   5   8   51.23    3.68
  -5  13  -8   55.04    5.40
  -5  13 -10   24.52    3.89
  -5  13 -12   -3.20    1.81
  -5  13 -14   11.73    3.16
  -5  13 -16   -1.62    1.78
  -5  13 -18    3.01    2.65
  13   5  18   -3.99    3.14
  -5  13 -20    7.41    3.22
   5  13  22    6.27    3.22
   6  13 -21    3.87    3.30
  13   6 -19    3.96    3.26
  13  -6  19    3.89    2.92
   6  13 -19    1.93    2.00
  13   6 -17    6.78    3.83
  13  -6  17    4.80    2.22
   6  13 -17    6.73    2.59
   6  13 -15   25.39    4.22
  13  -6  15   32.30    4.82
  13   6 -15   20.29    4.36
   6  13 -15   26.16    3.62
   6  13 -13   18.06    3.53
  13  -6  13   15.85    3.56
   6  13 -13   17.13    3.10
  13   6 -13   11.73    3.65
  -6  13  11    3.72    1.38
  13   6 -11   -0.24    2.29
   6  13 -11    1.04    1.80
  13  -6  11    1.52    1.93
   6  13 -11    2.03    2.05
   6 -13   9    5.22    1.92
  -6  13   9    2.51    1.39
   6  13  -9    0.80    1.88
  13  -6   9    2.29    1.79
  13   6  -9    3.37    2.83
   6 -13   7   44.65    3.91
  13   6  -7   41.97    5.24
  -6  13   7   44.80    3.87
   6  13  -7   33.05    4.14
  13  -6   7   39.67    4.38
  13   6  -7   50.03    5.26
  13  -6   5   20.55    3.55
  -6 -13  -5   25.33    3.47
   6  13  -5   22.77    3.41
  13  -6   5   24.26    3.40
  -6  13   5   20.34    2.89
  13   6  -5   29.94    4.50
  13   6  -5   29.75    4.19
   6 -13   5   24.68    2.93
  13   6  -3   24.53    2.92
   6 -13   3   27.89    3.09
  13  -6   3   25.61    3.75
  -6 -13  -3   26.77    3.52
   6  13  -3   25.24    3.55
  13  -6   3   24.00    2.96
  -6  13   3   24.04    3.11
  13   6  -3   28.46    4.21
  13   6  -3   21.29    3.64
  13   6  -1    5.07    1.63
  13  -6   1    7.68    2.63
  13  -6   1    5.02    1.26
  -6 -13  -1   10.49    2.43
   6  13  -1    8.61    2.45
  -6  13   1    6.68    1.49
  13  -6   1    7.12    1.74
  -6  13   1   11.44    2.47
  13   6  -1    8.23    2.73
  13   6   1    7.06    2.17
  13   6   1    5.20    2.63
 -13  -6   1    8.47    2.28
  13  -6  -1    8.21    1.25
  -6 -13   1    9.06    2.41
  13  -6  -1   11.25    1.59
  13  -6  -1    4.95    2.42
  -6  13  -1    5.33    2.04
   6  13   1    2.75    1.80
   6  13   3   27.28    3.64
   6 -13  -3   25.80    2.12
  13  -6  -3   35.03    4.22
  13   6   3   28.71    4.00
 -13  -6   3   28.42    3.43
  13  -6  -3   25.76    1.55
  -6  13  -3   26.30    3.69
  -6  13  -5   24.46    3.59
 -13  -6   5   22.62    3.12
   6 -13  -5   20.93    1.80
   6  13   5   22.13    3.41
 -13  -6   7   44.40    4.31
  -6  13  -7   38.14    4.62
  -6  13  -9    3.88    2.12
  -6  13 -11    2.98    2.07
  -6  13 -13   15.74    3.46
  -6  13 -15   21.51    4.15
  -6  13 -17    6.59    2.64
  -6  13 -19    4.16    3.04
  13   6  19    2.81    3.04
   6  13  21    4.48    3.36
   7  13 -20   24.41    5.35
   7  13 -18    6.61    2.84
  13  -7  18   13.19    3.69
  13   7 -18   14.74    4.55
   7  13 -16   16.78    3.62
  13  -7  16   15.32    3.52
  13   7 -16   11.08    3.82
  13   7 -14   16.75    4.48
   7  13 -14   13.35    3.22
  13  -7  14   10.65    3.05
   7  13 -14   16.65    3.24
   7  13 -12   24.33    3.94
  13   7 -12   27.24    4.75
  13  -7  12   18.91    3.63
   7  13 -12   17.53    3.16
  -7  13  10   57.84    4.04
   7  13 -10   52.89    5.27
  13  -7  10   59.66    5.70
  13   7 -10   52.28    6.12
   7  13 -10   50.19    4.75
   7 -13   8   45.09    4.10
  -7  13   8   39.69    3.54
   7  13  -8   38.62    4.37
  13  -7   8   47.25    4.84
  13   7  -8   43.47    5.42
  13   7  -8   40.11    4.99
   7 -13   6    9.09    2.36
   7  13  -6   10.85    2.67
 -13   7   6    5.74    1.32
  13  -7   6   10.97    2.43
  -7  13   6    5.97    1.80
  13   7  -6    9.76    3.33
  13   7  -6    5.61    2.48
  13  -7   4  148.67    8.19
   7  13  -4  172.44    8.71
  -7 -13  -4  158.09    8.18
  13  -7   4  132.50    6.52
  -7  13   4  167.87    7.62
  13   7  -4  159.76    8.62
   7 -13   4  155.11    7.09
  13  -7   2   64.31    5.59
   7  13  -2   75.32    5.86
  -7 -13  -2   73.20    5.61
  13  -7   2   73.26    4.35
   7 -13   2   78.62    5.18
  -7  13   2   76.88    5.40
  13   7  -2   73.18    5.94
  13   7  -2   72.11    4.47
   7  13   0   73.96    5.81
  13  -7   0   76.03    5.98
 -13  -7   0   75.05    5.68
  -7 -13   0   73.38    5.58
  13   7   0   72.01    4.75
  13  -7   0   70.09    3.47
  -7  13   0   68.18    5.29
  13   7   0   68.41    5.70
   7  13   2   78.61    6.02
  13  -7  -2   66.01    2.42
  -7  13  -2   78.25    5.78
 -13  -7   2   78.48    5.62
  13  -7  -2   78.43    6.05
   7 -13  -4  158.87    4.46
 -13  -7   4  171.24    8.16
   7  13   4  148.75    8.25
  -7  13  -4  152.91    8.31
  -7  13  -6   10.16    2.63
 -13  -7   6    5.76    1.99
  -7  13  -8   43.39    4.97
  -7  13 -10   52.19    5.61
  -7  13 -12   15.33    3.47
  -7  13 -14    8.70    3.08
  -7  13 -16   17.30    4.05
  -7  13 -18   15.82    3.89
  13  -8  19    5.09    2.85
   8  13 -19   10.61    3.89
   8  13 -17   19.06    3.93
  13  -8  17   14.62    3.57
  13   8 -17   25.04    5.20
   8  13 -15    1.41    2.05
  13  -8  15    2.68    2.35
   8  13 -15    0.67    2.29
  13   8 -15    2.53    2.96
   8  13 -13   24.85    4.02
  13  -8  13   23.96    4.14
  13   8 -13   18.72    4.39
   8  13 -13   20.77    3.49
  13   8 -11   12.28    3.69
   8  13 -11    4.74    2.02
  13  -8  11   10.04    2.98
   8  13 -11   10.59    2.77
   8 -13   9   -0.01    1.63
  13   8  -9    2.41    3.01
   8  13  -9   -0.89    1.92
  -8  13   9    1.98    1.11
  13  -8   9    0.25    1.50
  13   8  -9   -4.34    3.09
   8  13  -9    2.47    2.50
  13   8  -7   80.66    6.89
   8 -13   7   78.64    5.49
   8  13  -7   80.94    6.15
  -8  13   7   87.24    5.31
  13  -8   7   85.37    5.92
  13   8  -7   83.66    6.74
 -13   8   7   82.11    4.30
  13  -8   5  132.40    7.99
   8  13  -5  129.22    7.62
 -13   8   5  126.48    5.94
  13  -8   5  121.64    6.37
  -8  13   5  130.12    6.66
  13   8  -5  120.36    7.67
  -8 -13  -5  136.58    7.98
   8 -13   5  126.27    6.72
  13  -8   3   62.51    5.63
   8  13  -3   56.81    5.20
  -8 -13  -3   58.76    5.32
  13  -8   3   64.11    4.14
  -8  13   3   55.62    4.58
  13   8  -3   60.53    5.45
  13   8  -3   63.36    4.17
   8 -13   3   61.12    4.81
 -13  -8  -1  111.98    7.09
  -8 -13  -1  118.49    7.19
   8 -13   1  113.40    6.48
  13  -8   1  112.57    4.50
  -8  13   1  114.55    6.75
   8  13  -1  108.47    7.08
  13   8  -1  113.56    7.18
  13  -8   1  105.09    6.98
  13   8  -1  108.47    5.35
   8  13   1  114.28    7.25
  -8 -13   1  113.68    7.09
  13   8   1  124.60    5.94
 -13  -8   1  117.70    7.10
  13  -8  -1   98.80    3.21
  -8  13  -1  112.18    6.86
  13  -8  -1  106.64    7.06
  13  -8  -3   64.66    5.77
 -13  -8   3   55.49    4.95
   8 -13  -3   60.49    2.72
  -8  13  -3   62.18    5.43
   8  13   3   55.72    5.29
 -13  -8   5  132.78    7.50
  -8  13  -5  135.94    8.20
 -13  -8   7   82.65    6.09
  -8  13  -7   86.78    6.90
  -8  13  -9    1.24    1.85
  -8  13 -11    7.26    2.70
  -8  13 -13   24.27    4.37
  -8  13 -15    0.14    1.97
  -8  13 -17   16.94    3.94
   9  13 -18    1.46    2.46
  13  -9  18    2.56    2.28
  13   9 -16    4.95    3.41
   9  13 -16   -2.32    1.96
  13  -9  16    1.78    2.01
   9  13 -14    4.49    2.02
  13  -9  14    4.25    2.12
  13   9 -14    8.88    3.40
   9  13 -14    3.04    2.28
   9  13 -12    6.44    2.43
  13  -9  12    2.98    1.84
  13   9 -12    1.03    2.26
   9  13 -12    0.65    2.07
   9 -13  10   12.90    2.87
   9  13 -10    8.24    2.56
  13  -9  10   11.37    2.74
  13   9 -10   14.24    3.83
  13   9 -10    6.18    2.72
   9  13 -10   16.45    3.38
   9  13  -8   17.71    3.27
  13  -9   8   17.87    3.09
  -9  13   8   20.54    2.67
   9 -13   8   21.60    3.35
  13   9  -8   21.12    3.94
   9  13  -8   24.14    3.80
  13  -9   6   89.95    6.85
   9  13  -6   83.06    6.30
  13  -9   6   89.07    5.64
  -9  13   6   85.39    5.40
   9 -13   6   88.87    5.97
  13   9  -6   99.21    7.06
 -13   9   6   97.03    5.18
  13  -9   4   29.43    4.11
 -13   9   4   37.45    3.59
  -9 -13  -4   30.76    4.17
   9  13  -4   34.23    4.19
  13  -9   4   35.39    3.22
  -9  13   4   33.02    3.56
  13   9  -4   30.66    4.18
   9 -13   4   37.73    4.10
   9  13  -2   36.45    4.38
  13  -9   2   30.35    4.07
  13   9  -2   35.63    4.62
 -13  -9  -2   28.92    3.84
  -9 -13  -2   33.52    4.15
  13  -9   2   33.57    2.68
  -9  13   2   35.52    3.93
   9 -13   2   35.12    3.96
  13   9  -2   38.02    3.12
 -13  -9   0  118.72    7.29
  -9 -13   0  126.20    7.62
  -9  13   0  123.09    7.25
  13  -9   0  119.90    7.56
  13   9   0  125.92    5.67
   9  13   0  120.05    7.54
 -13  -9   2   37.07    4.16
  -9 -13   2   34.58    4.15
  -9  13  -2   34.68    4.20
  13  -9  -2   34.07    4.32
 -13  -9   4   38.34    4.32
  -9  13  -4   39.35    4.58
 -13  -9   6   86.55    6.43
  -9  13  -6   84.23    6.75
  -9  13  -8   18.86    3.68
  -9  13 -10    8.99    2.61
  -9  13 -12    6.23    2.83
  -9  13 -14    1.66    2.15
  -9  13 -16    5.62    3.02
  10  13 -17    7.71    3.81
  10  13 -17    4.23    2.64
  13 -10  17   -1.23    2.23
  10  13 -15    5.50    2.63
  13 -10  15    2.63    1.97
  10  13 -15    0.38    2.59
  13  10 -15    0.79    2.85
  10  13 -13    0.04    1.80
  13 -10  13    3.18    1.99
  13  10 -13    6.83    3.36
  10  13 -13    0.65    2.15
  13  10 -13    0.71    1.75
  10  13 -11   -0.09    2.01
  13 -10  11    0.60    1.52
  13  10 -11    2.40    2.74
  13  10 -11    2.98    2.40
  10  13 -11    2.61    2.53
  10  13  -9    6.02    2.38
  13 -10   9    5.52    2.21
  10  13  -9    5.50    2.76
  10 -13   9    4.56    2.18
  13  10  -9    3.83    2.57
  10 -13   7   -2.42    1.92
  13 -10   7    2.94    2.35
  10  13  -7    1.23    1.61
  13 -10   7   -0.78    1.64
 -10  13   7    1.96    1.30
  13  10  -7    2.65    2.73
  10  13  -7    5.09    2.71
  10  13  -5   59.87    5.52
  13 -10   5   57.97    4.17
 -10  13   5   57.85    4.58
  13  10  -5   63.76    5.94
  13 -10   5   59.29    5.59
 -13  10   5   55.44    4.24
  10 -13   5   63.33    5.32
  10 -13   3   33.10    4.01
 -13  10   3   33.00    3.58
  13 -10   3   35.09    4.44
  10  13  -3   36.00    4.39
 -10 -13  -3   36.25    4.50
  13 -10   3   30.45    2.72
 -10  13   3   45.57    4.37
  13  10  -3   31.26    4.48
  13 -10   1   24.80    3.92
  10  13  -1   23.40    3.59
 -10  13   1   24.36    3.39
 -13 -10  -1   23.01    3.68
 -10 -13  -1   27.49    3.85
 -13  10   1   23.47    3.27
  13  10  -1   22.38    2.45
  10 -13   1   25.72    3.65
  13  10   1   23.37    2.72
 -13 -10   1   26.14    3.69
 -10  13  -1   23.10    3.43
 -10 -13   1   25.81    3.76
  13 -10  -1   27.09    3.95
 -13 -10   3   31.56    4.14
 -10 -13   3   34.60    4.41
 -10  13  -3   32.39    4.20
 -13 -10   5   63.96    5.61
 -10  13  -5   62.70    5.94
 -13 -10   7   -1.19    1.82
 -10  13  -7    0.05    1.61
 -10  13  -9    7.31    2.57
 -10  13 -11   -0.31    1.94
 -10  13 -13   -1.67    2.27
 -10  13 -15    5.96    2.96
  13 -11  18   -2.60    2.95
  11  13 -16   -0.17    2.43
  13 -11  16    8.05    3.06
  11  13 -16    5.69    3.65
  11  13 -14   23.20    4.39
  13 -11  14   15.33    3.52
  13  11 -14   20.50    4.49
  11  13 -14   25.63    4.25
  13  11 -14   19.81    3.70
  11  13 -12    6.30    2.17
  13 -11  12    4.94    2.34
  13  11 -12    2.36    2.28
  13  11 -12    5.36    2.92
  11  13 -12    3.08    2.28
  13  11 -12    5.43    2.57
  11  13 -10   47.29    5.28
  11 -13  10   49.61    5.24
  13 -11  10   41.21    4.67
  13  11 -10   45.62    5.51
  11  13 -10   48.73    5.36
  13  11 -10   48.34    5.27
  11 -13   8    9.69    2.78
  13 -11   8    4.42    2.41
  11  13  -8    8.74    2.65
  13 -11   8    7.91    2.20
  13  11  -8    8.86    2.83
  11  13  -8    5.29    2.28
  13 -11   6    8.05    2.70
  11  13  -6    9.67    2.54
  11 -13   6    4.59    2.21
  13 -11   6    7.61    1.82
 -11  13   6    7.00    1.88
  13  11  -6    9.83    3.36
  11  13  -6   14.04    3.68
 -11 -13  -4   56.53    5.63
 -11  13   4   54.80    4.68
  13  11  -4   59.90    5.79
 -13  11   4   59.74    4.74
  11 -13   4   62.29    5.51
  13 -11   4   55.21    5.53
  11  13  -4   49.92    5.17
  11 -13   2   -0.10    2.08
 -11  13   2    3.49    1.72
 -13 -11  -2    3.46    2.00
 -11 -13  -2    3.86    2.29
 -13  11   2    2.28    1.55
  13 -11   2    2.36    1.99
  11  13  -2    2.14    1.63
 -13 -11   0   18.90    3.38
 -11  13   0   19.36    3.28
 -11 -13   0   15.23    3.06
 -13  11   0   16.82    2.94
  13  11   0   16.56    2.18
  13 -11   0   18.63    3.56
  13  11   2    4.94    1.73
 -13 -11   2    3.11    2.09
 -11 -13   2    2.68    1.97
 -11  13  -2    5.56    2.18
 -13  11  -2    5.79    2.21
 -11  13  -4   43.70    5.06
 -13 -11   4   63.16    5.79
 -11 -13   4   55.47    5.61
 -13 -11   6    8.87    2.53
 -11  13  -6    6.49    2.54
 -11  13  -8    5.60    2.55
 -11  13 -10   45.81    5.78
 -11  13 -12    4.39    2.54
 -11  13 -14   16.95    3.94
  12 -13  17   -2.40    2.64
  13 -12  17    4.68    2.35
  12  13 -15   77.66    7.61
  12 -13  15   62.56    6.83
  13 -12  15   59.75    6.75
  13  12 -13   20.91    4.96
  13  12 -13    7.99    3.06
  12  13 -13   11.11    2.84
  13 -12  13    6.94    2.67
  13  12 -13    1.65    2.40
  12  13 -13   14.51    3.74
  12 -13  11   10.94    3.10
  13 -12  11   13.51    3.57
  12  13 -11   12.92    3.58
  13 -12  11   10.00    2.71
  13  12 -11   10.63    3.19
  12  13 -11   12.40    3.37
  13  12 -11   12.27    3.40
  12 -13   9  133.43    8.60
  13 -12   9  127.88    8.58
  13 -12   9  119.46    7.30
  12  13  -9  115.23    8.10
  13  12  -9  115.18    8.27
  12  13  -9  122.01    8.28
  13  12  -9  107.51    7.79
  13 -12   7   22.49    3.86
  12  13  -7   18.37    3.52
  13  12  -7   15.81    3.59
  12  13  -7   25.13    4.21
  12 -13   7   16.37    3.30
  13 -12   5    5.27    2.43
  12  13  -5    6.18    2.43
  12 -13   5    4.66    2.44
  12  13  -5   12.42    3.44
 -13  12   5    7.73    1.97
 -12  13   5    5.30    1.73
  13  12  -5   10.83    3.25
  12 -13   3   94.10    6.86
 -13 -12  -3   94.76    7.21
 -12 -13  -3   92.55    7.29
  13 -12   3   92.05    7.03
 -12  13   3  101.53    6.59
 -13  12   3   92.73    6.27
  13  12  -3   95.56    7.33
  13 -12   1    5.57    2.62
 -12 -13  -1    2.78    1.99
 -12  13   1    1.91    1.56
 -13 -12  -1    3.09    1.87
 -13  12   1    2.96    1.64
  12 -13   1    4.74    2.20
 -13 -12   1    3.10    2.03
 -12 -13   1    2.52    1.87
 -12  13  -1    1.90    1.78
 -13  12  -1    3.26    1.84
 -12  13  -3   96.57    7.24
 -13  12  -3   95.46    7.18
 -13 -12   3   87.71    6.87
 -12 -13   3   95.22    7.24
 -13 -12   5   11.24    3.12
 -12 -13   5   11.64    2.91
 -12  13  -5    7.81    2.59
 -13  12  -5    8.05    2.77
 -13 -12   7   21.04    3.77
 -12  13  -7   17.03    3.51
 -13  12  -7   15.62    3.37
 -12  13  -9  109.00    8.67
 -12  13 -11   10.64    3.38
 -12  13 -13    5.95    2.92
  13 -13  16    6.58    2.96
  13  13 -14   69.03    7.03
  13 -13  14   77.42    7.24
  13  13 -14   62.75    6.84
  13 -13  12   53.16    6.12
  13  13 -12   45.72    5.72
  13  13 -12   50.11    5.98
  13 -13  10   83.14    7.24
  13  13 -10   79.96    7.23
  13  13 -10   95.72    7.69
  13 -13   8   51.81    5.80
  13  13  -8   53.64    5.85
  13  13  -8   50.92    5.73
  13 -13   6   32.78    4.50
  13  13  -6   28.46    4.65
 -13  13   4   73.14    5.59
  13  13  -4   89.22    7.47
  13 -13   4   86.17    6.88
  13 -13   2   31.90    4.47
 -13 -13  -2   35.80    4.71
 -13  13   2   33.35    4.11
 -13 -13   0    3.07    2.01
  13 -13   0    3.37    2.11
 -13  13   0    3.78    1.96
 -13  13  -2   35.44    4.55
 -13 -13   2   38.16    4.71
 -13  13  -4   94.71    7.48
 -13 -13   4   87.13    7.14
 -13 -13   6   36.66    4.74
 -13  13  -6   35.68    4.99
 -13 -13   8   58.94    6.20
 -13  13  -8   42.37    5.55
 -13  13 -10   83.74    7.86
 -13  13 -12   41.13    5.89
  14   0   0    1.63    1.83
   0  14   0   -0.15    1.47
  14   0   0    0.67    1.87
  14   0   2    9.03    2.18
   0  14   2    8.17    1.62
   0 -14  -2    7.05    1.74
  14   0  -2    8.11    2.52
  14   0   2    9.20    2.59
   0  14   2    8.58    2.26
  14   0  -2    7.32    2.28
   0  14  -2    5.77    1.87
   0  14   4   83.43    4.49
   0 -14  -4   81.77    5.01
   0  14   4   97.98    6.37
   0  14  -4   86.44    6.26
  14   0   4   84.58    4.55
  14   0  -4   86.58    6.79
  14   0   4   88.66    6.18
  14   0  -4   81.37    5.77
   0 -14  -6    2.85    1.52
 -14   0   6    3.01    1.28
   0  14   6    3.51    1.68
  14   0  -6    1.97    2.29
   0  14  -6    0.41    1.67
  14   0   6    0.49    1.88
   0  14   8   17.15    2.93
 -14   0   8   22.10    2.53
  14   0  -8   25.03    4.39
   0  14  -8   18.02    3.37
  14   0   8   12.95    2.69
 -14   0  10  124.74    5.77
   0  14  10  127.26    7.14
   0  14 -10  126.36    8.14
  14   0 -10  127.11    8.93
  14   0  10  112.92    6.70
 -14   0  12   17.81    2.27
  14   0 -12   12.85    3.95
  14   0  12   20.40    3.62
  14   0  12   15.24    2.78
   0  14 -12   13.45    3.07
  14   0 -14    7.78    3.52
  14   0  14   12.08    3.34
   0  14 -14    7.41    2.49
  14   0 -16    8.16    3.34
  14   0  16    8.98    3.36
   0  14 -16   12.29    3.36
  14   0 -18    6.75    3.32
  14   0  18    3.51    2.83
   0  14 -18   -1.35    2.20
   0  14 -20    9.49    3.27
   0  14 -22    7.63    3.22
   1  14 -21   12.21    3.66
  14   1 -19    9.92    3.56
  14  -1  19   10.23    3.66
   1  14 -19   13.31    3.53
  14   1 -17   19.90    4.55
  14  -1  17   15.62    3.84
   1  14 -17    9.94    2.86
  14   1 -15   47.47    6.10
  14  -1  15   48.11    5.82
   1  14 -15   42.14    5.25
  14   1 -13   -0.37    2.40
  14  -1  13    8.92    2.75
   1  14 -13    5.63    2.57
  14   1 -11   31.83    5.03
  14  -1  11   35.58    4.56
   1  14 -11   29.34    4.27
  -1  14   9  146.41    7.48
 -14   1   9  138.82    5.52
   1  14  -9  118.97    7.64
  14   1  -9  145.52    9.37
  -1  14   7   20.00    2.94
  14   1  -7   19.03    3.83
   1  14  -7   18.75    3.32
   1 -14   7   19.78    1.75
  -1 -14  -5   85.65    5.37
  -1  14   5   81.88    5.79
   1  14  -5   81.57    6.12
  14   1  -5   76.39    6.60
  -1  14   3   56.56    3.65
  14  -1   3   61.24    5.35
  -1 -14  -3   60.46    4.52
  -1  14   3   61.41    5.08
   1  14  -3   60.76    5.31
  14   1  -3   57.44    5.58
  14   1  -3   49.12    4.55
  14  -1   1   55.66    5.06
   1  14  -1   48.87    4.73
  -1  14   1   48.73    4.57
  14  -1   1   49.39    4.13
  14   1  -1   50.41    4.80
  14   1  -1   49.23    4.60
  14   1   1   51.83    4.79
   1  14   1   61.11    5.15
  -1  14  -1   57.00    4.95
  14  -1  -1   63.43    5.24
  14   1   1   62.29    4.98
  14   1   1   51.83    4.93
  14  -1  -1   52.49    4.75
   1  14   3   62.97    5.21
   1 -14  -3   60.13    4.23
  -1  14  -3   59.58    5.16
  14  -1  -3   57.14    5.30
  14   1   3   66.73    4.55
  14   1   3   61.30    5.26
  14  -1  -3   58.07    5.07
   1  14   3   53.80    3.22
   1  14   5   72.08    5.46
 -14  -1   5   82.09    4.84
   1 -14  -5   72.29    4.57
   1  14   5   72.90    4.27
  -1  14  -5   76.38    5.86
  14   1   5   81.90    4.39
  14  -1  -5   86.92    6.82
  14   1   5   72.49    5.53
  14  -1  -7   18.39    3.73
   1  14   7   19.44    3.15
 -14  -1   7   21.85    2.64
  -1  14  -7   19.57    3.27
  14   1   7   19.19    3.34
 -14  -1   9  135.61    6.27
  -1  14  -9  131.43    8.17
  14  -1  -9  131.24    8.94
  14   1   9  138.14    7.34
   1  14   9  145.34    7.69
  14  -1 -11   35.62    5.14
 -14  -1  11   28.58    3.07
  14   1  11   33.28    3.88
  -1  14 -11   27.60    4.18
  14  -1 -13    6.17    3.23
  14   1  13    8.68    2.83
  14   1  13    7.03    2.26
  -1  14 -13    4.53    2.57
  14  -1 -15   43.26    5.89
  14   1  15   59.68    6.57
  -1  14 -15   44.07    5.61
  14   1  17   16.69    3.92
  14  -1 -17   11.29    3.45
  -1  14 -17   10.97    3.17
  14   1  19   20.41    4.60
  14  -1 -19   14.84    4.14
  -1  14 -19   14.65    3.60
  -1  14 -21   19.04    4.16
   2  14 -22   11.42    3.81
   2  14 -22    8.96    2.99
   2  14 -20    5.38    2.57
  14   2 -18    3.57    2.70
  14  -2  18    4.14    2.91
   2  14 -18   -0.77    2.25
  14   2 -16   23.26    4.69
  14  -2  16   16.01    3.74
   2  14 -16   17.01    3.58
  14   2 -14   37.81    5.63
  14  -2  14   32.78    4.85
   2  14 -14   31.39    4.44
  14  -2  12    8.02    2.66
   2  14 -12    4.44    2.08
  14   2 -12    7.13    2.88
   2  14 -12    8.18    2.30
  -2  14  10   46.38    4.26
   2 -14  10   51.29    3.35
   2  14 -10   45.70    5.02
  14  -2  10   52.65    5.27
  14   2 -10   49.36    5.91
  -2  14   8   51.00    4.48
   2  14  -8   63.51    5.71
  14  -2   8   55.13    4.94
  14   2  -8   61.36    6.23
   2 -14   8   56.85    3.32
  -2 -14  -6   81.84    5.39
  -2  14   6   85.04    5.78
   2  14  -6   76.94    6.06
  14   2  -6   80.67    6.92
   2 -14   6   75.76    3.61
  14   2  -4   11.22    2.42
  14   2  -4    9.41    2.77
  -2 -14  -4   12.63    2.54
  -2  14   4   10.55    2.29
   2  14  -4   10.40    2.64
  14  -2   2   66.64    5.53
  -2  14   2   57.91    3.84
  -2 -14  -2   64.18    4.86
  14   2  -2   62.57    5.80
   2  14  -2   66.43    5.50
  -2  14   2   63.89    5.15
  14   2  -2   59.45    5.00
  14   2  -2   52.43    5.11
  14   2   0  150.43    7.57
   2  14   0  158.52    8.26
  14   2   0  155.80    8.20
  -2  14   0  152.90    7.96
  14   2   0  148.18    8.07
  14  -2   0  155.40    8.07
  14   2   2   65.25    5.22
   2  14   2   62.98    5.33
  -2  14  -2   69.07    5.54
  14  -2  -2   71.09    5.47
  14   2   2   64.71    5.46
  14  -2  -2   58.36    5.08
  14   2   2   63.69    4.93
   2  14   2   65.08    2.94
   2 -14  -4   14.62    2.24
   2  14   4   16.15    2.83
 -14  -2   4   11.99    2.08
   2  14   4   12.00    1.76
  14   2   4   14.65    2.41
  -2  14  -4   11.94    2.63
  14   2   4   13.83    2.87
  14  -2  -4    8.50    2.63
  14  -2  -4   10.11    2.64
   2  14   6   81.26    5.92
   2 -14  -6   81.61    4.65
 -14  -2   6   79.98    4.98
  14  -2  -6   78.59    6.55
  -2  14  -6   69.33    5.73
  14   2   6   75.32    4.08
  14   2   6   74.60    5.62
   2  14   8   63.64    5.28
 -14  -2   8   58.54    4.36
  14  -2  -8   69.20    6.69
  -2  14  -8   52.00    5.25
  14   2   8   60.63    5.11
 -14  -2  10   51.70    4.18
  -2  14 -10   53.25    5.48
  14   2  10   45.11    4.46
  14  -2 -10   38.33    5.05
  14   2  12    0.80    1.87
  -2  14 -12    3.00    1.97
  -2  14 -14   30.65    4.65
  14  -2 -14   34.48    5.19
  14   2  14   29.52    3.81
  -2  14 -16   10.21    3.07
  14   2  16   18.36    4.01
  14  -2 -16   15.15    4.05
  -2  14 -18    0.44    1.86
  14   2  18    3.93    2.80
  14  -2 -18    6.06    3.53
  -2  14 -20    2.21    2.10
   3  14 -21    4.74    2.72
  14   3 -19   14.19    4.14
  14  -3  19   10.59    3.56
   3  14 -19   21.31    4.37
  14   3 -17   14.60    4.07
  14  -3  17    6.71    3.27
   3  14 -17   13.15    3.47
  14  -3  15    4.26    2.32
   3  14 -15    1.49    1.93
  14   3 -15    6.92    3.14
  14  -3  13    3.08    1.87
   3  14 -13   -0.75    1.79
   3  14 -13    0.94    1.70
  14   3 -13    1.61    2.37
  14   3 -11   74.30    7.21
   3  14 -11   78.88    6.55
  14  -3  11   74.41    6.46
  -3  14  11   80.00    5.35
  -3  14   9   14.31    2.49
  14   3  -9    8.42    2.99
   3 -14   9   13.91    2.05
   3  14  -9   12.22    2.84
  14  -3   9   10.97    2.58
   3 -14   7   10.57    1.88
  -3  14   7   11.68    2.33
  14   3  -7   10.32    3.50
   3  14  -7   10.58    2.58
  14  -3   7    9.68    2.28
  -3 -14  -5  165.38    7.77
  14   3  -5  164.87    9.57
  -3  14   5  170.16    7.94
   3  14  -5  149.78    8.33
  14  -3   5  162.79    7.66
   3 -14   5  165.63    5.80
  14  -3   3  134.38    7.75
  -3 -14  -3  134.67    7.04
  14   3  -3  134.68    8.51
   3  14  -3  138.97    7.86
  -3  14   3  145.96    7.54
  14   3  -3  135.02    6.89
  14   3  -3  129.16    7.97
  14  -3   1   80.31    6.12
  14   3  -1   79.79    6.42
   3  14  -1   83.00    6.10
  -3 -14  -1   83.54    5.58
  -3  14   1   83.72    5.86
  14   3  -1   74.01    6.01
  14   3  -1   78.38    5.46
  14   3   1   76.84    5.53
   3  14   1   83.71    6.15
  14   3   1   78.73    5.90
  -3  14  -1   74.91    5.64
  14   3   1   81.36    6.03
  14  -3  -1   75.61    5.89
  14   3   3  124.56    6.80
   3  14   3  130.07    7.54
 -14  -3   3  138.45    6.81
   3 -14  -3  135.18    5.85
  -3  14  -3  126.55    7.43
  14   3   3  130.45    7.42
  14  -3  -3  126.27    7.53
   3  14   5  171.38    8.60
   3 -14  -5  173.93    6.39
 -14  -3   5  162.99    7.28
  14  -3  -5  168.97    8.96
  -3  14  -5  163.97    8.59
  14   3   5  162.75    8.19
  14   3   5  165.18    6.93
   3  14   7   10.90    2.46
 -14  -3   7   11.05    2.14
  14   3   7   12.08    1.79
  14  -3  -7   10.16    2.88
  14   3   7   10.71    2.81
  -3  14  -7    7.48    2.36
 -14  -3   9   15.44    2.52
  14   3   9   14.97    3.07
  -3  14  -9   12.04    2.95
  14  -3  -9   11.27    3.52
  14  -3 -11   67.12    6.82
  -3  14 -11   71.63    6.45
  14   3  11   80.17    5.93
  -3  14 -13    3.07    1.99
  14  -3 -13   -1.22    2.53
  14   3  13    6.40    2.55
  -3  14 -15    3.24    2.28
  14  -3 -15    3.28    2.97
  -3  14 -17   12.80    3.34
  14   3  17   13.51    3.87
  -3  14 -19   14.00    3.66
  14   3  19   20.42    4.76
   4  14 -22   19.98    4.72
   4  14 -20    1.69    2.60
  14  -4  18    1.76    2.16
   4  14 -18    3.58    2.30
  14   4 -18    6.01    3.27
  14  -4  16    5.14    2.93
   4  14 -16    6.02    2.68
  14   4 -16    2.37    2.69
  14   4 -14   14.91    3.72
  14  -4  14    8.05    2.91
   4  14 -14    9.97    2.56
   4  14 -14   10.84    2.44
  14   4 -12   13.25    3.83
   4  14 -12   10.76    2.86
  14  -4  12   11.28    3.10
   4  14 -12   10.92    2.58
  -4  14  12   10.89    2.18
   4 -14  10    8.43    2.04
  -4  14  10    4.90    1.65
  14   4 -10    4.55    2.98
   4  14 -10    5.73    2.21
  14  -4  10    7.40    2.46
   4 -14   8   76.82    4.52
  -4  14   8   90.27    5.67
  14   4  -8   82.16    7.27
   4  14  -8   89.34    6.68
  14  -4   8   88.84    6.56
   4 -14   6    8.31    1.85
  -4 -14  -6    7.93    2.23
  -4  14   6    4.95    1.58
   4  14  -6   10.26    2.78
  14  -4   6    7.22    2.07
  14   4  -6   11.75    3.41
  14   4  -4   13.01    3.16
  14  -4   4   14.76    3.27
  -4 -14  -4   17.07    2.86
   4 -14   4   17.07    2.24
   4  14  -4   14.51    3.02
  -4  14   4   15.10    2.70
  14  -4   4   15.86    2.67
  14   4  -4   14.46    3.18
  14   4  -4   15.25    2.60
  14  -4   2   84.21    6.28
  14   4  -2   76.70    5.18
  -4 -14  -2   90.29    5.99
   4  14  -2   76.16    5.92
  14   4  -2   82.83    6.67
  -4  14   2   82.23    5.78
  14  -4   2   84.11    5.04
  14   4  -2   74.47    6.08
  14   4   0  142.82    7.13
   4  14   0  138.03    7.96
  -4 -14   0  145.98    7.62
  14  -4   0  140.13    5.39
  14   4   0  130.19    7.91
  -4  14   0  147.28    7.74
  14   4   0  154.91    8.31
  14  -4   0  140.91    8.02
   4  14   2   82.26    6.16
  14   4   2   81.60    5.62
 -14  -4   2   75.43    5.27
  14   4   2   74.39    5.77
  -4  14  -2   78.12    5.82
  14   4   2   76.18    5.92
  14  -4  -2   69.96    5.83
   4  14   4   17.30    3.20
 -14  -4   4   15.52    2.53
   4 -14  -4   17.05    2.07
  -4  14  -4    9.60    2.32
  14   4   4   14.77    2.85
  14   4   4   13.09    2.89
  14  -4  -4   19.16    3.46
  -4  14  -6    7.97    2.53
   4  14   6    9.29    2.59
 -14  -4   6    8.80    2.06
  14   4   6    8.47    2.09
  14   4   6    7.70    2.53
 -14  -4   8   82.47    5.51
  -4  14  -8   72.64    6.23
  14   4   8   80.74    6.00
  -4  14 -10    9.85    2.76
 -14  -4  10    7.69    2.07
  14   4  10   14.60    3.35
  -4  14 -12   15.82    3.56
  -4  14 -14    4.52    2.41
  -4  14 -16    7.65    3.03
  -4  14 -18   -0.11    1.90
  14   4  18    7.15    3.58
  -4  14 -20    2.42    2.30
   5  14 -21    2.18    3.02
   5  14 -21   -4.16    2.61
  14  -5  19    0.17    2.30
   5  14 -19   -0.36    2.06
  14   5 -17   24.06    5.03
  14  -5  17   24.20    4.27
   5  14 -17   19.77    3.99
  14   5 -15   44.90    6.21
   5  14 -15   47.14    5.58
  14  -5  15   44.42    5.69
  14   5 -13    8.69    3.74
   5  14 -13   10.55    3.00
  14  -5  13    9.22    2.91
   5  14 -13   10.68    2.58
  -5  14  11   13.24    2.36
   5  14 -11   14.81    3.26
  14  -5  11   14.57    3.34
  14   5 -11   18.41    4.36
   5  14 -11   20.09    3.35
   5 -14   9    5.77    1.90
  -5  14   9    9.14    1.93
   5  14  -9   14.06    2.97
  14  -5   9    9.86    2.73
  14   5  -9    6.61    3.30
  -5  14   7  106.69    6.18
   5  14  -7  107.07    7.10
  14   5  -7  110.52    8.38
  14  -5   7  103.44    7.02
  14   5  -7  102.00    7.50
   5 -14   7  105.65    5.42
  14  -5   5   44.17    4.80
  -5 -14  -5   48.94    4.69
   5  14  -5   43.57    4.72
  -5  14   5   47.81    4.32
  14   5  -5   46.05    5.45
  14  -5   5   46.76    4.51
  14   5  -5   46.03    5.10
   5 -14   5   42.83    3.60
  14   5  -3   27.74    3.26
  14  -5   3   31.72    4.15
  -5 -14  -3   28.87    3.56
   5  14  -3   29.02    3.92
  14  -5   3   31.77    3.53
  14   5  -3   33.84    4.75
  -5  14   3   26.33    3.42
  14   5  -3   33.27    4.44
  14   5  -1   14.67    2.53
  14  -5   1   14.09    3.11
  -5 -14  -1   17.91    3.02
   5  14  -1   17.07    3.00
  14  -5   1   12.38    2.20
  -5  14   1   12.29    2.61
  14   5  -1   21.51    3.84
  14   5  -1   16.04    3.28
  14  -5  -1   11.36    3.04
  14   5   1   11.96    2.67
   5  14   1   13.38    2.91
 -14  -5   1   12.03    2.42
  14  -5  -1    9.13    1.73
  -5  14  -1   12.80    2.57
  14   5   1   10.94    2.71
  14   5   1   14.26    3.30
   5  14   3   35.35    4.25
 -14  -5   3   25.81    3.36
   5 -14  -3   30.78    2.67
  14  -5  -3   27.18    2.23
  14   5   3   23.86    3.56
  14   5   3   30.79    4.05
  -5  14  -3   26.13    3.66
  14  -5  -3   31.90    4.16
   5  14   5   52.44    5.09
   5 -14  -5   41.89    2.95
 -14  -5   5   52.82    4.59
  14   5   5   43.62    4.24
  -5  14  -5   41.92    4.60
  14   5   5   46.87    4.86
 -14  -5   7  107.02    6.46
  14   5   7  100.70    5.57
  -5  14  -7  107.06    7.36
  14   5   7  111.97    7.14
  -5  14  -9    6.55    2.42
 -14  -5   9   10.02    2.26
  -5  14 -11   23.54    4.08
  -5  14 -13   11.52    3.20
  -5  14 -15   41.81    5.54
  -5  14 -17   24.00    4.44
  -5  14 -19    4.34    3.06
   5  14  21    1.17    2.65
   6  14 -20   11.75    4.02
  14   6 -18   47.26    6.77
  14  -6  18   33.27    5.21
   6  14 -18   41.18    5.67
  14   6 -16    7.14    3.73
   6  14 -16    1.99    1.94
  14  -6  16    6.21    2.68
   6  14 -14   24.85    4.14
  14  -6  14   34.12    5.06
  14   6 -14   19.67    4.56
   6  14 -14   23.66    3.64
   6  14 -12   85.70    6.98
  14   6 -12   93.59    8.48
  14  -6  12   95.11    7.51
   6  14 -12   97.27    6.37
   6 -14  10   58.82    4.55
  -6  14  10   53.66    4.21
   6  14 -10   58.18    5.51
  14  -6  10   58.20    5.69
  14   6 -10   66.90    6.97
   6 -14   8   67.18    4.71
  -6  14   8   70.15    5.00
   6  14  -8   67.11    5.88
  14  -6   8   67.64    5.87
  14   6  -8   60.78    6.55
  14   6  -8   61.31    5.95
  -6 -14  -6   85.77    6.23
   6  14  -6   76.86    6.20
  -6  14   6   87.50    5.67
  14  -6   6   84.72    6.22
  14   6  -6   76.74    6.52
  14   6  -6   79.34    7.12
   6 -14   6   83.41    5.14
  14  -6   4   99.14    7.02
  -6 -14  -4   98.39    6.57
   6  14  -4  100.56    6.91
  -6  14   4  102.33    6.28
  14  -6   4   87.06    5.83
  14   6  -4   95.11    6.97
  14   6  -4   93.95    7.19
   6 -14   4   92.43    5.29
  14  -6   2   73.66    6.06
  14   6  -2   82.42    6.62
   6  14  -2   77.28    6.03
  -6 -14  -2   84.60    6.09
  14  -6   2   81.06    5.11
  -6  14   2   71.44    5.40
  14   6  -2   74.19    6.04
  14   6  -2   71.99    4.84
  14  -6   0    7.09    2.71
  14   6   0    4.10    1.78
 -14  -6   0    4.25    1.75
  14   6   0    7.96    2.57
   6  14   0    4.03    2.20
  -6 -14   0    4.64    2.01
  14  -6   0    7.44    1.74
  -6  14   0    6.12    2.13
  14   6   0    8.43    2.92
   6  14   2   70.20    5.86
  14   6   2   85.52    5.60
 -14  -6   2   78.86    5.70
  14   6   2   72.78    5.83
  14  -6  -2   81.40    3.53
  -6  14  -2   72.30    5.68
  14   6   2   84.76    6.34
  14  -6  -2   73.72    6.04
   6  14   4   99.09    6.87
   6 -14  -4  101.67    4.23
 -14  -6   4   94.53    6.17
  14   6   4   97.30    6.30
  -6  14  -4  100.95    6.87
  14   6   4  101.40    6.97
 -14  -6   6   87.17    5.98
  14   6   6   81.29    5.42
  -6  14  -6   70.23    6.00
 -14  -6   8   66.08    5.41
  -6  14  -8   60.66    5.92
  14   6   8   70.40    4.72
  -6  14 -10   56.13    5.88
  -6  14 -12   84.37    7.42
  -6  14 -14   21.33    4.19
  -6  14 -16    3.51    2.60
  -6  14 -18   45.40    6.26
   7  14 -19    6.76    3.15
  14  -7  19    9.63    3.66
   7  14 -17   31.33    4.86
  14  -7  17   42.87    5.71
  14   7 -17   45.21    6.65
   7  14 -15   44.63    5.49
  14  -7  15   43.07    5.55
  14   7 -15   42.78    6.49
   7  14 -15   43.47    4.74
   7  14 -13   68.54    6.39
  14  -7  13   64.97    6.41
  14   7 -13   62.38    7.26
   7  14 -13   73.63    5.86
   7  14 -11   40.32    4.95
  14   7 -11   49.63    6.46
  14  -7  11   47.25    5.46
   7  14 -11   48.45    4.85
   7 -14   9   33.57    3.73
  -7  14   9   34.92    3.50
   7  14  -9   32.02    4.25
  14  -7   9   36.63    4.49
  14   7  -9   26.00    4.29
  14   7  -9   35.12    5.33
   7  14  -7  147.75    8.56
  -7  14   7  152.58    7.30
  14  -7   7  147.14    8.14
  14   7  -7  156.32    9.24
  14   7  -7  150.43    9.57
   7 -14   7  156.03    7.33
  14  -7   5  137.17    8.32
   7  14  -5  128.55    7.93
  -7 -14  -5  129.85    7.74
  14   7  -5  125.17    8.48
  -7  14   5  126.81    6.96
  14  -7   5  123.24    6.84
  14   7  -5  126.35    8.16
   7 -14   5  127.57    6.55
  14  -7   3    5.14    2.42
  14   7  -3   11.21    3.41
  -7 -14  -3    7.52    2.48
   7  14  -3    8.04    2.44
   7 -14   3    2.88    1.65
  14  -7   3    6.99    1.81
  -7  14   3    6.27    2.11
  14   7  -3    4.73    2.32
  14   7  -3    4.23    1.73
   7  14  -1  192.23    9.54
  -7 -14  -1  192.73    9.29
  14  -7   1  189.84    6.57
  -7  14   1  209.55    9.27
  14   7  -1  187.42    9.42
  14   7  -1  197.06    7.69
  14  -7   1  194.47    9.68
   7  14   1  190.22    9.52
  14   7   1  197.20    8.09
 -14  -7   1  192.32    9.13
  -7 -14   1  194.03    9.37
  14  -7  -1  191.36    5.19
  -7  14  -1  189.55    9.13
  14   7   1  193.05    9.37
  14  -7  -1  197.16    9.73
   7 -14  -3    5.41    1.15
  -7  14  -3    6.40    1.98
   7  14   3    7.76    2.40
 -14  -7   3    7.70    2.24
  14   7   3    6.63    2.71
  14  -7  -3    6.85    2.55
 -14  -7   5  131.47    7.52
  -7  14  -5  118.35    7.71
 -14  -7   7  150.02    8.10
  -7  14  -7  147.70    9.01
  -7  14  -9   28.13    4.26
 -14  -7   9   32.43    3.96
  -7  14 -11   37.75    5.22
  -7  14 -13   50.48    6.05
  -7  14 -15   31.26    5.04
  -7  14 -17   42.43    5.90
   8  14 -18    0.28    2.14
  14  -8  18    1.08    2.14
   8  14 -16   21.24    4.10
  14  -8  16   26.04    4.60
  14   8 -16   23.78    5.49
  14   8 -14   38.07    6.11
   8  14 -14   30.64    4.68
  14  -8  14   34.05    5.03
   8  14 -14   30.86    4.22
   8  14 -12   18.03    3.47
  14  -8  12   17.99    3.67
  14   8 -12   14.15    3.87
   8  14 -12   24.24    3.88
   8 -14  10   70.86    5.52
   8  14 -10   74.56    6.45
  14  -8  10   69.49    6.25
  14   8 -10   70.67    6.78
   8  14 -10   78.24    6.16
  14   8 -10   67.54    7.02
   8 -14   8  122.56    6.86
  14   8  -8  118.03    8.82
   8  14  -8  119.75    7.88
  -8  14   8  123.93    6.44
  14  -8   8  117.04    7.44
  14   8  -8  124.58    8.45
   8 -14   6   -0.94    1.51
  14  -8   6   -0.31    2.20
  14   8  -6    3.07    2.77
   8  14  -6    2.13    1.82
 -14   8   6    0.15    0.99
  14  -8   6    1.34    1.63
  -8  14   6   -0.08    1.20
  14   8  -6    2.73    2.31
  14  -8   4  188.29    9.76
   8  14  -4  189.78    9.61
  -8 -14  -4  190.56    9.52
  14  -8   4  180.77    7.54
  -8  14   4  161.95    7.92
  14   8  -4  180.45    9.55
   8 -14   4  181.60    8.13
   8  14  -2  174.24    9.17
  -8 -14  -2  181.65    9.23
  14  -8   2  176.01    6.41
  -8  14   2  183.45    8.67
  14   8  -2  160.99    8.83
   8 -14   2  181.45    8.18
  14   8  -2  170.07    6.87
  14  -8   2  182.06    9.42
  14   8   0   12.75    2.43
  14  -8   0   10.90    2.92
   8  14   0   14.15    3.09
 -14  -8   0   15.28    3.24
  -8 -14   0   13.24    3.04
  14  -8   0   11.76    1.45
  14   8   0   15.11    3.46
  -8  14   0   12.66    2.70
  14   8   2  183.54    7.77
 -14  -8   2  192.15    9.24
  -8 -14   2  187.84    9.35
   8  14   2  177.02    9.35
  -8  14  -2  183.38    9.18
  14  -8  -2  184.72    9.54
  14   8   2  173.46    9.18
 -14  -8   4  183.66    9.02
  -8  14  -4  175.16    9.35
  -8  14  -6    0.28    1.70
 -14  -8   6    3.89    2.33
 -14  -8   8  113.61    7.35
  -8  14  -8  107.57    8.02
  -8  14 -10   63.25    6.44
  -8  14 -12   13.60    3.76
  -8  14 -14   32.13    5.07
  -8  14 -16   20.20    4.34
   9  14 -17    8.23    2.63
  14  -9  17    6.15    2.55
  14   9 -15    7.64    3.59
   9  14 -15    1.83    2.13
  14  -9  15    3.21    2.36
   9  14 -15    8.85    3.11
   9  14 -13   29.47    4.67
  14  -9  13   25.45    4.20
  14   9 -13   22.52    4.75
   9  14 -13   25.20    4.04
   9 -14  11   32.90    4.21
  14   9 -11   31.20    5.25
   9  14 -11   24.06    3.87
  14  -9  11   31.26    4.46
  14   9 -11   36.19    4.99
   9  14 -11   29.98    4.37
   9 -14   9    3.43    1.92
  14   9  -9    5.48    3.11
   9  14  -9    2.56    1.85
  14  -9   9    0.34    1.57
  14   9  -9   -1.08    2.43
   9  14  -9    5.22    2.79
  14  -9   7   78.56    6.72
   9  14  -7   69.27    6.06
  14  -9   7   77.18    5.73
  -9  14   7   84.55    5.50
  14   9  -7   93.31    7.75
  14   9  -7   81.03    6.86
   9 -14   7   81.10    5.86
  14  -9   5  163.30    9.31
 -14   9   5  163.72    7.19
   9  14  -5  145.23    8.51
  -9 -14  -5  157.99    9.04
  14  -9   5  158.26    7.23
  -9  14   5  165.18    7.89
  14   9  -5  157.83    9.10
   9 -14   5  157.63    7.96
   9  14  -3   42.94    4.72
  14  -9   3   44.11    5.07
  -9 -14  -3   39.38    4.68
 -14   9   3   44.40    4.16
  14  -9   3   41.22    3.27
  -9  14   3   37.23    4.09
   9 -14   3   38.91    4.12
  14   9  -3   40.05    4.97
   9  14  -1  131.98    8.19
 -14  -9  -1  140.46    8.28
  -9 -14  -1  155.27    8.73
  14   9  -1  136.10    6.08
  -9  14   1  151.46    8.20
  14   9  -1  143.58    8.56
  14  -9   1  137.95    8.30
  14  -9  -1  146.35    8.66
 -14  -9   1  137.11    8.03
  -9 -14   1  147.21    8.54
  14   9   1  142.57    8.51
  14   9   1  144.27    6.57
  -9  14  -1  155.34    8.44
   9  14   1  143.45    8.56
 -14  -9   3   43.39    4.74
  -9 -14   3   44.63    4.97
  -9  14  -3   43.48    4.89
 -14  -9   5  153.29    8.59
  -9  14  -5  148.67    8.98
 -14  -9   7   87.85    6.73
  -9  14  -7   67.47    6.43
 -14  -9   9    0.44    1.62
  -9  14  -9    0.57    1.84
  -9  14 -11   23.39    4.19
  -9  14 -13   19.74    4.11
  -9  14 -15   -3.19    2.83
  14 -10  18   -1.34    2.16
  10  14 -16   10.37    3.16
  14 -10  16    5.45    2.91
  10  14 -14    3.71    2.18
  14 -10  14    5.95    2.68
  14  10 -14    6.96    3.66
  10  14 -14    3.05    2.58
  10 -14  12    4.57    2.51
  10  14 -12    1.80    1.80
  14 -10  12    1.04    1.68
  14  10 -12    5.39    2.79
  10  14 -12    2.00    2.32
  10 -14  10   25.02    3.74
  14 -10  10   25.68    3.81
  10  14 -10   25.67    4.04
  14  10 -10   25.49    4.59
  14  10 -10   28.71    4.72
  10  14 -10   27.80    4.27
  10 -14   8   17.68    3.32
  14 -10   8   21.12    3.96
  10  14  -8   15.13    3.18
  14 -10   8   16.89    2.84
  14  10  -8   23.05    4.16
  10  14  -8   26.20    4.20
  14 -10   6   59.87    5.89
  10  14  -6   57.09    5.68
  14 -10   6   61.59    4.74
 -10  14   6   67.57    5.09
  14  10  -6   53.29    5.73
  10 -14   6   59.42    5.34
 -14  10   4   29.81    3.40
  10 -14   4   32.64    4.03
  14 -10   4   36.55    4.74
  10  14  -4   30.94    4.21
 -10 -14  -4   26.98    4.08
  14 -10   4   33.04    3.12
 -10  14   4   38.14    4.08
  14  10  -4   34.41    4.74
  14 -10   2   45.36    5.08
  10  14  -2   39.66    4.68
 -10 -14  -2   46.93    5.10
 -14  10   2   39.72    4.17
  10 -14   2   45.19    4.56
 -10  14   2   42.33    4.37
  14  10  -2   48.68    5.27
  14  10  -2   44.14    3.49
 -14 -10   0   53.09    5.40
 -10 -14   0   66.94    6.03
  14 -10   0   52.24    5.39
 -10  14   0   55.66    5.22
  14  10   0   62.03    5.97
  14  10   0   53.08    3.88
  10  14   0   53.49    5.42
  14  10   2   42.95    3.77
 -14 -10   2   40.56    4.67
 -10 -14   2   51.03    5.35
  14 -10  -2   40.36    4.89
 -10  14  -2   41.62    4.68
 -10  14  -4   28.02    4.09
 -14 -10   4   35.37    4.41
 -10 -14   4   29.13    4.15
 -14 -10   6   65.45    5.88
 -10  14  -6   56.93    5.86
 -14 -10   8   14.39    3.09
 -10  14  -8   19.14    3.82
 -10  14 -10   22.82    4.28
 -10  14 -12    3.60    2.42
 -10  14 -14    6.87    3.01
  14 -11  17    0.14    2.24
  11  14 -15   10.00    3.45
  14 -11  15    8.40    2.89
  11  14 -15    6.86    2.81
  11  14 -13    4.52    2.79
  14 -11  13    1.67    1.80
  14  11 -13    6.01    3.56
  11  14 -13    1.15    2.25
  11 -14  11   11.97    3.11
  11  14 -11   14.25    3.20
  14 -11  11   10.30    2.83
  14  11 -11   16.54    4.13
  14  11 -11    8.42    3.37
  11  14 -11   10.87    2.94
  11 -14   9   37.85    4.73
  14 -11   9   30.59    4.64
  11  14  -9   34.25    4.54
  14 -11   9   29.90    4.00
  14  11  -9   30.11    4.79
  11  14  -9   28.47    4.40
  11 -14   7    9.75    2.81
  14 -11   7   13.08    3.65
  11  14  -7   14.12    3.19
  14 -11   7   14.80    2.55
  14  11  -7    4.67    2.64
  11  14  -7   17.13    3.72
  11 -14   5   31.68    4.16
  11  14  -5   34.83    4.56
 -11  14   5   36.79    3.96
  14  11  -5   31.04    4.54
  14 -11   5   33.82    4.80
  11 -14   3   -0.12    1.98
  14 -11   3   -0.39    2.20
 -11 -14  -3    1.67    1.81
 -14  11   3    3.71    1.55
  11  14  -3    1.00    1.73
 -11  14   3    2.29    1.34
  11 -14   1   12.66    3.07
 -14 -11  -1    9.00    2.72
 -11 -14  -1   11.46    3.01
 -14  11   1    8.28    2.25
 -11  14   1    7.77    2.20
  14 -11   1    7.12    2.73
  14  11  -1    9.49    3.39
 -11  14  -1   10.15    2.57
 -14 -11   1    9.27    2.80
 -11 -14   1   10.15    2.91
 -14  11  -1   10.23    2.55
  14 -11  -1   12.10    3.25
  14  11   3    3.58    1.85
 -14 -11   3    3.76    1.91
 -11  14  -3    3.79    1.79
 -11 -14   3    3.74    2.06
 -14 -11   5   44.44    5.00
 -11 -14   5   35.53    4.79
 -11  14  -5   31.07    4.48
 -14 -11   7   13.68    3.11
 -11  14  -7    9.16    2.83
 -14 -11   9   31.45    4.46
 -11  14  -9   30.13    4.81
 -11  14 -11   10.43    3.29
 -11  14 -13    0.28    1.89
  14 -12  16   16.41    4.06
  12  14 -14   13.18    3.58
  14 -12  14   16.23    3.85
  12  14 -14   20.72    4.08
  12 -14  12   32.94    4.87
  14 -12  12   23.47    4.56
  12  14 -12   25.43    4.51
  14  12 -12   29.50    5.29
  14 -12  12   25.45    4.10
  14  12 -12   28.81    4.74
  12  14 -12   30.99    4.74
  12 -14  10   65.31    6.22
  14 -12  10   70.51    6.77
  12  14 -10   58.74    6.13
  14 -12  10   60.72    5.67
  14  12 -10   68.61    7.10
  12  14 -10   63.12    6.37
  12 -14   8    8.42    2.62
  14 -12   8    8.43    2.95
  14 -12   8    8.46    2.23
  12  14  -8   14.08    3.61
  12  14  -8    5.09    2.23
  14  12  -8    2.93    2.54
  12 -14   6    5.16    2.30
  14 -12   6    5.04    2.92
  12  14  -6    7.10    2.72
  14  12  -6    6.63    2.84
  12  14  -6    6.58    2.87
  12 -14   4   36.88    4.63
  14 -12   4   34.19    4.67
 -12 -14  -4   34.21    4.67
 -12  14   4   36.33    4.07
 -14  12   4   34.60    3.93
  14  12  -4   38.46    5.12
  12  14  -4   39.46    4.95
  14 -12   2   14.25    3.20
 -12  14   2   12.22    2.78
  12 -14   2   12.73    3.12
 -14 -12  -2   12.49    3.13
 -12 -14  -2   10.92    3.05
 -14  12   2   11.95    2.60
  14  12  -2   13.11    3.38
 -12  14   0   -0.39    1.38
 -14 -12   0    0.70    1.63
 -12 -14   0    1.43    2.16
 -14  12   0    1.41    1.43
  14 -12   0    0.04    1.94
 -14 -12   2    9.48    2.63
 -12  14  -2   11.98    2.89
 -12 -14   2    9.55    2.79
 -14  12  -2   12.93    2.91
 -14 -12   4   38.41    4.89
 -12 -14   4   44.16    5.15
 -12  14  -4   36.93    4.84
 -14  12  -4   33.17    4.66
 -14 -12   6    7.59    2.50
 -12 -14   6    5.83    2.47
 -12  14  -6    4.81    2.20
 -14  12  -6    7.00    2.50
 -14 -12   8    8.27    2.58
 -12  14  -8   -0.03    1.90
 -12  14 -10   47.49    6.21
 -12  14 -12   21.56    4.49
  14 -13  15   41.73    5.82
  13 -14  13   16.60    3.95
  14 -13  13   10.14    3.57
  13  14 -13   16.63    4.09
  14 -13  13   11.92    3.22
  14  13 -13   18.46    4.57
  13  14 -13   14.98    3.73
  13 -14  11   31.44    4.88
  14 -13  11   32.93    5.22
  13  14 -11   26.19    4.38
  14  13 -11   40.54    5.52
  13  14 -11   39.72    5.38
  13 -14   9   59.63    6.12
  14 -13   9   55.11    6.19
  13  14  -9   59.23    6.32
  14  13  -9   54.64    6.21
  13  14  -9   53.24    5.97
  13 -14   7   38.13    4.98
  13  14  -7   31.36    4.87
  14  13  -7   31.55    4.79
  14 -13   7   24.97    4.28
  13  14  -7   41.83    5.23
  13 -14   5   39.48    4.85
  14 -13   5   43.62    5.32
  13  14  -5   52.07    5.89
  14  13  -5   38.14    5.08
  13 -14   3   19.67    3.73
  14 -13   3   29.59    4.46
 -13  14   3   25.99    3.66
 -14  13   3   25.86    3.56
 -13 -14  -3   19.39    3.87
  14  13  -3   31.43    4.88
 -13  14   1   18.16    3.19
 -14 -13  -1   23.37    4.12
 -13 -14  -1   32.92    4.76
  13 -14   1   20.68    3.60
 -14  13   1   20.13    3.35
  14 -13   1   28.61    4.29
 -14 -13   1   21.43    3.91
 -13 -14   1   21.95    3.79
 -13  14  -1   18.77    3.42
 -14  13  -1   28.29    4.19
 -14 -13   3   24.19    4.03
 -13 -14   3   27.29    4.32
 -13  14  -3   22.01    3.89
 -14  13  -3   24.31    4.03
 -14  13  -5   46.19    5.54
 -14 -13   5   40.24    5.46
 -13 -14   5   37.95    5.07
 -13  14  -5   39.89    5.15
 -14 -13   7   39.75    5.23
 -13 -14   7   41.52    5.32
 -13  14  -7   35.01    5.14
 -14  13  -7   40.35    5.42
 -13  14  -9   51.42    6.21
 -14  13  -9   54.30    6.52
 -14 -13   9   63.78    6.74
 -13  14 -11   26.07    4.89
 -14  13 -11   20.52    4.27
  14 -14  14   13.59    4.27
  14  14 -14   16.30    4.38
  14 -14  12   -0.19    2.67
  14  14 -12    6.12    3.47
  14 -14  10   38.76    5.26
  14  14 -10   41.97    5.53
  14 -14   8   20.81    4.02
  14  14  -8   28.53    4.80
  14 -14   6   -4.56    2.55
  14  14  -6    1.84    2.91
  14 -14   4   28.15    4.34
  14  14  -4   24.99    4.56
 -14  14   2   22.94    3.51
 -14 -14  -2   15.07    3.40
  14 -14   2   15.90    3.41
 -14 -14   0   30.95    4.56
 -14  14   0   32.64    4.44
 -14 -14   2   17.68    3.74
 -14  14  -2   18.33    3.63
 -14 -14   4   25.04    4.20
 -14  14  -4   20.99    3.97
 -14 -14   6   -0.41    2.18
 -14  14  -6   -1.07    2.12
 -14 -14   8   26.91    4.67
 -14  14  -8   25.72    4.58
 -14 -14  10   48.95    6.00
 -14  14 -10   37.63    5.70
  15   0   1   79.53    6.03
   0  15   1   91.83    6.51
   0  15  -1   78.57    6.09
  15   0   1   85.57    5.72
  15   0  -1   83.28    6.13
  15   0  -1   84.70    6.14
  15   0   3  131.91    7.69
   0 -15  -3  134.16    6.75
   0  15   3  142.00    7.95
   0  15  -3  137.04    8.07
  15   0   3  126.75    6.07
  15   0  -3  131.88    8.27
  15   0  -3  120.93    7.29
   0 -15  -5    6.84    1.87
   0  15   5    7.61    2.12
  15   0  -5   13.76    3.42
   0  15  -5    7.29    2.23
   0  15   7   50.11    4.68
 -15   0   7   51.24    3.80
  15   0  -7   42.57    5.39
   0  15  -7   47.41    5.07
  15   0   7   45.64    4.74
   0  15   9  220.88    9.73
 -15   0   9  220.00    7.71
   0  15  -9  211.36   10.59
  15   0  -9  208.72   11.54
  15   0   9  209.89    9.51
  15   0 -11   27.19    4.78
  15   0  11   38.50    4.75
  15   0  11   30.23    3.81
   0  15 -11   36.77    4.85
  15   0 -13   52.66    6.36
   0  15 -13   53.48    5.90
  15   0  13   58.72    6.21
  15   0  15   67.94    7.10
   0  15 -15   67.20    6.75
  15   0 -15   66.95    7.34
  15   0 -17   16.11    4.21
  15   0  17   16.33    4.04
   0  15 -17   18.04    3.81
   0  15 -19    3.91    2.51
   1  15 -20   28.51    4.87
  15   1 -18   18.73    4.65
  15  -1  18   16.94    4.33
   1  15 -18   20.89    4.33
  15   1 -16   13.85    3.78
  15  -1  16    8.18    3.26
   1  15 -16   12.90    3.28
  15   1 -14   24.09    4.84
  15  -1  14   33.54    4.95
   1  15 -14   30.44    4.65
   1  15 -12  107.10    7.95
  15  -1  12  110.88    8.02
  15   1 -12  106.22    8.66
  -1  15  10   94.25    6.30
   1  15 -10   80.63    6.76
  15  -1  10   85.14    6.70
  15   1 -10   98.86    8.35
  -1  15   8   64.32    5.24
   1  15  -8   60.74    5.72
  15   1  -8   67.67    6.77
  -1  15   6   92.20    6.33
  -1 -15  -6   82.08    5.49
   1  15  -6   81.41    6.43
  15   1  -6   85.18    7.21
  -1 -15  -4  123.03    6.59
  -1  15   4  123.33    7.33
   1  15  -4  117.23    7.50
  15   1  -4  107.28    7.75
  15   1  -4  119.43    7.02
  15  -1   2   46.28    4.75
  15   1  -2   32.95    3.84
  -1 -15  -2   40.35    3.99
  -1  15   2   45.25    4.62
   1  15  -2   38.64    4.41
  15  -1   2   42.17    3.76
  15   1  -2   49.91    5.17
  15   1   0  121.93    7.25
   1  15   0  132.95    7.77
  -1  15   0  128.26    7.61
  15  -1   0  133.88    7.17
  15   1   0  127.07    7.39
  15  -1   0  118.68    7.32
  15  -1  -2   41.74    4.57
  15   1   2   45.35    4.68
   1  15   2   39.35    4.45
   1 -15  -2   43.42    3.86
  -1  15  -2   48.29    4.89
  15  -1  -2   48.32    4.84
  15   1   2   48.03    4.23
  15   1   2   39.31    4.48
   1  15   4  116.29    7.30
   1 -15  -4  109.35    5.90
  -1  15  -4  116.63    7.51
  15  -1  -4  113.01    7.77
  15   1   4  118.99    5.80
  15   1   4  112.47    7.22
  15  -1  -4  117.47    7.22
   1  15   6   85.37    6.24
 -15  -1   6   87.67    5.16
   1 -15  -6   86.45    5.21
  15   1   6   81.30    4.11
  -1  15  -6   81.41    6.43
  15  -1  -6   87.80    7.29
  15   1   6   76.79    5.95
   1  15   8   70.30    5.64
 -15  -1   8   65.33    4.50
  -1  15  -8   64.16    5.90
  15  -1  -8   67.31    6.76
  15   1   8   62.80    5.40
 -15  -1  10   85.26    5.21
  -1  15 -10   77.46    6.69
  15  -1 -10   86.09    7.82
  15   1  10   78.09    5.89
   1  15  10   84.22    6.20
  15  -1 -12  113.37    8.99
  -1  15 -12  101.56    7.85
  15   1  12  103.40    6.65
  15   1  14   25.24    4.27
  -1  15 -14   31.71    4.71
  15  -1 -14   23.47    4.79
  15  -1 -16   17.77    4.37
  15   1  16   15.90    3.97
  -1  15 -16    9.73    3.12
  15   1  18   22.64    4.88
  15  -1 -18   23.07    4.89
  -1  15 -18   18.54    4.10
  -1  15 -20   25.92    4.86
   2  15 -21    1.86    2.14
  15  -2  19    0.63    2.36
   2  15 -19    0.09    2.05
  15   2 -17   12.85    3.90
  15  -2  17   11.85    3.62
   2  15 -17   16.43    3.70
  15   2 -15   13.63    4.11
  15  -2  15   15.73    3.85
   2  15 -15   11.11    3.03
  15   2 -13   18.50    4.15
  15  -2  13    7.96    2.92
   2  15 -13   18.53    3.68
  -2  15  11    4.29    1.91
  15  -2  11    6.90    2.54
  15   2 -11    3.86    2.72
   2  15 -11    6.80    2.48
  -2  15   9   20.11    3.11
   2  15  -9   20.87    3.74
  15  -2   9   16.18    3.07
  15   2  -9   22.68    4.37
  -2  15   7   19.83    3.02
   2  15  -7   21.40    3.60
  15  -2   7   23.37    3.41
  15   2  -7   25.32    4.39
  -2 -15  -5   15.64    2.63
  -2  15   5   19.36    3.15
   2  15  -5   14.81    3.11
  15   2  -5   16.18    3.55
  15   2  -3    1.40    1.79
  15  -2   3    2.33    2.21
  -2 -15  -3    1.24    1.39
  -2  15   3   -1.55    1.63
   2  15  -3    1.22    1.70
  15   2  -3    0.82    2.41
  15   2  -1    8.87    2.41
  15  -2   1   10.06    2.99
  -2 -15  -1   12.75    2.69
   2  15  -1    5.90    2.14
  -2  15   1   11.77    2.62
  15   2  -1    5.74    2.63
  15   2  -1   11.45    3.14
  15  -2  -1    8.63    2.82
  15   2   1    8.67    2.65
   2  15   1   12.95    2.82
  15  -2  -1    9.41    2.42
  -2  15  -1    9.57    2.49
  15   2   1    9.08    2.53
  15   2   1   10.85    3.04
  15  -2  -3    0.85    1.94
  15   2   3   -1.08    2.01
   2 -15  -3    2.09    1.33
   2  15   3    3.29    1.92
  15   2   3    2.92    1.67
  -2  15  -3    0.56    1.54
  15  -2  -3    3.01    2.03
  15   2   3    2.11    2.11
 -15  -2   5   19.92    2.77
   2 -15  -5   15.76    2.25
   2  15   5   13.76    2.82
  15   2   5   19.09    2.52
  -2  15  -5   16.71    3.19
  15   2   5   13.88    2.97
  15  -2  -5   20.17    3.65
   2  15   7   17.89    3.18
 -15  -2   7   23.10    2.96
  -2  15  -7   20.10    3.54
  15   2   7   20.75    3.41
  15  -2  -7   19.64    3.84
   2  15   9   19.46    3.32
 -15  -2   9   20.78    2.83
  15   2   9   18.15    3.29
  -2  15  -9   16.57    3.28
  15  -2  -9   16.88    3.88
 -15  -2  11    7.13    1.99
  15   2  11    5.11    2.53
  15  -2 -11    6.48    3.31
  -2  15 -11    3.14    2.18
 -15  -2  13   18.56    2.88
  15  -2 -13   19.28    4.21
  15   2  13   16.57    3.20
  -2  15 -13   13.87    3.51
  -2  15 -15    9.54    3.02
  15   2  15   21.83    4.35
  15  -2 -15   15.09    3.95
  15   2  17   13.54    3.94
  15  -2 -17   18.51    4.38
  -2  15 -17   14.35    3.81
  -2  15 -19    3.33    2.35
   3  15 -20    4.71    2.77
  15   3 -18    6.58    3.18
  15  -3  18    4.32    2.71
   3  15 -18    1.90    2.10
  15   3 -16    7.82    3.25
  15  -3  16    7.38    3.00
   3  15 -16    8.04    2.99
  15  -3  14    8.98    2.90
   3  15 -14    7.61    2.56
  15   3 -14   10.29    3.69
   3  15 -12   11.72    3.13
  15  -3  12    7.13    2.75
  15   3 -12    8.16    3.42
   3  15 -12   11.83    2.68
  15   3 -10   32.46    5.14
  -3  15  10   37.32    3.99
   3  15 -10   30.69    4.28
  15  -3  10   28.49    4.09
  15   3  -8   11.51    3.38
  -3  15   8   17.57    2.91
   3  15  -8   19.23    3.57
  15  -3   8   19.72    3.25
  -3 -15  -6    4.24    1.81
  15   3  -6    0.35    2.33
  -3  15   6    3.89    1.68
   3  15  -6    2.37    1.73
  15  -3   6    3.10    1.62
   3 -15   6    2.77    1.30
  15  -3   4   37.69    4.53
  -3 -15  -4   33.37    3.76
  -3  15   4   31.98    3.86
  15   3  -4   35.09    4.74
   3  15  -4   28.04    3.94
  15   3  -4   31.86    3.79
  15   3  -2   29.65    3.73
  -3 -15  -2   32.08    3.80
  -3  15   2   35.00    4.04
  15   3  -2   26.38    4.04
   3  15  -2   33.79    4.27
  15   3  -2   33.62    4.49
  15  -3   2   34.63    4.49
  15   3   0   89.38    6.13
  15   3   0   87.28    6.53
  -3  15   0   83.32    6.15
   3  15   0   99.34    6.98
  15   3   0   86.40    6.52
  15  -3   0   97.56    6.79
  15  -3  -2   35.05    4.31
  15   3   2   30.13    3.81
  15   3   2   32.74    3.91
   3 -15  -2   33.28    3.27
   3  15   2   33.04    4.09
  -3  15  -2   27.14    3.65
  15   3   2   31.09    4.02
 -15  -3   4   37.60    3.75
   3 -15  -4   34.55    3.19
   3  15   4   28.90    3.78
  -3  15  -4   33.54    4.20
  15   3   4   30.96    4.07
  15   3   4   30.92    3.39
  15  -3  -4   29.02    3.99
   3  15   6    2.87    1.70
 -15  -3   6    4.06    1.65
  15   3   6    5.69    1.70
   3 -15  -6    3.82    1.44
  -3  15  -6    2.84    1.80
  15   3   6    3.75    2.32
   3  15   8   20.33    3.34
 -15  -3   8   20.14    2.85
  15  -3  -8   20.87    4.30
  15   3   8   27.03    3.88
  -3  15  -8   17.99    3.39
 -15  -3  10   35.01    3.79
  15  -3 -10   32.66    4.91
  15   3  10   31.21    4.03
  -3  15 -10   27.33    4.30
 -15  -3  12    8.61    2.18
  15  -3 -12    5.05    2.70
  -3  15 -12    8.82    2.72
  15   3  12   12.36    3.03
  -3  15 -14    4.65    2.36
  15   3  14    7.31    2.60
  -3  15 -16    5.61    2.64
  15   3  16    6.97    2.83
  -3  15 -18    1.54    1.95
  15   3  18   -0.38    2.41
   4  15 -21   -0.36    2.13
   4  15 -19    2.45    2.59
  15  -4  17   22.12    4.57
   4  15 -17   25.29    4.55
  15   4 -17   16.74    4.37
  15  -4  15   33.80    5.28
   4  15 -15   23.21    4.11
  15   4 -15   25.93    4.93
  15   4 -13    6.03    2.91
   4  15 -13    6.49    2.33
  15  -4  13    7.88    2.86
   4  15 -13   10.20    2.72
  -4  15  11    0.13    1.38
  15   4 -11    2.89    2.77
   4  15 -11    5.05    2.32
  15  -4  11    1.26    1.94
   4 -15   9    5.15    1.59
  -4  15   9    4.26    1.72
  15   4  -9    3.66    2.97
   4  15  -9    9.64    2.94
  15  -4   9    6.64    2.51
  15   4  -7   79.00    7.37
  -4  15   7   85.99    5.98
   4  15  -7   83.40    6.66
  15  -4   7   90.35    6.59
   4 -15   7   81.86    4.57
   4 -15   5   32.80    3.00
  15  -4   5   36.96    4.57
  -4 -15  -5   36.33    4.19
  -4  15   5   35.68    4.00
   4  15  -5   36.42    4.38
  15  -4   5   31.26    3.69
  15   4  -5   38.90    5.15
  15   4  -3   18.40    2.87
  15  -4   3   26.17    4.04
  -4 -15  -3   24.10    3.39
   4  15  -3   26.74    3.75
  -4  15   3   23.02    3.32
  15  -4   3   24.82    3.09
  15   4  -3   19.88    3.60
  15   4  -3   18.66    3.65
  15   4  -1   10.37    2.60
  15  -4   1    6.83    2.75
  -4 -15  -1   10.98    2.52
   4  15  -1    7.95    2.47
  -4  15   1    9.50    2.30
  15  -4   1   10.53    2.07
  15   4  -1    7.40    2.57
  15   4  -1   12.88    3.05
  15  -4  -1   11.51    2.70
  15   4   1    9.12    2.47
   4  15   1   10.33    2.61
  -4  15  -1   11.19    2.50
  15   4   1   11.20    3.06
  15   4   1    7.05    2.53
  15  -4  -3   21.35    3.63
 -15  -4   3   20.52    2.96
   4 -15  -3   25.86    2.72
   4  15   3   24.58    3.74
  15   4   3   22.77    3.45
  -4  15  -3   24.16    3.56
  15   4   3   20.83    3.32
   4  15   5   37.13    4.35
  15   4   5   36.02    3.71
   4 -15  -5   39.34    3.18
 -15  -4   5   35.47    3.84
  15   4   5   27.09    3.76
  -4  15  -5   29.50    3.96
   4  15   7   79.32    6.30
 -15  -4   7   86.33    5.82
  -4  15  -7   81.26    6.66
  15   4   7   82.56    6.30
  -4  15  -9    2.09    1.57
 -15  -4   9    6.79    2.10
  15   4   9    2.95    2.37
  -4  15 -11    3.83    2.28
 -15  -4  11    2.19    1.75
  15   4  11    9.08    3.05
  -4  15 -13    7.21    2.98
  15   4  13   11.94    3.00
  -4  15 -15   25.76    4.40
  -4  15 -17   16.95    4.05
  15   4  17   24.36    4.93
   5  15 -20   11.49    3.27
  15  -5  18   27.00    4.90
   5  15 -18   33.15    5.37
   5  15 -16   16.38    3.79
  15  -5  16   14.32    3.63
  15   5 -16    9.67    3.66
  15   5 -14   33.26    5.60
   5  15 -14   30.58    4.75
  15  -5  14   39.86    5.38
  15   5 -12   58.79    6.89
   5  15 -12   70.52    6.53
  15  -5  12   67.90    6.58
   5  15 -12   68.19    5.54
   5 -15  10   70.50    4.76
  -5  15  10   74.72    5.27
  15   5 -10   72.28    7.38
   5  15 -10   76.49    6.57
  15  -5  10   68.29    6.49
   5 -15   8   16.11    2.50
  -5  15   8   12.33    2.51
   5  15  -8   16.00    3.22
  15  -5   8   20.01    3.53
  15   5  -8   17.26    4.13
  15   5  -6   40.20    5.57
  -5 -15  -6   41.97    4.49
   5 -15   6   37.37    3.37
  -5  15   6   43.96    4.28
   5  15  -6   36.06    4.47
  15  -5   6   38.92    4.47
  15   5  -6   34.63    4.74
  15  -5   4   28.55    4.18
  15   5  -4   28.60    4.54
  -5 -15  -4   30.14    3.93
   5  15  -4   26.22    3.81
  -5  15   4   26.55    3.48
  15  -5   4   26.33    3.54
  15   5  -4   20.61    3.76
  15   5  -4   24.42    3.30
  15   5  -2    4.09    1.93
  15  -5   2    4.70    2.48
  -5 -15  -2    0.48    1.67
  15   5  -2    4.78    2.81
   5  15  -2    3.29    1.64
  15  -5   2    5.45    1.92
  -5  15   2    3.37    1.69
  15   5  -2   -0.89    2.08
  15  -5   0    0.47    2.07
  15   5   0    5.19    2.18
  -5 -15   0    3.85    2.00
   5  15   0    0.62    1.75
  15   5   0    1.52    2.06
  15  -5   0    4.97    1.67
  -5  15   0    0.64    1.37
  15   5   0    1.23    2.05
  15  -5  -2    0.44    2.05
  15   5   2    6.17    2.47
 -15  -5   2    1.83    1.30
   5  15   2    3.12    1.82
  15   5   2    8.55    2.63
  15  -5  -2    3.36    1.09
  -5  15  -2    4.21    2.03
  15   5   2    5.63    2.40
   5 -15  -4   22.88    2.38
   5  15   4   25.18    3.79
 -15  -5   4   28.43    3.54
  15   5   4   24.44    3.50
  15   5   4   23.47    3.68
  15  -5  -4   26.70    4.14
  -5  15  -4   23.82    3.54
 -15  -5   6   39.77    4.13
  15   5   6   39.28    3.93
  -5  15  -6   38.59    4.68
  15   5   6   40.91    4.67
   5  15   6   38.97    4.60
  -5  15  -8   15.07    3.35
 -15  -5   8   21.36    3.19
  15   5   8   19.42    3.80
 -15  -5  10   79.65    5.94
  -5  15 -10   65.77    6.40
  15   5  10   75.37    6.38
  -5  15 -12   70.83    6.91
  15   5  12   75.70    6.58
  -5  15 -14   32.33    4.98
  -5  15 -16    9.86    3.13
  -5  15 -18   31.80    5.41
   6  15 -19    9.65    3.25
  15   6 -17   40.36    6.28
   6  15 -17   29.91    4.91
  15  -6  17   38.36    5.57
  15   6 -15   72.65    7.95
   6  15 -15   85.85    7.67
  15  -6  15   94.46    8.23
  15   6 -13   61.46    7.17
   6  15 -13   53.34    5.90
  15  -6  13   58.25    6.42
   6  15 -13   57.87    5.18
   6 -15  11   21.37    3.07
   6  15 -11   19.11    3.66
  15  -6  11   21.95    4.09
  15   6 -11   24.46    4.90
   6  15 -11   29.67    4.00
   6 -15   9   87.58    5.43
  -6  15   9   87.79    5.73
   6  15  -9   86.11    6.93
  15   6  -9   83.31    7.73
  15  -6   9   99.79    7.43
   6  15  -7  235.77   11.09
  -6  15   7  227.99    9.36
  15  -6   7  218.65   10.33
  15   6  -7  230.65   12.26
  15   6  -7  224.39   11.33
   6 -15   7  230.85    8.50
   6 -15   5    8.79    2.10
  15  -6   5    6.38    2.82
  -6 -15  -5   11.21    2.76
   6  15  -5    7.04    2.41
  15   6  -5    7.53    2.94
  -6  15   5   12.33    2.59
  15  -6   5   11.77    2.82
  15   6  -5    4.06    2.42
  15  -6   3   15.33    3.37
  -6 -15  -3   11.91    2.85
   6  15  -3   14.60    3.02
  15  -6   3   12.37    2.46
  -6  15   3   13.58    2.68
  15   6  -3   14.85    3.55
  15   6  -3    9.44    2.98
  15   6  -3   10.31    2.26
  15  -6   1   44.20    4.98
   6  15  -1   43.52    4.77
  15   6  -1   39.25    3.91
  -6 -15  -1   44.11    4.65
  15  -6   1   44.85    3.84
  -6  15   1   49.41    4.74
  15   6  -1   43.37    4.94
  15   6  -1   44.80    5.17
  15   6   1   45.41    4.51
   6  15   1   42.66    4.75
  15   6   1   40.34    4.80
 -15  -6   1   40.87    4.46
  -6 -15   1   42.27    4.56
  15  -6  -1   38.03    2.96
  -6  15  -1   39.04    4.42
  15   6   1   43.65    4.87
  15  -6  -1   43.58    4.96
  15   6   3    8.42    2.76
   6  15   3   15.61    3.00
 -15  -6   3   15.31    2.83
   6 -15  -3   13.10    1.82
  15   6   3   12.60    3.21
  -6  15  -3   11.70    2.76
  15  -6  -3   17.12    3.61
  -6  15  -5   10.84    2.71
   6  15   5    9.77    2.84
  15   6   5   10.19    3.24
 -15  -6   5    8.96    2.30
  15   6   5   13.66    2.78
 -15  -6   7  248.38   10.32
  -6  15  -7  234.87   11.36
  15   6   7  239.11   10.99
 -15  -6   9   92.51    6.47
  -6  15  -9   83.18    7.24
  -6  15 -11   19.08    3.89
 -15  -6  11   22.70    3.49
  -6  15 -13   57.16    6.61
  -6  15 -15   71.04    7.43
  -6  15 -17   26.70    4.80
   7  15 -18   22.80    4.63
  15  -7  18   25.06    4.86
   7  15 -16    9.04    3.13
  15  -7  16    9.18    3.36
  15   7 -16    8.19    3.53
   7  15 -14   19.30    3.88
  15  -7  14   19.67    4.14
  15   7 -14   11.37    3.81
   7  15 -14   22.47    3.68
   7 -15  12   89.35    6.12
   7  15 -12   82.86    7.12
  15   7 -12   86.86    8.48
  15  -7  12   81.46    7.17
   7  15 -12   88.76    6.50
   7 -15  10   61.22    4.85
   7  15 -10   65.13    6.19
  15  -7  10   64.47    6.11
  15   7 -10   71.35    7.52
   7  15 -10   75.57    6.11
   7  15  -8   42.84    5.03
  -7  15   8   36.89    3.88
  15  -7   8   40.50    4.66
  15   7  -8   29.98    4.87
  15   7  -8   36.44    5.17
   7 -15   8   34.45    3.78
  15  -7   6   70.91    6.40
  -7 -15  -6   70.35    5.95
   7  15  -6   61.67    5.82
  -7  15   6   68.85    5.40
  15  -7   6   70.37    5.67
  15   7  -6   58.65    6.22
  15   7  -6   60.34    6.31
   7 -15   6   62.27    4.80
  15  -7   4   55.49    5.73
  15   7  -4   56.28    6.09
   7  15  -4   59.12    5.72
  -7 -15  -4   64.75    5.77
  15  -7   4   53.53    4.55
  -7  15   4   63.86    5.29
  15   7  -4   64.68    6.04
   7 -15   4   58.10    4.59
   7  15  -2   65.02    5.88
  15   7  -2   66.87    6.36
  -7 -15  -2   57.79    5.38
  15  -7   2   54.46    4.10
  -7  15   2   61.05    5.27
  15   7  -2   53.35    5.50
  15   7  -2   55.40    4.39
  15  -7   2   54.52    5.48
  15  -7   0   15.89    3.37
  15   7   0   20.22    3.09
   7  15   0   12.80    3.16
  15   7   0   17.06    3.53
  -7 -15   0   13.21    2.82
  -7  15   0   19.92    3.35
  15   7   0   20.24    3.54
   7  15   2   57.30    5.57
  15  -7  -2   56.22    5.60
  15   7   2   55.12    4.78
 -15  -7   2   63.54    5.44
  -7 -15   2   60.07    5.53
  15   7   2   63.39    5.85
  -7  15  -2   59.60    5.49
  15   7   2   58.25    5.58
 -15  -7   4   69.08    5.64
  15   7   4   58.86    5.33
  -7  15  -4   54.35    5.44
  15   7   4   68.37    6.03
   7  15   4   66.96    6.04
 -15  -7   6   71.65    5.82
  15   7   6   71.44    5.58
  -7  15  -6   63.77    6.03
  15   7   6   73.64    6.62
  -7  15  -8   38.73    4.94
 -15  -7   8   38.60    4.41
 -15  -7  10   69.68    5.92
  -7  15 -10   68.67    6.79
  -7  15 -12   80.67    7.57
  -7  15 -14   30.20    5.14
  -7  15 -16    8.79    3.22
   8  15 -17   25.32    4.74
  15  -8  17   25.17    4.76
   8  15 -15   -2.61    2.26
  15  -8  15    2.79    2.07
  15   8 -15    0.31    2.76
  15   8 -13   28.63    5.34
   8  15 -13   24.44    4.22
  15  -8  13   26.12    4.50
   8  15 -13   28.16    4.15
   8 -15  11   30.14    3.88
   8  15 -11   26.44    4.30
  15   8 -11   35.12    5.60
  15  -8  11   32.88    4.64
   8  15 -11   28.38    4.13
   8 -15   9    4.13    1.94
   8  15  -9    2.10    1.71
  15  -8   9    1.33    2.13
  15   8  -9   -1.94    2.75
  15   8  -9    4.01    3.03
  15  -8   7   49.16    5.63
   8  15  -7   41.63    4.90
  -8  15   7   44.68    4.26
  15   8  -7   48.41    5.94
  15  -8   7   43.56    4.59
  15   8  -7   44.25    5.48
   8 -15   7   42.85    4.28
  15   8  -5   41.91    5.51
   8 -15   5   31.50    3.76
  15  -8   5   37.15    4.81
  -8 -15  -5   28.96    4.11
   8  15  -5   30.78    4.31
  -8  15   5   33.44    3.92
  15  -8   5   31.17    3.59
  15   8  -5   31.72    4.64
  15   8  -3    7.79    2.87
  15  -8   3   14.56    3.37
  -8 -15  -3   10.87    2.75
   8  15  -3   12.85    2.94
  15  -8   3   12.66    2.14
  -8  15   3   19.05    3.12
  15   8  -3    5.54    2.31
   8 -15   3   12.05    2.51
  15   8  -3   11.07    2.34
   8  15  -1   58.30    5.66
  -8 -15  -1   56.26    5.48
  15   8  -1   58.76    4.36
  -8  15   1   60.23    5.37
  15   8  -1   58.76    5.69
  15  -8   1   64.83    6.03
   8  15   1   59.61    5.78
  15   8   1   59.19    4.72
 -15  -8   1   54.99    5.29
  -8 -15   1   61.09    5.72
  -8  15  -1   55.60    5.32
  15   8   1   57.44    5.64
  15  -8  -1   58.50    5.63
  -8  15  -3   12.20    2.93
   8  15   3   16.71    3.34
 -15  -8   3   10.83    2.76
  -8 -15   3   14.25    3.04
  15  -8  -3   14.99    3.50
  15   8   3   14.60    3.47
  -8  15  -5   30.49    4.17
 -15  -8   5   32.87    4.21
 -15  -8   7   45.52    4.87
  -8  15  -7   40.94    5.15
  -8  15  -9    0.24    1.71
 -15  -8   9   -1.48    1.52
  -8  15 -11   32.30    5.02
  -8  15 -13   20.32    4.26
  -8  15 -15   -0.78    2.31
   9  15 -18    1.42    2.34
   9  15 -16    7.50    2.78
  15  -9  16    5.97    3.01
  15   9 -14   10.24    4.10
   9  15 -14   12.26    3.22
  15  -9  14    9.59    3.25
   9  15 -14   14.08    3.38
   9 -15  12    6.19    2.59
   9  15 -12    0.57    1.70
  15  -9  12    3.52    2.27
  15   9 -12    3.38    3.03
   9  15 -12    4.21    2.61
  15   9 -10    6.30    3.13
   9 -15  10   10.29    2.75
   9  15 -10   11.06    3.11
  15  -9  10    5.45    2.31
  15   9 -10    9.47    3.22
   9  15 -10    6.23    2.55
   9 -15   8   18.17    3.22
  15  -9   8   20.16    3.99
   9  15  -8   25.76    4.04
  15  -9   8   24.01    3.62
  15   9  -8   23.53    4.61
  15   9  -8   12.70    3.66
  15  -9   6   54.00    5.88
   9  15  -6   44.75    5.05
  15  -9   6   48.29    4.43
  -9  15   6   50.33    4.66
  15   9  -6   49.07    5.96
  15   9  -6   44.78    5.49
   9 -15   6   44.57    4.45
   9 -15   4   10.43    2.53
  15  -9   4    9.12    2.92
  -9 -15  -4   12.52    3.19
   9  15  -4    7.02    2.38
 -15   9   4   10.20    2.11
  15  -9   4    9.76    2.02
  -9  15   4    9.10    2.31
  15   9  -4   15.35    3.64
   9  15  -2   57.10    5.55
  -9 -15  -2   57.37    5.60
  -9  15   2   61.08    5.45
  15   9  -2   50.88    5.60
  15   9  -2   59.50    4.32
  15  -9   2   52.87    5.55
   9  15   0   87.64    6.96
 -15  -9   0   75.78    6.43
  -9 -15   0   79.28    6.59
  15  -9   0   77.67    6.69
  -9  15   0   83.13    6.43
  15   9   0   77.27    6.66
  15   9   0   85.87    5.25
  15   9   2   64.91    4.97
 -15  -9   2   64.07    5.82
  -9 -15   2   62.72    5.87
  -9  15  -2   61.72    5.81
  15   9   2   61.80    6.17
  15  -9  -2   62.31    6.15
   9  15   2   59.00    5.82
  -9  15  -4   12.33    2.98
 -15  -9   4   10.17    2.48
  -9 -15   4   10.15    2.82
 -15  -9   6   50.82    5.28
  -9  15  -6   49.83    5.63
  -9  15  -8   24.50    4.16
 -15  -9   8   22.45    3.86
  -9  15 -10    8.37    3.29
 -15  -9  10    9.13    2.57
  -9  15 -12    5.21    2.65
  -9  15 -14    5.74    2.82
  10  15 -17   -3.01    2.67
  15 -10  17    5.34    2.88
  10  15 -15   15.92    3.80
  15 -10  15    8.38    3.07
  10  15 -15    9.06    3.05
  10 -15  13    3.94    2.49
  10  15 -13    2.13    2.45
  15 -10  13    1.83    1.84
  15  10 -13    2.30    2.85
  10  15 -13   -4.50    2.59
  10 -15  11    3.77    2.36
  15  10 -11    7.78    3.35
  10  15 -11   10.60    2.98
  15 -10  11    5.74    2.68
  15  10 -11    2.60    2.53
  10  15 -11    6.70    2.71
  10 -15   9   16.69    3.21
  15 -10   9    8.62    3.16
  15  10  -9    9.50    3.37
  10  15  -9   16.72    3.54
  10  15  -9   15.58    3.71
  15 -10   9    9.24    2.37
  15  10  -9   15.91    3.90
  10 -15   7    8.01    2.63
  10  15  -7   14.37    3.25
  15 -10   7    8.76    2.15
  15 -10   7   10.30    3.11
  15  10  -7   10.10    3.32
  15  10  -7   10.93    3.03
  15 -10   5   36.53    4.92
 -10 -15  -5   33.28    4.48
  10  15  -5   33.16    4.50
  10 -15   5   30.26    4.03
 -10  15   5   33.41    3.97
  15  10  -5   36.10    4.75
  10  15  -3   40.13    4.88
  15 -10   3   45.36    5.26
 -15  10   3   50.90    4.65
 -10 -15  -3   55.01    5.63
 -10  15   3   51.06    4.93
  15  10  -3   55.76    5.86
  10 -15   3   52.36    5.00
  15 -10   1    8.17    2.90
  10  15  -1   13.34    3.10
 -15 -10  -1    5.98    2.27
 -10 -15  -1    5.95    2.29
  15  10  -1   11.95    3.35
 -10  15   1    9.67    2.50
 -10  15  -1    8.37    2.26
  15  10   1    8.91    2.09
 -15 -10   1   13.54    3.00
 -10 -15   1    9.63    2.71
  15  10   1   17.21    3.99
  15 -10  -1    9.62    2.90
  15  10   3   49.71    4.36
 -15 -10   3   56.29    5.57
 -10 -15   3   52.12    5.55
 -10  15  -3   51.77    5.46
 -10  15  -5   34.36    4.75
 -15 -10   5   32.58    4.43
 -10 -15   5   38.03    4.82
 -10  15  -7    9.62    2.82
 -15 -10   7    8.11    2.59
 -10  15  -9    4.81    2.38
 -15 -10   9    7.82    2.63
 -10  15 -11    5.48    2.45
 -10  15 -13   -1.91    2.49
  11  15 -16   -1.28    2.16
  15 -11  16   -0.52    2.17
  11 -15  14    2.31    2.35
  11  15 -14    6.50    3.00
  15 -11  14    2.28    2.22
  11  15 -14   -0.35    2.77
  11 -15  12    6.30    2.89
  11  15 -12    0.32    1.85
  15  11 -12    4.99    3.23
  15 -11  12   -0.34    1.78
  15  11 -12   -3.88    3.16
  11  15 -12    1.00    2.25
  11 -15  10    2.94    2.31
  15 -11  10   11.48    3.59
  11  15 -10    5.59    2.73
  15  11 -10   11.09    3.71
  15 -11  10    7.78    2.63
  15  11 -10    7.72    2.78
  11  15 -10    7.69    3.21
  11 -15   8    3.17    1.90
  15 -11   8    0.67    2.16
  11  15  -8    1.49    1.68
  15 -11   8   -1.61    1.66
  15  11  -8   -1.13    2.61
  11  15  -8    3.85    2.87
  15 -11   6   21.83    4.11
  11  15  -6   21.94    3.85
  11 -15   6   12.22    2.85
  15  11  -6   23.73    4.12
  11 -15   4    1.97    2.25
  15 -11   4    4.41    2.76
  11  15  -4    4.23    2.13
 -11 -15  -4    2.81    2.14
 -11  15   4    3.90    1.74
  15  11  -4    8.10    3.08
  15 -11   2    3.42    2.33
  11  15  -2    4.78    2.24
 -11 -15  -2    3.72    2.37
 -15  11   2    6.37    2.19
  11 -15   2    5.13    2.51
  15  11  -2    4.44    2.61
 -11  15   2    4.41    2.01
 -15 -11   0   11.80    3.14
 -11 -15   0   15.53    3.46
 -15  11   0   13.82    2.94
 -11  15   0   15.21    3.11
  15  11   0   14.59    3.68
  15 -11   0   11.05    3.02
 -11  15  -2    7.75    2.60
 -15 -11   2    7.33    2.65
 -11 -15   2    5.30    2.27
 -11  15  -4    4.73    2.08
 -15 -11   4    3.60    2.01
 -11 -15   4    4.24    2.28
 -11  15  -6   18.40    3.88
 -15 -11   6   23.43    3.92
 -11 -15   6   20.00    3.75
 -15 -11   8    1.39    1.74
 -11  15  -8    0.70    2.00
 -15 -11  10    9.48    3.29
 -11  15 -10    1.99    2.07
 -11  15 -12    2.41    2.19
  12 -15  15   18.12    4.34
  12  15 -15   19.74    4.45
  15 -12  15   14.40    3.90
  12  15 -15    5.46    2.85
  12 -15  13    3.58    2.90
  15 -12  13    4.26    3.10
  12  15 -13    0.93    2.60
  15 -12  13    4.53    2.62
  12  15 -13    1.61    2.48
  12 -15  11    6.76    2.70
  15 -12  11    9.38    3.48
  12  15 -11    1.68    2.20
  15 -12  11    5.25    2.10
  15  12 -11    7.28    3.44
  15  12 -11    4.40    2.72
  12  15 -11   13.68    3.82
  15 -12   9   23.60    4.68
  12  15  -9   18.23    3.83
  15  12  -9   14.09    3.55
  12 -15   9   14.92    3.39
  12  15  -9   18.99    3.93
  12 -15   7    9.49    2.78
  15 -12   7    5.71    2.92
  12  15  -7   10.71    3.05
  12  15  -7    9.77    3.43
  15  12  -7   13.52    3.57
  12 -15   5   16.46    3.42
  15 -12   5   17.69    3.79
  12  15  -5   21.70    3.87
  15  12  -5   19.05    3.99
  15 -12   3    0.28    2.31
 -12 -15  -3    0.94    1.89
 -15  12   3   -2.07    1.56
 -12  15   3   -0.44    1.41
  15  12  -3    1.57    2.58
  12 -15   3    1.75    2.31
  15 -12   1    4.04    2.42
 -12  15   1    2.44    1.69
 -15 -12  -1    3.28    2.15
 -12 -15  -1    1.99    1.84
 -15  12   1    2.91    1.60
  15  12  -1    5.65    3.00
 -12  15  -1   -0.06    1.46
 -15 -12   1    4.89    2.21
 -12 -15   1    0.15    1.83
 -15  12  -1    1.85    1.75
 -12  15  -3    1.11    1.82
 -15 -12   3   -1.80    1.99
 -12 -15   3    2.27    2.18
 -15  12  -3    2.33    2.04
 -15 -12   5   17.18    3.57
 -12  15  -5   18.79    3.84
 -12 -15   5   21.31    3.96
 -15  12  -5   20.35    3.86
 -15 -12   7   10.49    3.13
 -12 -15   7   11.21    3.31
 -12  15  -7    5.60    2.87
 -15 -12   9   19.53    3.96
 -12  15  -9    9.15    3.10
 -15 -12  11    4.46    2.58
 -12  15 -11    3.32    2.74
  13 -15  14   14.69    3.97
  13  15 -14    8.40    2.59
  13  15 -14   13.31    3.78
  13 -15  12   -1.00    2.30
  15 -13  12    1.93    2.96
  13  15 -12    0.67    2.00
  15  13 -12   -0.31    3.12
  13  15 -12    4.29    2.78
  13 -15  10   23.06    4.40
  15 -13  10   33.74    5.35
  15  13 -10   28.71    5.13
  13  15 -10   33.93    5.27
  13  15 -10   43.18    6.20
  13 -15   8    5.21    2.25
  15 -13   8    9.59    3.53
  13  15  -8   10.71    3.30
  15  13  -8   10.33    3.29
  13  15  -8    4.04    2.79
  13 -15   6   -0.05    2.01
  15 -13   6   -0.18    2.16
  15  13  -6    6.93    3.00
  13  15  -6    6.85    3.41
  13 -15   4   31.09    4.41
  15 -13   4   30.18    4.67
  15  13  -4   35.59    5.18
  15 -13   2   13.38    3.40
 -13  15   2   10.15    2.64
 -13 -15  -2    6.86    2.63
 -15  13   2   12.15    2.75
  13 -15   2    9.92    3.04
  15  13  -2   11.49    3.51
 -13  15   0   25.67    3.99
 -15 -13   0   24.22    4.12
 -13 -15   0   25.04    4.28
 -15  13   0   19.04    3.38
  15 -13   0   27.30    4.51
 -15 -13   2    8.26    2.68
 -13  15  -2   12.36    3.36
 -13 -15   2   10.25    2.93
 -15  13  -2    8.89    2.64
 -15 -13   4   27.44    4.47
 -13 -15   4   29.87    4.67
 -13  15  -4   28.21    4.32
 -15  13  -4   29.55    4.54
 -15 -13   6    2.77    2.44
 -13 -15   6    1.72    2.26
 -13  15  -6   -0.49    1.98
 -15  13  -6   -1.60    1.94
 -15 -13   8    9.83    3.11
 -13 -15   8   10.87    3.18
 -13  15  -8    9.82    3.15
 -15  13  -8   10.26    3.34
 -15 -13  10   29.90    5.10
 -13  15 -10   25.08    4.87
 -15  13 -10   25.37    4.87
  14 -15  13    1.13    2.53
  14  15 -13    4.47    3.13
  14 -15  11    8.27    3.01
  15 -14  11   12.86    3.62
  15  14 -11    9.06    3.41
  14  15 -11   10.37    3.56
  14  15 -11   12.54    3.70
  14 -15   9    1.57    2.32
  15 -14   9   -0.36    2.54
  15  14  -9    2.68    2.69
  14  15  -9    1.51    2.45
  14 -15   7   10.50    3.13
  15 -14   7    9.88    2.83
  15  14  -7   20.86    4.42
  14  15  -7   23.21    4.71
  15  14  -5   64.81    6.74
  14  15  -5   60.64    6.63
  14 -15   5   56.82    6.22
  15 -14   5   58.87    6.30
  15 -14   3   37.92    5.24
  15  14  -3   43.28    5.89
  14 -15   3   40.00    5.19
 -15 -14  -1   33.16    4.89
 -14 -15  -1   36.39    5.12
 -14  15   1   42.41    5.01
 -15  14   1   43.38    5.16
  15 -14   1   43.17    5.46
 -14 -15   1   46.53    5.74
 -15 -14   1   40.92    5.38
 -14  15  -1   38.12    4.92
 -15  14  -1   36.93    4.79
 -15  14  -3   41.59    5.44
 -15 -14   3   41.56    5.50
 -14 -15   3   40.98    5.49
 -14  15  -3   39.13    5.17
 -15  14  -5   54.89    6.21
 -15 -14   5   54.78    6.22
 -14 -15   5   60.94    6.64
 -14  15  -5   53.28    6.18
 -15 -14   7   19.44    4.13
 -14 -15   7   25.57    4.61
 -14  15  -7   17.93    4.05
 -15  14  -7   18.14    3.96
 -15 -14   9   -1.29    2.52
 -14  15  -9    1.01    2.15
 -15  14  -9    5.14    2.79
  15 -15  10    3.80    2.91
  15 -15   8   53.29    6.27
  15  15  -6   79.83    7.57
  15 -15   6   86.09    7.73
  15 -15   4   16.59    4.17
  15  15  -4   22.00    4.66
 -15 -15  -2   52.84    6.27
  15 -15   2   58.68    6.41
  15  15  -2   59.40    7.02
 -15 -15   0  236.11   12.83
 -15  15   0  229.96   11.65
 -15 -15   2   56.19    6.51
 -15  15  -2   53.38    5.97
 -15 -15   4   16.17    3.61
 -15  15  -4   13.34    3.33
 -15  15  -6   71.11    7.24
 -15  15  -8   43.89    6.05
   0  16   0  207.15   10.06
  16   0   0  200.60    9.27
  16   0   0  226.25   10.20
  16   0  -2   42.34    4.55
  16   0   2   45.33    4.87
   0 -16  -2   47.45    4.34
   0  16   2   47.50    5.00
   0  16  -2   43.47    4.79
  16   0   2   43.65    4.11
  16   0  -2   46.64    5.07
  16   0   4  125.91    7.88
   0 -16  -4  133.70    6.98
   0  16  -4  126.49    8.15
  16   0  -4  129.93    8.52
  16   0  -4  125.73    7.71
   0  16   4  131.69    8.00
   0  16   6  138.72    8.06
   0 -16  -6  135.96    7.03
   0  16  -6  121.36    8.08
  16   0  -6  119.54    8.69
   0  16   8   77.65    6.10
   0  16  -8   70.33    6.41
  16   0  -8   82.32    7.55
   0  16 -10   81.13    7.01
  16   0 -10   84.21    7.93
   0  16  10   85.73    6.39
   0  16 -12  141.62    9.46
  16   0  12  148.08    9.52
  16   0 -12  138.67   10.20
  16   0 -14   34.61    5.68
  16   0  14   34.58    5.21
   0  16 -14   27.63    4.62
  16   0 -16   21.26    4.69
  16   0  16   18.81    4.43
   0  16 -16   17.96    4.08
  16   0  18   36.09    5.93
   0  16 -18   28.66    4.98
   1  16 -19   -1.83    2.63
  16   1 -17   11.20    3.97
  16  -1  17   12.49    3.78
   1  16 -17    8.53    3.03
   1  16 -15   77.03    7.54
  16  -1  15   89.59    8.28
  16   1 -15   93.30    8.66
  16   1 -13   40.81    5.85
  16  -1  13   35.10    5.19
   1  16 -13   31.90    4.80
  16   1 -11   14.61    3.90
  16  -1  11   14.83    3.37
   1  16 -11   12.63    3.33
  -1  16  11   13.38    2.76
  -1  16   9  240.72   10.35
   1  16  -9  223.41   11.34
  16   1  -9  244.41   12.73
  16  -1   9  238.57   10.95
  -1  16   7   63.48    5.56
   1  16  -7   57.39    5.71
  16   1  -7   55.08    6.18
  -1 -16  -5   12.22    2.54
  -1  16   5   16.08    2.96
  16   1  -5   13.94    3.31
   1  16  -5   12.85    2.89
  16  -1   3  227.30   10.50
  -1 -16  -3  243.25    9.64
  -1  16   3  233.93   10.47
   1  16  -3  224.58   10.68
  16   1  -3  226.43   11.02
  16   1  -3  229.05   10.03
  16  -1   1   51.75    5.35
  -1 -16  -1   60.71    5.02
   1  16  -1   52.69    5.24
  -1  16   1   61.42    5.63
  16  -1   1   56.17    4.67
  16   1  -1   54.97    5.38
  16   1  -1   49.34    4.94
  16   1   1   55.62    5.29
   1  16   1   55.14    5.52
  -1  16  -1   58.44    5.54
  16  -1  -1   51.82    4.92
  16   1   1   62.17    5.12
  16  -1  -1   49.44    5.12
  16   1   3  223.70   10.17
   1  16   3  244.58   10.87
   1 -16  -3  238.63    9.00
  -1  16  -3  225.44   10.60
  16  -1  -3  233.10   10.82
  16   1   3  232.18    8.82
  16  -1  -3  215.78   10.17
  16  -1  -5   10.86    3.06
   1 -16  -5   16.46    2.62
   1  16   5   15.68    3.02
  -1  16  -5   13.37    3.01
  16   1   5   14.05    3.19
  16   1   5   13.49    2.11
   1  16   7   55.63    5.20
 -16  -1   7   57.11    4.39
  -1  16  -7   49.10    5.29
  16  -1  -7   54.85    6.34
  16   1   7   56.66    5.47
   1  16   9  251.69   10.91
 -16  -1   9  249.59    8.99
  -1  16  -9  224.89   11.32
  16  -1  -9  218.22   12.16
  16   1   9  220.66   10.26
  16  -1 -11   11.44    3.71
  -1  16 -11   12.14    3.17
  16   1  11   10.54    3.01
  16   1  13   31.45    4.86
  -1  16 -13   28.91    4.61
  16  -1 -13   28.79    5.30
  16  -1 -15   74.27    7.87
  16   1  15   99.03    8.58
  -1  16 -15   82.78    7.81
  16   1  17    8.74    3.54
  -1  16 -17    8.48    3.04
  16  -1 -17   18.64    4.51
  16  -2  18    9.42    3.63
   2  16 -18    3.86    2.15
  16   2 -16    1.04    3.05
  16  -2  16    0.39    2.22
   2  16 -16    0.66    2.19
  16   2 -14    9.66    3.34
  16  -2  14    9.88    3.18
   2  16 -14   14.33    3.49
   2  16 -12   47.49    5.60
  16   2 -12   45.25    5.93
  16  -2  12   39.37    5.09
  -2  16  10   33.48    4.00
  16   2 -10   25.18    4.67
   2  16 -10   30.96    4.52
  16  -2  10   26.06    4.01
  -2  16   8    4.11    1.93
   2  16  -8    8.68    2.75
  16   2  -8    0.30    2.22
  16  -2   8   10.42    2.84
  -2 -16  -6   29.49    3.73
  -2  16   6   28.60    3.78
   2  16  -6   25.47    4.03
  16   2  -6   15.10    3.66
  16  -2   4   21.54    3.75
  -2 -16  -4   25.02    3.43
  -2  16   4   18.82    3.20
   2  16  -4   25.28    3.90
  16   2  -4   23.26    4.23
  16   2  -4   26.31    3.69
  16   2  -2    5.41    2.37
  16  -2   2    8.30    2.88
  -2 -16  -2    7.56    2.20
   2  16  -2    7.80    2.46
  -2  16   2    7.72    2.66
  16   2  -2    6.95    2.76
  16  -2   0    4.32    2.45
  16   2   0    2.69    2.00
   2  16   0    5.41    2.44
  -2  16   0    2.89    1.76
  16   2   0    1.50    1.99
  16  -2  -2   13.61    3.37
  16   2   2   11.06    2.89
   2 -16  -2    7.55    1.89
   2  16   2   11.50    2.95
  16  -2  -2    7.07    2.45
  16   2   2   10.78    2.57
  -2  16  -2    6.08    2.38
  16   2   2   10.30    2.99
   2 -16  -4   27.29    3.12
   2  16   4   27.19    3.83
  16   2   4   21.29    2.88
  -2  16  -4   26.47    4.08
  16  -2  -4   22.88    3.85
  16   2   4   27.52    4.00
  16  -2  -4   25.77    3.96
 -16  -2   6   24.30    3.18
   2 -16  -6   23.95    2.95
   2  16   6   23.81    3.67
  -2  16  -6   20.13    3.56
  16   2   6   26.06    3.93
  16  -2  -6   27.04    4.43
   2  16   8    4.98    2.27
 -16  -2   8    4.98    1.91
  -2  16  -8    7.13    2.45
  16   2   8    5.44    2.49
  16  -2  -8    0.50    2.25
 -16  -2  10   32.71    3.57
  -2  16 -10   36.00    4.89
  16  -2 -10   33.48    5.18
  16   2  10   24.78    3.93
  16  -2 -12   32.69    5.37
  16   2  12   40.81    4.73
  -2  16 -12   38.80    5.24
  16  -2 -14    7.20    3.32
  -2  16 -14    6.94    2.88
  16   2  16   -0.90    2.52
  16  -2 -16    4.15    3.27
  -2  16 -16    2.22    2.26
  -2  16 -18    4.70    2.42
   3  16 -19    4.71    2.61
  16  -3  17   13.37    3.86
   3  16 -17   14.01    3.95
  16   3 -15    6.49    2.67
  16  -3  15   13.82    3.92
   3  16 -15    9.05    3.25
   3  16 -13   15.94    3.72
  16  -3  13   12.38    3.68
  16   3 -13   13.93    3.80
  -3  16  11    6.79    2.09
   3  16 -11    4.95    2.54
  16  -3  11    5.78    2.39
  16   3 -11    6.68    3.21
  -3  16   9   -0.74    1.63
   3  16  -9   -1.51    1.84
  16  -3   9    1.64    1.63
  16   3  -9   -1.12    2.85
  16   3  -7   31.92    4.97
  -3  16   7   29.54    3.80
   3  16  -7   37.69    4.76
  16  -3   7   33.45    4.11
  16  -3   5    7.73    2.85
  -3 -16  -5    4.79    1.83
  -3  16   5    6.45    2.00
   3  16  -5    2.86    1.71
  16  -3   5    5.86    1.90
  16   3  -3   27.23    3.77
  16  -3   3   31.53    4.35
  16   3  -3   34.40    4.76
  -3 -16  -3   37.81    4.28
   3  16  -3   32.63    4.34
  -3  16   3   32.95    4.08
  16   3  -1    5.93    2.48
  16  -3   1    4.78    2.54
  16   3  -1    6.29    2.86
  -3 -16  -1    4.11    1.89
   3  16  -1    3.71    1.99
  -3  16   1    4.35    1.99
  16   3  -1    0.77    1.97
  16   3   1    3.20    1.85
   3  16   1    1.25    1.52
  -3  16  -1    2.52    1.82
  16   3   1    1.92    2.21
  16   3   1    3.95    1.78
  16  -3  -3   28.94    4.19
   3  16   3   36.67    4.54
  16   3   3   37.87    4.60
   3 -16  -3   32.32    3.34
  -3  16  -3   28.09    3.89
  16   3   3   39.56    4.08
  16   3   3   27.57    3.94
 -16  -3   5   13.20    2.64
   3  16   5   10.45    2.58
   3 -16  -5    9.26    1.87
  16   3   5    9.55    2.21
  -3  16  -5    5.88    2.22
  16   3   5    6.45    2.62
   3  16   7   33.37    4.28
 -16  -3   7   38.72    4.03
  -3  16  -7   34.71    4.60
  16   3   7   32.03    4.25
 -16  -3   9    1.09    1.34
  16   3   9    2.48    2.26
  -3  16  -9   -0.35    1.80
  -3  16 -11    6.75    2.69
 -16  -3  11    5.38    1.84
  16   3  11   10.64    3.13
  16   3  13    7.14    2.59
  -3  16 -13    7.47    3.09
  16   3  15   16.23    3.98
  -3  16 -15   12.81    3.52
  16   3  17   16.80    4.08
  -3  16 -17    7.15    2.81
  16  -4  18   20.84    4.40
   4  16 -18   17.16    3.82
   4  16 -16    7.54    3.18
  16  -4  16    5.79    3.19
  16   4 -16    0.33    2.64
   4  16 -14    7.80    2.78
  16  -4  14    5.24    2.57
  16   4 -14    7.23    3.50
   4  16 -12   44.67    5.55
  16  -4  12   39.17    5.34
   4  16 -12   53.97    4.91
  16   4 -12   43.43    5.94
  16   4 -10   19.69    4.23
  -4  16  10   18.97    3.03
   4  16 -10   22.47    3.87
  16  -4  10   16.04    3.48
  16   4  -8   57.58    6.54
  -4  16   8   60.92    5.22
   4  16  -8   65.64    6.22
  16  -4   8   68.87    6.24
  16  -4   6   23.24    4.04
  -4 -16  -6   15.41    3.01
  -4  16   6   14.32    2.82
  16   4  -6   13.87    3.85
   4  16  -6   18.48    3.45
  16  -4   6   18.21    3.09
  16  -4   4   -2.21    2.41
  -4 -16  -4    0.86    1.70
   4  16  -4    1.85    1.91
  -4  16   4    0.46    1.48
  16   4  -4   -0.44    2.47
  16  -4   4    0.13    1.33
  16   4  -4   -0.50    1.73
  16  -4   2   59.58    5.86
   4  16  -2   52.41    5.42
  -4 -16  -2   58.02    5.20
  -4  16   2   57.10    5.34
  16   4  -2   50.75    5.60
  16  -4   2   53.44    4.48
  16   4  -2   48.96    5.32
  16   4  -2   48.62    4.61
  16  -4   0    5.51    2.44
  16   4   0    4.00    2.14
  -4 -16   0    3.78    1.87
   4  16   0    1.04    1.74
  16   4   0    1.83    2.18
  -4  16   0    3.86    2.00
  16  -4   0    4.31    1.56
  16   4   0    4.01    2.32
  16   4   2   55.49    5.22
   4  16   2   53.67    5.50
  16   4   2   48.42    4.99
   4 -16  -2   50.54    3.95
  -4  16  -2   51.53    5.18
  16   4   2   57.94    5.71
  16  -4  -2   53.69    5.47
 -16  -4   4   -0.76    1.41
   4  16   4    2.79    2.06
  16   4   4   -0.15    1.67
   4 -16  -4    1.60    1.36
  -4  16  -4   -0.29    1.61
  16   4   4    1.52    2.21
  16  -4  -4    0.77    2.00
   4  16   6   17.75    3.28
 -16  -4   6   14.53    2.68
  -4  16  -6   11.49    2.96
  16   4   6   16.44    3.45
 -16  -4   8   72.74    5.55
  -4  16  -8   56.40    5.88
  16   4   8   65.43    6.03
   4  16   8   69.68    6.19
 -16  -4  10   18.61    3.17
  16   4  10   22.67    3.78
  -4  16 -10   16.69    3.68
 -16  -4  12   50.08    4.92
  16   4  12   38.98    4.89
  -4  16 -12   38.06    5.26
  -4  16 -14   10.15    3.32
  -4  16 -16    4.41    3.00
  16   4  16    0.29    2.14
   5  16 -19   13.29    4.00
   5  16 -17   44.87    6.10
  16  -5  17   27.28    5.12
   5  16 -15   38.37    5.35
  16  -5  15   32.18    5.12
  16   5 -15   34.00    5.56
  16   5 -13   57.52    7.00
   5  16 -13   56.90    6.24
  16  -5  13   54.45    6.36
   5  16 -13   56.31    5.14
  16   5 -11   36.33    5.70
   5  16 -11   24.80    4.28
  16  -5  11   23.25    4.14
  -5  16   9   23.57    3.34
   5  16  -9   25.19    4.04
  16   5  -9   23.13    4.80
  16  -5   9   23.54    3.93
  -5  16   7  186.34    8.91
  16   5  -7  180.91   11.23
   5  16  -7  189.95   10.26
  16  -5   7  181.18    9.68
  16  -5   5   16.26    3.41
  -5 -16  -5   18.10    3.31
   5  16  -5   17.86    3.51
  -5  16   5   19.05    3.09
  16  -5   5   19.84    3.28
  16   5  -5   14.35    3.42
  16   5  -5   17.32    3.66
  16   5  -3    6.63    2.17
  16  -5   3    2.71    2.21
  -5 -16  -3    6.55    2.36
   5  16  -3    2.84    1.75
  -5  16   3    4.13    2.01
  16  -5   3    4.29    1.72
  16   5  -3    2.81    2.07
  16   5  -3    8.06    2.81
  16   5  -1   27.77    3.73
  16  -5   1   28.68    4.25
  -5 -16  -1   26.91    3.82
   5  16  -1   26.96    4.01
  16  -5   1   22.98    3.01
  -5  16   1   22.49    3.51
  16   5  -1   27.41    4.08
  16   5  -1   20.51    3.80
  16  -5  -1   32.21    4.47
  16   5   1   32.44    4.05
   5  16   1   29.44    4.17
  -5 -16   1   32.64    4.14
  16  -5  -1   26.91    2.83
  -5  16  -1   27.79    3.93
  16   5   1   26.80    4.23
  16   5   1   23.71    3.96
  16   5   3    5.55    2.46
 -16  -5   3    3.44    1.64
   5  16   3    1.66    2.01
   5 -16  -3    2.14    1.15
  16   5   3    7.29    2.67
  -5  16  -3    1.97    1.65
  16   5   3    4.43    2.67
  16  -5  -3    5.20    2.58
   5  16   5   12.94    2.98
   5 -16  -5   18.17    2.25
 -16  -5   5   19.81    3.21
  16   5   5   18.22    3.08
  16   5   5   18.70    3.66
  -5  16  -5   16.62    3.22
 -16  -5   7  203.47    9.39
  -5  16  -7  184.99   10.27
  16   5   7  196.22   10.04
   5  16   7  192.55   10.18
  -5  16  -9   27.32    4.42
 -16  -5   9   28.46    3.75
  16   5   9   26.39    4.30
  -5  16 -11   20.04    3.88
 -16  -5  11   28.25    3.85
  16   5  11   32.31    4.76
 -16  -5  13   56.72    5.53
  -5  16 -13   47.89    6.13
  16   5  13   58.39    6.08
  -5  16 -15   32.43    5.36
   6  16 -18   70.74    7.78
   6  16 -16    0.47    2.29
  16  -6  16    7.16    3.07
  16   6 -14   18.77    4.60
   6  16 -14   16.13    3.61
  16  -6  14   10.65    3.47
  16   6 -12  168.68   11.72
   6  16 -12  174.52   10.45
  16  -6  12  172.45   10.56
   6  16 -12  169.65    8.81
   6  16 -10   58.04    6.13
  16  -6  10   45.08    5.52
  16   6 -10   44.27    6.25
  -6  16   8   26.58    3.54
   6  16  -8   27.04    4.14
  16  -6   8   26.38    4.16
  16   6  -8   26.09    4.79
  16  -6   6  153.54    9.28
  -6 -16  -6  148.51    8.68
   6  16  -6  141.59    8.96
  -6  16   6  152.50    8.13
  16   6  -6  145.49   10.03
  16  -6   6  135.40    8.28
  16   6  -6  145.99    9.60
   6 -16   6  141.53    6.69
  16  -6   4   32.45    4.63
  -6 -16  -4   28.11    3.98
  16   6  -4   39.26    5.44
   6  16  -4   32.01    4.38
  -6  16   4   34.93    4.20
  16  -6   4   32.20    4.00
  16   6  -4   30.77    4.45
  16   6  -2   22.69    3.31
  16  -6   2   19.57    3.66
  -6 -16  -2   20.44    3.53
   6  16  -2   22.22    3.72
  16   6  -2   22.55    4.27
  16  -6   2   19.13    2.87
  -6  16   2   17.83    3.12
  16   6  -2   19.23    3.73
   6  16   0   62.92    5.93
  -6 -16   0   62.94    5.75
  -6  16   0   44.85    4.84
  16   6   0   55.07    5.94
  16   6   0   52.24    5.52
  16  -6   0   56.85    5.71
  16   6   0   53.91    4.83
  16  -6  -2   25.89    4.21
  16   6   2   23.38    3.59
 -16  -6   2   25.12    3.62
   6  16   2   20.67    3.63
   6 -16  -2   22.94    2.52
  -6 -16   2   24.55    3.84
  16   6   2   14.88    3.26
  -6  16  -2   22.06    3.49
  16   6   2   16.72    3.36
   6  16   4   39.58    4.73
 -16  -6   4   35.79    4.18
  -6  16  -4   34.58    4.55
  16   6   4   35.53    4.38
  16   6   4   34.52    4.53
 -16  -6   6  148.00    8.23
  -6  16  -6  151.82    9.38
  16   6   6  156.37    9.19
   6  16   6  153.10    9.28
 -16  -6   8   30.70    3.96
  16   6   8   34.48    4.86
  -6  16 -10   40.16    5.32
 -16  -6  10   42.31    4.75
  16   6  10   52.20    5.93
 -16  -6  12  169.79    9.29
  -6  16 -12  162.69   10.71
  16   6  12  184.81   10.61
  -6  16 -14   14.53    3.79
  16   6  14   17.12    4.08
  -6  16 -16    9.84    3.32
   7  16 -19    5.07    3.18
   7  16 -17   26.38    4.90
  16  -7  17   36.60    5.72
   7  16 -15   21.78    4.34
  16   7 -15   25.23    5.11
  16  -7  15   23.28    4.41
   7  16 -13   36.76    5.20
  16  -7  13   35.85    5.13
  16   7 -13   34.37    5.90
   7  16 -13   32.33    4.33
   7  16 -11   15.46    3.35
  16  -7  11    8.69    3.11
  16   7 -11    8.79    3.42
   7  16 -11   12.80    3.10
  16   7  -9   23.75    4.71
   7  16  -9   23.15    4.03
  16  -7   9   22.13    3.78
  16  -7   7   93.71    7.62
   7  16  -7   89.95    7.31
  -7  16   7   86.87    6.10
  16  -7   7   82.08    6.52
  16   7  -7   84.33    7.96
  16   7  -7   83.23    7.63
   7 -16   7   83.83    5.55
  16  -7   5    2.37    2.35
  -7 -16  -5    2.95    2.08
   7  16  -5    2.03    1.95
  16  -7   5    2.71    1.63
  -7  16   5    3.81    1.78
  16   7  -5    6.42    3.27
  16   7  -5    4.75    2.70
   7 -16   5    4.69    2.04
  16  -7   3    0.71    2.10
  -7 -16  -3    2.47    1.96
   7  16  -3    2.01    1.94
  16  -7   3    3.24    1.38
  -7  16   3    3.72    1.89
  16   7  -3    5.77    2.73
  16   7  -3    3.54    2.33
  16   7  -3    3.82    1.87
  16   7  -1   15.74    3.49
  16   7  -1   13.33    2.63
  16  -7   1   16.29    3.57
   7  16  -1   10.40    2.73
  -7 -16  -1   18.86    3.44
  -7  16   1   16.25    3.05
  16   7  -1   14.43    3.25
  16  -7  -1   12.38    3.06
  16   7   1   18.42    3.18
  16   7   1   16.40    3.66
   7  16   1   12.92    2.79
  -7 -16   1   19.64    3.61
  -7  16  -1   15.69    3.11
  16   7   1   21.93    3.82
  16   7   3    3.36    1.87
   7  16   3    3.66    2.10
 -16  -7   3    5.57    2.26
  16   7   3    2.78    2.31
  16   7   3    6.21    2.78
  -7  16  -3    2.03    1.58
  16  -7  -3    7.30    2.81
  -7  16  -5    2.42    1.93
  16   7   5    5.86    2.34
 -16  -7   5    2.91    1.82
  16   7   5    4.06    2.71
   7  16   5    1.82    2.05
 -16  -7   7   85.38    6.57
  -7  16  -7   78.61    7.00
  16   7   7   89.22    7.44
  -7  16  -9   17.34    3.75
 -16  -7   9   27.07    3.99
  16   7   9   31.57    5.18
  -7  16 -11    9.95    3.54
 -16  -7  11   11.00    2.97
  -7  16 -13   38.47    5.57
 -16  -7  13   40.82    4.97
  -7  16 -15   19.90    4.56
   8  16 -18    4.32    3.07
   8  16 -16    5.55    2.64
  16  -8  16    2.89    2.56
   8  16 -14   -2.79    2.72
  16  -8  14   -3.32    2.59
  16   8 -14    0.61    2.74
   8  16 -14   -1.93    2.18
  16   8 -12   14.36    4.17
   8  16 -12   14.39    3.30
  16  -8  12   22.15    3.98
   8  16 -12   13.22    3.16
  16   8 -10    5.06    3.10
   8  16 -10    4.65    2.55
  16  -8  10   -0.78    2.00
   8  16 -10    5.73    2.85
   8 -16   8   13.08    2.78
  16  -8   8   17.43    3.86
   8  16  -8   14.41    3.24
  16  -8   8   15.15    3.21
  16   8  -8   19.14    4.28
  16   8  -8   14.60    3.91
   8 -16   6   -0.59    1.62
  16  -8   6   -0.06    2.34
   8  16  -6   -0.89    1.89
  16  -8   6    0.91    1.57
  -8  16   6   -1.04    1.54
  16   8  -6    2.37    2.43
  16   8  -6    0.29    2.41
  16  -8   4   14.99    3.57
  -8 -16  -4   19.40    3.75
   8  16  -4   16.20    3.55
  16   8  -4   10.99    3.34
  -8  16   4   16.59    3.08
  16   8  -4   17.66    4.12
   8 -16   4   15.65    2.99
  16  -8   2   39.67    4.96
   8  16  -2   34.39    4.64
  -8 -16  -2   37.96    4.76
  -8  16   2   37.54    4.52
  16   8  -2   41.14    5.33
  16   8  -2   34.33    4.76
  16   8  -2   36.79    3.77
  16  -8   0    3.47    2.43
  16   8   0    7.37    2.26
   8  16   0    7.48    2.65
  16   8   0    6.77    2.84
  -8 -16   0    7.51    2.58
  -8  16   0    8.58    2.27
  16   8   0    8.64    2.96
  16   8   2   36.92    4.08
  16  -8  -2   41.84    5.28
   8  16   2   39.24    4.91
 -16  -8   2   46.02    5.13
  -8 -16   2   43.41    5.07
  16   8   2   39.71    5.06
  16   8   2   44.00    5.23
  -8  16  -2   39.55    4.67
  -8  16  -4   17.34    3.52
 -16  -8   4   13.25    2.98
  16   8   4   18.04    3.62
  16   8   4   11.90    3.31
   8  16   4   17.51    3.70
  -8  16  -6    5.01    2.78
 -16  -8   6    0.53    1.65
  16   8   6    3.22    3.02
  -8  16  -8   12.13    3.36
 -16  -8   8   11.78    2.74
  -8  16 -10    1.47    2.15
 -16  -8  10    1.63    1.77
  -8  16 -12   16.25    3.99
 -16  -8  12   14.07    3.27
  -8  16 -14    1.74    2.78
   9  16 -17    0.64    2.36
  16  -9  17   11.04    3.91
   9  16 -15    9.98    3.57
  16  -9  15    6.62    3.10
  16   9 -13    1.28    2.99
   9  16 -13    1.33    2.35
  16  -9  13    3.72    2.78
   9  16 -13    3.66    2.76
   9  16 -11    0.14    2.03
  16   9 -11    6.24    3.58
  16  -9  11    4.96    2.39
   9  16 -11    3.79    2.59
   9 -16   9   18.22    3.19
  16  -9   9   21.72    4.33
   9  16  -9   10.96    2.95
  16  -9   9   12.64    2.96
  16   9  -9   17.14    4.15
  16   9  -9   11.89    3.60
   9  16  -9   25.34    4.25
   9 -16   7   18.77    3.25
  16  -9   7   18.35    3.98
   9  16  -7   15.37    3.57
  16   9  -7   16.03    3.98
  16  -9   7   16.07    2.98
  16   9  -7   14.64    3.69
   9  16  -5   46.27    5.29
  16  -9   5   46.90    5.60
  -9 -16  -5   50.93    5.59
  16   9  -5   56.38    6.51
  -9  16   5   47.88    4.77
  16   9  -5   40.77    5.31
   9 -16   5   49.61    4.67
   9  16  -3   98.16    7.64
  -9 -16  -3   99.88    7.62
  16   9  -3  104.01    8.39
  -9  16   3  100.11    7.00
  16   9  -3   89.03    7.33
  16  -9   3   88.28    7.43
  16   9  -1   24.09    3.17
  16  -9   1   24.50    4.25
   9  16  -1   25.98    4.23
  -9 -16  -1   26.43    4.22
  16   9  -1   26.14    4.59
  -9  16   1   23.78    3.66
  16   9  -1   24.22    4.19
  16   9   1   21.37    2.98
   9  16   1   22.57    3.92
 -16  -9   1   23.23    3.82
  -9 -16   1   26.50    4.14
  16   9   1   21.83    4.05
  -9  16  -1   19.89    3.44
  16  -9  -1   17.80    3.79
  16   9   3  107.24    6.60
 -16  -9   3   94.15    7.21
  -9 -16   3  100.81    7.68
  -9  16  -3  102.50    7.70
  16   9   3  104.55    8.06
 -16  -9   5   56.22    5.64
  -9  16  -5   55.36    5.95
  16   9   5   54.82    6.27
  -9  16  -7   14.12    3.41
 -16  -9   7   20.74    3.68
  -9  16  -9   14.76    3.60
 -16  -9   9   17.47    3.44
  -9  16 -11    4.56    2.79
 -16  -9  11    4.85    2.25
  -9  16 -13    0.53    2.14
  10  16 -16   14.04    3.90
  16 -10  16   12.33    3.58
  10  16 -14    2.36    2.39
  16 -10  14    0.61    2.21
  10  16 -14    6.58    3.20
  10  16 -12    6.09    2.86
  16 -10  12    1.77    2.44
  16  10 -12    5.56    3.25
  10  16 -12    1.79    2.69
  10 -16  10    2.60    2.08
  16 -10  10    7.37    3.08
  10  16 -10    4.88    2.47
  16 -10  10    5.89    2.25
  16  10 -10    9.75    3.66
  10  16 -10    7.91    3.12
  16  10 -10    2.95    2.94
  10 -16   8   11.53    2.75
  16 -10   8   12.27    3.59
  10  16  -8   10.53    2.66
  16  10  -8   11.57    3.66
  16  10  -8    7.85    3.10
  10  16  -8   17.07    3.83
  16 -10   6   53.15    6.17
  10  16  -6   53.22    5.87
  16  10  -6   50.71    6.22
  16  10  -6   56.45    6.11
  10 -16   6   61.64    5.51
  16 -10   4   19.75    4.08
  10  16  -4   12.52    3.20
 -10 -16  -4   16.43    3.61
 -10  16   4   11.92    2.74
  16  10  -4   19.90    4.61
  16  10  -4   16.66    3.90
  10 -16   4   13.06    2.86
  16 -10   2   43.53    5.39
  10  16  -2   31.43    4.56
 -10 -16  -2   45.92    5.44
 -16  10   2   42.49    4.52
 -10  16   2   42.28    4.78
  16  10  -2   46.60    5.51
 -16 -10   0   80.38    6.82
 -10 -16   0   68.82    6.49
 -10  16   0   71.33    6.19
  16  10   0   61.80    6.25
  16 -10   0   75.89    6.87
  10  16   0   68.95    6.60
  16  10   2   43.61    4.20
 -16 -10   2   49.34    5.54
 -10 -16   2   41.36    5.15
 -10  16  -2   43.01    5.08
  16  10   2   50.52    5.94
  16  10   4   13.11    2.71
 -10  16  -4   10.01    2.82
 -16 -10   4   19.01    3.68
 -10 -16   4   12.27    3.06
 -16 -10   6   57.87    5.80
 -10  16  -6   54.82    6.04
 -10  16  -8    8.00    2.77
 -16 -10   8   14.22    2.89
 -10  16 -10    4.32    2.57
 -16 -10  10    4.75    2.11
 -10  16 -12    1.97    2.23
 -16 -10  12    0.52    1.81
  11  16 -15   -2.07    2.68
  16 -11  15   -0.42    2.34
  11  16 -13    1.03    1.99
  16 -11  13    1.62    2.15
  11  16 -13    0.96    2.64
  11 -16  11    9.10    2.94
  16 -11  11   11.72    3.67
  16  11 -11    7.98    3.51
  11  16 -11   12.82    3.77
  16  11 -11   11.83    3.87
  11  16 -11    7.89    3.30
  11 -16   9    0.18    2.12
  16 -11   9   -1.95    2.31
  11  16  -9   -0.41    1.77
  16  11  -9    0.29    2.52
  16  11  -9    2.87    2.85
  11  16  -9    1.61    2.51
  11 -16   7    2.47    2.15
  16 -11   7    6.37    2.85
  11  16  -7    4.84    2.17
  16  11  -7    4.98    3.24
  16  11  -7    2.49    2.57
  11 -16   5   20.63    3.57
  16 -11   5   27.59    4.78
  11  16  -5   23.91    4.06
  16  11  -5   26.83    4.61
  16 -11   3   17.80    3.98
  11  16  -3   13.25    3.33
 -11 -16  -3   14.37    3.51
 -11  16   3   12.21    2.79
  16  11  -3    8.89    3.28
  11 -16   3   13.14    3.24
  16 -11   1   11.94    3.38
 -11 -16  -1   10.21    2.97
 -16  11   1    9.51    2.58
 -11  16   1    8.79    2.45
  16  11  -1   16.77    3.86
  11  16  -1    9.06    2.84
 -11  16  -1   10.20    2.63
 -16 -11   1   11.42    3.13
 -11 -16   1   13.67    3.44
 -16  11  -1   10.80    2.80
  16  11   1   10.04    3.23
  16 -11  -1    8.62    3.06
 -11  16  -3   22.99    4.11
 -16 -11   3   19.64    3.74
 -11 -16   3   10.98    3.34
 -11  16  -5   20.38    3.78
 -16 -11   5   20.27    3.62
 -11 -16   5   23.75    3.99
 -11  16  -7    2.47    2.08
 -16 -11   7    4.92    2.25
 -11  16  -9   -2.88    2.45
 -16 -11   9    3.34    2.57
 -11  16 -11   10.31    3.10
 -16 -11  11   14.59    3.24
 -16 -11  13    2.71    1.94
  12  16 -14   11.45    3.67
  12  16 -14    8.69    3.36
  12 -16  12    9.95    3.29
  12  16 -12    9.86    3.03
  16  12 -12   16.18    4.18
  12  16 -12   11.06    3.55
  12 -16  10   20.08    3.95
  16  12 -10   17.74    4.91
  16 -12  10   15.16    4.24
  12  16 -10   13.24    3.55
  16  12 -10    9.99    3.71
  12  16 -10   14.38    3.77
  12 -16   8    6.57    2.80
  16 -12   8    2.46    2.49
  12  16  -8    2.21    2.16
  16  12  -8    3.51    3.01
  16  12  -8    5.76    3.30
  12  16  -8    7.01    2.87
  12 -16   6    1.00    1.88
  16 -12   6   -0.86    2.29
  12  16  -6    0.62    1.76
  16  12  -6   -0.39    2.41
  12  16  -6    4.59    3.35
  16 -12   4    7.32    3.13
  12  16  -4    4.28    2.08
 -12 -16  -4    3.95    2.40
  16  12  -4    6.30    3.00
  12 -16   4    3.24    2.21
  16 -12   2    5.92    3.03
 -12 -16  -2    3.52    2.19
 -16  12   2    4.06    1.84
 -12  16   2    4.80    1.99
  16  12  -2    7.53    3.12
 -12  16   0    6.77    2.49
 -16 -12   0   10.07    3.22
 -12 -16   0    4.41    2.51
 -16  12   0    5.42    1.97
  16  12   0    7.43    3.03
  16 -12   0    0.11    2.16
 -12  16  -2    3.44    2.25
 -16 -12   2    4.84    2.38
 -12 -16   2    4.30    1.90
 -16  12  -2    5.59    2.33
 -12  16  -4    2.20    2.20
 -16 -12   4    5.18    2.56
 -12 -16   4    2.19    2.43
 -16  12  -4    6.62    2.45
 -12  16  -6    3.14    2.33
 -16 -12   6    0.06    2.06
 -12 -16   6    2.06    2.01
 -12  16  -8    3.21    2.46
 -16 -12   8    3.98    2.46
 -12 -16   8    3.49    2.28
 -12  16 -10    7.07    2.89
 -16 -12  10   12.84    3.29
 -16 -12  12    7.01    3.08
  13  16 -13   -1.65    2.35
  13  16 -13   -3.54    3.56
  13 -16  11    3.43    2.48
  13  16 -11    5.11    2.84
  13  16 -11    4.77    3.43
  13 -16   9    2.78    2.54
  16 -13   9    5.08    2.93
  13  16  -9    6.08    2.92
  16  13  -9    2.40    2.67
  13  16  -9    5.21    2.90
  13 -16   7   16.25    3.57
  16 -13   7   17.88    4.12
  13  16  -7   15.36    3.35
  16  13  -7   22.42    4.53
  13  16  -7   27.37    4.81
  13 -16   5    6.67    2.75
  16 -13   5    8.18    3.29
  16  13  -5   10.61    3.24
  13  16  -5    8.40    3.54
  16 -13   3    6.45    3.13
 -13 -16  -3    2.37    2.60
  13 -16   3    9.84    2.98
  16  13  -3   12.08    3.76
 -16 -13  -1    2.81    2.28
 -13 -16  -1    1.20    2.20
 -16  13   1    1.94    1.90
  16  13  -1    2.93    2.85
  16 -13   1    4.72    2.46
 -13  16   1    3.91    2.26
 -13  16  -1    2.69    2.04
 -16 -13   1    3.40    2.38
 -13 -16   1   -1.99    2.78
 -16  13  -1    1.13    1.84
 -13  16  -3    6.97    2.57
 -16 -13   3    8.39    2.97
 -13 -16   3    3.29    2.56
 -16  13  -3    6.82    2.79
 -13  16  -5    5.77    2.54
 -16 -13   5    9.46    3.13
 -13 -16   5    7.13    2.85
 -16  13  -5    4.00    2.09
 -16 -13   7   16.85    3.80
 -13  16  -7   13.50    3.56
 -13 -16   7   17.21    3.73
 -16  13  -7   13.23    3.54
 -16 -13   9    3.72    2.25
 -13  16  -9   11.69    3.63
 -16  13  -9    4.80    3.04
  14  16 -12    2.29    2.53
  14 -16  12    0.84    2.52
  14 -16  10    0.85    2.34
  14 -16   8   24.13    4.24
  16 -14   8   22.62    4.58
  14  16  -8   33.02    5.17
  14 -16   6    5.78    3.05
  16 -14   6    6.48    3.24
  14  16  -6    7.09    3.48
  16 -14   4    2.50    2.60
  16  14  -4    0.88    2.54
  14  16  -4    6.60    3.76
  14 -16   4    5.53    2.93
 -14 -16  -2   28.02    4.91
  16  14  -2   34.29    5.56
  16 -14   2   23.65    4.62
 -16 -14   0   55.22    6.40
 -14 -16   0   62.21    6.71
 -14  16   0   54.11    5.80
 -16  14   0   64.05    6.14
  16  14   0   79.61    8.19
 -14  16  -2   24.33    4.38
 -16 -14   2   30.89    4.93
 -14 -16   2   26.28    4.67
 -16  14  -2   24.37    4.22
 -14  16  -4    1.68    2.31
 -16 -14   4    6.28    2.90
 -14 -16   4   -0.40    2.54
 -16  14  -4    3.83    2.13
 -16 -14   6    3.63    2.68
 -14  16  -6    7.72    2.81
 -16  14  -6    6.32    2.87
 -16  14  -8   24.15    4.51
  15 -16   9   36.75    5.53
  15 -16   7    2.09    2.38
  16 -15   7    0.95    2.63
  15 -16   5   42.90    5.71
  16 -15   5   36.82    5.42
  15 -16   3  160.65   10.26
  16 -15   3  161.78   10.52
 -15  16  -1   23.08    4.30
 -16  15  -1   25.92    4.37
 -15  16  -3  149.27   10.16
 -16  15  -3  152.06   10.17
 -15  16  -5   41.60    5.67
 -16  15  -5   32.12    5.15
 -16  16  -2   76.28    7.36
 -16  16  -4   17.55    4.02
  17   0  -1   15.36    3.21
  17   0  -1   10.07    2.78
  17   0   1   10.63    3.04
   0 -17  -1   15.59    2.82
   0  17   1   11.53    2.98
   0  17  -1    8.62    2.72
  17   0   1   11.04    2.64
  17   0  -3    4.08    2.42
  17   0   3    8.39    3.10
  17   0  -3    3.11    2.19
   0 -17  -3    7.28    2.26
   0  17   3    6.69    2.35
  17   0   3    6.54    2.01
   0  17  -3    4.89    2.41
  17   0   5   -1.65    2.05
  17   0  -5   -0.22    2.27
   0 -17  -5    2.19    1.66
   0  17   5    2.71    1.59
   0  17  -5   -0.96    1.56
   0  17   7   36.72    4.52
  17   0  -7   43.94    5.75
   0  17  -7   37.57    4.91
   0  17   9   42.13    4.80
  17   0  -9   31.94    5.13
   0  17  -9   30.66    4.65
  17   0 -11   19.39    4.56
  17   0  11   14.90    3.37
   0  17 -11    6.21    2.74
  17   0 -13   19.47    4.50
  17   0  13   18.36    3.60
   0  17 -13   15.54    3.64
  17   0 -15   25.31    5.00
  17   0  15   23.72    4.65
   0  17 -15   17.97    3.96
   0  17 -17    8.92    3.45
  17  -1  16    4.71    2.66
   1  17 -16    4.41    3.08
  17   1 -14    8.37    3.59
  17  -1  14    7.97    3.17
   1  17 -14    7.95    3.08
  17   1 -12   46.02    6.31
   1  17 -12   48.08    5.94
  17  -1  12   55.39    6.25
  -1  17  10   21.40    3.39
  17   1 -10   26.46    4.79
   1  17 -10   18.17    3.73
  17  -1  10   21.43    3.59
  -1  17   8   -0.33    1.67
  17   1  -8    6.79    2.90
   1  17  -8    5.47    2.59
  -1 -17  -6   36.79    4.13
  -1  17   6   30.52    4.08
  17   1  -6   29.50    4.80
   1  17  -6   32.42    4.49
  17  -1   4   19.62    3.89
  -1 -17  -4   22.87    3.34
  17   1  -4   26.56    4.44
  -1  17   4   24.67    3.90
   1  17  -4   22.43    3.79
  17   1  -4   21.25    3.78
  17   1  -2    1.32    1.95
  17  -1   2    5.94    2.71
  -1 -17  -2    2.90    1.86
  17   1  -2    2.78    2.63
  -1  17   2    1.72    1.72
   1  17  -2    3.15    2.14
  17  -1   0    7.90    2.87
  17   1   0    9.09    2.89
  17   1   0   12.02    2.87
   1  17   0   10.32    2.96
  17  -1   0    8.06    2.44
  -1  17   0   12.68    3.03
  17  -1  -2    2.95    2.26
  17   1   2    3.53    1.82
  17   1   2    1.91    2.19
   1 -17  -2    3.59    1.71
   1  17   2    1.21    1.94
  -1  17  -2    4.39    2.17
  17  -1  -2    4.18    2.15
  17   1   4   22.31    3.89
   1 -17  -4   19.96    3.05
   1  17   4   19.36    3.55
  -1  17  -4   20.64    3.77
  17   1   4   16.03    2.48
  17  -1  -4   20.63    3.95
  17  -1  -4   19.27    3.89
   1 -17  -6   26.68    3.37
   1  17   6   30.16    4.20
  -1  17  -6   27.98    4.33
  17   1   6   34.08    4.55
  17  -1  -6   29.03    4.93
   1  17   8    0.73    1.56
  -1  17  -8    4.73    2.25
  17   1   8    2.78    2.05
  17  -1  -8    2.89    2.46
   1  17  10   23.82    3.92
  -1  17 -10   23.61    4.11
  17   1  10   17.90    3.62
  17  -1 -10   21.60    4.44
  17   1  12   46.98    5.73
  -1  17 -12   40.40    5.44
  17  -1 -12   52.23    6.72
  17   1  14    7.36    2.77
  -1  17 -14    8.06    3.29
  17  -1 -14    4.29    3.07
  17   1  16    1.67    2.66
  -1  17 -16    2.45    2.38
  17  -2  17    4.09    2.79
   2  17 -17    1.89    2.46
  17   2 -15    2.45    2.60
  17  -2  15    1.46    2.47
   2  17 -15    1.98    2.61
  17   2 -13   11.96    3.77
   2  17 -13    7.42    2.93
  17  -2  13    6.05    2.76
  -2  17  11   24.47    3.65
  17   2 -11   29.28    5.27
   2  17 -11   23.75    4.15
  17  -2  11   24.52    4.24
  -2  17   9    0.15    1.60
  17   2  -9    4.16    2.91
   2  17  -9    1.14    1.80
  17  -2   9    2.94    1.70
  -2  17   7   16.54    3.08
   2  17  -7   26.18    4.18
  17   2  -7   16.03    3.92
  17  -2   7   25.02    3.83
  17  -2   5   20.04    3.94
  -2 -17  -5   14.63    2.95
  -2  17   5   16.56    3.14
   2  17  -5   17.23    3.43
  17   2  -5   18.47    3.91
  17  -2   3   61.15    5.89
  -2 -17  -3   63.26    5.33
  -2  17   3   62.59    5.78
   2  17  -3   67.91    6.30
  17   2  -3   58.44    6.09
  17   2  -3   55.53    5.39
  17   2  -1    9.31    2.84
  17  -2   1    6.94    2.82
  -2 -17  -1    8.41    2.42
   2  17  -1    6.62    2.59
  17   2  -1   11.30    2.93
  -2  17   1    8.23    2.44
  17  -2  -1    9.56    3.05
  17   2   1   14.75    3.17
   2  17   1    7.40    2.42
  17   2   1   11.12    2.87
  -2  17  -1   13.84    3.21
  17   2   3   63.77    5.83
   2  17   3   63.38    5.97
   2 -17  -3   69.80    5.04
  -2  17  -3   62.73    5.99
  17   2   3   57.78    4.88
  17   2   3   57.70    5.76
  17  -2  -3   62.00    5.92
   2 -17  -5   15.61    2.55
   2  17   5   17.51    3.26
  -2  17  -5   17.09    3.42
  17  -2  -5   18.81    3.75
  17   2   5   11.48    3.07
 -17  -2   7   23.28    3.17
   2  17   7   16.76    3.40
  -2  17  -7   13.60    3.02
  17  -2  -7   20.82    4.28
  17   2   7   11.40    3.07
   2  17   9    5.17    2.05
  -2  17  -9    4.39    2.47
  17  -2  -9    5.89    3.18
  17   2   9    3.20    2.24
  17  -2 -11   24.95    4.72
  -2  17 -11   16.67    3.85
  17   2  11   17.51    3.57
  17  -2 -13    7.74    3.88
  -2  17 -13    7.33    2.83
  17   2  15    3.90    2.94
  17  -2 -15    3.73    2.95
  -2  17 -15    0.95    2.25
  17  -3  16   11.12    3.65
   3  17 -16    7.40    3.11
  17   3 -14   12.77    4.03
   3  17 -14   19.61    4.20
  17  -3  14   14.18    3.68
   3  17 -12    8.65    2.87
  17   3 -12    5.77    3.02
  17  -3  12    9.15    2.99
  -3  17  10   12.20    2.67
   3  17 -10    9.50    3.00
  17  -3  10    9.80    3.18
  17   3 -10   16.21    4.13
  -3  17   8   53.95    5.11
   3  17  -8   51.94    5.80
  17  -3   8   58.95    5.84
  17   3  -8   60.09    6.81
  17  -3   6   23.94    4.37
  -3 -17  -6   24.39    3.63
  -3  17   6   21.84    3.49
   3  17  -6   22.59    3.98
  17  -3   6   26.30    3.70
  17   3  -6   24.16    4.36
  17  -3   4    9.81    3.07
  -3 -17  -4    7.86    2.54
  -3  17   4    7.61    2.31
   3  17  -4    9.03    2.79
  17  -3   4    7.98    2.32
  17   3  -4   11.66    3.40
  17   3  -4    6.78    2.24
  17  -3   2   88.81    7.09
  -3 -17  -2   96.39    6.77
   3  17  -2   94.85    7.34
  -3  17   2   88.88    6.74
  17   3  -2   84.49    7.12
  17   3  -2   80.59    6.21
   3  17   0   91.73    7.26
  -3 -17   0   97.68    6.85
  -3  17   0   89.70    6.95
  17   3   0   85.05    7.08
  17   3   0   93.73    7.02
  17  -3   0  102.70    7.66
  17   3   0   94.90    6.76
  17   3   2   83.51    6.51
   3  17   2   91.44    7.16
   3 -17  -2   90.50    5.63
  -3  17  -2   87.84    6.89
  17   3   2   81.17    6.92
  17   3   2   93.57    6.59
  17  -3  -2   90.58    7.00
  17   3   4   15.83    3.50
   3  17   4   14.60    3.04
   3 -17  -4   12.24    2.36
  17   3   4    9.16    2.27
  -3  17  -4   13.99    3.21
  17   3   4    9.28    2.91
  17  -3  -4   10.33    3.09
   3 -17  -6   21.89    2.84
 -17  -3   6   26.76    3.50
   3  17   6   23.42    3.86
  -3  17  -6   18.96    3.67
  17   3   6   17.37    3.56
 -17  -3   8   60.39    5.06
  -3  17  -8   48.20    5.59
  17   3   8   54.44    5.52
   3  17   8   59.43    5.83
 -17  -3  10   10.60    2.45
  -3  17 -10   11.84    3.09
  17   3  10   14.75    3.21
  17   3  12    8.96    2.98
  -3  17 -12    4.82    2.46
  -3  17 -14   16.50    4.25
  17   3  16   13.58    3.93
  -3  17 -16   10.32    3.71
   4  17 -17    7.88    3.10
  17  -4  17    9.38    3.61
   4  17 -15    2.94    2.19
  17  -4  15    2.10    2.81
  17   4 -15    6.99    3.76
   4  17 -13   16.82    3.82
  17  -4  13   18.68    4.18
  17   4 -13   13.13    4.22
   4  17 -11   16.40    3.73
  17  -4  11   19.35    4.10
  17   4 -11   19.27    4.77
  17   4  -9   10.36    3.50
  -4  17   9    6.42    2.10
   4  17  -9   12.27    3.32
  17  -4   9    3.86    2.40
  17   4  -7   26.99    4.65
  -4  17   7   27.52    3.76
   4  17  -7   31.15    4.63
  17  -4   7   35.12    4.57
  17  -4   5   27.26    4.41
  -4 -17  -5   35.99    4.46
  17   4  -5   35.62    5.21
  -4  17   5   45.12    4.89
   4  17  -5   37.54    4.84
  17  -4   5   41.17    4.65
  17   4  -3   84.28    7.39
  17  -4   3   91.97    7.37
  -4 -17  -3   93.92    6.81
   4  17  -3   92.02    7.32
  -4  17   3   96.93    7.03
  17  -4   3   96.69    6.43
  17   4  -3   96.10    6.55
  17   4  -1   10.97    2.79
  17  -4   1   12.96    3.40
  17   4  -1    6.70    2.93
  -4 -17  -1   13.29    2.88
   4  17  -1   13.95    3.27
  -4  17   1   13.48    2.91
  17  -4   1   16.59    2.76
  17   4  -1    8.95    2.96
  17  -4  -1    7.79    3.02
  17   4   1   11.51    2.97
  17   4   1   10.43    2.99
  -4 -17   1   14.54    3.10
   4  17   1    9.30    2.66
  -4  17  -1   16.35    3.26
  17   4   1   13.92    3.51
  17   4   3  107.30    7.36
   4  17   3  103.84    7.72
   4 -17  -3   97.32    5.49
  -4  17  -3   95.84    7.26
  17   4   3   92.64    7.24
  17   4   3  100.11    6.71
  17  -4  -3  104.35    7.73
   4  17   5   40.56    4.96
 -17  -4   5   40.17    4.32
   4 -17  -5   39.40    3.54
  -4  17  -5   33.79    4.54
  17   4   5   36.10    4.74
   4  17   7   27.85    4.23
 -17  -4   7   31.27    3.90
  -4  17  -7   29.40    4.38
  17   4   7   33.33    4.61
 -17  -4   9    4.99    2.12
  17   4   9    7.51    2.98
  -4  17  -9    6.57    2.51
 -17  -4  11   24.18    3.52
  17   4  11   17.87    3.71
  -4  17 -11   25.08    4.41
  17   4  13   20.17    4.10
  -4  17 -13   18.10    4.07
  -4  17 -15   -0.30    2.21
   5  17 -16    4.55    2.55
  17  -5  16    3.04    2.37
   5  17 -14   13.55    3.64
  17  -5  14   10.66    3.39
  17   5 -14   13.40    4.35
  17   5 -12   42.16    6.14
   5  17 -12   55.12    6.22
  17  -5  12   50.19    6.14
   5  17 -12   47.90    4.89
  17   5 -10   16.52    4.15
   5  17 -10   19.41    3.87
  17  -5  10   19.17    3.89
  -5  17   8   41.72    4.55
  17   5  -8   40.00    5.67
   5  17  -8   38.59    4.99
  17  -5   8   43.32    5.31
  17  -5   6   15.80    3.76
  -5 -17  -6   21.44    3.69
   5  17  -6   14.49    3.21
  -5  17   6   15.21    2.93
  17   5  -6   12.54    3.67
  17  -5   6   13.66    2.77
  17  -5   4   28.17    4.25
  -5 -17  -4   25.57    3.91
   5  17  -4   29.27    4.42
  -5  17   4   28.55    3.99
  17   5  -4   34.35    5.25
  17  -5   4   35.34    4.33
  17   5  -4   30.00    4.66
   5  17  -2   67.48    6.36
  -5 -17  -2   61.24    5.76
  17   5  -2   56.81    6.26
  -5  17   2   55.41    5.46
  17  -5   2   56.86    4.94
  17   5  -2   63.60    6.35
  17   5  -2   61.07    5.26
  17  -5   2   56.83    5.93
  17  -5   0    1.75    2.24
  17   5   0   -0.03    1.92
  -5 -17   0    1.44    1.69
   5  17   0    0.90    1.78
  17   5   0   -2.63    2.37
  -5  17   0    1.28    1.78
  17   5   0   -1.33    2.46
  17   5   2   67.94    5.85
   5  17   2   59.62    5.93
  17   5   2   53.60    5.47
   5 -17  -2   61.61    4.36
  -5  17  -2   59.99    5.75
  17   5   2   62.66    6.09
  17  -5  -2   58.65    6.11
  17   5   4   35.73    4.57
 -17  -5   4   37.52    4.37
   5  17   4   36.75    4.77
  17   5   4   23.99    3.57
  -5  17  -4   27.43    4.18
  17   5   4   29.82    4.35
   5  17   6   19.74    3.79
 -17  -5   6   20.30    3.36
  -5  17  -6   16.42    3.36
  17   5   6   18.16    3.82
 -17  -5   8   43.60    4.74
  17   5   8   41.96    5.21
  -5  17  -8   39.50    5.22
 -17  -5  10   21.15    3.45
  17   5  10   22.14    4.13
  -5  17 -10   13.77    3.36
 -17  -5  12   58.22    5.56
  -5  17 -12   53.31    6.51
  17   5  12   52.33    5.88
  -5  17 -14   15.39    4.18
   6  17 -17   36.38    5.64
   6  17 -15   14.88    3.67
  17  -6  15   17.99    4.00
  17   6 -13   56.79    7.24
   6  17 -13   51.60    6.27
  17  -6  13   55.07    6.39
   6  17 -11   31.65    4.90
  17   6 -11   27.59    5.28
  17  -6  11   25.96    4.42
   6  17 -11   35.37    4.64
  -6  17   9   17.76    2.91
   6  17  -9   21.40    4.01
  17  -6   9   28.82    4.44
  17   6  -9   14.66    4.11
  17  -6   7  133.12    9.06
   6  17  -7  134.25    9.16
  -6  17   7  147.54    8.28
  17   6  -7  130.10    9.91
  17  -6   7  134.47    8.69
  17  -6   5   36.77    5.04
  -6 -17  -5   34.22    4.57
  -6  17   5   37.22    4.37
   6  17  -5   38.30    4.96
  17  -6   5   40.26    4.67
  17   6  -5   40.72    5.53
  17   6  -5   45.47    6.03
  17  -6   3    4.25    2.95
  -6 -17  -3    2.76    1.71
   6  17  -3    3.71    2.08
  -6  17   3    1.30    1.39
  17  -6   3    0.69    1.67
  17   6  -3   -2.04    2.99
  17   6  -3    5.13    2.86
  17   6  -3    1.88    1.67
   6  17  -1   82.99    7.08
  -6 -17  -1   72.79    6.37
  17   6  -1   75.59    7.10
  -6  17   1   78.63    6.49
  17   6  -1   72.33    6.80
  17   6  -1   73.06    5.64
  17  -6   1   77.19    6.97
   6  17   1   89.80    7.31
  -6 -17   1   83.67    6.78
  17   6   1   71.78    6.58
  -6  17  -1   73.75    6.32
  17   6   1   75.01    6.69
  17  -6  -1   75.15    6.77
  17   6   1   83.66    6.21
  17   6   3    7.46    2.65
 -17  -6   3    3.36    1.99
   6  17   3    3.08    1.79
  -6  17  -3    0.20    1.57
  17   6   3    1.50    2.10
  17   6   3    4.18    2.43
  17  -6  -3    3.62    2.36
 -17  -6   5   39.88    4.61
  -6  17  -5   34.91    4.69
  17   6   5   31.05    4.52
   6  17   5   42.16    5.16
 -17  -6   7  132.59    8.17
  -6  17  -7  145.29    9.58
  17   6   7  140.52    9.15
 -17  -6   9   22.31    3.58
  17   6   9   18.60    3.92
  -6  17  -9   16.40    3.51
  -6  17 -11   33.12    5.19
 -17  -6  11   28.15    4.15
  17   6  11   30.44    4.79
 -17  -6  13   62.62    6.07
  -6  17 -13   53.83    6.74
  17   6  13   61.90    6.61
   7  17 -16   10.97    3.67
  17  -7  16    7.03    3.18
   7  17 -14    6.00    2.87
  17  -7  14    6.44    2.57
  17   7 -12   86.20    8.75
   7  17 -12   67.70    6.98
  17  -7  12   73.92    7.23
   7  17 -12   72.07    6.31
   7  17 -10   11.52    3.13
  17  -7  10   15.59    3.78
  17   7 -10   15.42    4.22
  17  -7   8   33.42    4.95
  -7  17   8   40.56    4.47
   7  17  -8   37.28    5.08
  17  -7   8   39.55    4.89
  17   7  -8   42.24    6.15
  17  -7   6   33.39    5.10
  -7 -17  -6   29.50    4.38
  17   7  -6   50.20    6.55
  -7  17   6   41.03    4.64
   7  17  -6   34.85    4.82
  17  -7   6   30.29    4.07
  17   7  -6   37.11    5.36
  17  -7   4   58.02    6.13
   7  17  -4   68.17    6.49
  -7 -17  -4   63.78    6.09
  -7  17   4   67.90    5.92
  17   7  -4   59.03    6.75
  17   7  -4   66.55    6.59
   7  17  -2   40.82    5.21
  -7 -17  -2   47.15    5.27
  17   7  -2   39.29    5.46
  -7  17   2   49.87    5.17
  17   7  -2   55.07    5.99
  17   7  -2   49.69    4.60
  17  -7   2   54.62    5.97
  17  -7   0    7.58    2.77
  17   7   0   10.63    2.85
   7  17   0    9.68    2.71
  -7 -17   0   18.50    3.67
  17   7   0    7.75    2.99
  -7  17   0   12.87    2.91
  17   7   0   11.32    3.38
  17   7   2   50.02    5.00
   7  17   2   49.87    5.62
  -7 -17   2   55.00    5.73
  17   7   2   43.68    5.25
  -7  17  -2   42.47    4.94
  17   7   2   49.37    5.63
  17  -7  -2   50.16    5.80
  17   7   4   70.96    6.07
 -17  -7   4   67.57    5.97
  17   7   4   54.22    5.63
  -7  17  -4   54.96    5.79
  17   7   4   62.79    6.30
   7  17   4   66.41    6.49
 -17  -7   6   37.92    4.67
  17   7   6   35.99    5.08
  -7  17  -6   40.70    5.25
  -7  17  -8   32.08    4.81
 -17  -7   8   36.36    4.54
  17   7   8   39.39    5.48
  -7  17 -10   15.53    3.51
 -17  -7  10   18.62    3.48
  17   7  10   21.25    4.61
 -17  -7  12   74.51    6.66
  -7  17 -12   58.08    6.82
  17   7  12   73.64    7.51
 -17  -7  14    3.36    2.23
  17   7  14    9.55    3.74
   8  17 -15   -0.89    2.21
  17  -8  15   -0.69    2.24
   8  17 -13   17.42    3.97
  17  -8  13   15.16    3.63
   8  17 -13   16.48    3.79
   8  17 -11    0.46    1.89
  17  -8  11    1.56    2.37
  17   8 -11    3.60    3.11
   8  17 -11    8.63    3.21
  17  -8   9    4.09    2.95
  17   8  -9   -0.72    2.62
   8  17  -9    0.71    1.98
  17  -8   9    4.99    2.26
  17  -8   7   49.26    5.86
   8  17  -7   55.83    6.10
  -8  17   7   56.53    5.17
  17   8  -7   52.38    6.62
  17  -8   7   50.99    5.26
  17   8  -7   43.58    5.84
  17  -8   5   48.01    5.82
   8  17  -5   50.58    5.71
  -8 -17  -5   43.48    5.33
  -8  17   5   48.10    4.96
  17   8  -5   47.79    6.31
  17   8  -5   51.98    6.17
   8  17  -3   46.46    5.48
  17  -8   3   45.14    5.70
  -8 -17  -3   54.47    5.80
  -8  17   3   45.57    5.01
  17   8  -3   50.56    6.35
  17   8  -3   40.01    5.23
   8  17  -1   62.61    6.35
  -8 -17  -1   67.37    6.34
  -8  17   1   62.76    5.89
  17   8  -1   68.05    6.60
  17   8  -1   64.45    6.79
  17   8  -1   64.13    5.13
  17  -8   1   72.97    6.92
   8  17   1   64.49    6.32
  -8 -17   1   66.73    6.36
  -8  17  -1   67.49    6.17
  17   8   1   65.09    6.55
  17   8   1   69.26    6.84
  17  -8  -1   65.02    6.61
  17   8   1   65.49    5.34
  17   8   3   41.71    4.72
   8  17   3   34.61    4.88
  17   8   3   38.33    5.02
 -17  -8   3   46.52    5.19
  -8 -17   3   46.27    5.36
  17   8   3   38.65    5.08
  -8  17  -3   39.55    4.98
 -17  -8   5   52.68    5.59
  -8  17  -5   51.68    5.84
  17   8   5   50.41    5.89
 -17  -8   7   53.11    5.55
  -8  17  -7   46.98    5.80
  17   8   7   55.48    6.51
  -8  17  -9    0.59    1.86
 -17  -8   9    4.86    2.50
  17   8   9    5.81    3.28
  -8  17 -11    3.31    2.66
 -17  -8  11    7.77    2.90
  17   8  11    8.07    3.62
 -17  -8  13   15.45    3.47
 -17  -8  15    3.29    2.53
  17  -9  16   20.39    4.70
   9  17 -14    7.95    3.23
  17  -9  14   11.47    3.56
  17   9 -12    5.74    3.68
   9  17 -12   -1.50    2.02
  17  -9  12    1.19    2.40
   9  17 -12    5.20    3.08
  17  -9  10   33.29    5.29
  17   9 -10   27.12    5.15
   9  17 -10   19.55    3.96
  17  -9  10   26.82    4.27
   9  17 -10   24.12    4.27
  17  -9   8   64.82    6.81
   9  17  -8   60.14    6.43
  17   9  -8   75.38    8.07
  17   9  -8   65.75    7.04
  17  -9   6   31.27    5.08
   9  17  -6   23.21    4.09
  -9  17   6   21.94    3.38
  17   9  -6   24.55    4.83
  17   9  -6   26.04    5.06
   9 -17   6   27.80    3.73
   9  17  -4   93.47    7.71
  -9 -17  -4   92.66    7.69
  -9  17   4   87.91    6.78
  17   9  -4   82.04    7.45
  17   9  -4   91.39    8.36
  17  -9   4   83.58    7.43
   9  17  -2  115.45    8.52
  17   9  -2  111.30    8.96
  -9 -17  -2  113.37    8.39
  -9  17   2  113.56    7.84
  17   9  -2  106.28    8.26
  17  -9   2  107.08    8.32
   9  17   0   53.82    6.00
  17  -9   0   52.87    6.04
  -9 -17   0   47.49    5.61
  17   9   0   57.79    6.51
  -9  17   0   47.13    5.22
  17   9   0   44.27    5.37
  17   9   0   55.24    4.73
  17   9   2  111.53    6.83
 -17  -9   2  105.34    7.90
  -9 -17   2  111.31    8.39
  17   9   2  113.95    8.62
  -9  17  -2  109.67    8.03
  17   9   2  105.53    8.17
  17  -9  -2  109.99    8.41
   9  17   2  103.96    8.27
  17   9   4   83.89    6.43
 -17  -9   4   86.53    7.09
  -9 -17   4   83.34    7.16
  17   9   4   78.25    6.95
  -9  17  -4   87.98    7.48
  17   9   4   88.57    7.78
  -9  17  -6   29.36    4.70
 -17  -9   6   29.42    4.37
  17   9   6   35.35    5.47
 -17  -9   8   69.79    6.58
  -9  17  -8   69.82    7.14
  17   9   8   84.39    8.29
  -9  17 -10   26.71    4.74
 -17  -9  10   24.07    4.03
 -17  -9  12    0.08    1.90
 -17  -9  14   10.72    3.27
  10  17 -15    2.90    2.65
  17 -10  15    9.25    3.57
  10  17 -13    4.66    2.32
  17 -10  13    6.43    2.68
  10  17 -13    5.39    2.87
  17 -10  11   23.28    4.95
  10  17 -11   21.16    4.12
  17  10 -11   25.03    5.28
  10  17 -11   24.78    4.34
  17 -10   9   22.73    4.74
  10  17  -9   17.25    3.82
  17  10  -9   23.26    4.92
  17  10  -9   20.31    4.55
  10  17  -9   20.06    4.11
  10 -17   7   13.98    2.99
  17 -10   7   16.99    4.01
  17  10  -7   20.44    4.75
  10  17  -7   23.76    4.31
  17  10  -7   17.13    4.16
  10  17  -5   48.50    5.79
  17 -10   5   41.57    5.61
 -10 -17  -5   44.79    5.45
 -10  17   5   38.64    4.53
  17  10  -5   54.44    6.74
  17  10  -5   46.60    5.78
  10 -17   5   50.26    5.08
  10  17  -3   74.59    6.99
 -10 -17  -3   83.17    7.34
  17  10  -3   91.51    8.54
 -10  17   3   79.66    6.55
  17  10  -3   71.08    7.00
  17 -10   3   81.00    7.48
  17 -10   1   31.03    4.91
  10  17  -1   35.90    5.14
  17  10  -1   33.06    5.23
 -10 -17  -1   36.25    5.21
 -10  17   1   41.69    5.08
  17  10  -1   41.24    5.54
 -17 -10   1   38.63    5.09
 -10 -17   1   33.34    4.92
  17  10   1   38.88    5.70
 -10  17  -1   29.14    4.25
  17  10   1   40.25    5.61
  10  17   1   31.12    4.81
  17 -10  -1   31.74    4.97
 -17 -10   3   79.85    7.15
 -10 -17   3   82.03    7.34
 -10  17  -3   79.67    7.19
  17  10   3  104.77    8.61
 -17 -10   5   51.34    5.76
 -10 -17   5   55.08    6.07
 -10  17  -5   52.25    5.96
  17  10   5   54.31    6.81
 -10  17  -7   15.43    3.73
 -17 -10   7   21.68    3.89
  17  10   7   24.50    5.39
 -10  17  -9   11.71    3.39
 -17 -10   9   16.56    3.71
 -17 -10  11   19.08    3.89
 -17 -10  13   10.04    3.24
  11  17 -14   12.50    3.86
  11  17 -12    4.75    2.85
  11  17 -12   -0.81    2.43
  17 -11  10   20.95    4.73
  11  17 -10   12.33    3.33
  17  11 -10   17.50    4.44
  11  17 -10   20.77    4.34
  17 -11   8   29.31    5.02
  11  17  -8   25.44    4.35
  17  11  -8   29.26    5.45
  17  11  -8   28.38    4.92
  11  17  -8   29.54    4.78
  17 -11   6    1.08    2.46
  17  11  -6    1.22    2.77
  11  17  -6    2.39    2.13
  17  11  -6    2.21    2.52
  11 -17   6   -1.41    1.91
  17 -11   4   18.23    4.36
  11  17  -4   10.06    3.23
 -11 -17  -4   12.85    3.29
  17  11  -4   22.34    4.92
 -11  17   4   14.77    3.11
  17  11  -4   13.24    3.78
  17 -11   2   45.68    5.78
 -11 -17  -2   41.77    5.63
 -11  17   2   45.41    5.12
  17  11  -2   43.00    5.51
  11  17  -2   46.72    5.70
 -11 -17   0   10.58    3.08
 -17  11   0   13.02    3.16
 -11  17   0   12.62    3.15
  17  11   0   17.81    3.81
  17 -11   0   15.17    3.52
 -11 -17   2   50.53    6.05
 -17 -11   2   42.06    5.38
  17  11   2   51.88    6.47
 -11  17  -2   38.44    5.18
 -11  17  -4   19.67    3.90
 -17 -11   4   14.36    3.49
 -11 -17   4   14.06    3.64
  17  11   4   12.00    4.03
 -11  17  -6    0.09    2.33
 -17 -11   6    2.94    2.12
 -11 -17   6    1.27    2.41
 -11  17  -8   32.40    5.25
 -17 -11   8   31.88    5.01
 -17 -11  10   22.94    4.34
 -17 -11  12    1.80    1.96
  12  17 -13   11.56    3.93
  12  17 -11   27.42    4.88
  12  17 -11   30.38    5.14
  17 -12   9   23.66    4.84
  12  17  -9   15.93    3.65
  12  17  -9   25.08    4.76
  12 -17   7   20.22    3.69
  17 -12   7   33.87    5.30
  12  17  -7   26.21    4.43
  17  12  -7   19.92    4.68
  17  12  -7   22.07    4.56
  12  17  -7   35.93    5.34
  17  12  -5   18.38    4.79
  17 -12   5   18.27    4.33
  12  17  -5    8.93    2.79
  17  12  -5    6.07    3.04
  12 -17   5   11.29    3.07
  17 -12   3   11.59    3.72
 -12 -17  -3    8.95    3.16
 -12  17   3    7.32    2.32
  17  12  -3    8.94    3.37
  12  17  -3   10.56    3.36
 -12 -17  -1    7.51    3.19
 -12  17   1    5.88    2.37
  17  12  -1   10.48    3.71
  17 -12   1    8.78    3.39
 -17 -12   1   10.27    3.19
 -12 -17   1    9.15    3.44
 -17  12  -1    2.57    1.51
  17  12   1    8.50    3.36
 -12  17  -1    4.60    2.19
 -12  17  -3    9.92    2.99
 -17 -12   3    9.59    2.95
 -12 -17   3    8.50    2.82
 -17  12  -3    8.06    2.81
 -12  17  -5   12.29    3.39
 -17 -12   5   12.56    3.48
 -12 -17   5    9.81    3.15
 -12  17  -7   25.31    4.66
 -17 -12   7   23.83    4.29
 -17 -12   9   14.44    3.72
  13 -17   8   13.27    3.25
  13  17  -8   21.28    4.37
  13  17  -8   15.99    4.02
  17 -13   6    7.98    3.29
  13  17  -6   13.86    4.24
  13  17  -6    5.65    3.02
  13 -17   6    4.95    2.77
  17 -13   4   11.45    3.57
  13 -17   4    7.79    3.03
 -13 -17  -2   18.27    4.16
 -13  17   2   13.19    3.15
  17  13  -2   20.44    4.60
  17 -13   2   12.96    3.74
 -17 -13   0    3.85    2.30
 -13 -17   0    3.63    2.43
 -17  13   0   -0.56    1.74
  17  13   0    4.13    3.00
 -13  17   0    4.93    2.36
 -13  17  -2   11.83    3.08
 -17 -13   2   20.70    4.24
 -13 -17   2   15.91    3.78
 -17  13  -2   13.99    3.34
  17  13   2   18.24    4.88
 -13  17  -4    4.89    2.72
 -17 -13   4    7.59    3.02
 -17  13  -4    7.13    2.92
 -13  17  -6    3.75    2.76
 -17 -13   6    5.89    2.64
 -17  13  -6    0.60    1.92
  14 -17   9    1.11    2.42
  14 -17   7    8.40    3.30
  14 -17   5   22.83    4.39
  17 -14   3   20.13    4.52
 -14  17  -1    4.58    2.48
 -17  14  -1    4.69    2.05
 -14  17  -3    8.72    3.08
 -17  14  -3   11.20    2.94
 -14  17  -5   14.78    3.74
 -17  14  -5   17.97    3.89
  15 -17   6   11.46    3.29
 -17  15  -2   42.82    5.73
 -15  17  -2   53.78    6.25
 -15  17  -4    7.00    3.17
 -17  15  -4   11.21    3.08
 -17  16  -3   72.75    7.44
   0  18   0   42.94    5.13
  18   0   0   46.19    4.90
  18   0   0   53.35    5.69
  18   0  -2    3.86    2.41
  18   0   2    5.77    2.47
   0 -18  -2    5.88    2.22
   0  18   2    5.07    2.16
  18   0   2    4.22    1.89
   0  18  -2    6.80    2.63
  18   0  -2    5.29    2.53
  18   0  -4    6.48    2.51
  18   0   4    7.90    3.04
   0 -18  -4    9.33    2.50
   0  18   4    5.79    2.49
   0  18  -4    5.93    2.39
  18   0  -4    5.63    2.37
  18   0  -6    4.39    3.00
  18   0   6   -0.58    2.08
   0 -18  -6    2.55    1.83
   0  18   6   -0.90    1.80
   0  18  -6    1.16    2.10
  18   0  -8   11.73    3.46
   0  18   8    5.60    2.29
   0  18  -8   12.30    3.40
  18   0 -10   16.73    4.23
   0  18  10   15.66    3.41
   0  18 -10   19.02    4.28
  18   0 -12    7.31    3.10
  18   0  12    8.19    2.96
   0  18 -12   15.23    3.97
  18   0  14   12.69    3.44
   0  18 -14   10.86    3.42
  18   0 -14   12.11    3.82
  18  -1  15    2.25    2.58
   1  18 -15    3.63    2.71
  18   1 -13    8.08    3.60
   1  18 -13    0.71    2.18
  18  -1  13    6.71    2.82
  -1  18  11    8.98    2.61
  18   1 -11   11.62    3.50
   1  18 -11   12.62    3.29
  18  -1  11   11.81    3.41
  -1  18   9   -0.43    1.53
  18   1  -9    4.74    3.14
   1  18  -9    7.00    2.69
  18  -1   9    0.46    1.78
  -1  18   7   13.50    3.03
  18   1  -7   25.06    4.91
   1  18  -7   16.36    3.66
  18  -1   5   19.37    3.91
  -1 -18  -5   27.05    3.83
  18   1  -5   12.59    3.87
  -1  18   5   23.90    3.98
   1  18  -5   18.40    3.73
  18  -1   3   34.10    4.75
  -1 -18  -3   36.98    4.39
  -1  18   3   38.67    4.90
  18   1  -3   37.55    5.16
   1  18  -3   30.89    4.58
  18   1  -3   34.57    4.49
  18   1  -1    8.72    3.10
  18  -1   1   10.29    3.24
  18   1  -1   10.29    3.10
  -1 -18  -1    7.24    2.15
   1  18  -1    3.84    2.10
  -1  18   1    7.71    2.65
  18   1   1    6.19    2.13
  18  -1  -1    6.23    3.11
  18   1   1    7.17    2.81
   1 -18  -1   11.59    2.67
   1  18   1    8.24    2.82
  18  -1  -1    6.30    2.37
  -1  18  -1    8.68    2.47
  18   1   3   40.44    5.02
   1  18   3   41.51    5.16
   1 -18  -3   31.71    3.75
  -1  18  -3   47.42    5.39
  18  -1  -3   29.31    4.42
  18   1   3   33.31    3.62
  18  -1  -3   39.22    5.01
  18   1   5   26.33    4.30
   1 -18  -5   18.13    3.04
   1  18   5   20.08    3.73
  -1  18  -5   15.36    3.50
  18  -1  -5   13.99    3.69
   1  18   7   25.47    4.12
  -1  18  -7   15.98    3.61
  18  -1  -7   22.14    4.60
   1  18   9    0.52    1.70
  -1  18  -9    3.20    2.22
  18  -1  -9    1.90    2.78
  -1  18 -11   13.00    3.91
  18  -1 -11   10.70    3.68
  18   1  13    4.25    2.43
  -1  18 -13    2.85    2.11
  18  -1 -13    8.51    3.67
  18   1  15    6.09    3.26
  18  -2  16    0.21    2.49
  18   2 -14   13.09    4.16
   2  18 -14   11.14    3.73
  18  -2  14    6.47    2.83
  18   2 -12    1.69    2.44
   2  18 -12    5.61    2.74
  18  -2  12    7.38    3.37
  -2  18  10   12.20    2.90
  18   2 -10   15.94    4.46
   2  18 -10    6.90    2.67
  18  -2  10    7.68    2.85
  -2  18   8   52.55    5.36
   2  18  -8   52.41    5.99
  18  -2   8   55.71    5.57
  18   2  -8   56.43    6.85
  18  -2   6   65.28    6.28
  -2 -18  -6   66.89    5.81
  -2  18   6   76.02    6.52
   2  18  -6   67.85    6.56
  18  -2   6   65.92    5.88
  18   2  -6   61.65    6.80
  18  -2   4   16.27    3.72
  -2 -18  -4   14.28    2.97
  -2  18   4   16.22    3.42
  18   2  -4   14.72    3.74
   2  18  -4    9.75    3.06
  18   2  -4    9.75    2.79
  -2 -18  -2   72.82    6.05
   2  18  -2   72.89    6.68
  -2  18   2   77.04    6.61
  18   2  -2   72.40    6.66
  18   2  -2   71.17    6.30
  18  -2   2   73.52    6.68
   2  18   0  172.89   10.10
  -2 -18   0  177.17    9.30
  -2  18   0  161.28    9.56
  18   2   0  158.66    9.03
  18  -2   0  150.90    9.38
  18   2   0  159.37    9.24
  18   2   2   76.56    6.69
   2  18   2   81.09    7.04
   2 -18  -2   67.72    5.26
  -2  18  -2   67.48    6.35
  18   2   2   74.75    5.79
  18  -2  -2   67.33    6.34
  18   2   4   16.13    3.61
   2 -18  -4   15.60    2.83
   2  18   4   14.33    3.28
  -2  18  -4   14.45    3.39
  18   2   4   15.36    3.55
  18  -2  -4   12.46    3.29
   2  18   6   68.23    6.39
   2 -18  -6   77.61    5.41
  -2  18  -6   69.54    6.65
  18  -2  -6   75.71    7.21
  18   2   6   68.63    6.59
   2  18   8   56.23    5.75
  -2  18  -8   49.65    5.81
  18  -2  -8   47.73    6.21
  18   2   8   44.92    5.36
  18  -2 -10    7.72    3.25
  -2  18 -10   12.30    3.36
  18   2  10   11.77    3.24
  18  -2 -12    7.97    3.45
  -2  18 -12    3.27    1.92
  18  -2 -14    8.27    3.50
  18   2  14   17.35    4.21
  -2  18 -14   11.38    3.56
   3  18 -15   19.27    4.19
  18  -3  15   28.18    5.35
  18   3 -13    8.52    3.65
   3  18 -13    5.29    2.87
  18  -3  13    4.59    2.61
   3  18 -11   21.22    4.22
  18   3 -11   15.20    3.88
  18  -3  11   20.30    4.15
  -3  18   9   79.94    6.50
   3  18  -9   79.60    7.47
  18  -3   9   85.68    7.27
  18   3  -9   94.78    8.63
  18  -3   7    1.51    2.31
  -3  18   7   -1.62    2.24
   3  18  -7    0.15    1.81
  18  -3   7    0.54    1.69
  18   3  -7    1.92    3.02
  18  -3   5   39.19    5.27
  -3 -18  -5   41.65    4.67
  -3  18   5   46.48    5.12
   3  18  -5   36.27    4.99
  18  -3   5   45.01    4.92
  18   3  -5   43.04    5.65
  18  -3   3  278.34   12.71
  -3 -18  -3  292.51   12.00
   3  18  -3  277.26   12.88
  -3  18   3  275.73   12.14
  18  -3   3  280.62   10.87
  18   3  -3  270.21   12.94
  18   3  -3  269.48   11.49
  18   3  -1   16.07    3.57
  18  -3   1   15.93    3.84
  -3 -18  -1   11.34    2.83
   3  18  -1    9.67    2.68
  -3  18   1   11.85    2.97
  18   3  -1    9.69    2.81
  18  -3  -1   11.80    3.29
  18   3   1   12.13    3.31
   3 -18  -1   13.31    2.57
  -3 -18   1   15.44    3.33
   3  18   1   10.76    3.05
  18   3   1   14.00    3.19
  -3  18  -1   11.97    3.17
  18   3   1   14.45    3.62
  18   3   3  303.08   12.60
   3  18   3  291.65   13.05
   3 -18  -3  284.75   10.08
  -3  18  -3  276.32   12.58
  18   3   3  282.21   10.80
  18   3   3  283.01   12.88
  18  -3  -3  280.12   12.75
  18   3   5   45.34    5.36
   3 -18  -5   45.19    4.19
   3  18   5   38.28    4.93
  -3  18  -5   42.73    5.29
  18   3   5   39.07    5.03
   3  18   7   -0.01    1.58
  -3  18  -7    3.86    2.44
  18   3   7    1.33    2.34
  -3  18  -9   82.41    7.49
  18   3   9   93.46    7.53
  -3  18 -11   17.11    4.04
  18   3  11   24.18    4.39
  -3  18 -13    5.83    2.74
  18  -4  16   12.24    3.91
   4  18 -14   16.90    4.20
  18  -4  14   16.00    3.72
   4  18 -12    5.14    2.55
  18  -4  12    0.73    2.06
  18   4 -12    5.44    3.07
  -4  18  10    5.95    2.31
   4  18 -10    8.50    2.97
  18  -4  10    4.36    2.51
  18   4 -10    4.35    3.08
  -4  18   8   54.24    5.31
   4  18  -8   55.89    6.12
  18  -4   8   61.36    6.30
  18   4  -8   48.57    6.43
  18  -4   6   42.61    5.51
  -4 -18  -6   33.10    4.40
  -4  18   6   36.67    4.61
   4  18  -6   29.49    4.62
  18  -4   6   31.94    4.34
  18   4  -6   30.13    4.87
  18  -4   4   21.95    4.43
  -4 -18  -4   24.79    3.82
   4  18  -4   24.65    4.23
  -4  18   4   21.12    3.61
  18  -4   4   24.19    3.84
  18   4  -4   19.95    4.24
   4  18  -2  118.81    8.60
  -4 -18  -2  115.09    7.84
  -4  18   2  110.81    7.88
  18  -4   2  115.02    7.02
  18   4  -2  108.78    8.30
  18   4  -2  112.81    7.43
  18  -4   2  114.74    8.48
   4  18   0   73.11    6.82
  -4 -18   0   74.56    6.39
  -4  18   0   71.37    6.45
  18   4   0   73.94    7.01
  18   4   0   76.49    6.72
  18  -4   0   76.35    6.96
  18   4   0   83.23    6.51
  18   4   2  109.39    7.66
   4  18   2  123.00    8.64
   4 -18  -2  114.73    6.31
  -4  18  -2  104.36    7.83
  18   4   2  109.40    8.20
  18   4   2  109.52    7.39
  18  -4  -2  113.32    8.32
  18   4   4   24.13    4.04
   4  18   4   29.35    4.54
  -4  18  -4   24.39    4.11
  18   4   4   26.44    4.39
 -18  -4   6   26.42    3.72
   4  18   6   39.30    5.06
  -4  18  -6   32.98    4.79
  18   4   6   45.12    5.47
 -18  -4   8   53.63    5.16
  18   4   8   62.94    6.39
  -4  18  -8   46.63    5.64
   4  18   8   56.66    5.98
  -4  18 -10   10.16    3.31
  18   4  10    6.29    2.96
  18   4  12    3.73    2.74
  -4  18 -12    3.21    2.51
   5  18 -15    2.75    2.44
  18  -5  15    3.68    3.01
   5  18 -13   15.94    3.93
  18  -5  13   18.52    4.30
  18   5 -13   19.02    4.74
   5  18 -11   18.24    3.94
  18  -5  11    8.72    3.02
  18   5 -11   16.27    4.24
  18   5  -9    8.57    3.33
  -5  18   9   10.04    2.41
   5  18  -9   16.44    3.78
  18  -5   9    2.09    1.89
  18  -5   7   25.54    4.41
  18   5  -7   22.72    4.76
  -5  18   7   22.38    3.64
   5  18  -7   17.96    3.67
  18  -5   7   24.60    4.15
  18  -5   5    9.31    3.33
  -5 -18  -5   11.37    3.28
  18   5  -5   14.12    3.95
   5  18  -5    7.31    2.71
  -5  18   5    6.76    2.33
  18  -5   5    6.57    2.57
  18   5  -3   71.10    7.20
   5  18  -3   66.21    6.58
  -5 -18  -3   74.10    6.52
  -5  18   3   73.03    6.39
  18   5  -3   78.88    7.25
  18   5  -3   64.28    5.57
  18  -5   3   84.15    7.45
  18   5  -1    9.92    2.90
  18  -5   1   13.67    3.66
  -5 -18  -1   13.32    3.11
   5  18  -1    8.82    2.71
  18   5  -1   12.95    3.45
  -5  18   1   18.99    3.62
  18   5  -1    6.83    2.65
  18  -5  -1   18.07    4.01
  18   5   1   14.75    3.38
   5  18   1   16.83    3.59
  18   5   1   16.03    3.56
  -5 -18   1   16.87    3.52
  -5  18  -1   13.53    3.21
  18   5   1   11.03    3.48
  18   5   3   72.64    6.23
   5  18   3   72.93    6.84
  -5  18  -3   73.38    6.69
  18   5   3   70.84    6.75
  18  -5  -3   68.34    6.71
  18   5   3   78.84    6.35
  18   5   5    4.70    2.63
   5  18   5    7.13    2.59
  -5  18  -5    7.70    2.57
  18   5   5    4.94    2.65
   5  18   7   24.46    4.11
 -18  -5   7   31.11    4.17
  -5  18  -7   27.31    4.45
  18   5   7   24.55    4.33
 -18  -5   9   11.94    2.70
  -5  18  -9    7.23    2.75
  18   5   9    7.46    3.06
  18   5  11   11.87    3.29
  -5  18 -11    6.05    2.73
  18  -6  16    6.08    3.31
   6  18 -14    3.59    2.68
  18  -6  14    4.72    2.78
  18   6 -12   52.15    7.03
   6  18 -12   46.46    6.16
  18  -6  12   51.89    6.32
  18   6 -10    9.19    3.75
   6  18 -10    7.16    2.85
  18  -6  10    7.72    2.79
  18  -6   8   23.64    4.53
  -6  18   8   14.83    2.91
   6  18  -8   14.55    3.67
  18   6  -8   14.09    3.87
  18  -6   8   13.60    3.32
  18  -6   6   30.99    4.96
  -6 -18  -6   23.34    3.95
   6  18  -6   20.24    3.79
  -6  18   6   19.42    3.37
  18   6  -6   26.64    4.87
  18  -6   6   25.47    4.12
  18  -6   4   35.75    4.97
  -6 -18  -4   39.03    4.94
   6  18  -4   38.30    5.18
  -6  18   4   39.26    4.71
  18   6  -4   31.40    5.05
  18   6  -4   27.82    4.86
  18   6  -2   36.24    4.35
  18  -6   2   48.72    5.68
  -6 -18  -2   44.71    5.34
   6  18  -2   38.77    5.18
  -6  18   2   46.29    5.28
  18   6  -2   31.68    5.09
  18   6  -2   38.15    5.17
  18  -6   0    7.91    3.11
  18   6   0    7.39    2.71
   6  18   0    7.18    2.45
  -6 -18   0    4.61    2.30
  18   6   0    7.42    3.08
  -6  18   0    3.18    1.58
  18   6   0    8.50    2.79
   6  18   2   44.13    5.57
  18   6   2   42.07    4.89
  -6 -18   2   32.32    4.58
  18   6   2   33.79    4.60
  -6  18  -2   34.58    4.72
  18   6   2   40.83    5.10
  18  -6  -2   33.96    5.13
  18   6   4   35.13    4.67
   6  18   4   31.57    4.74
  -6  18  -4   26.39    4.26
  18   6   4   35.79    5.16
   6  18   6   19.71    3.85
 -18  -6   6   24.82    3.86
  -6  18  -6   19.90    3.85
  18   6   6   27.44    4.63
 -18  -6   8   17.50    3.30
  18   6   8   16.79    3.91
  -6  18  -8   16.46    3.61
 -18  -6  10    4.66    2.44
  18   6  10    8.35    2.89
  -6  18 -10    8.27    3.26
  18   6  12   51.53    6.18
  -6  18 -12   51.30    6.58
  18  -7  15    0.00    2.35
   7  18 -13   34.12    5.48
  18  -7  13   31.92    5.25
   7  18 -11   15.57    3.89
  18   7 -11   14.12    4.15
  18  -7  11   12.95    3.66
   7  18 -11   13.87    3.70
  18  -7   9   -0.33    2.38
   7  18  -9    1.81    1.84
  18  -7   9    0.75    1.94
  18   7  -9    2.78    2.67
  18  -7   7   55.17    6.31
   7  18  -7   54.65    6.32
  -7  18   7   63.50    5.71
  18   7  -7   51.03    6.79
  18  -7   5   19.13    3.95
  -7 -18  -5   25.01    4.08
   7  18  -5   15.19    3.65
  -7  18   5   27.26    3.98
  18   7  -5   20.38    4.24
  18   7  -5   22.19    4.54
  18  -7   3   16.24    3.96
  -7 -18  -3   18.80    3.78
   7  18  -3   21.75    3.97
  -7  18   3   19.65    3.57
  18   7  -3   17.47    3.68
  18   7  -3   20.26    3.28
  18   7  -3   23.05    4.66
  18  -7   1   45.01    5.66
  18   7  -1   44.81    5.99
  -7 -18  -1   44.81    5.41
   7  18  -1   39.27    5.26
  -7  18   1   39.12    4.95
  18   7  -1   30.88    4.76
  18   7  -1   46.29    4.78
  18  -7  -1   44.26    5.59
   7  18   1   46.45    5.71
  18   7   1   36.68    5.17
  -7 -18   1   42.86    5.21
  -7  18  -1   42.15    5.17
  18   7   1   45.88    5.54
  18   7   1   47.88    5.08
  18   7   3   18.67    3.77
   7  18   3   21.03    4.04
  -7 -18   3   21.72    3.99
  -7  18  -3   18.41    3.65
  18   7   3   12.49    3.41
  18  -7  -3   13.13    3.71
  18   7   3   16.08    3.48
  18   7   5   21.34    3.86
 -18  -7   5   18.07    3.41
  -7  18  -5   17.89    3.70
  18   7   5   25.27    4.34
   7  18   5   23.15    4.03
 -18  -7   7   62.29    6.00
  -7  18  -7   55.11    6.29
  18   7   7   69.00    6.93
 -18  -7   9    0.93    1.81
  18   7   9    1.55    2.59
  -7  18  -9    2.10    2.00
  -7  18 -11   19.24    4.32
 -18  -7  11   10.85    3.12
  18   7  11   13.40    3.93
  18   7  13   30.33    5.19
  18  -8  14    3.19    2.67
   8  18 -12    6.18    2.82
  18  -8  12    5.85    2.54
   8  18 -12   11.20    3.16
  18  -8  10   12.51    3.73
   8  18 -10    4.37    2.44
  18   8 -10   11.63    4.11
   8  18 -10   19.44    4.00
  18  -8   8   36.07    5.48
   8  18  -8   32.12    4.79
  18   8  -8   36.73    5.92
  18  -8   6   -1.00    2.60
  18   8  -6    0.97    2.92
   8  18  -6   -1.08    1.82
  -8  18   6    0.52    1.51
  18   8  -6    1.34    2.59
   8  18  -4   61.05    6.52
  -8 -18  -4   76.56    7.05
  18   8  -4   50.22    6.52
  -8  18   4   49.32    5.33
  18   8  -4   56.00    6.32
  18  -8   4   63.37    6.80
   8  18  -2   48.79    5.85
  -8 -18  -2   53.54    6.04
  18   8  -2   51.74    6.52
  -8  18   2   51.39    5.57
  18   8  -2   50.66    5.87
  18   8  -2   47.85    4.66
  18  -8   2   57.89    6.40
  18  -8   0   11.79    3.61
  18   8   0   10.69    2.62
   8  18   0    7.14    2.62
  -8 -18   0   14.26    3.32
  18   8   0   10.02    3.70
  -8  18   0    7.85    2.38
  18   8   0   10.38    3.19
   8  18   2   45.24    5.65
  -8 -18   2   50.45    5.80
  -8  18  -2   48.25    5.51
  18   8   2   56.38    6.35
  18   8   2   54.12    6.34
  18  -8  -2   46.48    5.94
  18   8   2   54.31    5.22
  18   8   4   62.90    6.01
 -18  -8   4   59.38    5.99
  -8 -18   4   54.18    5.98
  -8  18  -4   58.66    6.24
  18   8   4   60.59    6.54
   8  18   4   59.53    6.47
 -18  -8   6   -1.72    2.46
  18   8   6    2.50    2.94
  -8  18  -6    2.56    2.49
 -18  -8   8   41.11    5.19
  18   8   8   35.85    5.52
  -8  18  -8   29.33    4.85
  -8  18 -10   11.19    3.58
 -18  -8  10    9.67    2.87
  18   8  10   16.01    4.62
 -18  -8  12    8.03    2.68
  18   8  12   12.86    4.45
  18   8  14    5.10    3.99
  18  -9  15    3.25    3.02
   9  18 -11    3.33    2.24
   9  18 -11    6.88    3.36
  18  -9   9   20.91    4.51
  18   9  -9   19.33    4.76
   9  18  -9   21.68    4.15
  18  -9   7   27.92    4.88
   9  18  -7   24.54    4.44
  18   9  -7   33.40    5.96
  18   9  -7   25.46    4.79
  18  -9   5   39.47    5.58
  -9 -18  -5   38.10    5.23
   9  18  -5   33.15    5.11
  18   9  -5   35.50    6.00
  -9  18   5   35.37    4.55
  18   9  -5   30.36    5.15
   9  18  -3  104.66    8.37
  -9 -18  -3   93.12    7.87
  -9  18   3   90.13    7.19
  18   9  -3   89.97    8.62
  18   9  -3   91.45    7.89
  18  -9   3   89.67    8.11
  18  -9   1   33.07    5.23
   9  18  -1   31.06    4.77
  -9 -18  -1   37.06    5.23
  -9  18   1   36.03    4.75
  18   9  -1   35.26    5.58
  18   9  -1   42.78    5.65
   9  18   1   33.33    5.01
  -9 -18   1   39.30    5.37
  -9  18  -1   30.67    4.58
  18   9   1   39.56    5.57
  18  -9  -1   39.01    5.53
  18   9   1   43.33    5.97
  18   9   3   97.72    6.89
 -18  -9   3   92.90    7.60
  -9 -18   3   94.88    7.90
  -9  18  -3   85.71    7.42
  18   9   3  112.68    8.80
  18   9   5   32.07    4.40
 -18  -9   5   40.22    5.20
  -9 -18   5   37.96    5.12
  18   9   5   38.52    5.61
  -9  18  -5   34.51    5.02
  -9  18  -7   25.48    4.67
 -18  -9   7   24.58    4.22
  18   9   7   38.21    5.91
  -9  18  -9   11.75    3.54
 -18  -9   9   18.59    3.65
  18   9   9   21.46    5.19
 -18  -9  11    1.12    1.86
  18   9  11   10.55    4.34
 -18  -9  13    2.12    2.15
  18   9  13   23.68    6.02
  10  18 -12    1.61    2.82
  10  18 -10    8.99    3.06
  10  18 -10   17.56    3.86
  18 -10   8   20.99    4.24
  10  18  -8   32.38    5.03
  18  10  -8   26.66    5.46
  18  10  -8   27.18    4.67
  18 -10   6    4.51    3.10
  10  18  -6    7.53    2.94
  18  10  -6    6.24    3.32
  18  10  -6    5.85    3.08
  18 -10   4    3.73    2.57
  18  10  -4    3.17    3.17
  10  18  -4    4.32    2.42
 -10 -18  -4   10.88    2.99
 -10  18   4    2.40    1.98
  18  10  -4    6.33    2.93
  18 -10   2   25.05    4.80
  10  18  -2   28.79    4.73
 -10 -18  -2   27.64    4.63
  18  10  -2   29.72    5.50
 -10  18   2   28.11    4.33
  18  10  -2   28.58    4.87
  18  10   0   60.98    7.12
 -10 -18   0   61.61    6.54
 -10  18   0   58.68    6.08
  18  10   0   56.24    6.54
  10  18   0   56.90    6.58
  18 -10   0   45.75    5.92
 -18 -10   2   25.53    4.38
 -10 -18   2   38.42    5.57
  18  10   2   30.06    5.22
 -10  18  -2   23.60    4.21
  18  10   2   30.42    5.26
 -18 -10   4    6.53    2.65
 -10 -18   4    2.56    2.10
  18  10   4    8.88    3.62
 -10  18  -4    5.26    2.28
 -10  18  -6   10.07    3.25
 -18 -10   6    9.57    3.10
 -10 -18   6   12.78    3.78
  18  10   6   15.40    4.62
 -10  18  -8   28.92    5.16
 -18 -10   8   26.01    4.53
  18  10   8   38.24    6.46
 -18 -10  10    8.74    3.14
  18  10  10   19.22    5.40
 -18 -10  12    3.56    2.79
  18  10  12   20.18    5.89
  11  18 -13   10.23    3.73
  11  18 -11    8.92    3.57
  11  18  -9    0.96    2.14
  11  18  -9   14.01    4.07
  18  11  -7   36.17    6.25
  11  18  -7   39.36    5.55
  18 -11   5    2.44    2.54
  11  18  -5    9.95    3.07
  18  11  -5   10.50    4.05
  18  11  -5    5.58    3.51
  18 -11   3    4.22    2.61
  11  18  -3    1.50    2.18
 -11 -18  -3    4.00    2.48
 -11  18   3    5.67    2.62
  18  11  -3    2.84    2.92
  18  11  -3    5.69    3.63
 -11 -18  -1    7.52    3.10
  18  11  -1    0.93    2.68
 -11  18   1    3.11    2.17
  18  11  -1    2.70    3.02
  11  18  -1    2.14    2.35
  18 -11   1    3.53    2.84
 -11 -18   1    5.67    2.95
 -11  18  -1    2.44    2.13
  18  11   1    2.02    3.06
  18  11   1    6.02    3.15
 -18 -11   3    1.48    2.45
 -11 -18   3    4.25    2.49
  18  11   3    6.91    3.24
 -11  18  -3    2.88    2.37
 -11  18  -5    5.86    2.57
 -18 -11   5    8.77    2.97
 -11 -18   5    4.11    2.62
  18  11   5   13.81    4.66
 -11  18  -7   31.38    5.02
 -18 -11   7   28.35    4.74
 -18 -11   9    6.13    2.68
  12  18  -8    7.15    3.20
  18  12  -6   34.50    6.14
  18 -12   4   19.57    4.21
  12  18  -4   29.80    5.05
  18  12  -4   18.90    4.57
  18 -12   2    1.58    2.45
  18  12  -2    3.13    3.20
 -12  18   2    0.28    1.65
 -12  18   0   11.09    3.16
  18 -12   0    7.72    3.00
 -18 -12   2    1.01    1.98
 -18  12  -2   -0.73    1.97
 -12  18  -2    3.72    2.37
 -12  18  -4   17.83    3.88
 -18 -12   4   18.51    3.97
 -12  18  -6   27.71    4.91
 -18 -12   6   37.93    5.38
 -13  18   1    4.50    2.50
 -13  18  -1   10.73    3.35
 -13  18  -3   14.58    3.57
 -18  13  -3    6.99    2.58
 -18  13  -5    0.09    2.15
 -14  18   0    3.92    2.14
 -14  18  -2    1.31    2.10
 -18  14  -2    4.02    2.25
 -18  14  -4    4.50    2.78
 -18  15  -3   10.40    3.23
  19   0  -1   20.70    4.28
  19   0   1   22.41    4.36
   0 -19  -1   17.33    3.03
   0  19   1   20.88    3.75
   0  19  -1   17.09    3.91
  19   0   1   21.96    3.37
  19   0  -1   16.41    3.42
  19   0   3   25.77    4.46
   0 -19  -3   32.98    4.11
   0  19   3   36.72    5.08
   0  19  -3   25.97    4.30
  19   0  -3   30.11    4.63
  19   0  -3   28.89    4.68
  19   0   5   10.53    3.54
   0 -19  -5   11.53    2.70
   0  19   5   11.09    2.88
   0  19  -5   11.53    3.01
  19   0  -5    8.78    3.28
  19   0   7   19.77    4.01
   0  19   7   14.21    3.42
   0  19  -7    9.22    2.87
  19   0  -7   15.11    4.03
   0  19   9    3.82    2.48
   0  19  -9    0.36    2.17
  19   0  -9    3.08    2.68
   0  19 -11   -3.09    2.42
  19   0  11   -1.22    1.89
  19   0 -11    3.59    2.99
  19   0  13   -2.90    2.70
  19  -1  14    3.62    2.23
  19   1 -12    3.57    3.19
   1  19 -12    3.25    2.66
  19  -1  12    4.83    2.43
  -1  19  10   12.50    3.18
  19   1 -10    6.20    3.38
   1  19 -10   10.11    3.15
  19  -1  10    6.00    2.59
  -1  19   8   64.31    6.32
   1  19  -8   65.83    6.82
  19  -1   8   56.02    5.84
  19   1  -8   60.22    7.09
  19  -1   6    1.01    2.33
  19   1  -6   -0.18    2.65
  -1 -19  -6    2.84    1.84
  -1  19   6    1.79    1.89
   1  19  -6    1.35    1.81
  19  -1   4    8.18    3.18
  19   1  -4    1.09    2.24
  -1 -19  -4    1.76    1.62
  -1  19   4    0.24    1.83
   1  19  -4    1.02    2.02
  19   1  -4    0.83    2.09
  19   1  -2   46.80    5.39
  19  -1   2   49.09    5.88
  -1 -19  -2   52.15    5.19
  -1  19   2   51.35    5.70
   1  19  -2   47.35    5.66
  19   1  -2   52.15    5.89
   1  19   0   69.56    6.87
  -1 -19   0   73.55    6.21
   1 -19   0   78.32    6.11
  -1  19   0   72.97    6.77
  19   1   0   79.13    6.52
  19  -1   0   71.41    6.75
  19   1   0   74.84    6.79
   1  19   2   52.48    5.87
   1 -19  -2   49.92    4.89
  -1  19  -2   43.31    5.34
  19  -1  -2   56.89    6.13
  19   1   2   56.75    6.06
  19   1   4    2.57    2.81
   1 -19  -4    2.40    1.92
   1  19   4    3.26    2.20
  -1  19  -4    1.33    1.78
  19  -1  -4    3.17    2.71
  19  -1  -4    7.49    3.36
  19   1   6    6.28    2.47
   1 -19  -6    4.10    1.94
   1  19   6    5.34    2.38
  -1  19  -6    0.75    1.79
  19  -1  -6    4.33    2.84
   1  19   8   53.84    5.90
  -1  19  -8   52.64    6.17
  19  -1  -8   61.01    6.99
  -1  19 -10    3.84    2.62
  19  -1 -10    1.13    2.52
   1  19  10    3.92    2.13
  19   1  12    4.12    2.76
  -1  19 -12    3.67    2.55
  19  -1 -12   -2.34    2.49
  19   1  14   -1.14    2.08
  19  -2  15   -0.67    2.30
  19  -2  13    4.19    2.90
  -2  19  11   16.96    3.40
  19   2 -11    7.64    3.96
   2  19 -11   15.53    3.98
  19  -2  11   14.53    3.48
  -2  19   9   42.29    5.11
  19   2  -9   29.58    5.38
   2  19  -9   30.53    5.05
  19  -2   9   32.07    4.64
  19  -2   7    4.41    3.05
  -2  19   7   -2.93    2.40
  19   2  -7    3.15    2.67
   2  19  -7   -0.10    1.89
  19  -2   7   -0.12    1.80
  19  -2   5   72.35    6.98
  -2 -19  -5   73.20    6.19
  -2  19   5   64.67    6.35
   2  19  -5   63.69    6.63
  19   2  -5   62.50    6.84
  19  -2   3  165.84   10.25
  -2 -19  -3  171.74    9.37
  -2  19   3  176.29   10.21
   2  19  -3  156.86   10.05
  19   2  -3  150.52    9.84
  19   2  -3  161.41    9.45
  19   2  -1   39.00    4.93
  19  -2   1   37.50    5.29
  -2 -19  -1   42.23    4.93
  19   2  -1   39.11    5.06
   2  19  -1   37.89    5.15
  -2  19   1   38.58    5.00
  19  -2  -1   37.63    5.15
  19   2   1   34.99    4.85
   2 -19  -1   40.04    4.31
  -2 -19   1   37.14    4.61
   2  19   1   34.32    4.94
  -2  19  -1   38.87    5.16
  19   2   1   44.56    4.97
  19   2   3  166.84    9.96
   2  19   3  164.57   10.17
   2 -19  -3  163.81    8.21
  -2  19  -3  166.88   10.18
  19  -2  -3  169.47   10.21
  19   2   5   59.45    6.20
   2  19   5   65.64    6.61
   2 -19  -5   64.59    5.22
  -2  19  -5   68.46    6.78
   2  19   7   -3.93    2.44
  -2  19  -7   -0.16    2.07
   2  19   9   38.90    5.14
  -2  19  -9   36.67    5.41
  19   2   9   33.98    5.12
  -2  19 -11    8.71    3.24
  19   2  13    3.17    2.57
  19  -3  14    4.87    2.52
  19   3 -12    8.47    3.81
   3  19 -12   10.63    3.47
  19  -3  12    9.28    3.36
  -3  19  10   14.16    3.11
  19   3 -10    7.54    3.54
   3  19 -10   13.33    3.70
  19  -3  10   13.67    3.58
  -3  19   8   41.24    4.89
  19  -3   8   34.75    5.11
   3  19  -8   42.25    5.74
  19   3  -8   49.33    6.49
  19  -3   8   46.77    5.56
  19  -3   6   78.10    7.13
  -3 -19  -6   80.56    6.62
  -3  19   6   76.83    6.76
   3  19  -6   81.39    7.38
  19  -3   6   77.92    6.69
  19   3  -6   62.77    6.99
  19  -3   4   49.22    5.79
  -3 -19  -4   50.60    5.42
  -3  19   4   45.01    5.33
   3  19  -4   41.37    5.42
  19   3  -4   46.77    5.96
  19  -3   4   55.77    5.38
  -3 -19  -2  102.05    7.45
   3  19  -2   94.90    8.05
  -3  19   2   90.17    7.40
  19   3  -2   91.69    7.73
  19   3  -2   99.66    7.47
  19  -3   2   86.04    7.58
   3  19   0  115.54    8.70
  -3 -19   0  126.11    8.30
  -3  19   0  129.87    8.88
  19   3   0  123.25    8.37
  19  -3   0  119.78    8.78
  19   3   0  116.45    8.11
  19   3   2  101.70    7.81
   3  19   2   97.27    7.96
   3 -19  -2   92.21    6.11
  -3  19  -2   97.90    7.91
  19  -3  -2   96.20    7.96
   3  19   4   47.88    5.63
  19   3   4   47.15    5.65
  -3  19  -4   41.45    5.31
  19   3   4   41.84    5.52
   3  19   6   78.61    7.20
  19   3   6   86.39    7.40
  -3  19  -6   76.74    7.23
  19   3   6   86.93    7.56
   3  19   8   42.26    5.39
  -3  19  -8   46.76    5.87
  19   3   8   50.84    5.99
  -3  19 -10   13.46    3.58
  19   3  10    9.97    3.06
  19  -4  15   20.85    4.83
  19  -4  13    0.38    2.35
   4  19 -11    2.96    2.18
  19   4 -11    4.69    2.71
  19  -4  11    4.07    2.92
  19  -4   9   41.14    5.70
  -4  19   9   28.47    4.09
   4  19  -9   30.74    4.94
  19  -4   9   41.33    5.50
  19   4  -9   33.00    5.65
  19  -4   7    6.02    3.07
  -4  19   7    1.44    1.55
   4  19  -7    6.79    2.95
  19  -4   7    8.98    2.96
  19   4  -7    7.57    3.28
  19  -4   5   43.66    5.73
  -4 -19  -5   48.90    5.44
  -4  19   5   40.74    5.03
   4  19  -5   44.23    5.76
  19  -4   5   44.64    5.13
  19   4  -5   35.47    5.40
  -4 -19  -3  129.05    8.46
   4  19  -3  130.51    9.34
  -4  19   3  123.86    8.54
  19   4  -3  110.01    8.74
  19   4  -3  121.92    8.00
  19  -4   3  123.94    8.95
  19   4  -1   13.11    3.34
  19  -4   1   16.47    3.73
  -4 -19  -1   20.21    3.70
   4  19  -1   11.87    3.38
  -4  19   1   16.50    3.53
  19   4  -1   18.25    3.96
  19  -4  -1   14.06    3.57
  19   4   1   19.82    3.74
   4  19   1   15.21    3.57
   4 -19  -1   12.83    2.50
  -4 -19   1   14.59    3.31
  -4  19  -1   14.77    3.27
  19   4   1   20.15    3.72
  19   4   1   20.97    4.18
  19   4   3  126.51    8.45
   4  19   3  135.51    9.37
  -4  19  -3  131.85    9.14
  19   4   3  124.44    8.99
  19  -4  -3  114.18    8.62
  19   4   5   52.36    5.84
   4  19   5   42.62    5.42
  -4  19  -5   38.54    5.29
  19   4   5   43.21    5.57
   4  19   7    6.69    2.48
  -4  19  -7    5.12    2.46
  19   4   7    6.40    2.79
  -4  19  -9   32.97    5.10
  19   4   9   28.40    4.63
  -4  19 -11    7.71    3.03
  19   4  11   -1.13    2.88
  19  -5  14    8.22    3.33
   5  19 -12    4.41    2.72
  19  -5  12   10.69    3.36
   5  19 -10   13.32    3.62
  19  -5  10    9.73    3.30
  19   5 -10    9.91    3.70
  19  -5   8   16.35    4.12
  -5  19   8    9.76    2.48
   5  19  -8   11.97    3.41
  19  -5   8   10.72    3.36
  19   5  -8   11.31    3.68
  19   5  -6   -1.60    2.75
  19  -5   6    1.99    2.39
  -5 -19  -6    0.29    1.84
   5  19  -6    0.22    2.14
  -5  19   6   -1.72    1.83
  19   5  -4    5.58    2.93
  19  -5   4    9.98    3.50
  -5 -19  -4   14.55    3.28
   5  19  -4    8.95    3.20
  -5  19   4    6.51    2.26
  19   5  -2   44.77    5.82
   5  19  -2   51.88    6.04
  -5 -19  -2   58.14    5.98
  -5  19   2   53.53    5.86
  19   5  -2   50.93    5.32
  19  -5   2   58.74    6.47
  19   5   0   -1.23    2.26
  19  -5   0   -3.48    3.05
  19   5   0   -0.56    2.31
   5  19   0    0.06    1.86
  -5 -19   0    2.23    2.32
  -5  19   0    0.03    1.65
  19   5   0   -1.10    2.80
   5  19   2   57.15    6.35
  -5 -19   2   57.30    5.87
  -5  19  -2   49.23    5.83
  19   5   2   51.46    6.01
  19  -5  -2   46.91    5.77
  19   5   2   56.08    5.87
  19   5   4    9.61    3.19
   5  19   4   10.78    3.22
  -5  19  -4   10.35    3.10
  19   5   4   10.01    3.32
   5  19   6    0.45    1.92
  19   5   6   -1.70    2.67
  -5  19  -6   -0.20    1.88
  19   5   6    0.70    2.53
 -19  -5   8    9.61    2.79
  -5  19  -8   10.34    3.13
  19   5   8   11.35    3.46
  -5  19 -10    6.12    2.83
  19   5  10   17.15    4.21
  19  -6  15    1.46    2.32
  19  -6  13   16.17    3.98
  19   6 -11   11.65    3.78
   6  19 -11   14.21    3.76
  19  -6  11   12.33    3.68
  19  -6   9    8.30    3.54
  19   6  -9    3.20    2.89
   6  19  -9    3.87    2.52
  19  -6   9    4.78    2.99
  19  -6   7   11.48    3.84
  19   6  -7   12.84    3.83
   6  19  -7   14.35    3.65
  -6  19   7   15.39    3.36
  19  -6   5   -3.33    2.85
  -6 -19  -5    4.10    2.58
   6  19  -5    3.82    2.26
  19   6  -5   -3.19    3.06
  -6  19   5    0.91    1.74
  19  -6   3   -2.26    3.05
  -6 -19  -3    3.52    2.32
   6  19  -3    1.03    1.88
  19   6  -3   -1.80    2.84
  -6  19   3    1.54    1.87
  19   6  -3    1.88    2.37
  19   6  -3    1.53    2.18
  19   6  -1   13.29    3.01
  19  -6   1   16.55    4.17
   6  19  -1   10.49    3.18
  -6 -19  -1   13.46    3.16
  19   6  -1   12.45    3.76
  -6  19   1   15.41    3.26
  19   6  -1    7.69    2.63
  19  -6  -1   18.69    4.25
  19   6   1   16.61    3.49
   6  19   1   20.12    4.03
  -6 -19   1   16.99    3.72
  19   6   1   12.92    3.37
  -6  19  -1   14.58    3.13
  19   6   1   12.55    3.59
  19   6   3   -0.27    2.43
   6  19   3    1.62    1.88
  -6 -19   3    2.04    2.21
  -6  19  -3   -0.27    1.74
  19   6   3    2.99    2.68
  19  -6  -3    0.57    2.37
   6  19   5   -0.37    2.09
  19   6   5   -1.01    2.24
  -6  19  -5    1.51    2.07
  19   6   5   -3.94    2.63
 -19  -6   7   11.30    2.90
  -6  19  -7    6.36    2.70
  19   6   7   11.47    3.57
 -19  -6   9    3.94    2.00
  -6  19  -9    2.94    1.91
  19   6   9    5.90    3.08
  19   6  11    7.41    3.28
  19  -7  14    5.42    3.02
  19  -7  12   41.72    5.80
  19   7 -10    7.44    3.73
   7  19 -10   -0.05    2.10
  19  -7   8    6.95    3.36
   7  19  -8   13.19    3.66
  19   7  -8   10.41    3.68
  19  -7   6   12.53    3.84
   7  19  -6   14.64    3.67
  -7  19   6   17.26    3.37
  19   7  -6   17.40    4.67
  19  -7   4    1.15    2.32
  -7 -19  -4    2.79    2.26
   7  19  -4    2.31    2.02
  -7  19   4    2.08    1.97
  19   7  -4    4.77    3.59
  19   7  -4    1.46    2.72
  19  -7   2   13.91    3.85
   7  19  -2   18.36    4.05
  -7 -19  -2   27.23    4.47
  -7  19   2   17.79    3.77
  19   7  -2   21.67    4.55
  19   7  -2   19.20    4.18
  19   7  -2   25.15    3.90
  19  -7   0    8.95    3.20
  19   7   0    7.07    2.37
   7  19   0   10.77    3.00
  -7 -19   0   11.07    2.97
  -7  19   0    7.47    2.48
  19   7   0    7.23    2.91
  19   7   0    4.97    3.22
  19   7   2   28.41    4.22
   7  19   2   23.52    4.34
  -7 -19   2   20.26    3.78
  -7  19  -2   23.03    4.12
  19   7   2   15.70    3.64
  19  -7  -2   21.89    4.55
  19   7   4    6.59    2.54
   7  19   4    2.19    2.36
  -7 -19   4    3.60    2.61
  -7  19  -4    5.22    2.37
  19   7   4   -1.43    2.76
  19   7   6   18.08    3.71
 -19  -7   6   18.89    3.70
  -7  19  -6   15.59    3.62
  19   7   6   19.47    4.40
 -19  -7   8    6.80    2.42
  -7  19  -8    4.43    2.63
  19   7   8    5.10    2.88
 -19  -7  10    4.00    2.24
  19   7  10    1.91    2.74
  19   7  12   38.83    5.79
   8  19 -11   10.45    3.67
   8  19  -9   -0.11    2.13
  19   8  -9   -3.17    3.14
  19  -8   7   13.04    3.80
   8  19  -7   25.61    4.50
  19   8  -7   29.87    5.62
  19  -8   5    4.58    3.01
  -8 -19  -5    8.05    3.16
   8  19  -5    7.13    2.47
  -8  19   5    6.08    2.55
  19   8  -5    1.80    2.72
  19   8  -5    9.88    3.96
  19  -8   3   23.87    4.55
  -8 -19  -3   27.71    4.56
   8  19  -3   30.55    5.00
  -8  19   3   25.46    4.12
  19   8  -3   27.37    4.73
  19   8  -3   20.91    4.81
  19  -8   1    5.71    3.35
  19   8  -1    0.21    2.78
   8  19  -1    6.79    3.03
  -8 -19  -1    1.87    1.88
  -8  19   1    1.52    1.74
  19   8  -1    1.14    2.39
  19   8   1    0.86    2.31
  19   8   1    0.28    1.96
   8  19   1    3.70    2.27
  -8 -19   1    3.36    2.69
  -8  19  -1   -0.34    1.71
  19   8   1    1.96    2.34
  19  -8  -1    3.65    2.67
  19   8   3   30.01    4.48
   8  19   3   25.10    4.59
  -8 -19   3   22.97    4.12
  -8  19  -3   22.57    4.23
  19   8   3   29.31    4.81
  19   8   5    8.80    3.08
 -19  -8   5    8.97    2.96
  -8 -19   5    9.41    3.02
  -8  19  -5    5.44    2.69
  19   8   5    5.47    2.87
 -19  -8   7   19.58    3.76
  19   8   7   23.64    4.97
  -8  19  -7   21.21    4.26
 -19  -8   9   -2.45    2.17
  19   8   9   -1.38    2.84
 -19  -8  11   -2.85    2.09
  19   8  11   -0.25    2.78
  19   8  13   11.42    4.26
   9  19 -10    4.97    3.36
  19   9  -8   48.53    7.02
  19  -9   6    5.08    3.02
  19   9  -6   -2.08    2.83
   9  19  -6    4.32    2.41
  19  -9   4    6.25    3.23
  -9 -19  -4   14.17    3.64
   9  19  -4   10.58    3.29
  19   9  -4   13.03    4.31
  -9  19   4    6.82    2.45
  19   9  -4    9.18    3.49
  19  -9   2   41.18    5.88
   9  19  -2   33.90    5.24
  -9 -19  -2   37.44    5.38
  19   9  -2   37.36    6.16
  -9  19   2   44.19    5.35
  19   9  -2   38.35    5.44
   9  19   0   49.22    6.17
  -9 -19   0   52.56    6.22
  19   9   0   49.62    6.53
  -9  19   0   47.94    5.75
  19   9   0   36.41    5.42
  19  -9   0   49.73    6.14
   9  19   2   35.72    5.41
  -9 -19   2   41.32    5.55
  -9  19  -2   35.62    5.20
  19   9   2   41.34    5.88
 -19  -9   4    6.39    2.35
  -9 -19   4    5.03    2.62
  -9  19  -4    7.06    2.81
  19   9   4    4.00    2.42
  19   9   6    2.14    2.61
 -19  -9   6   -0.42    1.91
  -9 -19   6    6.86    2.88
  19   9   6   -1.00    2.73
  -9  19  -6    1.53    2.18
 -19  -9   8   45.15    5.64
  19   9   8   49.62    6.97
 -19  -9  10    0.06    2.45
  19   9  10    3.60    3.71
 -19  -9  12    1.85    2.25
  19   9  12    5.43    4.12
  10  19 -11   -1.57    2.69
  10  19  -9   -0.58    2.67
  19  10  -7   15.25    4.50
  19  10  -5    9.93    4.04
  19 -10   3   29.02    5.03
  10  19  -3   27.11    4.65
 -10 -19  -3   30.86    5.08
  19  10  -3   28.88    5.68
 -10  19   3   31.62    4.59
  19 -10   1    9.42    3.61
  10  19  -1    5.77    2.81
 -10 -19  -1    8.28    3.19
  19  10  -1    5.79    3.26
 -10  19   1   10.44    3.24
  19  10  -1    7.56    3.45
 -10 -19   1    8.22    3.00
 -10  19  -1    7.49    2.90
  19  10   1   11.12    4.22
  19  10   1    7.81    3.36
  19 -10  -1    8.57    3.49
  10  19   1    6.08    2.77
 -10 -19   3   28.60    4.87
 -10  19  -3   26.06    4.54
  19  10   3   25.20    5.07
 -19 -10   5   20.87    4.04
  19  10   5   19.23    4.55
 -10  19  -5   17.49    4.02
 -19 -10   7   21.33    4.15
  19  10   7   29.18    5.62
 -19 -10   9   -0.27    2.26
  11  19  -8   16.66    4.36
  19  11  -6   11.90    4.24
  19  11  -4   20.90    5.22
  19  11  -2   17.41    4.82
 -11  19   2   12.44    3.29
  19  11   0   -1.00    2.78
 -11  19   0    5.25    2.54
 -11  19  -2    7.18    2.83
 -19 -11   4   14.66    3.64
 -11  19  -4   16.76    3.88
 -19 -11   6   13.26    3.51
  19  12  -3   32.96    6.32
 -12  19   1    7.46    2.81
  19  12  -1   15.73    4.96
 -12  19  -1    8.26    2.86
 -19  12  -3   17.41    3.58
 -12  19  -3   20.81    4.18
  19  13  -2   -3.68    3.27
  19  13   0   26.27    6.13
 -13  19   0   14.78    3.64
 -13  19  -2   -0.49    2.18
 -19  13  -4   18.77    4.16
 -14  19  -1    3.36    2.63
  20   0   0   49.50    5.99
   0 -20   0   41.93    4.75
   0  20   0   44.89    5.58
  20   0  -2    2.30    2.34
  20   0   2   10.87    3.55
   0 -20  -2    1.97    1.74
   0  20   2    2.16    1.91
   0  20  -2    3.26    2.43
  20   0  -2    2.39    2.41
  20   0   4    8.29    2.86
   0 -20  -4   11.46    2.76
   0  20   4    6.24    2.34
   0  20  -4    7.02    2.79
  20   0  -4   11.04    3.46
  20   0   6    4.25    2.95
   0 -20  -6    1.52    1.73
   0  20   6    0.26    1.79
   0  20  -6   -1.66    2.37
  20   0  -6    1.14    2.33
  20   0   8    9.53    3.34
   0  20   8   -0.64    2.16
   0  20  -8    7.47    2.98
  20   0  -8    2.38    2.61
   0  20  10   24.13    4.20
  20   0  10   18.54    3.84
  20   0 -10   25.49    5.09
  20   0  12    8.24    3.18
  20  -1  13    2.56    2.59
  20   1 -11   -3.11    2.81
  -1  20  11    2.16    2.29
  20   1  -9    1.68    2.79
  -1  20   9    4.64    2.29
   1  20  -9    4.81    2.77
  20  -1   9    1.16    2.54
  20   1  -7   24.64    5.19
  20  -1   7   28.17    4.71
  -1  20   7   30.70    4.57
   1  20  -7   29.52    4.92
  20  -1   7   31.59    4.63
  20   1  -5   23.75    4.58
  20  -1   5   39.22    5.61
  -1 -20  -5   30.44    4.27
  -1  20   5   21.08    3.93
   1  20  -5   27.86    4.71
  20   1  -3    9.94    3.05
  20  -1   3   16.73    4.18
  -1 -20  -3   14.77    3.02
  -1  20   3   13.46    3.51
   1  20  -3   14.61    3.35
  20   1  -3   15.55    3.57
  20   1  -1    5.24    2.73
  20  -1   1    9.86    3.45
  -1 -20  -1   11.96    3.02
   1  20  -1    7.59    2.78
  -1  20   1    7.17    2.69
  20   1  -1    8.27    3.01
  20  -1  -1   11.61    3.59
  20   1   1   14.91    3.91
   1 -20  -1   11.04    2.79
  -1 -20   1    6.42    2.39
   1  20   1   12.19    3.31
  -1  20  -1    6.80    2.49
  20   1   3   15.64    4.05
   1 -20  -3    5.34    2.15
   1  20   3   10.45    3.07
  -1  20  -3    8.34    2.79
  20  -1  -3   15.17    3.80
  20   1   5   32.51    5.02
   1  20   5   22.27    4.15
  20  -1  -5   30.01    5.01
  -1  20  -5   26.07    4.54
  20   1   7   24.33    4.32
   1  20   7   23.70    4.17
  -1  20  -7   25.85    4.73
  20  -1  -7   16.15    4.14
   1  20   9    0.50    1.83
  -1  20  -9    3.50    2.44
  20  -1  -9    1.03    2.48
  20   1  11   11.78    3.58
  20  -1 -11    1.50    2.57
  20  -2  12   -0.69    2.71
  -2  20  10    4.22    2.03
  20   2 -10    6.37    3.33
  20  -2  10    7.57    2.82
  20  -2   8   26.58    4.80
  -2  20   8   25.68    4.31
  20   2  -8   27.69    5.28
   2  20  -8   27.52    4.76
  20  -2   8   23.44    4.25
  20  -2   6   21.21    4.22
  -2 -20  -6   22.60    3.75
  20   2  -6   25.78    5.00
  -2  20   6   25.83    4.24
   2  20  -6   23.68    4.31
  20  -2   6   25.85    4.22
  20  -2   4    0.23    2.53
  -2 -20  -4   -0.44    1.80
  20   2  -4   -1.98    2.59
  -2  20   4    0.14    1.70
   2  20  -4    0.87    1.90
  20   2  -2   19.13    3.87
  20  -2   2   25.75    4.58
  20   2  -2   20.28    3.83
  -2 -20  -2   25.91    3.95
   2  20  -2   23.55    4.46
  -2  20   2   25.99    4.33
   2  20   0   84.81    7.72
  -2 -20   0   88.75    7.15
   2 -20   0   78.04    6.12
  -2  20   0   81.54    7.38
  20   2   0   80.37    6.84
  20  -2   0   76.93    7.29
  20   2   0   80.12    7.20
  20   2   2   30.28    4.91
   2 -20  -2   29.72    3.91
   2  20   2   24.79    4.38
  -2  20  -2   25.74    4.40
  20  -2  -2   18.76    4.11
  20   2   4    3.07    2.84
   2  20   4    1.16    2.36
  -2  20  -4    3.93    2.49
  20   2   6   29.37    5.04
   2  20   6   25.40    4.30
  -2  20  -6   27.86    4.70
   2  20   8   24.07    4.36
  -2  20  -8   18.42    4.06
  20  -3  13    3.30    2.66
  20  -3  11    5.13    3.23
  20  -3   9   17.31    4.26
  -3  20   9   15.99    3.47
  20   3  -9   24.29    5.02
   3  20  -9   16.54    4.11
  20  -3   9   23.50    4.43
  20  -3   7    0.06    2.36
  -3  20   7    4.17    2.15
  20   3  -7    5.66    3.20
   3  20  -7    0.57    1.94
  20  -3   7    3.77    2.73
  20  -3   5   26.85    4.77
  -3 -20  -5   27.33    4.22
  -3  20   5   24.68    4.15
  20   3  -5   22.49    4.44
   3  20  -5   22.12    4.14
  -3 -20  -3   98.46    7.64
   3  20  -3   98.52    8.37
  -3  20   3  101.48    8.12
  20   3  -3   77.52    7.44
  20   3  -3  103.46    7.79
  20  -3   3  108.88    8.60
  20   3  -1   11.01    3.22
  20  -3   1   10.11    3.27
  -3 -20  -1   10.95    3.11
  20   3  -1    4.62    2.36
   3  20  -1   12.25    3.43
  -3  20   1   11.96    3.28
  20  -3  -1    6.73    3.32
  20   3   1   11.28    3.29
   3 -20  -1    8.90    2.38
  -3 -20   1   16.47    3.42
   3  20   1   10.36    3.41
  -3  20  -1   13.97    3.30
  20   3   3  103.33    8.29
   3  20   3   94.75    8.12
  -3  20  -3   95.61    8.09
  20  -3  -3   93.70    8.02
  20   3   5   28.04    4.63
   3  20   5   27.87    4.76
  -3  20  -5   30.01    5.02
  20   3   7    2.02    2.35
   3  20   7    1.53    1.67
  -3  20  -7    2.01    2.10
  20   3   7    0.72    2.60
  20   3   9   20.34    4.21
  20  -4  14   13.08    4.06
  20  -4  12    4.02    2.52
  20   4 -10   24.82    5.10
  20  -4  10   11.86    3.36
  20  -4   8   23.80    4.74
  -4  20   8   29.43    4.42
   4  20  -8   29.94    5.00
  20   4  -8   40.51    6.24
  20  -4   8   40.63    5.60
  20  -4   6   11.41    3.69
  -4 -20  -6   24.68    4.24
  -4  20   6   15.19    3.33
   4  20  -6   19.45    4.31
  20   4  -6   20.31    4.66
  20  -4   4   27.35    4.88
  -4 -20  -4   36.27    4.95
   4  20  -4   33.00    5.16
  -4  20   4   28.47    4.51
  20   4  -4   37.56    5.55
   4  20  -2   68.92    7.12
  -4 -20  -2   77.56    6.99
  -4  20   2   71.94    6.82
  20   4  -2   73.66    7.14
  20   4  -2   74.79    6.58
  20  -4   2   76.80    7.56
  20  -4   0   22.04    4.35
  20   4   0   24.54    4.33
  -4 -20   0   22.66    4.19
   4  20   0   27.36    4.80
  20   4   0   19.62    3.95
  -4  20   0   23.53    4.15
   4  20   2   65.08    6.82
  -4 -20   2   73.76    6.85
  -4  20  -2   66.82    6.77
  20  -4  -2   62.41    6.72
  20   4   2   71.89    6.89
  20   4   4   30.32    4.80
   4  20   4   31.53    5.05
  -4  20  -4   37.09    5.31
  20   4   4   29.26    5.00
  20   4   6   23.33    4.51
   4  20   6   18.80    3.86
  -4  20  -6   13.77    3.64
  20   4   6    9.73    3.23
  -4  20  -8   29.69    5.01
  20   4   8   31.99    5.02
   4  20   8   28.73    4.69
  20   4  10   18.84    4.20
  20  -5  13   21.54    4.83
  20  -5  11   31.69    5.37
  20   5  -9    4.04    3.11
  20  -5   7   39.89    5.85
  -5  20   7   37.17    4.94
   5  20  -7   40.69    6.05
  20   5  -7   25.33    5.15
  20  -5   5   36.72    5.41
  -5 -20  -5   37.52    5.19
   5  20  -5   34.58    5.24
  -5  20   5   37.96    5.01
  20   5  -5   31.30    5.31
  20  -5   3   12.96    3.79
  -5 -20  -3   17.36    3.67
   5  20  -3    9.69    2.68
  -5  20   3   10.85    3.01
  20   5  -3   16.96    4.31
  20   5  -3   13.81    3.27
  20  -5   1   52.83    6.49
   5  20  -1   56.49    6.50
  -5 -20  -1   52.29    5.84
  -5  20   1   44.27    5.55
  20   5  -1   44.25    5.67
  20   5  -1   59.26    5.97
   5  20   1   53.58    6.37
  -5 -20   1   63.20    6.48
  -5  20  -1   42.00    5.49
  20   5   1   51.09    6.31
  20  -5  -1   60.20    6.82
  20   5   1   51.41    5.74
  20   5   3   17.53    3.78
   5  20   3   17.89    3.79
  -5 -20   3   16.39    3.70
  -5  20  -3   14.56    3.46
  20   5   3   18.66    4.21
  20  -5  -3   10.97    3.62
  20   5   5   39.41    5.38
   5  20   5   36.22    5.31
  -5  20  -5   31.27    4.90
  20   5   5   37.15    5.39
  20   5   7   32.60    5.21
  -5  20  -7   31.48    5.13
  20   5   7   32.85    5.20
   5  20   7   37.09    5.53
  20   5   9    0.94    2.61
  20   5  11   22.28    4.50
  20   6  -8   26.31    5.05
  20   6  -6   10.79    3.58
  20  -6   6    4.89    3.12
   6  20  -6    7.87    3.22
  -6  20   6    6.35    2.46
  20  -6   4   17.35    4.13
  20   6  -4   11.99    3.19
  -6 -20  -4   18.24    3.97
   6  20  -4   16.02    3.90
  -6  20   4   14.02    3.30
  20  -6   2   46.91    6.27
  20   6  -2   43.35    6.07
  -6 -20  -2   28.02    4.49
   6  20  -2   29.56    4.83
  -6  20   2   27.33    4.40
  20   6  -2   22.83    4.48
  20   6  -2   31.37    4.30
  20  -6   0   14.74    3.89
  20   6   0    8.71    3.16
  20   6   0    8.07    3.11
   6  20   0    6.94    2.83
  -6 -20   0   11.30    3.40
  -6  20   0   11.70    3.13
  20   6   0    6.58    2.94
  20   6   2   37.21    4.93
   6  20   2   28.15    4.66
  -6 -20   2   35.95    5.23
  -6  20  -2   27.98    4.62
  20   6   2   28.25    4.87
  20  -6  -2   32.05    5.06
  20   6   4   13.06    3.43
   6  20   4   19.11    4.26
  -6 -20   4   18.19    3.98
  -6  20  -4   18.99    4.16
  20   6   4   11.61    3.59
  20   6   6   11.19    3.58
  -6  20  -6    5.74    2.93
  20   6   6    8.22    3.31
   6  20   6    8.65    3.36
  20   6   8   22.70    4.70
  20   6  10   13.43    4.10
  20   7  -7   33.42    5.81
  -7 -20  -5    9.64    3.06
   7  20  -5   12.07    3.54
  20   7  -5    3.46    2.72
  -7  20   5   10.30    3.14
  20  -7   3    7.19    3.20
  -7 -20  -3    1.68    2.31
   7  20  -3    6.19    3.07
  20   7  -3   -1.79    3.41
  -7  20   3    0.59    1.97
  20   7  -3    2.81    3.10
  20   7  -1   17.62    3.49
  20  -7   1   19.99    4.49
   7  20  -1   21.51    4.35
  -7 -20  -1   23.92    4.20
  20   7  -1   13.43    3.77
  -7  20   1   24.99    4.50
  20   7  -1   15.46    4.04
  20   7   1   21.55    3.88
   7  20   1   21.48    4.27
  -7 -20   1   16.62    3.83
  -7  20  -1   15.36    3.66
  20   7   1   18.93    4.28
  20  -7  -1   25.18    4.82
  20   7   3    3.21    2.70
   7  20   3    5.50    2.85
  -7 -20   3    3.19    2.08
  -7  20  -3    1.89    2.13
  20   7   3    0.99    2.49
  20   7   5   18.78    3.81
  -7 -20   5   19.23    3.93
  -7  20  -5   13.19    3.63
  20   7   5   10.92    3.35
   7  20   5   10.18    3.31
  20   7   7   44.05    6.00
 -20  -7   7   41.42    5.28
  20   7   7   42.17    6.14
  20   7   9    3.79    3.11
  20   7  11    7.40    3.74
  20   8  -6    4.44    3.31
  -8 -20  -4    5.42    2.91
  -8  20   4    8.67    3.08
  20   8  -4    9.49    3.89
  -8 -20  -2   27.94    4.75
  -8  20   2   21.14    4.19
  20   8  -2   20.29    4.44
  20   8  -2   17.48    3.94
   8  20   0   32.14    5.36
  -8 -20   0   25.68    4.45
  -8  20   0   24.39    4.29
  20   8   0   23.93    4.78
  20   8   0   20.11    4.27
  -8 -20   2   22.16    4.42
  -8  20  -2   23.68    4.52
  20   8   2   22.46    4.48
  20   8   4    6.07    2.67
  -8 -20   4    5.33    2.62
  -8  20  -4    1.40    2.05
  20   8   4    6.63    3.07
  20   8   6    0.70    2.56
 -20  -8   6    1.95    2.10
  20   8   6    5.92    3.69
 -20  -8   8   32.42    4.96
  20   8   8   33.93    5.92
  20   8  10    2.70    2.88
  20   9  -5   39.47    6.62
  -9 -20  -3   66.08    7.25
  -9  20   3   57.90    6.26
  20   9  -3   64.09    7.94
  -9 -20  -1   40.98    5.77
  -9  20   1   32.70    4.99
  20   9  -1   34.57    6.05
  -9  20  -1   39.06    5.49
  -9  20  -3   56.21    6.44
 -20  -9   7   21.49    4.37
 -20  -9   9   13.19    3.73
  20  10  -4   20.84    5.04
  20  10  -2   42.78    6.65
 -10  20   2   39.59    5.31
 -10  20   0   76.55    7.44
 -10  20  -2   48.35    6.16
 -20 -10   6    9.31    3.42
  20  11  -3    2.24    3.16
  20  11  -1   43.67    7.02
 -11  20   1   40.42    5.57
 -11  20  -1   38.19    5.39
  20  12  -2   27.84    6.09
 -12  20   0    0.00    1.86
  21   0  -1   -2.76    2.27
  21   0   1   -2.61    2.77
   0 -21  -1    0.51    1.78
   0 -21   1   -0.28    1.74
   0  21   1    1.96    2.39
   0  21  -1    1.61    2.03
  21   0   3   21.93    4.48
   0 -21  -3   18.35    3.69
   0  21   3   14.09    3.63
   0  21  -3   19.92    3.99
  21   0  -3   11.93    3.16
  21   0  -3   17.52    4.31
  21   0   5    2.19    2.45
   0  21   5    6.45    2.61
   0  21  -5    1.63    2.37
  21   0  -5    6.79    3.35
   0  21   7   54.96    6.26
  21   0   7   45.74    6.13
  21   0  -7   53.67    6.86
   0  21   9   76.67    7.38
  21   0   9   74.00    7.27
  21   0  -9   52.61    7.00
  21   0  11    2.61    2.46
  21  -1  12   35.56    5.70
  21  -1  10   48.72    6.21
  -1  21  10   62.32    6.56
  -1  21   8    1.24    1.84
  21  -1   8    2.61    2.50
  21   1  -8   -0.20    2.77
  21  -1   6   20.74    4.45
  -1 -21  -6   16.85    3.39
  -1  21   6   13.85    3.56
  21   1  -6    8.75    2.99
  21  -1   4   38.58    5.71
  -1 -21  -4   43.63    5.05
  -1  21   4   33.10    5.11
   1  21  -4   27.81    4.72
  21   1  -4   31.47    5.12
  21  -1   2    2.58    2.32
  -1 -21  -2    5.34    2.46
  -1  21   2    6.12    2.55
   1  21  -2    4.79    2.44
  21   1  -2    7.26    2.85
  21   1  -2    2.77    2.60
  21  -1   0   -0.42    2.50
  21   1   0    2.66    2.84
  -1 -21   0    1.07    1.90
   1 -21   0   -1.96    2.09
   1  21   0   -2.01    2.30
  -1  21   0    2.47    2.44
  21   1   2    3.66    2.45
   1 -21  -2    8.03    2.67
  -1 -21   2    0.02    1.92
   1  21   2    1.91    2.06
  -1  21  -2    0.92    1.94
  21  -1  -2    5.42    3.08
  21   1   4   45.49    6.04
   1  21   4   34.66    5.25
  -1  21  -4   40.83    5.61
  21   1   6   24.24    4.78
   1  21   6   23.44    4.22
  21   1   8    2.78    3.21
   1  21   8    1.50    2.26
  21  -1  -8    7.31    3.50
   1  21  10   53.61    6.23
  21  -2  11    1.75    2.27
  21   2  -9    4.92    2.99
  -2  21   9   11.23    3.26
  21  -2   9    8.73    3.28
  21   2  -7   10.73    3.93
  -2  21   7   13.14    3.21
  21  -2   7   16.55    3.76
  21  -2   5   11.37    3.54
  21   2  -5   14.66    4.26
  -2 -21  -5   12.68    3.33
  -2  21   5    8.39    2.98
   2  21  -5    6.88    2.89
  21  -2   3    0.87    2.59
  21   2  -3    0.69    2.19
  -2 -21  -3    0.45    1.73
  -2  21   3    0.24    2.01
   2  21  -3    1.53    2.43
  21   2  -3    1.30    2.56
  21   2  -1    3.41    2.72
  21  -2   1    3.23    3.12
  -2 -21  -1   -0.97    2.04
   2 -21   1    0.72    1.64
   2  21  -1    1.68    2.30
  -2  21   1    2.26    2.06
  21  -2  -1    4.85    2.64
  21   2   1    0.21    2.52
  -2 -21   1   -0.38    1.80
   2  21   1    4.15    2.66
  -2  21  -1    2.92    2.32
  21   2   3    3.49    2.85
   2  21   3   -1.72    2.07
  -2  21  -3    1.97    2.03
  21  -2  -3   -1.04    2.38
  21   2   5    9.23    3.42
   2  21   5    9.72    3.27
  -2  21  -5    8.85    3.03
  21   2   7   19.84    4.29
   2  21   7   18.91    4.07
   2  21   9   12.07    3.52
  21  -3  12    1.05    2.63
  21  -3  10   10.80    3.53
  -3  21   8    2.72    1.89
  21   3  -8    9.42    3.58
  -3 -21  -6    2.37    2.01
  21   3  -6   -0.79    3.15
  -3  21   6    0.46    2.05
  21  -3   4   10.52    3.87
  -3 -21  -4    2.05    2.16
  21   3  -4    5.26    3.09
  -3  21   4    1.45    1.83
   3  21  -4    4.34    2.60
  21  -3   2    5.01    2.71
  21   3  -2    5.16    2.48
  -3 -21  -2   11.21    3.07
   3  21  -2    5.38    2.39
  -3  21   2    7.51    2.69
  21   3  -2    4.55    2.48
  21  -3   0    9.29    3.54
  21   3   0    4.99    2.73
  -3 -21   0    5.86    2.63
   3  21   0    6.60    2.91
  -3  21   0    6.96    2.74
  21   3   2    8.33    3.16
   3  21   2   11.16    3.41
  -3 -21   2    5.94    2.20
  -3  21  -2   12.18    3.43
  21  -3  -2   13.25    3.76
  21   3   4    4.11    3.15
   3  21   4    5.80    2.63
  -3  21  -4    2.31    2.21
  21   3   6    7.97    3.25
   3  21   6    5.36    2.93
   3  21   8    1.07    2.10
  21   3   8    7.83    3.66
  -4  21   7   18.58    3.73
  21   4  -7   24.78    4.93
  -4 -21  -5   33.46    4.83
  -4  21   5   27.36    4.81
  21   4  -5   19.97    4.64
  -4 -21  -3    0.07    1.77
   4  21  -3    1.82    2.12
  -4  21   3   -2.70    2.44
  21   4  -3    5.69    3.03
  21   4  -3   -1.69    2.52
  21   4  -1   29.11    4.85
  21  -4   1   26.65    4.94
  -4 -21  -1   29.74    4.84
   4  21  -1   21.70    4.56
  -4  21   1   30.46    4.98
  21  -4  -1   31.63    5.50
  21   4   1   34.77    5.23
   4  21   1   24.95    4.91
  -4 -21   1   32.69    4.97
  -4  21  -1   26.17    4.53
  21   4   3    3.14    2.99
   4  21   3    3.28    2.14
  -4 -21   3    5.83    2.42
  -4  21  -3    2.10    1.75
  21   4   5   33.61    5.18
   4  21   5   22.30    4.47
  -4  21  -5   21.35    4.34
   4  21   7   22.81    4.34
  21   4   7   18.77    4.29
  21   4   7   17.54    4.03
  21   4   9    1.84    2.90
  21   5  -8   25.46    5.25
  -5  21   6    9.34    3.01
  21   5  -6   16.77    4.58
  -5 -21  -4   45.91    5.70
  -5  21   4   38.77    5.48
  21   5  -4   36.33    5.73
  -5 -21  -2   55.64    6.24
  -5  21   2   41.42    5.53
  21   5  -2   45.67    6.03
  21   5  -2   52.20    5.91
  21  -5   0   13.39    3.89
  21   5   0   20.90    4.07
   5  21   0   17.21    4.15
  -5 -21   0   13.63    3.47
  -5  21   0   11.31    3.24
   5  21   2   50.27    6.34
  -5 -21   2   50.08    6.04
  -5  21  -2   40.43    5.55
  21   5   2   55.61    6.79
  21   5   2   60.46    6.60
  21  -5  -2   57.72    6.90
   5  21   4   50.95    6.35
  21   5   4   41.09    5.47
  -5 -21   4   46.12    5.81
  -5  21  -4   43.34    5.88
  21   5   4   40.28    6.14
  21   5   6   15.32    4.03
  21   5   6    7.48    3.91
  21   5   8   33.95    5.45
  21   5   8   28.62    5.21
  21   5  10   18.21    4.39
  21   6  -7   34.73    5.94
  -6 -21  -5   27.91    4.77
  -6  21   5   21.37    4.02
  21   6  -5   19.28    4.50
  -6 -21  -3   13.17    3.77
  -6  21   3    7.79    2.74
  21   6  -3    6.67    3.57
  21   6  -1   31.13    4.55
  -6 -21  -1   24.35    4.30
  -6  21   1   28.84    4.76
  21   6   1   40.54    5.40
  -6 -21   1   36.61    5.24
  -6  21  -1   33.58    5.12
  21   6   1   35.46    5.90
  21   6   3    6.75    2.99
  -6 -21   3    7.83    3.30
  -6  21  -3    4.09    2.68
  21   6   3   11.99    3.94
  21   6   5   23.16    4.67
  21   6   5   28.93    5.14
  21   6   7   34.34    5.62
  21   6   7   38.56    5.98
  21   6   9   25.88    5.30
  21   7  -6   15.67    4.01
  21   7  -4   18.57    4.29
  -7 -21  -4   24.84    4.58
  -7  21   4   26.11    4.50
  21   7  -2    8.43    3.64
  -7 -21  -2    6.45    3.06
  -7  21   2    6.15    2.66
  -7 -21   0    2.03    2.18
  -7  21   0   10.78    3.13
  21   7   2    8.41    3.01
  -7 -21   2    5.83    2.86
  -7  21  -2    5.52    2.89
  21   7   4   16.19    4.11
  21   7   6   13.07    3.82
  21   7   8    9.63    3.95
  21   8  -5    8.84    3.77
  21   8  -3    8.37    3.79
  -8  21   3    4.76    2.07
  -8  21   1    4.03    2.43
  -8  21  -1    4.90    2.52
  21   9  -4   10.55    4.31
  -9  21   2   22.04    4.16
  21   9  -2   17.46    4.61
  -9  21   0   47.83    6.01
  21  10  -3   22.33    5.54
 -10  21   1   37.79    5.56
  22   0   0   17.71    4.13
   0 -22   0   19.48    3.82
  22   0   2    7.04    3.20
   0 -22  -2   14.29    3.45
   0 -22   2   18.25    3.89
   0  22   2    7.64    3.13
  22   0  -2   13.23    3.90
   0  22   4   44.99    5.87
   0  22   6   33.90    5.35
  22   0  -6   27.96    5.14
   0  22   8   12.33    3.31
  22   0   8   10.28    3.16
  22   0  10   53.90    6.73
   0  22  10   55.62    6.55
  -1  22   9   79.34    7.77
  22  -1   9   77.35    7.82
  -1  22   7   31.39    4.94
  22   1  -7   28.28    5.73
  -1  22   5   14.81    3.90
  22   1  -5   11.02    3.51
  -1 -22  -3   36.85    4.64
  -1  22   3   40.82    5.77
  22   1  -3   44.08    5.72
  22   1  -1    3.12    2.69
  22  -1   1    9.23    3.21
  -1 -22  -1    2.19    1.87
   1 -22   1    7.82    2.59
  -1  22   1    6.46    2.98
  22  -1  -1    3.57    2.81
  22   1   1    8.88    3.08
  -1 -22   1    9.76    2.90
  22   1   3   30.84    5.44
   1  22   3   40.12    5.60
   1  22   5   16.50    4.10
   1  22   7   27.37    4.83
  -2  22   8    3.56    2.53
  22   2  -6    8.20    3.44
  -2  22   6    4.42    2.59
  -2 -22  -4   29.76    4.47
  -2  22   4   31.05    4.94
  22   2  -4   29.22    5.10
  -2 -22  -2    3.36    2.50
  -2  22   2    6.84    3.00
  22   2  -2    3.82    2.99
  22   2   0    2.24    2.59
  -2 -22   0    0.46    2.07
  -2  22   0   -2.53    2.73
  22   2   2    6.64    3.22
  -2 -22   2    3.04    2.14
  22   2   4   47.64    6.27
  22   3  -7   11.30    3.73
  -3  22   7    2.50    2.02
  22   3  -5    9.66    3.76
  -3 -22  -5    7.32    3.03
  -3  22   5    9.77    3.38
  22   3  -3   -0.02    2.41
  -3 -22  -3    5.28    2.62
  -3  22   3    3.65    2.61
  22   3  -1    5.74    3.39
  -3 -22  -1    2.80    2.57
  -3  22   1   -0.11    2.28
  22   3   1    4.19    2.94
  -3 -22   1    2.29    2.45
  22   3   3    4.70    3.03
  -3 -22   3    4.02    2.66
  22   3   5   10.15    3.63
  -4  22   6    3.78    2.29
  22   4  -6    9.26    3.25
  -4 -22  -4    7.22    3.01
  22   4  -4    2.18    2.53
  -4  22   4    6.45    2.88
  -4 -22  -2   10.63    3.44
  -4  22   2    3.53    2.23
  22   4  -2    6.97    3.14
  22   4   0   -3.69    2.72
  -4 -22   0    0.35    2.46
  -4  22   0   -0.55    2.01
  22   4   2    5.66    2.80
  -4 -22   2    6.71    2.72
  22   4   4    7.60    3.46
  -4 -22   4   10.06    3.11
  22   4   6   -0.56    3.05
  -5 -22  -5    5.41    3.06
  -5  22   5    5.87    2.43
  22   5  -5    6.66    3.20
  -5 -22  -3    7.11    3.28
  -5  22   3   -0.78    2.32
  22   5  -3    4.51    2.56
  -5 -22  -1    5.34    2.85
  -5  22   1    7.69    2.99
  22   5  -1    6.70    2.91
  22   5   1    8.24    3.07
  -5 -22   1    7.26    3.04
  22   5   3    9.63    3.45
  22   5   5    5.13    3.09
  -6  22   4    4.15    2.40
  22   6  -4   11.08    3.86
  -6  22   2   -3.81    2.96
  22   6   0    3.27    2.93
  22   6   2   -3.09    2.99
  22   6   4    4.04    3.38
  22   6   6   18.11    4.52
  -7  22   3    0.89    2.32
  22   7   7   18.40    4.72
   0 -23   1    0.83    1.88
   0 -23   3   25.32    4.54
  -1 -23   0   -0.53    2.18
  -1 -23   2   18.67    3.67
  23   2  -5   24.21    5.07
  -2 -23  -3    8.19    2.95
  -2 -23  -1   19.19    3.94
  -2 -23   1   20.17    4.10
  -2 -23   3    2.14    2.05
  -3 -23  -4   33.01    5.01
  -3 -23  -2   13.17    3.46
  23   3  -2   17.20    4.37
  23   3   0   13.16    3.95
  -3 -23   0    6.39    2.98
  -4 -23  -5   13.66    3.62
  -4 -23  -3    4.37    2.62
  23   4  -1    5.45    3.19
  23   4   1    2.20    2.85
  23   5   0    4.64    2.82
  23   5   2    1.23    2.77
   0   0   0    0.00    0.00
;
_shelx_hkl_checksum              63848
loop_
_space_group_symop_operation_xyz
'x, y, z'
'y, -x, -z'
'-x, -y, z'
'-y, x, -z'
'x, -y, -z'
'-x, y, -z'
'-y, -x, z'
'y, x, z'
'x+1/2, y+1/2, z+1/2'
'y+1/2, -x+1/2, -z+1/2'
'-x+1/2, -y+1/2, z+1/2'
'-y+1/2, x+1/2, -z+1/2'
'x+1/2, -y+1/2, -z+1/2'
'-x+1/2, y+1/2, -z+1/2'
'-y+1/2, -x+1/2, z+1/2'
'y+1/2, x+1/2, z+1/2'
loop_
_atom_site_label
_atom_site_type_symbol
_atom_site_fract_x
_atom_site_fract_y
_atom_site_fract_z
_atom_site_U_iso_or_equiv
_atom_site_adp_type
_atom_site_occupancy
_atom_site_site_symmetry_order
_atom_site_calc_flag
_atom_site_refinement_flags_posn
_atom_site_refinement_flags_adp
_atom_site_refinement_flags_occupancy
_atom_site_disorder_assembly
_atom_site_disorder_group
Ag1 Ag 0.5000 0.5000 0.29671(7) 0.0225(3) Uani 1 4 d S T P . .
Ag2 Ag 0.65996(4) 0.52943(5) 0.33427(5) 0.0324(2) Uani 1 1 d . . . . .
Ag3 Ag 0.5000 0.58387(12) 0.5000 0.0290(5) Uani 0.5 2 d S T P . .
S1 S 0.40056(14) 0.59944(14) 0.30085(19) 0.0251(7) Uani 1 2 d S T P . .
C1 C 0.3756(8) 0.6244(8) 0.2157(8) 0.038(4) Uani 1 2 d S T P . .
C2 C 0.3947(11) 0.7117(9) 0.2078(9) 0.060(4) Uani 1 1 d . . . . .
H2A H 0.3689 0.7414 0.2420 0.089 Uiso 1 1 calc GR . . . .
H2B H 0.3764 0.7297 0.1655 0.089 Uiso 1 1 calc GR . . . .
H2C H 0.4510 0.7193 0.2108 0.089 Uiso 1 1 calc GR . . . .
C3 C 0.4242(9) 0.5758(9) 0.1695(10) 0.051(5) Uani 1 2 d S T P . .
H3A H 0.4619 0.5452 0.1941 0.076 Uiso 0.5 1 calc GR . . A -1
H3B H 0.4518 0.6101 0.1395 0.076 Uiso 0.5 1 calc GR . . A -1
H3C H 0.3902 0.5408 0.1451 0.076 Uiso 0.5 1 calc GR . . A -1
S2 S 0.60205(16) 0.60205(16) 0.4282(2) 0.0318(8) Uani 1 2 d S T P . .
C4 C 0.6700(8) 0.6700(8) 0.4665(7) 0.043(4) Uani 1 2 d DS T P . .
C5 C 0.7225(12) 0.6217(12) 0.5089(11) 0.094(7) Uani 1 1 d D U . . .
H5A H 0.7426 0.5776 0.4841 0.141 Uiso 1 1 calc GR . . . .
H5B H 0.6930 0.6025 0.5461 0.141 Uiso 1 1 calc GR . . . .
H5C H 0.7659 0.6538 0.5241 0.141 Uiso 1 1 calc GR . . . .
C6 C 0.7144(8) 0.7144(8) 0.4166(10) 0.051(5) Uani 1 2 d S T P . .
H6A H 0.7585 0.6832 0.4017 0.076 Uiso 0.5 1 calc GR . . B -1
H6B H 0.7334 0.7630 0.4354 0.076 Uiso 0.5 1 calc GR . . B -1
H6C H 0.6803 0.7260 0.3799 0.076 Uiso 0.5 1 calc GR . . B -1
O1 O 0.6927(7) 0.6003(8) 0.2348(6) 0.071(4) Uani 1 1 d . . . . .
C7 C 0.6584(7) 0.6584(7) 0.2152(10) 0.044(4) Uani 1 2 d S T P . .
C8 C 0.6957(10) 0.6957(10) 0.1561(11) 0.067(7) Uani 1 2 d DS T P . .
F1 F 0.6496(9) 0.7362(9) 0.1200(6) 0.106(4) Uani 1 1 d D U . . .
F2 F 0.7485(10) 0.7485(10) 0.1691(13) 0.148(8) Uani 1 2 d DS TU P . .
N1 N 0.7939(4) 0.5152(5) 0.3328(5) 0.0297(19) Uani 1 1 d . . . . .
C9 C 0.8300(6) 0.4491(7) 0.3486(5) 0.032(2) Uani 1 1 d . . . . .
H9 H 0.7991 0.4055 0.3600 0.039 Uiso 1 1 calc R . . . .
C10 C 0.9104(7) 0.4408(7) 0.3494(6) 0.033(3) Uani 1 1 d . . . . .
H10 H 0.9331 0.3925 0.3612 0.040 Uiso 1 1 calc R . . . .
C11 C 0.9567(5) 0.5027(6) 0.3330(5) 0.0267(19) Uani 1 1 d . . . . .
C12 C 0.9189(7) 0.5729(7) 0.3169(5) 0.031(2) Uani 1 1 d . . . . .
H12 H 0.9485 0.6179 0.3066 0.037 Uiso 1 1 calc R . . . .
C13 C 0.8407(7) 0.5757(7) 0.3161(6) 0.034(2) Uani 1 1 d . . . . .
H13 H 0.8167 0.6229 0.3032 0.040 Uiso 1 1 calc R . . . .
I1B I 1.0000 0.8158(11) 0.5000 0.0719(11) Uani 0.05 1 d DS T P C -2
I2 I 1.0000 0.3925(3) 0.5000 0.0719(11) Uani 0.2 1 d DS T P D -1
C14 C 1.0000 0.6865(8) 0.5000 0.0719(11) Uani 0.2 1 d DS TU P E -1
H14 H 1.0000 0.7405 0.5000 0.086 Uiso 0.2 1 d RS T P E -1
C17 C 1.0000 0.5223(8) 0.5000 0.0719(11) Uani 0.2 1 d DS T P D -1
C14B C 1.0000 0.6865(8) 0.5000 0.0719(11) Uani 0.05 1 d S T P C -2
C17B C 1.0000 0.5223(8) 0.5000 0.0719(11) Uani 0.05 1 d S T P D -2
H17B H 1.0000 0.4616 0.5000 0.086 Uiso 0.05 1 d RS T P D -2
C15 C 0.9317(7) 0.6441(12) 0.4849(15) 0.0719(11) Uani 0.5 1 d D . . . .
H15 H 0.8849 0.6675 0.4737 0.086 Uiso 0.5 1 d R . . E .
C16 C 0.9313(7) 0.5621(12) 0.4853(15) 0.0719(11) Uani 0.5 1 d D . . D .
H16 H 0.8843 0.5383 0.4754 0.086 Uiso 0.5 1 d R . . . .
loop_
_atom_site_aniso_label
_atom_site_aniso_U_11
_atom_site_aniso_U_22
_atom_site_aniso_U_33
_atom_site_aniso_U_23
_atom_site_aniso_U_13
_atom_site_aniso_U_12
Ag1 0.0162(4) 0.0162(4) 0.0350(8) 0.000 0.000 0.0005(5)
Ag2 0.0166(3) 0.0276(4) 0.0531(5) 0.0009(4) 0.0009(4) -0.0023(3)
Ag3 0.0306(10) 0.0181(9) 0.0384(11) 0.000 0.0159(12) 0.000
S1 0.0212(10) 0.0212(10) 0.0329(18) 0.0041(10) -0.0041(10) 0.0038(13)
C1 0.044(6) 0.044(6) 0.025(8) 0.006(5) -0.006(5) 0.001(8)
C2 0.080(12) 0.043(8) 0.056(9) 0.016(7) -0.009(9) 0.003(8)
C3 0.061(8) 0.061(8) 0.029(8) 0.002(7) -0.002(7) 0.007(10)
S2 0.0325(12) 0.0325(12) 0.0303(19) 0.0035(11) 0.0035(11) -0.0090(16)
C4 0.051(7) 0.051(7) 0.026(8) 0.003(5) 0.003(5) -0.012(9)
C5 0.102(11) 0.101(11) 0.080(10) 0.017(9) -0.044(9) -0.026(9)
C6 0.057(8) 0.057(8) 0.038(10) -0.001(6) -0.001(6) -0.028(10)
O1 0.041(6) 0.090(10) 0.081(8) 0.048(7) 0.011(6) 0.015(6)
C7 0.037(6) 0.037(6) 0.058(11) -0.001(6) -0.001(6) -0.013(8)
C8 0.070(10) 0.070(10) 0.062(15) 0.014(10) 0.014(10) 0.000(13)
F1 0.120(9) 0.118(9) 0.080(7) 0.048(7) 0.022(7) 0.033(7)
F2 0.145(9) 0.145(9) 0.154(13) 0.028(8) 0.028(8) -0.041(10)
N1 0.016(3) 0.030(5) 0.044(5) 0.004(5) 0.008(4) -0.002(3)
C9 0.025(5) 0.033(5) 0.038(6) 0.001(5) 0.011(5) 0.000(4)
C10 0.029(6) 0.025(5) 0.045(7) 0.013(5) 0.005(5) 0.005(4)
C11 0.019(4) 0.029(5) 0.032(5) 0.005(6) 0.007(4) 0.001(4)
C12 0.024(5) 0.030(5) 0.039(6) 0.008(5) 0.005(5) -0.005(4)
C13 0.024(5) 0.031(5) 0.046(7) 0.006(5) 0.006(5) -0.001(4)
I1B 0.081(2) 0.090(3) 0.0447(15) -0.004(6) -0.010(2) 0.010(6)
I2 0.081(2) 0.090(3) 0.0447(15) -0.004(6) -0.010(2) 0.010(6)
C14 0.081(2) 0.090(3) 0.0447(15) -0.004(6) -0.010(2) 0.010(6)
C17 0.081(2) 0.090(3) 0.0447(15) -0.004(6) -0.010(2) 0.010(6)
C14B 0.081(2) 0.090(3) 0.0447(15) -0.004(6) -0.010(2) 0.010(6)
C17B 0.081(2) 0.090(3) 0.0447(15) -0.004(6) -0.010(2) 0.010(6)
C15 0.081(2) 0.090(3) 0.0447(15) -0.004(6) -0.010(2) 0.010(6)
C16 0.081(2) 0.090(3) 0.0447(15) -0.004(6) -0.010(2) 0.010(6)
loop_
_atom_type_symbol
_atom_type_description
_atom_type_scat_dispersion_real
_atom_type_scat_dispersion_imag
_atom_type_scat_source
C C 0.0033 0.0016 'International Tables Vol C Tables 4.2.6.8 and 6.1.1.4'
H H 0.0000 0.0000 'International Tables Vol C Tables 4.2.6.8 and 6.1.1.4'
Ag Ag -0.8971 1.1015 'International Tables Vol C Tables 4.2.6.8 and 6.1.1.4'
F F 0.0171 0.0103 'International Tables Vol C Tables 4.2.6.8 and 6.1.1.4'
I I -0.4742 1.8119 'International Tables Vol C Tables 4.2.6.8 and 6.1.1.4'
N N 0.0061 0.0033 'International Tables Vol C Tables 4.2.6.8 and 6.1.1.4'
O O 0.0106 0.0060 'International Tables Vol C Tables 4.2.6.8 and 6.1.1.4'
S S 0.1246 0.1234 'International Tables Vol C Tables 4.2.6.8 and 6.1.1.4'
loop_
_geom_angle_atom_site_label_1
_geom_angle_atom_site_label_2
_geom_angle_atom_site_label_3
_geom_angle
_geom_angle_site_symmetry_1
_geom_angle_site_symmetry_3
Ag2 Ag1 Ag2 66.29(3) . 8
Ag2 Ag1 Ag2 66.30(3) 3_665 7_665
Ag2 Ag1 Ag2 105.00(4) . 7_665
Ag2 Ag1 Ag2 148.96(7) . 3_665
Ag2 Ag1 Ag2 105.00(4) 8 3_665
Ag2 Ag1 Ag2 148.96(7) 8 7_665
S1 Ag1 Ag2 122.48(4) 3_665 3_665
S1 Ag1 Ag2 56.23(3) 3_665 7_665
S1 Ag1 Ag2 122.48(4) 3_665 8
S1 Ag1 Ag2 56.23(3) . 3_665
S1 Ag1 Ag2 122.48(4) . 7_665
S1 Ag1 Ag2 56.23(3) 3_665 .
S1 Ag1 Ag2 122.48(4) . .
S1 Ag1 Ag2 56.23(3) . 8
S1 Ag1 S1 176.0(2) 3_665 .
Ag1 Ag2 Ag2 56.853(17) . 8
S1 Ag2 Ag1 52.25(8) 3_665 .
S1 Ag2 Ag2 109.07(8) 3_665 8
S2 Ag2 Ag1 85.30(9) . .
S2 Ag2 Ag2 50.87(6) . 8
S2 Ag2 S1 118.71(12) . 3_665
O1 Ag2 Ag1 94.6(3) . .
O1 Ag2 Ag2 79.1(3) . 8
O1 Ag2 S1 107.3(4) . 3_665
O1 Ag2 S2 119.4(4) . .
N1 Ag2 Ag1 157.0(2) . .
N1 Ag2 Ag2 141.1(2) . 8
N1 Ag2 S1 108.1(2) . 3_665
N1 Ag2 S2 117.2(3) . .
N1 Ag2 O1 79.2(4) . .
Ag3 Ag3 Ag3 90.0 4_656 2_566
Ag3 Ag3 Ag3 45.0 4_656 3_665
Ag3 Ag3 Ag3 45.0 2_566 3_665
Ag3 Ag3 S2 129.06(10) 2_566 4_656
Ag3 Ag3 S2 63.92(6) 4_656 4_656
Ag3 Ag3 S2 129.06(10) 4_656 .
Ag3 Ag3 S2 63.92(6) 2_566 .
S2 Ag3 Ag3 97.74(8) . 3_665
S2 Ag3 Ag3 97.74(8) 4_656 3_665
S2 Ag3 S2 164.51(16) . 4_656
Ag1 S1 Ag2 71.53(8) . 8
Ag1 S1 Ag2 71.53(8) . 3_665
Ag2 S1 Ag2 129.71(15) 8 3_665
C1 S1 Ag1 107.0(6) . .
C1 S1 Ag2 111.31(17) . 3_665
C1 S1 Ag2 111.31(17) . 8
C2 C1 S1 106.0(10) . .
C2 C1 S1 106.0(10) 7_665 .
C2 C1 C2 113.8(19) . 7_665
C3 C1 S1 109.9(13) . .
C3 C1 C2 110.5(11) . 7_665
C3 C1 C2 110.5(11) . .
C1 C2 H2A 109.5 . .
C1 C2 H2B 109.5 . .
C1 C2 H2C 109.5 . .
H2A C2 H2B 109.5 . .
H2A C2 H2C 109.5 . .
H2B C2 H2C 109.5 . .
C1 C3 H3A 109.5 . .
C1 C3 H3B 109.5 . .
C1 C3 H3C 109.5 . .
H3A C3 H3B 109.5 . .
H3A C3 H3C 109.5 . .
H3B C3 H3C 109.5 . .
Ag2 S2 Ag2 78.26(12) . 8
Ag3 S2 Ag2 99.91(8) . 8
Ag3 S2 Ag2 136.64(18) . .
Ag3 S2 Ag2 136.64(18) 2_566 8
Ag3 S2 Ag2 99.91(8) 2_566 .
Ag3 S2 Ag3 52.16(12) 2_566 .
C4 S2 Ag2 113.5(4) . 8
C4 S2 Ag2 113.5(4) . .
C4 S2 Ag3 106.9(5) . 2_566
C4 S2 Ag3 106.9(5) . .
C5 C4 S2 106.4(12) 8 .
C5 C4 S2 106.4(12) . .
C5 C4 C5 109(2) 8 .
C6 C4 S2 110.7(12) . .
C6 C4 C5 112.2(14) . .
C6 C4 C5 112.2(14) . 8
C4 C5 H5A 109.5 . .
C4 C5 H5B 109.5 . .
C4 C5 H5C 109.5 . .
H5A C5 H5B 109.5 . .
H5A C5 H5C 109.5 . .
H5B C5 H5C 109.5 . .
C4 C6 H6A 109.5 . .
C4 C6 H6B 109.5 . .
C4 C6 H6C 109.5 . .
H6A C6 H6B 109.5 . .
H6A C6 H6C 109.5 . .
H6B C6 H6C 109.5 . .
C7 O1 Ag2 124.7(12) . .
O1 C7 O1 132(2) . 8
O1 C7 C8 113.9(10) 8 .
O1 C7 C8 113.9(10) . .
F1 C8 C7 115.6(13) . .
F1 C8 C7 115.6(13) 8 .
F1 C8 F1 109(2) . 8
F1 C8 F2 99.8(17) 8 .
F1 C8 F2 99.8(17) . .
F2 C8 C7 115(2) . .
C9 N1 Ag2 123.3(7) . .
C9 N1 C13 115.9(9) . .
C13 N1 Ag2 120.8(7) . .
N1 C9 H9 118.2 . .
N1 C9 C10 123.6(10) . .
C10 C9 H9 118.2 . .
C9 C10 H10 120.1 . .
C11 C10 C9 119.7(10) . .
C11 C10 H10 120.1 . .
C10 C11 C11 122.2(12) . 3_765
C10 C11 C12 117.1(9) . .
C12 C11 C11 120.8(12) . 3_765
C11 C12 H12 120.2 . .
C13 C12 C11 119.5(10) . .
C13 C12 H12 120.2 . .
N1 C13 H13 117.9 . .
C12 C13 N1 124.2(11) . .
C12 C13 H13 117.9 . .
C15 I2 C17 117.3(8) 5_566 .
C15 I2 C17 117.3(8) 3_765 .
C15 I2 C15 125.3(16) 5_566 3_765
C15 I2 C16 60.0(5) 3_765 3_765
C15 I2 C16 60.0(5) 5_566 5_566
C15 I2 C16 174.7(14) 5_566 3_765
C15 I2 C16 174.7(14) 3_765 5_566
C16 I2 C17 57.3(7) 3_765 .
C16 I2 C17 57.3(7) 5_566 .
C16 I2 C16 114.6(14) 3_765 5_566
C15 C14 H14 121.0 . .
C15 C14 H14 121.0 6_756 .
C15 C14 C15 118.1(13) . 6_756
C16 C17 I2 40.1(6) 5_566 .
C16 C17 I2 40.1(6) 3_765 .
C16 C17 I2 119.3(7) 6_756 .
C16 C17 I2 119.3(7) . .
C16 C17 C16 150.0(17) . 3_765
C16 C17 C16 83.3(13) 6_756 3_765
C16 C17 C16 150.0(17) 6_756 5_566
C16 C17 C16 80.1(13) 5_566 3_765
C16 C17 C16 121.4(14) 6_756 .
C16 C17 C16 83.3(13) . 5_566
C14 C15 H15 123.4 . .
C16 C15 C14 121.1(8) . .
C16 C15 H15 115.5 . .
C17 C16 C15 119.1(8) . .
C17 C16 H16 124.7 . .
C15 C16 H16 116.2 . .
loop_
_geom_bond_atom_site_label_1
_geom_bond_atom_site_label_2
_geom_bond_distance
_geom_bond_site_symmetry_2
Ag1 Ag2 2.9052(9) .
Ag1 Ag2 2.9052(9) 7_665
Ag1 Ag2 2.9052(9) 3_665
Ag1 Ag2 2.9053(9) 8
Ag1 S1 2.422(4) .
Ag1 S1 2.422(4) 3_665
Ag2 Ag2 3.1771(15) 8
Ag2 S1 2.5462(17) 3_665
Ag2 S2 2.517(3) .
Ag2 O1 2.459(11) .
Ag2 N1 2.318(8) .
Ag3 Ag3 2.887(4) 3_665
Ag3 Ag3 2.041(3) 4_656
Ag3 Ag3 2.041(3) 2_566
Ag3 S2 2.322(4) 4_656
Ag3 S2 2.322(4) .
S1 Ag2 2.5462(17) 3_665
S1 Ag2 2.5462(17) 8
S1 C1 1.864(17) .
C1 C2 1.547(19) .
C1 C2 1.547(19) 7_665
C1 C3 1.52(3) .
C2 H2A 0.9800 .
C2 H2B 0.9800 .
C2 H2C 0.9800 .
C3 H3A 0.9800 .
C3 H3B 0.9800 .
C3 H3C 0.9800 .
S2 Ag2 2.517(3) 8
S2 Ag3 2.322(4) 2_566
S2 C4 1.83(2) .
C4 C5 1.509(12) 8
C4 C5 1.509(12) .
C4 C6 1.50(3) .
C5 H5A 0.9800 .
C5 H5B 0.9800 .
C5 H5C 0.9800 .
C6 H6A 0.9800 .
C6 H6B 0.9800 .
C6 H6C 0.9800 .
O1 C7 1.230(14) .
C7 O1 1.230(14) 8
C7 C8 1.52(3) .
C8 F1 1.294(15) 8
C8 F1 1.294(15) .
C8 F2 1.314(18) .
N1 C9 1.337(14) .
N1 C13 1.361(14) .
C9 H9 0.9500 .
C9 C10 1.390(15) .
C10 H10 0.9500 .
C10 C11 1.372(15) .
C11 C11 1.493(17) 3_765
C11 C12 1.413(15) .
C12 H12 0.9500 .
C12 C13 1.347(16) .
C13 H13 0.9500 .
I2 C17 2.234(14) .
I2 C15 1.369(13) 3_765
I2 C15 1.369(13) 5_566
I2 C16 1.450(14) 5_566
I2 C16 1.450(14) 3_765
C14 H14 0.9299 .
C14 C15 1.418(13) 6_756
C14 C15 1.418(13) .
C17 C16 1.399(13) 6_756
C17 C16 1.90(2) 5_566
C17 C16 1.399(12) .
C17 C16 1.90(2) 3_765
C15 H15 0.9301 .
C15 C16 1.411(13) .
C16 H16 0.9300 .
loop_
_geom_torsion_atom_site_label_1
_geom_torsion_atom_site_label_2
_geom_torsion_atom_site_label_3
_geom_torsion_atom_site_label_4
_geom_torsion
_geom_torsion_site_symmetry_1
_geom_torsion_site_symmetry_2
_geom_torsion_site_symmetry_3
_geom_torsion_site_symmetry_4
Ag1 S1 C1 C2 119.4(11) . . . 7_665
Ag1 S1 C1 C2 -119.4(11) . . . .
Ag1 S1 C1 C3 0.000(3) . . . .
Ag2 S1 C1 C2 164.3(10) 3_665 . . .
Ag2 S1 C1 C2 43.1(13) 3_665 . . 7_665
Ag2 S1 C1 C2 -43.1(13) 8 . . .
Ag2 S1 C1 C2 -164.3(10) 8 . . 7_665
Ag2 S1 C1 C3 76.3(3) 8 . . .
Ag2 S1 C1 C3 -76.3(3) 3_665 . . .
Ag2 S2 C4 C5 -165.6(12) 8 . . .
Ag2 S2 C4 C5 -78.6(14) . . . .
Ag2 S2 C4 C5 78.6(14) 8 . . 8
Ag2 S2 C4 C5 165.6(12) . . . 8
Ag2 S2 C4 C6 -43.47(18) 8 . . .
Ag2 S2 C4 C6 43.47(18) . . . .
Ag2 O1 C7 O1 -5(4) . . . 8
Ag2 O1 C7 C8 174.0(12) . . . .
Ag2 N1 C9 C10 -178.3(9) . . . .
Ag2 N1 C13 C12 177.0(10) . . . .
Ag3 S2 C4 C5 -30.5(13) . . . 8
Ag3 S2 C4 C5 85.3(13) . . . .
Ag3 S2 C4 C5 -85.3(13) 2_566 . . 8
Ag3 S2 C4 C5 30.5(13) 2_566 . . .
Ag3 S2 C4 C6 -152.64(10) . . . .
Ag3 S2 C4 C6 152.64(10) 2_566 . . .
O1 C7 C8 F1 -155.0(17) 8 . . 8
O1 C7 C8 F1 -26(3) 8 . . .
O1 C7 C8 F1 155.0(17) . . . .
O1 C7 C8 F1 26(3) . . . 8
O1 C7 C8 F2 89.5(16) 8 . . .
O1 C7 C8 F2 -89.5(16) . . . .
N1 C9 C10 C11 0(2) . . . .
C9 N1 C13 C12 -2.2(19) . . . .
C9 C10 C11 C11 179.9(9) . . . 3_765
C9 C10 C11 C12 0.9(18) . . . .
C10 C11 C12 C13 -2.1(18) . . . .
C11 C11 C12 C13 178.8(9) 3_765 . . .
C11 C12 C13 N1 3(2) . . . .
C13 N1 C9 C10 0.8(18) . . . .
I2 C17 C16 C15 -180(2) . . . .
C14 C15 C16 C17 -1(5) . . . .
C15 C14 C15 C16 0(2) 6_756 . . .
C16 C17 C16 C15 162(4) 5_566 . . .
C16 C17 C16 C15 0(2) 6_756 . . .
C16 C17 C16 C15 -141.2(18) 3_765 . . .
