#------------------------------------------------------------------------------
#$Date: 2019-06-26 10:49:38 +0300 (Wed, 26 Jun 2019) $
#$Revision: 216574 $
#$URL: file:///home/coder/svn-repositories/cod/cif/1/55/19/1551909.cif $
#------------------------------------------------------------------------------
#
# This file is available in the Crystallography Open Database (COD),
# http://www.crystallography.net/
#
# All data on this site have been placed in the public domain by the
# contributors.
#
data_1551909
loop_
_publ_author_name
'Lauren N. McHugh'
'Matthew J. McPherson'
'Laura J. McCormick'
'Samuel A. Morris'
'Paul S. Wheatley'
'Simon J. Teat'
'David McKay'
'Daniel M. Dawson'
'Charlotte E. F. Sansome'
'Sharon E. Ashbrook'
'Corinne A. Stone'
'Martin W. Smith'
'Russell E. Morris'
_publ_section_title
;
 Hydrolytic stability in hemilabile metal-organic frameworks
;
_journal_name_full               'Nature Chemistry'
_journal_page_first              1096
_journal_page_last               1102
_journal_paper_doi               10.1038/s41557-018-0104-x
_journal_volume                  10
_journal_year                    2018
_chemical_formula_sum            'C10 H11.33 Cu O6.67'
_chemical_formula_weight         301.73
_space_group_crystal_system      trigonal
_space_group_IT_number           164
_space_group_name_Hall           '-P 3 2"'
_space_group_name_H-M_alt        'P -3 m 1'
_atom_sites_solution_hydrogens   mixed
_atom_sites_solution_primary     'dual space'
_atom_sites_solution_secondary   difmap
_cell_angle_alpha                90
_cell_angle_beta                 90
_cell_angle_gamma                120
_cell_formula_units_Z            6
_cell_length_a                   18.5676(12)
_cell_length_b                   18.5676(12)
_cell_length_c                   6.8056(6)
_cell_measurement_reflns_used    9558
_cell_measurement_temperature    300(2)
_cell_measurement_theta_max      33.20
_cell_measurement_theta_min      3.26
_cell_volume                     2031.9(3)
_computing_cell_refinement       'SAINT V8.34A Bruker-AXS, Madison WI'
_computing_data_collection       'Bruker APEX2 Bruker-AXS, Madison WI'
_computing_data_reduction        'SAINT V8.34A Bruker-AXS, Madison WI'
_computing_structure_refinement  'SHELXL-2016/4 (Sheldrick, 2016)'
_computing_structure_solution    'SHELXT 2014/4 (Sheldrick, 2014)'
_diffrn_ambient_temperature      300(2)
_diffrn_detector_area_resol_mean 10.42
_diffrn_measured_fraction_theta_full 0.999
_diffrn_measured_fraction_theta_max 0.998
_diffrn_measurement_device_type  'Bruker D8 with PHOTON 100 detector'
_diffrn_measurement_method       '\w/\q shutterless scans'
_diffrn_radiation_type           synchrotron
_diffrn_radiation_wavelength     0.7749
_diffrn_reflns_av_R_equivalents  0.0673
_diffrn_reflns_av_unetI/netI     0.0271
_diffrn_reflns_Laue_measured_fraction_full 0.999
_diffrn_reflns_Laue_measured_fraction_max 0.998
_diffrn_reflns_limit_h_max       26
_diffrn_reflns_limit_h_min       -26
_diffrn_reflns_limit_k_max       26
_diffrn_reflns_limit_k_min       -26
_diffrn_reflns_limit_l_max       9
_diffrn_reflns_limit_l_min       -9
_diffrn_reflns_number            26279
_diffrn_reflns_point_group_measured_fraction_full 0.999
_diffrn_reflns_point_group_measured_fraction_max 0.998
_diffrn_reflns_theta_full        27.706
_diffrn_reflns_theta_max         33.184
_diffrn_reflns_theta_min         2.392
_diffrn_source                   'Advanced Light Source station 11.3.1'
_exptl_absorpt_coefficient_mu    2.060
_exptl_absorpt_correction_T_max  0.960
_exptl_absorpt_correction_T_min  0.731
_exptl_absorpt_correction_type   multi-scan
_exptl_absorpt_process_details   'SADABS-2014/5 - Bruker AXS, Madison WI'
_exptl_crystal_colour            blue
_exptl_crystal_density_diffrn    1.479
_exptl_crystal_description       plate
_exptl_crystal_F_000             922
_exptl_crystal_size_max          0.070
_exptl_crystal_size_mid          0.030
_exptl_crystal_size_min          0.020
_refine_diff_density_max         0.773
_refine_diff_density_min         -1.026
_refine_diff_density_rms         0.085
_refine_ls_extinction_coef       .
_refine_ls_extinction_method     none
_refine_ls_goodness_of_fit_ref   1.061
_refine_ls_hydrogen_treatment    mixed
_refine_ls_matrix_type           full
_refine_ls_number_parameters     105
_refine_ls_number_reflns         2174
_refine_ls_number_restraints     1
_refine_ls_restrained_S_all      1.061
_refine_ls_R_factor_all          0.0478
_refine_ls_R_factor_gt           0.0367
_refine_ls_shift/su_max          0.003
_refine_ls_shift/su_mean         0.000
_refine_ls_structure_factor_coef Fsqd
_refine_ls_weighting_details
'w=1/[\s^2^(Fo^2^)+(0.0571P)^2^+1.2552P] where P=(Fo^2^+2Fc^2^)/3'
_refine_ls_weighting_scheme      calc
_refine_ls_wR_factor_gt          0.0973
_refine_ls_wR_factor_ref         0.1033
_reflns_Friedel_coverage         0.000
_reflns_Friedel_fraction_full    .
_reflns_Friedel_fraction_max     .
_reflns_number_gt                1816
_reflns_number_total             2174
_reflns_threshold_expression     'I > 2\s(I)'
_cod_data_source_file            41557_2018_104_MOESM2_ESM.cif
_cod_data_source_block           CuEtOipRTair
_cod_database_code               1551909
_shelx_space_group_comment
;
The symmetry employed for this shelxl refinement is uniquely defined
by the following loop, which should always be used as a source of
symmetry information in preference to the above space-group names.
They are only intended as comments.
;
_shelx_estimated_absorpt_t_min   0.869
_shelx_estimated_absorpt_t_max   0.960
_shelx_res_file
;

TITL sad_a.res in P-3m1
 sad_a.res created by SHELXL-2016/4 at 16:06:16 on 01-Aug-2017
CELL  0.77490  18.5676  18.5676   6.8056   90.000   90.000  120.000
ZERR    6.00   0.0012   0.0012   0.0006    0.000    0.000    0.000
LATT   1
SYMM  - Y,   X - Y,   Z
SYMM  - X + Y, - X,   Z
SYMM    Y,   X, - Z
SYMM    X - Y, - Y, - Z
SYMM  - X, - X + Y, - Z
SFAC  C    H    O    CU
DISP    H     0.00000    0.00000         0.67
DISP    C     0.00399    0.00197        13.60
DISP    O     0.01323    0.00737        40.17
DISP    Cu    0.29127    1.48033      6565.59
UNIT  60 68 40 6
LIST 6 ! automatically inserted. Change 6 to 4 for CHECKCIF!!
MERG   2
OMIT    -1   3   0
DFIX  0.900 0.020 H1W O1W
FREE C7 C7_$1
EQIV $1 -x+y+1, y, z
htab o1w o1_$2
EQIV $2  1-y, 1-x, z-1
FMAP   2
PLAN   20
SIZE 0.02 0.03 0.07
ACTA
BOND   $H
L.S.  10
TEMP   27
WGHT    0.057100    1.255200
FVAR       0.44847
CU1   4    0.523656    0.476344    0.344553    10.50000    0.02273    0.02273 =
         0.02121    0.00013   -0.00013    0.01596
O1    3    0.588948    0.558881    0.753718    11.00000    0.02851    0.07390 =
         0.03562   -0.01399   -0.00626    0.03321
O2    3    0.628802    0.519738    0.486524    11.00000    0.02799    0.07036 =
         0.03591   -0.01763   -0.00860    0.03055
O1W   3    0.562822    0.437178    0.088582    10.50000    0.05314    0.05314 =
         0.02917   -0.00438    0.00438    0.03595
O3    3    0.841114    0.682228    1.188907    10.50000    0.05268    0.08441 =
         0.05112   -0.03855   -0.01928    0.04220
C1    1    0.640709    0.549644    0.655671    11.00000    0.02247    0.03106 =
         0.02965    0.00266   -0.00105    0.01689
C2    1    0.722938    0.575202    0.748895    11.00000    0.02227    0.03503 =
         0.03217   -0.00219   -0.00246    0.01747
C3    1    0.777781    0.555562    0.656586    10.50000    0.02521    0.03903 =
         0.02849   -0.00336   -0.00168    0.01952
AFIX  43
H3    2    0.764793    0.529585    0.534493    10.50000   -1.20000
AFIX   0
C4    1    0.743442    0.616782    0.928758    11.00000    0.02711    0.04387 =
         0.03765   -0.00891   -0.00320    0.02344
AFIX  43
H4    2    0.706371    0.629562    0.989604    11.00000   -1.20000
AFIX   0
C5    1    0.819607    0.639215    1.017439    10.50000    0.03076    0.04953 =
         0.03699   -0.01600   -0.00800    0.02476
C6    1    0.914174    0.712036    1.275516    10.50000    0.05014    0.06941 =
         0.05026   -0.02349   -0.01921    0.02908
AFIX  23
H6A   2    0.957981    0.745406    1.182658    10.50000   -1.20000
H6B   2    0.921764    0.666403    1.318031    10.50000   -1.20000
AFIX   0
C7    1    0.919984    0.763904    1.448138    10.50000    0.09400    0.10769 =
         0.09059   -0.05399   -0.03336    0.05664
AFIX  33
H7A   2    0.973387    0.785070    1.509363    10.50000   -1.50000
H7B   2    0.913232    0.809479    1.405628    10.50000   -1.50000
H7C   2    0.877080    0.730616    1.540760    10.50000   -1.50000
AFIX   0
O2W   3    0.715656    0.431311    0.191603     0.19218   10.08000
O3W   3    0.666667    0.333333    0.556011     0.05591   10.08000
O4W   3    0.701404    0.402808    0.015713     0.08471   10.08000
H1W   2    0.521227    0.406757    0.012122    10.50000   -1.50000
HKLF    4




REM  sad_a.res in P-3m1
REM R1 =  0.0367 for    1816 Fo > 4sig(Fo)  and  0.0478 for all    2174 data
REM    105 parameters refined using      1 restraints

END

WGHT      0.0571      1.2552

REM Highest difference peak  0.773,  deepest hole -1.026,  1-sigma level  0.085
Q1    1   0.6399  0.3601  0.5306  10.50000  0.05    0.77
Q2    1   0.7013  0.4026  0.2814  10.50000  0.05    0.54
Q3    1   0.7354  0.4708  0.1585  10.50000  0.05    0.50
Q4    1   0.7163  0.4326  0.0912  10.50000  0.05    0.49
Q5    1   0.7136  0.3731 -0.0693  11.00000  0.05    0.40
Q6    1   1.0000  1.0000  1.1963  10.16667  0.05    0.39
Q7    1   0.8407  0.6232  0.9751  11.00000  0.05    0.38
Q8    1   0.6667  0.3333 -0.1831  10.16667  0.05    0.37
Q9    1   0.7555  0.5725  0.7130  11.00000  0.05    0.36
Q10   1   0.6270  0.3135  0.3809  10.50000  0.05    0.35
Q11   1   0.9640  0.7955  1.1929  11.00000  0.05    0.35
Q12   1   0.6839  0.5643  0.7029  11.00000  0.05    0.34
Q13   1   0.6392  0.3196  0.7278  10.50000  0.05    0.34
Q14   1   0.5591  0.5203  0.7170  11.00000  0.05    0.32
Q15   1   0.7362  0.5943  0.8387  11.00000  0.05    0.31
Q16   1   0.6667  0.3333  0.1795  10.16667  0.05    0.30
Q17   1   0.9571  0.9142  1.0859  10.50000  0.05    0.29
Q18   1   0.6160  0.5796  0.6818  11.00000  0.05    0.28
Q19   1   0.5850  0.4150  0.0667  10.50000  0.05    0.28
Q20   1   0.5980  0.4843  0.5077  11.00000  0.05    0.26
;
_shelx_res_checksum              18415
_shelx_hkl_file
;
   1   1   0 3543.85  140.89
   2  -1   0 3497.15  140.69
  -1   2   0 3780.52  143.19
   2   0   0 5342.07  205.88
   2  -2   0 5401.56  207.58
  -2   2   0 5301.87  207.28
   0   2   0 5246.77  207.58
   2   1   0   44.90    2.00
  -3   1   0   46.60    3.60
   1  -3   0   45.10    5.30
  -3   2   0   44.60    2.30
   2  -3   0   34.20    6.20
   1   2   0   40.20    2.30
  -3   1   0   44.20    1.90
  -3   2   0   44.60    3.20
   1  -3   0   42.10    4.00
  -2   3   0   43.90    2.10
  -1  -2   0   38.60    5.70
  -2  -1   0   40.70    4.50
  -2   3   0   42.20    2.50
  -1  -2   0   47.90    5.10
  -1   3   0   40.00    2.60
   3  -2   0   44.00    3.80
   3  -1   0   45.90    2.90
  -2  -1   0   43.10    4.70
  -3   0   0 3395.46  126.69
   0  -3   0 3280.97  126.59
   0  -3   0 3333.97  127.69
   2  -4   0 7485.65  297.27
   2   2   0 7276.17  293.57
  -2  -2   0 8001.50  294.27
   4  -2   0 7296.57  293.37
  -2   4   0 7473.45  296.67
  -4   1   0  195.88    7.70
   1  -4   0  208.48   11.20
  -4   1   0  196.48   10.50
   1   3   0  193.78    8.30
   3   1   0  198.18    7.80
  -4   3   0  196.68    8.20
   3  -4   0  199.48   13.00
   1  -4   0  184.18   14.20
  -4   3   0  198.28    9.00
  -1  -3   0  185.38   11.70
  -3  -1   0  172.08   10.80
  -3  -1   0  205.08   10.70
  -1   4   0  199.28    8.50
  -1  -3   0  203.38   11.80
  -3   4   0  189.58    8.50
  -3   4   0  205.28    8.10
   4  -3   0  229.08   10.70
   4  -1   0  204.18    9.50
  -4   0   0   21.60    5.90
   0  -4   0   21.40    8.80
  -4   4   0   25.00    3.60
   0   4   0   19.30    2.70
  -4   4   0   24.60    2.90
   0  -4   0   20.40    6.90
  -4   0   0   33.30    5.90
   4  -4   0   27.20    7.00
  -4   0   0   22.50    1.60
  -5   3   0  335.37   14.50
   2   3   0  334.47   13.30
   3   2   0  320.67   13.10
   2  -5   0  331.97   15.10
  -5   2   0  345.17   14.90
  -5   3   0  351.16   13.20
   3  -5   0  333.97   18.80
  -5   2   0  346.57   12.90
   2  -5   0  346.27   18.00
   5  -2   0  342.47   14.80
  -2  -3   0  320.87   16.70
  -3  -2   0  306.77   16.00
  -3   5   0  345.97   13.10
  -2   5   0  308.27   13.60
   5  -3   0  334.27   14.70
  -3  -2   0  346.17   16.10
  -3   5   0  320.97   13.60
  -2  -3   0  348.17   16.40
  -5   1   0  403.46   18.70
   1  -5   0  439.56   19.40
  -5   4   0  435.26   17.20
  -5   1   0  413.16   16.10
   1  -5   0  424.76   22.40
   1   4   0  426.56   16.80
   4   1   0  435.66   16.20
  -5   4   0  423.16   16.60
   4  -5   0  409.86   20.80
  -4   5   0  411.76   16.80
  -1   5   0  411.76   16.80
   5  -4   0  449.66   19.30
   5  -1   0  428.86   17.80
  -4   5   0  411.56   16.50
  -4  -1   0  418.96   18.80
  -1  -4   0  440.96   19.50
  -1  -4   0  408.16   21.40
  -4  -1   0  429.36   18.80
  -5   0   0  648.94   25.90
  -5   5   0  645.54   24.60
   0   5   0  586.24   24.40
   0  -5   0  613.04   26.70
  -5   0   0  649.43   26.40
   5  -5   0  633.44   27.30
   0  -5   0  638.54   29.20
  -5   5   0  619.84   24.40
   3   3   0   13.30    1.80
   3  -6   0    0.90    9.00
   3  -6   0    7.80    4.00
  -6   3   0   16.90    2.30
  -6   3   0   10.60    3.90
  -3   6   0   14.70    2.60
   6  -3   0   18.60    4.40
  -3  -3   0   13.90    4.90
  -3  -3   0    5.80    5.70
  -6   2   0   21.60    1.70
   4   2   0   16.10    1.60
   2   4   0   19.40    2.30
   4  -6   0   10.30    8.40
  -6   4   0   20.70    2.70
   2  -6   0   22.00    5.50
  -6   2   0   16.70    4.50
   2  -6   0   13.90    7.40
  -6   4   0   23.50    3.90
  -4  -2   0   22.50    4.70
  -2   6   0   16.20    2.70
  -4   6   0   15.30    2.10
   6  -2   0   15.10    3.90
   6  -4   0   27.70    5.30
  -4   6   0   16.80    2.60
  -4  -2   0   13.20    5.90
  -2  -4   0   19.20    6.40
  -2  -4   0   19.80    6.70
  -6   5   0  172.28    7.70
  -6   5   0  180.48    8.40
   1  -6   0  174.78   11.50
   5  -6   0  166.38   12.90
   1  -6   0  169.88   14.50
   5   1   0  181.18    6.90
   1   5   0  170.08    7.80
  -6   1   0  179.98   10.50
   6  -5   0  180.58   11.40
  -5   6   0  176.38    7.90
  -5  -1   0  163.08   10.80
  -1   6   0  180.48    8.00
  -1  -5   0  166.08   13.60
  -5   6   0  170.48    7.50
   6  -1   0  172.08    9.20
  -1  -5   0  182.98   11.50
  -5  -1   0  166.18   10.10
   6  -6   0    9.60    6.90
  -6   0   0   20.20    4.40
   0  -6   0    9.50    8.40
  -6   6   0   16.10    2.80
   0  -6   0   21.00    6.10
   0   6   0   12.80    2.60
  -6   6   0   15.90    2.40
  -6   0   0   11.60    5.20
   4  -7   0    0.80    9.00
   3  -7   0    5.90    9.00
  -7   4   0   10.50    1.80
  -7   4   0   12.70    3.70
  -7   3   0    5.40    4.00
   3   4   0    8.20    1.90
  -7   3   0   11.00    1.50
   4   3   0    5.30    1.50
   3  -7   0   11.20    4.80
  -4  -3   0   10.70    5.70
  -4  -3   0    2.50    5.10
   7  -3   0    7.10    3.30
  -4   7   0   12.00    1.60
   7  -4   0   11.60    4.90
  -3   7   0   10.20    2.70
  -3  -4   0   17.30    5.90
  -3  -4   0   11.60    5.20
  -4   7   0    7.50    2.60
   5  -7   0  518.85   25.10
  -7   5   0  493.25   20.60
   5   2   0  508.45   19.40
   2  -7   0  479.75   22.20
   2   5   0  516.85   19.90
  -7   2   0  501.45   19.20
  -7   5   0  502.55   19.70
  -7   2   0  517.95   21.60
   2  -7   0  465.05   25.90
  -5   7   0  509.35   19.60
  -5   7   0  476.85   20.00
  -5  -2   0  504.25   22.20
  -2   7   0  491.45   20.10
  -2  -5   0  539.25   22.80
   7  -5   0  498.75   22.30
  -2  -5   0  504.45   24.40
   7  -2   0  507.65   21.20
  -5  -2   0  530.95   22.30
  -7   6   0   17.30    2.90
   1   6   0   17.00    2.60
   6  -7   0   14.90    7.40
   6   1   0   24.50    1.70
   1  -7   0    9.10    9.10
   1  -7   0   24.00    6.40
  -7   6   0   21.90    2.60
  -6  -1   0   14.00    5.50
  -6   7   0   22.20    2.80
   7  -6   0   17.00    6.50
  -1   7   0   20.40    2.80
  -6   7   0   16.40    2.60
  -1  -6   0   14.70    8.30
  -1  -6   0   29.20    6.20
   7   0   0    9.20    1.00
  -7   7   0    6.90    2.30
   0  -7   0    6.30    5.80
   7  -7   0   -6.20    7.70
  -7   0   0    2.80    4.90
   0  -7   0    6.80    8.30
  -7   7   0    1.30    2.10
   4  -8   0  147.69    8.80
   4  -8   0  114.79   13.90
  -8   4   0  138.89    8.20
   4   4   0  123.69    6.00
  -8   4   0  136.79    5.80
  -4  -4   0  117.29   11.20
  -4  -4   0  142.59   10.50
  -4   8   0  125.79    6.80
   8  -4   0  124.19    8.10
  -8   3   0  133.79    5.40
  -8   5   0  125.19    7.60
  -8   3   0  127.49    8.40
   5  -8   0  113.79   13.30
   3   5   0  121.69    6.00
  -8   5   0  131.79    5.90
   3  -8   0  107.99    9.90
   5   3   0  122.99    5.60
  -3  -5   0  127.69   11.80
   8  -5   0  127.09    9.60
  -3   8   0  123.99    6.70
  -5  -3   0  118.29    9.30
  -5   8   0  116.09    6.60
  -3  -5   0  125.39   10.50
  -5   8   0  134.39    5.70
   8  -3   0  136.49    8.60
  -5  -3   0  127.59    9.00
   2  -8   0   25.20    6.50
   2  -8   0   16.70    9.40
  -8   6   0   25.30    3.20
   6  -8   0   19.70   10.10
  -8   2   0   26.00    5.10
  -8   2   0   23.50    1.60
   6   2   0   18.70    2.10
  -8   6   0   25.70    4.10
   2   6   0   26.50    2.90
  -6   8   0   20.40    2.90
  -6   8   0   24.20    2.60
   8  -6   0   31.50    6.80
  -6  -2   0   25.60    5.90
   8  -2   0   31.40    5.70
  -2   8   0   26.30    3.30
  -6  -2   0   19.20    5.60
  -2  -6   0   25.10    8.40
  -2  -6   0   29.70    6.60
   1  -8   0    4.80    7.50
  -8   7   0    3.00    2.50
   1  -8   0    5.30    6.10
   1   7   0    3.90    2.50
   7   1   0    6.70    1.00
   7  -8   0   -0.20    7.60
  -8   7   0    5.50    2.20
  -8   1   0    4.30    4.00
   8  -7   0    5.00    6.60
  -1   8   0    5.50    2.70
  -7   8   0   11.20    2.60
  -1  -7   0    7.60    5.80
  -1  -7   0    5.50    8.40
   8  -1   0    4.00    3.90
  -7   8   0    7.40    2.00
  -7  -1   0   10.70    4.80
  -7  -1   0    6.70    5.20
  -8   8   0   22.20    3.10
  -8   8   0   24.20    3.60
   0  -8   0   17.10    9.20
  -8   0   0   18.60    5.90
   8   0   0   21.70    1.30
   0   8   0   25.10    3.30
   0  -8   0   31.70    6.90
   8  -8   0   28.90    8.90
  -9   5   0  217.48   11.40
  -9   4   0  226.08    8.80
  -9   4   0  208.88   11.50
   5  -9   0  246.28   11.80
   5   4   0  218.48    9.00
   4  -9   0  204.18   12.50
   4   5   0  210.78    9.20
   4  -9   0  211.58   17.70
   5  -9   0  198.78   18.40
  -9   5   0  228.18    9.10
  -4  -5   0  201.78   13.20
   9  -4   0  203.08   12.00
  -5   9   0  207.88    9.90
  -5  -4   0  219.78   12.80
  -5  -4   0  170.48   16.60
   9  -5   0  221.98   12.50
  -4  -5   0  210.68   14.50
  -4   9   0  211.18    9.90
   6   3   0   -0.60    1.40
   3   6   0    0.30    2.20
   6  -9   0   -6.70    8.90
  -9   6   0    3.80    3.30
  -9   3   0    2.10    1.00
   3  -9   0   -4.50    9.20
   3  -9   0    7.10    6.30
  -9   3   0    2.30    4.60
  -9   6   0    0.90    2.00
  -6   9   0   -1.50    1.60
  -6  -3   0   -4.90    5.00
  -6  -3   0    2.50    5.40
  -6   9   0    3.10    2.80
  -3  -6   0   -2.10    5.90
   9  -6   0   11.70    6.00
   9  -3   0   -0.30    4.40
  -3  -6   0   -5.50    5.30
  -3   9   0   -1.10    2.70
  -9   7   0  548.55   23.40
  -9   7   0  551.54   22.60
  -9   2   0  612.34   24.70
   7   2   0  569.74   21.90
   2  -9   0  570.84   25.60
   7  -9   0  547.35   28.80
   2   7   0  575.74   22.80
   2  -9   0  574.04   30.00
  -2  -7   0  596.14   25.70
   9  -7   0  578.14   26.60
  -2   9   0  574.84   23.00
  -7   9   0  554.34   22.40
  -7  -2   0  588.24   25.40
  -7   9   0  553.64   22.90
  -2  -7   0  573.54   27.70
   9  -2   0  585.54   24.50
  -7  -2   0  573.34   25.70
   1   8   0   -0.40    2.60
   8  -9   0   -3.90    6.40
  -9   1   0   -2.50    4.90
   1  -9   0    5.10    6.40
   8   1   0    2.80    1.00
   1  -9   0   -4.10    9.90
  -9   8   0    2.10    2.80
  -8  -1   0    7.40    5.00
  -1   9   0    1.70    2.90
   9  -1   0   -0.50    4.40
  -1  -8   0   -1.20    5.70
  -8  -1   0    3.30    5.80
  -8   9   0    1.80    2.00
  -8   9   0    6.00    2.70
  -1  -8   0   -2.90   10.90
   9  -8   0   -1.60    7.50
   9   0   0  302.47   14.90
   9  -9   0  319.97   21.80
   0  -9   0  300.37   16.50
  -9   9   0  299.87   13.20
   0  -9   0  295.97   21.10
  -9   0   0  305.87   16.10
   5 -10   0  912.61   36.90
   5 -10   0  854.31   41.90
   5   5   0  870.81   34.60
 -10   5   0  951.70   37.90
 -10   5   0  941.01   34.50
  -5  10   0  829.42   35.20
  -5  -5   0  912.31   37.50
  10  -5   0  939.21   39.00
  -5  -5   0  873.71   38.10
   6 -10   0   -0.30   11.10
 -10   6   0   10.80    4.30
   4   6   0   10.50    2.50
   6   4   0    6.80    2.00
   4 -10   0    3.70    6.70
 -10   4   0   11.80    1.60
 -10   4   0    9.70    5.00
   4 -10   0    4.40   11.00
 -10   6   0    7.80    2.20
  -6  -4   0   10.00    5.50
  10  -6   0   19.90    7.00
  -6  10   0   12.00    3.30
  -4  10   0    9.90    3.30
  10  -4   0    9.30    5.10
  -6  -4   0    9.70    6.10
  -4  -6   0    8.40    6.30
 -10   3   0 1365.36   53.29
   3   7   0 1305.07   51.19
   7 -10   0 1430.46   57.49
 -10   7   0 1301.77   51.09
 -10   7   0 1376.76   52.29
 -10   3   0 1275.37   50.39
   3 -10   0 1306.57   53.59
   7   3   0 1322.77   50.69
  -7  10   0 1363.06   50.99
  -7  10   0 1285.37   51.59
  -3  -7   0 1434.26   54.09
  -3  10   0 1299.07   51.49
  -7  -3   0 1343.97   53.89
  -7  -3   0 1288.17   53.79
  -3  -7   0 1288.07   56.09
  10  -3   0 1369.66   53.29
 -10   8   0   51.99    5.60
   8   2   0   42.30    2.90
 -10   2   0   53.79    7.10
   2 -10   0   67.19    8.60
   2 -10   0   50.79   13.00
 -10   8   0   38.10    5.40
   2   8   0   49.30    5.00
  10  -2   0   56.89    7.40
  -8  10   0   52.89    3.80
  -8  -2   0   56.79    7.00
  -2  10   0   51.39    5.30
  -2  -8   0   61.79    8.30
  -2  -8   0   61.59   11.50
  10  -8   0   57.79    9.80
  -8  -2   0   56.29    7.70
 -10   9   0  234.48   10.90
   1 -10   0  216.58   20.60
   9 -10   0  237.88   18.10
   9   1   0  211.38    8.90
   1   9   0  243.08   11.00
 -10   1   0  230.98   13.40
   1 -10   0  271.47   15.10
 -10   9   0  225.58   10.40
  -1  -9   0  260.77   15.10
  10  -9   0  229.08   17.10
  -9  10   0  234.68   10.20
  -9  -1   0  234.08   13.40
  -1  10   0  221.08   10.80
  10  -1   0  216.48   12.70
  -1  -9   0  215.78   19.10
  -9  -1   0  207.58   13.70
   0 -10   0  551.04   30.40
  10 -10   0  510.35   28.00
 -10  10   0  531.05   22.20
   0  10   0  527.35   22.30
 -10  10   0  592.64   23.20
   0 -10   0  606.84   25.40
  10   0   0  542.55   24.30
 -10   0   0  517.25   24.90
   5 -11   0  472.65   21.80
   5   6   0  460.15   18.40
   6 -11   0  428.46   27.40
 -11   5   0  469.05   17.90
 -11   5   0  433.76   20.50
 -11   6   0  435.16   20.10
   5 -11   0  416.66   27.40
 -11   6   0  495.85   18.20
   6   5   0  447.36   18.20
   6 -11   0  467.95   21.30
  -6  11   0  443.76   19.10
  -6  -5   0  436.46   22.90
  -5  -6   0  475.95   21.50
  -5  11   0  456.35   19.20
  -5  -6   0  447.06   23.80
  11  -5   0  466.95   21.80
  -6  -5   0  455.15   21.90
  11  -6   0  476.45   21.60
 -11   4   0 1074.59   41.20
   4 -11   0 1077.39   50.39
   7   4   0 1082.29   41.60
 -11   7   0 1068.29   41.80
 -11   4   0 1055.29   43.90
   4   7   0 1095.39   42.00
 -11   7   0 1104.19   43.20
   4 -11   0 1011.90   44.80
   7 -11   0 1062.69   49.60
  11  -7   0 1059.09   45.30
  -4  11   0 1037.00   42.40
  -7  11   0 1099.39   41.70
  -4  -7   0 1133.09   45.10
  -7  11   0 1074.79   42.40
  -7  -4   0 1089.99   45.50
  -4  -7   0 1106.59   47.10
  -7  -4   0 1152.08   45.30
  11  -4   0 1149.89   44.40
   3   8   0   29.40    3.80
 -11   8   0   32.60    5.20
   3 -11   0   33.80   13.00
   8 -11   0   21.60   12.00
   3 -11   0   32.70    8.10
   8   3   0   21.90    2.30
 -11   3   0   21.30    6.30
 -11   8   0   26.70    3.40
  11  -3   0   30.50    6.70
  -3  -8   0   28.10   10.30
  -8  -3   0   26.00    7.30
  -3  11   0   35.80    4.50
  11  -8   0   34.80    9.30
  -8  -3   0   28.90    6.20
  -8  11   0   26.80    3.30
  -8  11   0   24.60    4.00
   2   9   0   32.40    4.10
 -11   9   0   36.60    5.00
   2 -11   0   40.50   13.70
   9 -11   0   31.30   11.90
 -11   2   0   41.30    7.20
   2 -11   0   51.99    8.50
  11  -9   0   32.10   10.10
  -9  -2   0   46.20    9.00
  -2  -9   0   58.79    8.50
  11  -2   0   35.70    6.70
  -9  11   0   35.90    3.70
  -9  -2   0   32.60    7.70
  -2  -9   0   33.40   11.60
  -9  11   0   41.40    5.30
  -2  11   0   38.60    4.70
   1 -11   0   65.59   15.10
 -11  10   0   70.39    6.30
 -11   1   0   69.59    9.70
  10 -11   0   85.19   13.70
   1 -11   0  121.59   11.70
   1  10   0   79.09    6.30
 -11  10   0   83.29    6.00
  11 -10   0   74.89   13.20
 -10  11   0   80.49    5.40
 -10  11   0   82.59    6.40
 -10  -1   0   80.29   10.30
  11  -1   0   69.39    9.00
  -1 -10   0   97.79   11.80
  -1  11   0   74.19    6.70
  -1 -10   0   78.79   14.50
 -11  11   0    1.90    3.00
  11 -11   0   -1.80   11.50
   0 -11   0    0.00   12.80
   0 -11   0   14.90    7.60
   0  11   0    4.90    3.90
  11   0   0   -3.90    5.70
 -11   0   0   -2.40    6.50
 -11  11   0    6.70    3.40
 -12   6   0   45.20    7.30
 -12   6   0   52.89    4.10
   6   6   0   43.70    4.60
   6 -12   0   42.30   14.40
   6 -12   0   54.69    9.30
  12  -6   0   50.59    9.00
  -6  12   0   57.39    6.30
  -6  -6   0   50.39   10.40
  -6  -6   0   50.09    9.30
 -12   7   0 2901.61  113.89
   5 -12   0 3138.39  122.19
   7 -12   0 3279.47  116.39
   7   5   0 2889.21  113.79
   5 -12   0 3016.70  116.59
   7 -12   0 3058.29  121.49
 -12   5   0 2970.40  115.99
 -12   7   0 3098.69  115.69
 -12   5   0 3072.99  113.49
   5   7   0 2881.01  114.09
  -5  -7   0 2910.91  118.69
  -5  12   0 2842.22  114.59
  12  -5   0 2954.90  116.79
  -7  -5   0 3027.10  117.09
  -5  -7   0 3147.29  116.89
  -7  -5   0 3007.60  117.79
  12  -7   0 3014.30  117.29
  -7  12   0 2949.30  114.59
   8   4   0  270.67   11.50
   4   8   0  285.47   12.60
   4 -12   0  271.67   23.60
 -12   8   0  275.57   13.80
 -12   8   0  275.97   12.30
 -12   4   0  274.57   10.90
   4 -12   0  241.58   17.30
 -12   4   0  294.47   15.30
   8 -12   0  298.77   23.90
  12  -8   0  285.07   18.40
  -8  -4   0  271.87   17.00
  -8  12   0  288.57   11.90
  -4  -8   0  269.97   19.70
  -8  12   0  283.77   13.10
  -4  -8   0  304.17   16.80
  12  -4   0  284.07   16.20
  -8  -4   0  267.97   16.40
  -4  12   0  283.97   13.30
   3 -12   0  846.32   43.10
   9 -12   0  795.52   41.20
   3   9   0  816.72   33.20
   9   3   0  828.42   32.20
 -12   9   0  844.32   34.10
   3 -12   0  878.91   36.30
 -12   3   0  788.62   35.50
 -12   9   0  821.32   33.20
  12  -9   0  845.52   38.30
  12  -3   0  877.41   36.00
  -3  -9   0  862.91   40.30
  -3  -9   0  914.11   36.70
  -3  12   0  875.41   33.70
  -9  -3   0  755.72   36.20
  -9  -3   0  847.12   36.60
  -9  12   0  834.52   33.50
  -9  12   0  874.71   32.90
  10 -12   0  563.54   33.30
 -12  10   0  637.24   25.60
 -12   2   0  630.14   27.80
 -12  10   0  599.84   24.90
   2 -12   0  716.53   28.70
   2 -12   0  607.34   35.20
   2  10   0  591.44   25.00
  10   2   0  595.64   23.50
 -10  12   0  615.04   24.50
 -10  -2   0  587.64   28.00
 -10  -2   0  627.54   28.10
  12  -2   0  618.44   27.50
  -2  12   0  633.14   25.50
  -2 -10   0  611.04   33.00
  12 -10   0  614.14   31.40
 -10  12   0  593.74   25.20
  11 -12   0  472.15   28.90
   1 -12   0  512.55   31.00
  11   1   0  494.45   23.40
 -12  11   0  491.65   20.70
 -12   1   0  484.85   23.40
   1 -12   0  591.84   24.40
 -12  11   0  503.05   21.00
   1  11   0  476.35   20.80
  -1  12   0  499.75   21.20
  -1 -11   0  545.55   24.50
  12  -1   0  463.75   23.00
 -11  12   0  488.55   20.80
 -11  -1   0  474.05   23.50
  12 -11   0  444.66   27.90
 -11  12   0  477.35   20.20
  -1 -11   0  501.45   30.30
 -12  12   0  612.74   24.80
  12   0   0  594.04   26.80
 -12   0   0  589.94   27.30
   0 -12   0  600.24   34.50
  12 -12   0  562.84   33.30
 -12  12   0  579.54   24.30
   0  12   0  574.44   24.70
   0 -12   0  652.13   28.10
   6 -13   0  658.83   31.50
 -13   6   0  700.83   29.40
   6   7   0  672.33   27.00
 -13   7   0  702.23   26.80
   7 -13   0  697.93   31.20
 -13   7   0  671.83   28.80
   6 -13   0  634.54   37.90
   7 -13   0  705.23   37.40
 -13   6   0  708.93   26.50
  13  -7   0  685.23   31.60
  -6  -7   0  672.03   30.50
  -7  -6   0  682.33   31.40
  -6  -7   0  680.33   32.90
  13  -6   0  705.53   31.30
  -6  13   0  678.03   27.80
  -7  -6   0  635.44   30.50
  -7  13   0  648.54   27.80
 -13   8   0  212.18   11.70
   8 -13   0  232.98   14.60
 -13   5   0  190.88   12.60
   8 -13   0  175.78   23.20
   8   5   0  177.08    8.90
 -13   8   0  185.88    9.30
   5 -13   0  164.58   15.90
   5 -13   0  182.48   23.60
   5   8   0  181.38    9.60
 -13   5   0  202.68    8.20
  -5  13   0  186.48   10.70
  -5  -8   0  183.98   17.10
  13  -8   0  203.08   17.10
  13  -5   0  220.68   14.50
  -5  -8   0  204.88   17.70
  -8  -5   0  214.88   15.80
  -8  13   0  201.58   10.60
  -8  -5   0  196.88   14.40
   4 -13   0  110.39   12.90
 -13   4   0   69.19    9.40
   4 -13   0   78.69   17.50
   9 -13   0   65.09   17.20
 -13   9   0   65.79    7.30
   4   9   0   72.09    6.60
 -13   9   0   57.79    6.00
  -9  13   0   84.29    7.20
  -9  -4   0   75.39   11.60
  -9  13   0   74.79    5.10
  -4  13   0   77.59    7.40
  -4  -9   0   75.39   10.90
  -4  -9   0   75.49   13.30
  13  -4   0   89.09   11.10
  -9  -4   0   63.39    9.90
  13  -9   0   81.09   12.70
   3 -13   0   23.80    8.30
 -13  10   0   -5.90    3.10
   3  10   0    2.10    3.70
 -13   3   0   -2.30    6.40
  10 -13   0  -15.50   13.20
   3 -13   0  -13.20   14.20
 -13  10   0    3.00    4.50
 -10  -3   0    5.60    5.80
  -3 -10   0    2.40   11.80
  13 -10   0   -0.50   10.80
 -10  13   0   -1.50    2.60
  -3 -10   0    4.20    7.30
 -10  -3   0   -1.40    7.40
 -10  13   0    7.80    4.30
  13  -3   0   -0.80    6.50
  -3  13   0    3.20    4.60
   2 -13   0  227.68   24.90
   2  11   0  253.57   12.20
  11 -13   0  205.58   22.70
 -13  11   0  230.28   11.70
 -13   2   0  244.68   15.10
 -13  11   0  225.08   11.50
 -11  -2   0  208.38   15.30
  13  -2   0  238.38   13.80
 -11  13   0  238.38   11.90
  13 -11   0  241.78   20.80
  -2  13   0  240.28   12.30
  -2 -11   0  221.58   18.60
 -11  13   0  236.58   10.80
  -2 -11   0  246.18   16.40
 -13  12   0  171.08    9.50
   1 -13   0  158.98   22.50
   1 -13   0  223.18   14.80
  12   1   0  154.68   12.70
 -13   1   0  160.68   13.30
   1  12   0  185.78   10.70
  12 -13   0  160.38   21.30
 -13  12   0  165.98    9.40
 -12  -1   0  152.18   13.30
  13 -12   0  152.58   20.30
 -12  13   0  183.98   10.20
 -12  13   0  168.58    8.90
  -1  13   0  167.38   10.30
  -1 -12   0  159.18   21.80
  13  -1   0  164.08   12.90
 -13   0   0   23.60    8.40
   0 -13   0   73.49   11.80
   0  13   0   59.89    7.90
 -13  13   0   32.90    5.20
 -13  13   0   43.70    5.40
  13   0   0   45.20    8.50
   0 -13   0   40.50   16.20
  13 -13   0   35.90   14.80
   7 -14   0 3409.16  129.59
   7 -14   0 3366.86  135.29
 -14   7   0 3282.37  128.19
   7   7   0 3232.58  126.39
 -14   7   0 3365.06  126.09
  14  -7   0 3350.66  130.19
  -7  -7   0 3344.97  129.69
  -7  14   0 3188.08  126.99
  -7  -7   0 3450.55  131.19
   8 -14   0  534.95   35.00
   6 -14   0  572.84   36.20
 -14   6   0  529.25   25.60
 -14   8   0  589.24   23.20
 -14   6   0  591.34   22.40
 -14   8   0  551.94   25.20
   8 -14   0  595.64   28.20
  14  -6   0  586.24   27.10
  -6  -8   0  603.24   30.10
  -8  14   0  592.44   24.20
  -8  -6   0  613.34   28.90
  -8  -6   0  558.44   27.70
  -6  -8   0  563.64   27.10
  -6  14   0  589.24   24.30
  14  -8   0  540.45   28.60
   9 -14   0 1719.73   67.99
   9 -14   0 1696.03   74.79
 -14   9   0 1662.53   66.49
 -14   9   0 1839.82   65.19
   5 -14   0 1914.11   68.39
   5   9   0 1682.83   65.39
 -14   5   0 1637.04   67.39
   9   5   0 1603.44   64.59
   5 -14   0 1718.93   75.09
  -5  14   0 1629.34   65.69
  -9  14   0 1651.43   65.69
  -9  -5   0 1618.44   68.29
  -5  -9   0 1699.53   68.49
  14  -9   0 1771.12   70.39
  -5  -9   0 1679.13   71.29
  -9  -5   0 1680.23   69.09
  14  -5   0 1632.44   68.39
  10 -14   0   74.99   18.60
 -14   4   0   89.29   10.60
   4  10   0   98.79    7.90
   4 -14   0  109.19   19.20
 -14  10   0  102.49    8.30
 -10  14   0  109.39    6.60
 -10  -4   0   97.29   10.50
  -4 -10   0  101.59   16.90
 -10  14   0  104.09    8.40
 -10  -4   0   83.29   12.10
  -4  14   0  109.39    9.10
  14 -10   0   99.99   16.50
  14  -4   0  107.19   12.40
 -14  11   0  411.46   18.60
  11   3   0  397.06   16.30
   3  11   0  424.86   18.50
 -14   3   0  391.36   20.90
  11 -14   0  383.86   28.90
 -14  11   0  383.96   17.80
   3 -14   0  407.56   31.00
 -11  -3   0  427.86   22.10
  14 -11   0  410.56   26.10
 -11  14   0  440.76   18.60
 -11  14   0  439.96   17.50
  -3 -11   0  456.05   21.60
  -3 -11   0  437.96   27.80
 -11  -3   0  414.36   21.90
  -3  14   0  411.06   18.60
  14  -3   0  415.76   21.70
 -14  12   0  293.67   14.50
 -14   2   0  305.17   17.80
  12 -14   0  295.47   25.60
   2 -14   0  308.87   27.40
   2  12   0  317.77   15.10
 -14  12   0  330.57   15.20
  -2  14   0  327.87   15.10
 -12  -2   0  308.27   18.10
  -2 -12   0  368.66   18.50
 -12  14   0  312.67   14.90
 -12  14   0  310.57   14.40
  14 -12   0  281.77   24.20
  14  -2   0  320.07   17.80
  -2 -12   0  320.47   24.40
 -14  13   0  237.68   11.80
   1  13   0  229.18   12.20
  13   1   0  231.28   14.90
 -14   1   0  246.08   15.60
  13 -14   0  209.78   23.80
 -14  13   0  217.48   11.70
   1 -14   0  227.68   24.80
 -13  -1   0  248.88   15.60
  -1  14   0  257.77   12.90
 -13  14   0  250.97   11.50
  14  -1   0  230.68   15.30
  -1 -13   0  242.48   23.70
 -13  14   0  245.98   12.60
  14 -13   0  205.88   22.30
   0  14   0  110.89    8.70
 -14   0   0  111.39   11.80
  14   0   0  112.89    9.90
   0 -14   0  123.39   20.30
 -14  14   0  122.99    7.70
 -14  14   0  108.49    8.40
   0 -14   0  159.58   11.70
  14 -14   0   94.89   17.10
   8   7   0   58.99    5.70
 -15   8   0   48.60    5.10
   7   8   0   49.00    6.80
   8 -15   0   44.10   11.50
   7 -15   0   56.99   18.60
   8 -15   0   40.40   17.70
 -15   7   0   53.19    7.60
 -15   7   0   53.19    4.40
 -15   8   0   57.69    7.70
  -7  -8   0   67.49   10.70
  15  -8   0   57.99   11.90
  -7  15   0   62.49    7.40
  15  -7   0   59.19   11.50
  -7  -8   0   53.69   12.20
  -8  -7   0   75.19   13.50
  -8  -7   0   46.20    9.50
  -8  15   0   64.99    7.40
 -15   9   0  494.15   22.00
   9 -15   0  522.65   25.80
   9 -15   0  426.16   32.80
 -15   9   0  463.05   19.70
 -15   6   0  484.05   22.50
   6 -15   0  423.06   23.50
   6 -15   0  429.96   33.60
   6   9   0  478.85   20.10
  -6  -9   0  486.15   24.40
  15  -9   0  513.75   27.20
  -9  -6   0  465.05   25.40
  -9  -6   0  482.55   25.00
  -6  -9   0  475.85   27.10
  -9  15   0  485.75   21.10
  -6  15   0  479.65   21.00
  15  -6   0  459.15   24.90
  10 -15   0   21.90    8.70
 -15  10   0   -3.30    3.30
 -15  10   0    3.70    5.20
   5  10   0    1.00    3.90
   5 -15   0  -13.80   15.50
 -15   5   0    2.30    6.20
  10 -15   0   -9.20   15.50
  -5 -10   0    9.70   12.00
 -10  15   0    9.80    4.90
  15  -5   0    7.30    8.50
 -10  -5   0   -2.50    8.50
 -10  -5   0    5.70    8.10
  -5 -10   0   17.60    7.90
  -5  15   0    7.40    5.00
  15 -10   0   10.90   11.10
   4 -15   0  129.89   21.40
   4  11   0  123.29    8.30
  11 -15   0  137.99   23.00
 -15  11   0  128.39    9.10
 -15   4   0  119.89   11.70
 -11  -4   0  122.89   12.70
  -4 -11   0  150.68   18.30
  15 -11   0  117.49   17.90
 -11  15   0  124.99    9.00
  -4 -11   0  155.88   13.40
 -11  -4   0  145.19   13.70
 -11  15   0  119.99    7.30
  15  -4   0  134.09   13.60
  -4  15   0  143.39    9.50
   3 -15   0   32.00   16.50
   3  12   0   29.70    5.30
  12 -15   0   26.60   14.80
 -15  12   0   32.60    5.60
 -15   3   0   16.70    7.60
 -12  -3   0   43.50    9.20
 -12  15   0   25.00    4.60
  -3 -12   0   31.30   13.10
  -3  15   0   33.00    5.50
 -12  15   0   34.90    5.30
  15  -3   0   30.30    7.30
  15 -12   0   32.20   13.90
   2  13   0    8.90    4.40
  13 -15   0    2.40   14.10
 -15  13   0   13.00    4.10
 -15   2   0   16.90    7.50
  13   2   0    9.90    7.20
 -15  13   0    7.80    4.00
   2 -15   0    7.30   15.20
 -13  15   0    8.90    4.30
  -2 -13   0   24.20    7.20
  15  -2   0   14.70    7.60
 -13  -2   0    9.80    7.20
 -13  15   0   14.80    3.50
  -2 -13   0   16.90   12.40
  -2  15   0   13.20    5.00
  15 -13   0    1.90   13.30
   1  14   0    9.20    4.50
 -15  14   0    5.60    4.10
 -15  14   0    2.80    3.70
  14 -15   0   -4.70   13.30
  14   1   0    5.70    6.80
 -15   1   0    0.50    6.30
   1 -15   0    0.20   13.80
  -1 -14   0   24.00    6.60
 -14  -1   0    0.70    6.80
  -1 -14   0    6.10   12.40
  -1  15   0    3.10    4.40
 -14  15   0    1.00    3.20
  15 -14   0   -5.30   12.60
  15  -1   0    6.30    5.60
 -14  15   0    5.80    4.30
   0  15   0   10.00    4.40
  15 -15   0  -14.60   12.60
  15   0   0    7.00    6.90
 -15   0   0    4.80    6.70
 -15  15   0    2.70    3.50
   0 -15   0    4.40   13.10
 -15  15   0    9.10    4.10
   8   8   0    7.00    3.50
 -16   8   0   11.00    2.80
 -16   8   0   11.40    6.10
   8 -16   0    1.40   16.20
  -8  -8   0    9.10    9.80
  16  -8   0   16.10   11.10
  -8  -8   0    8.00    7.70
  -8  16   0   15.40    5.10
   9 -16   0  309.27   29.00
   7   9   0  353.06   15.70
 -16   9   0  348.57   17.40
 -16   7   0  360.86   18.00
   9   7   0  364.66   15.30
   9 -16   0  318.97   22.30
 -16   9   0  364.56   15.50
   7 -16   0  303.57   29.80
  -9  -7   0  375.16   19.90
  -7  16   0  344.07   16.50
  -7  -9   0  368.16   22.90
  -9  -7   0  369.66   21.70
  -9  16   0  346.47   16.60
  -7  -9   0  386.36   20.50
  16  -7   0  353.86   21.80
  16  -9   0  366.16   23.40
 -16  10   0    8.10    3.50
 -16  10   0    6.00    5.30
  10 -16   0   -9.70   15.20
  10 -16   0   12.10    9.60
 -16   6   0    7.80    6.40
   6 -16   0    5.30   15.70
   6  10   0    7.20    4.00
  10   6   0   11.40    3.90
  -6 -10   0   10.20   10.50
  16 -10   0   25.90   12.30
 -10  -6   0   13.40    8.10
  -6  16   0   14.70    4.80
  16  -6   0   16.80    9.40
  -6 -10   0   12.00    8.00
 -10  -6   0    8.40    6.90
 -10  16   0   18.40    4.90
  11 -16   0  468.15   23.50
  11 -16   0  371.76   30.60
   5 -16   0  402.26   30.80
 -16  11   0  406.96   19.60
 -16   5   0  435.06   21.10
 -16  11   0  400.26   18.20
   5  11   0  449.66   18.90
  16 -11   0  440.06   26.40
  16  -5   0  419.16   23.00
  -5 -11   0  467.35   26.90
 -11  -5   0  445.06   23.10
  -5 -11   0  453.85   22.50
 -11  -5   0  405.16   21.80
  -5  16   0  430.26   19.10
 -11  16   0  433.26   19.20
 -16  12   0  144.99    9.60
   4  12   0  136.59    9.20
  12 -16   0  116.19   20.10
   4 -16   0  141.79   23.30
 -16   4   0  118.09   11.40
  16 -12   0  135.29   19.10
  16  -4   0  140.39   11.70
  -4  16   0  146.19    9.60
  -4 -12   0  173.78   13.10
 -12  -4   0  159.28   13.40
 -12  -4   0  139.39   12.30
 -12  16   0  138.09    9.60
  -4 -12   0  141.39   17.70
  13 -16   0  164.28   21.60
 -16   3   0  203.48   13.50
   3 -16   0  189.78   23.20
   3  13   0  189.78   10.80
 -16  13   0  192.28   10.60
 -16  13   0  153.68   10.00
 -13  16   0  193.18   11.20
  -3  16   0  202.78   11.10
  16 -13   0  187.48   20.90
 -13  -3   0  201.78   13.90
  -3 -13   0  203.28   20.00
  -3 -13   0  221.08   14.30
  16  -3   0  178.78   14.30
 -16  14   0  196.78   11.00
  14 -16   0  182.58   22.50
   2  14   0  210.88   11.30
  14   2   0  195.18   14.00
 -16   2   0  206.58   14.00
   2 -16   0  212.28   24.00
 -16  14   0  210.38   11.20
 -14  16   0  218.38   10.50
  16 -14   0  205.28   21.50
 -14  16   0  215.88   11.30
  -2 -14   0  225.18   18.60
  16  -2   0  206.68   14.70
  -2 -14   0  253.17   14.80
  -2  16   0  213.38   11.60
 -14  -2   0  192.18   14.50
 -16  15   0   68.79    7.20
  15   1   0   53.09   10.30
  15 -16   0   52.09   16.10
   1  15   0   65.89    7.90
 -16   1   0   77.79   10.20
 -16  15   0   67.69    6.30
   1 -16   0   68.19   16.90
 -15  16   0   61.99    6.00
  -1 -15   0   64.49   15.50
 -15  -1   0   67.79   10.00
 -15  16   0   82.39    7.60
  16  -1   0   59.09   10.30
  -1 -15   0   98.89   10.70
  16 -15   0   66.49   15.60
  -1  16   0   71.39    7.40
  16   0   0  141.89   11.20
 -16   0   0  158.38   12.70
  16 -16   0  123.59   21.70
 -16  16   0  158.28    9.70
 -16  16   0  147.19    8.80
   0  16   0  154.78   10.20
   9 -17   0   15.30   15.50
   8 -17   0   -4.00   15.80
 -17   9   0   16.00    5.60
   9   8   0   17.30    4.00
 -17   8   0   20.40    6.10
   8   9   0   10.40    3.70
  17  -9   0   20.60   10.90
  -9  17   0   13.50    4.90
  -8  17   0   16.00    5.10
  -9  -8   0   13.50    9.40
  -8  -9   0   19.50    8.00
  -9  -8   0   19.50    7.60
  17  -8   0   30.90   10.80
  -8  -9   0   25.40    7.80
   7 -17   0  263.17   27.00
   7  10   0  282.27   13.70
  10   7   0  290.57   13.20
 -17   7   0  292.97   15.80
 -17  10   0  312.67   15.40
  10 -17   0  271.97   26.30
 -17  10   0  293.97   13.20
  -7 -10   0  277.37   20.50
  -7 -10   0  318.87   18.20
  17 -10   0  322.37   21.80
  -7  17   0  295.07   14.60
 -10  17   0  290.67   14.50
 -10  -7   0  290.77   17.70
  17  -7   0  288.47   19.50
 -10  -7   0  294.57   17.50
   6  11   0   43.90    6.30
 -17   6   0   55.69    8.50
  11 -17   0   36.10   16.30
 -17  11   0   53.19    7.90
   6 -17   0   23.00   16.60
 -11  17   0   51.69    7.00
 -11  -6   0   41.50    8.50
  17  -6   0   37.80    9.90
 -11  -6   0   39.10    9.60
  -6 -11   0   71.29   11.20
  -6  17   0   43.90    5.90
  -6 -11   0   50.99   11.80
  17 -11   0   40.40   13.10
  12 -17   0  263.67   17.80
 -17  12   0  211.38   12.40
   5 -17   0  206.88   24.90
  12 -17   0  185.98   24.40
 -17   5   0  217.88   13.90
   5  12   0  213.38   11.50
 -12  -5   0  231.08   16.00
  17  -5   0  216.58   15.90
  17 -12   0  206.58   20.10
  -5  17   0  224.08   12.30
 -12  17   0  215.08   11.70
 -12  -5   0  202.28   14.60
  -5 -12   0  239.68   15.50
  -5 -12   0  217.28   19.70
 -17  13   0   36.20    5.50
   4 -17   0   39.60   16.40
 -17   4   0   27.10    7.10
  13 -17   0   47.30   17.60
   4  13   0   38.00    5.40
 -17  13   0   15.50    4.40
  17  -4   0   35.70    9.20
  17 -13   0   40.40   14.00
 -13  -4   0   32.10    8.40
  -4 -13   0   54.29    8.80
 -13  17   0   44.30    6.00
  -4  17   0   32.30    5.40
  -4 -13   0   25.90   12.10
   3 -17   0   80.69   18.20
 -17  14   0   75.39    7.40
  14 -17   0   49.70   16.50
  14   3   0   53.89    9.90
 -17  14   0   61.79    7.00
 -17   3   0   60.09    9.80
   3  14   0   76.79    7.20
 -14  -3   0   87.49   11.10
  -3 -14   0   67.99   14.80
  -3 -14   0  109.69   11.30
  17 -14   0   68.89   16.10
  -3  17   0   74.89    8.30
 -14  17   0   77.39    8.10
 -17  15   0  131.89    9.10
 -17  15   0  129.99    8.70
  15 -17   0  115.09   21.30
   2  15   0  142.19    9.80
 -17   2   0  137.69   12.00
  15   2   0  125.49   12.10
  -2 -15   0  180.88   15.70
 -15  -2   0  128.49   12.50
  17 -15   0  110.59   20.10
  -2 -15   0  126.49   19.90
 -15  17   0  148.69    9.30
  17  -2   0  127.49   11.20
 -17  16   0    0.00    3.90
  16 -17   0    5.10   14.50
 -17   1   0    3.20    6.80
   1 -17   0   -6.00   13.90
  16   1   0    2.30    5.50
   1  16   0    2.40    4.70
 -17  16   0    4.00    4.40
  -1 -16   0   -1.80   12.90
 -16  17   0    6.90    4.60
 -16  -1   0   -3.40    6.60
  17  -1   0    2.30    7.70
  -1  17   0    5.10    4.70
 -17   0   0  115.49   11.80
  17   0   0  122.99   12.50
   0  17   0  122.59    9.60
   0 -17   0  124.29   20.30
  17 -17   0  106.09   19.50
 -17  17   0  123.09    9.20
 -18   9   0  462.45   21.40
   9 -18   0  437.96   33.50
   9   9   0  452.25   19.50
  -9  -9   0  442.96   23.40
  18  -9   0  459.35   26.10
 -18   8   0   30.20    6.90
  10 -18   0   29.10   16.60
 -18  10   0   32.90    6.30
   8  10   0   31.90    4.90
   8 -18   0   15.90   16.60
 -10  18   0   34.00    6.50
  18  -8   0   31.40   11.20
  -8 -10   0   57.39    9.60
  18 -10   0   32.80   11.90
 -10  -8   0   32.80    8.10
   7  11   0  105.39    8.40
  11 -18   0  102.09   19.20
   7 -18   0  102.69   20.60
 -18   7   0  106.89   15.30
 -18  11   0  112.29    9.20
 -18  11   0  118.19    7.50
  -7 -11   0  146.19   13.00
 -11  18   0  102.99    8.50
  18 -11   0  112.99   17.70
  18  -7   0  111.89   14.50
 -11  -7   0  118.39   12.30
 -11  -7   0   95.59   13.20
  -7  18   0  118.39    9.10
  12 -18   0   -7.30   15.30
 -18  12   0   -1.20    4.40
 -18   6   0    1.60    5.70
   6  12   0   -0.90    4.20
   6 -18   0  -11.50   15.30
  -6 -12   0    0.60   10.30
 -12  18   0    2.10    4.50
 -12  -6   0    4.00    7.70
 -12  -6   0    6.50    7.30
  -6  18   0    0.60    4.90
  -6 -12   0   13.90    7.60
  18 -12   0   -2.20   12.00
  13 -18   0   48.20   18.50
   5  13   0   52.39    7.40
 -18  13   0   54.29    7.10
   5 -18   0   62.99   18.80
 -18   5   0   58.49    9.20
 -13  -5   0   50.29    9.70
  -5 -13   0  100.69   12.20
  18  -5   0   54.19   10.40
 -13  18   0   66.39    8.00
 -13  -5   0   57.49    9.30
  18 -13   0   54.19   15.20
  -5 -13   0   56.39   13.40
  -5  18   0   46.20    6.40
 -18  14   0   14.90    5.00
   4  14   0   11.00    5.10
  14   4   0    4.80    7.10
 -18   4   0   14.40    6.70
   4 -18   0   19.60   15.80
  14 -18   0   22.80   16.90
 -18  14   0    8.70    4.30
  18 -14   0   12.30   16.80
  -4 -14   0   25.70   12.10
  18  -4   0   19.30    8.70
 -14  18   0   14.40    5.30
  -4  18   0   14.10    5.30
  -4 -14   0   34.80    8.50
   3  15   0   32.00    5.80
 -18   3   0   28.90    7.30
 -18  15   0   25.40    5.10
  15   3   0   33.40    8.00
 -18  15   0   33.70    5.50
   3 -18   0   41.20   16.90
  -3 -15   0   71.89   11.40
  -3 -15   0   41.40   13.50
  18  -3   0   27.30    9.00
 -15  18   0   45.20    6.20
 -15  -3   0   40.50    8.30
  -3  18   0   25.00    5.90
  18 -15   0   25.90   15.10
  16 -18   0   80.49   17.70
 -18   2   0   81.99   10.50
 -18  16   0   75.09    8.10
 -18  16   0   70.29    7.30
   2 -18   0   57.89   17.70
  16   2   0   69.29   10.70
  18  -2   0   82.59   11.90
  -2  18   0   91.99    9.20
  18 -16   0   92.79   17.60
 -16  -2   0   78.09   10.70
  -2 -16   0   77.29   16.10
 -16  18   0   78.89    8.20
   1 -18   0   -5.10   14.50
  17 -18   0   14.60   15.60
   1  17   0    7.40    5.20
 -18  17   0    1.20    4.80
 -18   1   0    3.70    6.20
  17   1   0    3.20    7.40
  -1 -17   0   -0.20   13.20
  18  -1   0    4.70    6.30
  18 -17   0   27.30   16.50
  -1  18   0    7.30    5.30
 -17  -1   0   11.40    7.20
 -17  18   0   -1.60    5.30
  18 -18   0   73.59   18.70
   0 -18   0   72.39   16.80
  18   0   0   77.09   11.10
 -18  18   0   87.49   10.60
 -18   0   0   79.59   11.30
   0  18   0   79.99    9.10
   9  10   0   52.19    7.30
 -19   9   0   61.19    8.80
  10   9   0   49.90    6.90
   9 -19   0   44.50   32.50
 -19  10   0   63.09    8.60
  10 -19   0   59.29   20.10
  19  -9   0   73.79   13.40
  -9  19   0   83.29    8.90
 -10  19   0   74.29    7.90
 -10  -9   0   65.79   11.90
  19 -10   0   76.79   14.50
 -10  -9   0   98.69   12.00
  -9 -10   0   81.29   14.00
  -9 -10   0   81.59   11.70
 -19   8   0   -2.70    5.40
   8  11   0   -0.80    4.40
  11 -19   0   -6.90   16.30
  19 -11   0    8.70   12.30
 -11  -8   0    6.90    7.60
  -8 -11   0   19.60    7.70
 -11  19   0    4.10    4.60
  19  -8   0    6.70   10.80
  -8  19   0    5.50    5.00
  -8 -11   0   -0.90    9.50
 -11  -8   0    1.20    8.00
   7  12   0  171.18   10.40
   7 -19   0  142.49   25.30
 -19   7   0  157.38   12.00
 -19  12   0  148.19   10.80
  19 -12   0  143.19   21.20
  -7  19   0  166.28   11.20
 -12  -7   0  141.79   14.90
  19  -7   0  166.88   16.40
 -12  -7   0  186.18   14.50
  -7 -12   0  152.48   17.40
  -7 -12   0  206.48   15.00
 -12  19   0  165.38   11.00
  13 -19   0   89.19   20.20
   6  13   0  105.09    8.80
 -19   6   0  119.39   10.50
 -19  13   0  113.29    9.60
   6 -19   0  104.89   21.00
 -19  13   0   71.09    8.10
 -13  -6   0  110.49   13.20
  19 -13   0  113.89   18.00
  19  -6   0   89.99   14.00
  -6  19   0  112.49    9.20
  -6 -13   0  146.89   13.30
  -6 -13   0  103.79   16.00
 -13  19   0  106.09    9.10
 -19  14   0  339.27   16.60
 -19  14   0  345.47   15.80
   5  14   0  332.07   16.10
 -19   5   0  298.97   17.80
   5 -19   0  306.77   28.40
  14 -19   0  303.17   28.60
 -14  -5   0  307.57   18.90
  19 -14   0  329.47   28.10
  -5  19   0  317.27   16.10
  19  -5   0  312.17   20.10
  -5 -14   0  331.87   23.90
  -5 -14   0  378.26   19.70
 -14  19   0  334.07   16.40
  15   4   0  262.17   17.00
  15 -19   0  263.17   28.30
   4 -19   0  264.37   27.70
   4  15   0  288.07   14.70
 -19  15   0  254.27   14.30
 -19   4   0  266.17   16.00
 -19  15   0  275.77   14.20
  19 -15   0  268.67   26.90
  19  -4   0  275.67   18.50
 -15  19   0  306.97   15.00
  -4 -15   0  283.47   22.40
  -4 -15   0  326.37   18.10
 -15  -4   0  277.27   17.20
  -4  19   0  284.77   14.60
 -19  16   0  133.09    9.60
 -19  16   0  133.09    9.80
   3  16   0  139.79   10.70
 -19   3   0  119.99   11.60
  16   3   0  133.59   12.50
  16 -19   0  136.69   23.50
   3 -19   0  147.09   23.20
  -3  19   0  144.29   10.80
  19 -16   0  150.68   23.70
 -16  19   0  152.08   10.40
  19  -3   0  119.39   13.80
 -16  -3   0  143.09   13.40
  -3 -16   0  138.19   18.90
  17 -19   0  271.77   26.60
 -19   2   0  292.07   17.40
 -19  17   0  287.87   14.60
   2  17   0  312.17   15.20
  17   2   0  295.17   17.40
 -19  17   0  294.77   15.10
   2 -19   0  293.87   27.30
  19  -2   0  284.67   18.50
 -17  19   0  298.97   15.20
  -2  19   0  291.97   15.20
 -17  -2   0  296.37   17.50
  -2 -17   0  269.97   24.10
  19 -17   0  275.97   28.30
   1 -19   0   38.90   15.70
 -19   1   0   36.10    8.00
  18   1   0   36.70    8.80
  18 -19   0   33.90   16.20
   1  18   0   36.80    6.60
 -18  -1   0   41.90    8.80
 -18  19   0   33.00    6.20
  19  -1   0   24.10    9.10
  -1  19   0   42.60    6.80
  -1 -18   0   32.20   15.10
  19 -18   0   35.80   16.40
 -19  19   0  339.77   16.80
   0 -19   0  326.47   26.70
  19   0   0  299.77   19.40
   0  19   0  328.97   16.80
  19 -19   0  304.37   28.30
 -20  10   0    7.70    5.50
  10 -20   0   -3.10   17.00
 -10 -10   0    8.20    9.30
 -10  20   0   11.10    5.10
 -10 -10   0   16.20    8.30
  20 -10   0   13.80   12.10
 -20  11   0   89.09    9.80
   9  11   0   98.19    8.60
   9 -20   0   87.99   20.40
  11 -20   0   97.99   21.50
 -20   9   0  106.09   10.00
 -11  -9   0   83.09   13.80
 -11  -9   0  113.29   13.00
  20 -11   0   98.09   18.50
  -9 -11   0  130.19   12.70
  -9 -11   0   98.29   14.90
  20  -9   0   88.89   16.40
  -9  20   0  115.59    9.60
 -11  20   0   95.89    8.80
   8 -20   0    6.80   17.40
 -20   8   0    1.40    5.80
  12 -20   0   -7.00   16.20
 -20  12   0    2.00    5.00
   8  12   0    0.40    4.70
 -12  20   0   -1.60    4.80
  -8 -12   0    2.60    9.60
  -8  20   0    2.00    4.90
  20 -12   0   -7.60   12.30
  20  -8   0   11.30   11.10
  -8 -12   0    8.60    7.80
 -12  -8   0    5.60    8.70
 -20   7   0   69.19    9.40
   7  13   0   59.59    8.20
 -20  13   0   63.19    8.10
  13 -20   0   51.29   18.90
   7 -20   0   50.59   18.80
  20 -13   0   68.69   15.70
  -7 -13   0   68.99   13.50
 -13  20   0   70.19    9.00
 -13  -7   0   62.09   12.10
  -7  20   0   69.39    8.20
  -7 -13   0   79.09   11.50
  20  -7   0   84.59   14.70
 -13  -7   0   79.99   11.20
   6 -20   0    6.10   16.70
 -20   6   0    3.60    5.90
  14 -20   0   -2.00   15.70
 -20  14   0    5.10    5.00
   6  14   0    2.40    4.90
  20  -6   0    1.50    9.50
 -14  -6   0    2.20    7.60
 -14  20   0   13.30    5.20
  -6 -14   0    4.60   11.10
  20 -14   0   -1.00   14.00
  -6 -14   0   22.20    7.80
  -6  20   0   10.50    5.60
  15   5   0   -2.20    6.80
   5  15   0    1.20    5.10
  15 -20   0    7.90   16.00
   5 -20   0  -14.60   14.60
 -20  15   0   -6.50    4.30
 -20  15   0    2.70    4.90
 -20   5   0    5.40    6.00
  20 -15   0    8.40   15.00
  -5  20   0    4.10    5.40
  20  -5   0    9.70    9.50
 -15  20   0   10.30    5.50
 -15  -5   0    9.50    7.70
  -5 -15   0    6.30   10.90
   4  16   0   38.20    6.40
 -20   4   0   27.30    7.40
  16 -20   0   32.60   17.90
   4 -20   0   33.50   17.20
  16   4   0   28.30    8.30
 -20  16   0   20.70    5.40
 -20  16   0   41.70    6.40
 -16  20   0   35.00    6.20
  20 -16   0   23.10   15.80
  -4  20   0   33.00    6.20
  20  -4   0   40.80    9.80
 -16  -4   0   42.10    8.80
  -4 -16   0   38.90   12.90
  17   3   0   -4.70    7.00
  17 -20   0   -5.80   17.10
 -20  17   0   -4.50    4.50
   3  17   0    1.50    5.60
   3 -20   0   -8.30   15.10
 -20   3   0    9.40    6.40
 -20  17   0   -2.30    5.00
  -3  20   0    7.90    5.50
  20  -3   0   -2.70    8.20
  -3 -17   0   -3.00   11.40
 -17  20   0   -0.80    5.30
  20 -17   0  -14.20   14.20
 -17  -3   0   -0.60    7.10
   2  18   0   42.80    6.70
  18 -20   0   36.10   18.30
 -20   2   0   40.80    8.10
   2 -20   0   44.70   17.50
  18   2   0   47.80    9.30
 -18  20   0   42.80    6.60
  -2  20   0   46.80    7.10
  -2 -18   0   45.30   15.20
  20 -18   0   50.19   18.60
 -18  -2   0   48.70    8.80
  20  -2   0   43.40   10.00
  19   1   0   18.90    8.10
 -20   1   0   18.30    7.20
  19 -20   0   13.60   16.60
 -20  19   0   24.80    6.30
   1 -20   0   16.40   15.10
   1  19   0   20.80    6.60
  20 -19   0   17.70   16.60
  -1 -19   0   30.70   14.70
  -1  20   0   21.00    6.30
  20  -1   0   25.30    9.10
 -19  20   0   23.90    6.50
 -19  -1   0   23.20    7.80
   0 -20   0   50.09   16.90
 -20   0   0   62.69   10.00
   0  20   0   48.70    7.20
 -20  20   0   44.50    7.30
  20   0   0   49.20   10.40
  20 -20   0   46.00   18.60
 -21  10   0   13.80    5.90
 -21  11   0    8.80    5.60
  10 -21   0    8.20   16.60
  11 -21   0    1.40   17.40
 -11 -10   0   10.50   14.50
 -10 -11   0   16.80    8.20
  21 -10   0    4.20   12.50
 -11 -10   0   12.00    9.30
  21 -11   0    7.10   13.20
 -11  21   0    6.40    5.30
 -10  21   0    8.70    5.20
 -10 -11   0    7.70    9.80
 -21   9   0  143.29   11.20
  12 -21   0  132.89   23.20
   9 -21   0  138.69   24.00
   9  12   0  142.99   11.00
 -21  12   0  130.09   10.40
 -12  21   0  126.69   10.30
 -12  -9   0  135.79   15.00
  -9 -12   0  157.38   14.10
 -12  -9   0  160.48   14.70
  -9  21   0  146.29   10.60
  21  -9   0  137.99   17.70
  21 -12   0  146.49   20.60
  -9 -12   0  134.19   16.20
   8 -21   0    1.10   17.40
  13 -21   0    4.70   17.90
 -21   8   0    6.90    6.10
 -21  13   0   -3.70    4.90
   8  13   0   -8.80    4.90
  21  -8   0   20.20   11.70
  -8  21   0   14.20    5.40
 -13  -8   0    8.60    8.70
 -13  -8   0   22.00    8.10
 -13  21   0    6.70    5.40
  21 -13   0    4.40   14.20
  -8 -13   0    9.30   10.00
  -8 -13   0    9.80    8.20
 -21  14   0   92.09    9.40
   7 -21   0   77.29   20.30
 -21   7   0   83.59    9.90
  14 -21   0   86.59   21.20
   7  14   0  104.79    9.50
  21 -14   0   82.99   17.80
  21  -7   0  106.19   15.80
  -7  21   0  101.29    9.10
  -7 -14   0  101.59   16.30
 -14  -7   0   87.39   11.70
  -7 -14   0  131.29   13.40
 -14  21   0   98.29    9.00
   6 -21   0  173.18   24.90
 -21   6   0  143.39   11.80
 -21  15   0  148.59   11.00
  15   6   0  129.89   13.20
  15 -21   0  178.08   27.00
 -15  21   0  171.08   10.80
  21 -15   0  144.49   22.70
 -15  -6   0  173.78   13.70
  21  -6   0  155.78   16.20
  -6 -15   0  144.39   18.50
  -6  21   0  148.79   10.70
  16 -21   0  157.38   25.20
   5 -21   0  134.09   24.90
 -21   5   0  126.09   11.80
 -21  16   0  166.28   10.90
  16   5   0  137.69   13.00
   5  16   0  152.38   11.20
 -16  -5   0  173.58   14.50
  21 -16   0  141.29   24.90
  -5 -16   0  142.49   18.10
 -16  21   0  156.98   11.30
  21  -5   0  140.09   15.60
  -5  21   0  159.88   10.80
   4  17   0  228.98   13.30
  17 -21   0  190.38   26.60
 -21   4   0  239.88   14.90
  17   4   0  225.88   15.90
   4 -21   0  243.88   26.70
  21 -17   0  204.68   24.70
  -4 -17   0  229.08   21.60
  -4  21   0  248.28   13.40
  21  -4   0  232.08   17.30
 -17  21   0  233.98   13.90
 -17  -4   0  234.48   16.50
   3 -21   0  134.99   25.70
  18   3   0  102.49   12.40
   3  18   0  110.49   10.70
 -21   3   0  111.39   11.10
 -21  18   0  104.79    9.20
  18 -21   0  106.99   22.50
  21 -18   0  112.19   21.10
  -3  21   0  130.99   10.60
 -18  -3   0  106.39   12.00
 -18  21   0  117.39   10.60
  -3 -18   0  127.19   19.50
  21  -3   0  111.59   13.60
 -21   2   0  271.07   16.50
   2  19   0  269.67   15.60
  19   2   0  256.07   17.70
  19 -21   0  278.67   29.70
 -21  19   0  264.37   15.20
   2 -21   0  294.37   26.90
  -2 -19   0  255.67   24.30
  21 -19   0  270.27   30.60
 -19  -2   0  265.87   16.80
  -2  21   0  285.27   15.00
 -19  21   0  267.77   14.90
  21  -2   0  268.57   18.50
  20   1   0   27.60    9.70
   1  20   0   38.20    7.40
  20 -21   0   34.80   19.90
 -21  20   0   29.00    7.10
 -21   1   0   33.20    8.00
   1 -21   0   30.90   16.30
 -20  21   0   27.20    7.10
  -1  21   0   29.70    6.90
 -20  -1   0   36.90    8.40
  21 -20   0   27.10   18.30
  -1 -20   0   25.50   15.10
  21  -1   0   18.10    9.60
   0  21   0  190.98   13.10
  21   0   0  192.08   16.30
 -21   0   0  176.28   13.90
 -21  21   0  182.98   13.30
  21 -21   0  219.38   27.10
   0 -21   0  195.98   24.10
  11 -22   0   44.40   19.30
 -22  11   0   32.60    6.90
 -11 -11   0   45.50    9.80
 -11  22   0   27.10    6.30
 -11 -11   0   34.90   10.80
  22 -11   0   30.60   14.10
 -22  10   0   35.20    7.50
  10 -22   0   29.30   18.70
 -22  12   0   30.40    6.70
  12 -22   0   27.60   19.10
 -12 -10   0   52.39   10.00
  22 -12   0   25.40   15.50
 -10 -12   0   50.59   10.20
 -10 -12   0   35.20   11.20
 -10  22   0   37.90    6.40
  22 -10   0   30.40   14.00
 -12  22   0   37.10    6.50
 -12 -10   0   32.50    9.80
   9 -22   0   17.30   19.10
 -22  13   0   22.30    6.10
 -22   9   0   17.60    6.50
  13 -22   0   23.20   19.10
  -9 -13   0   41.10    9.80
 -13  22   0   26.60    6.00
 -13  -9   0   23.10    9.00
 -13  -9   0   23.80    9.70
  -9  22   0   18.30    5.80
  22 -13   0   18.70   15.10
  22  -9   0   25.20   12.50
  -9 -13   0   27.90   10.70
   8  14   0  -10.30    5.40
  14 -22   0   20.50   18.30
 -22  14   0    7.30    5.60
 -22   8   0    9.90    6.30
   8 -22   0    0.30   17.30
  -8 -14   0   29.80    9.10
 -14  -8   0   11.80    9.10
  22  -8   0   13.10   11.60
 -14  -8   0   16.30    8.40
  -8  22   0   16.80    5.90
 -14  22   0   13.00    5.60
  22 -14   0   -1.30   14.50
  -8 -14   0    3.30   10.40
   7  15   0   -8.90    5.90
 -22   7   0    4.80    6.10
 -22  15   0   -0.70    5.30
  15 -22   0    1.20   17.20
   7 -22   0    8.20   17.30
  22 -15   0   -1.10   15.80
  -7  22   0    9.70    5.40
 -15  -7   0   10.50    8.00
 -15  22   0    4.00    5.30
  22  -7   0    3.50   10.90
  -7 -15   0   12.00   11.60
  16 -22   0   -2.60   18.00
   6  16   0  -11.70    5.70
 -22   6   0    3.90    6.20
 -22  16   0    2.90    5.10
   6 -22   0   -9.40   16.80
  16   6   0   -1.30    7.50
 -16  22   0   -2.20    5.30
  -6  22   0    3.90    5.40
  22 -16   0   -0.40   15.50
  -6 -16   0    0.20   11.40
  22  -6   0    4.90   10.40
 -16  -6   0    6.80    7.90
  17 -22   0    3.70   18.00
  17   5   0   -5.40    7.50
   5 -22   0    0.70   16.70
 -22   5   0    6.90    6.70
   5  17   0   -8.00    6.00
 -22  17   0    2.70    5.30
 -17  -5   0   10.30    7.80
  -5 -17   0    1.90   11.70
  22  -5   0    3.80   10.10
  -5  22   0    2.70    5.80
 -17  22   0  -11.40    5.70
  22 -17   0    3.30   16.50
   4  18   0    4.70    6.50
  18 -22   0    3.90   18.70
 -22  18   0    7.50    5.50
   4 -22   0   16.40   18.00
 -22   4   0    9.10    7.30
  18   4   0   -1.40    7.80
 -18  -4   0    3.60    8.00
  -4  22   0   18.30    6.20
 -18  22   0    7.60    6.40
  -4 -18   0   -3.80   11.80
  22 -18   0   13.20   18.30
  22  -4   0    5.80    9.70
  19   3   0   41.90    9.80
   3  19   0   41.60    7.60
 -22   3   0   35.90    8.30
   3 -22   0   49.70   19.30
 -22  19   0   30.30    7.20
  19 -22   0   44.50   20.80
  -3 -19   0   31.40   15.00
 -19  -3   0   51.89    9.20
  22 -19   0   51.59   20.10
  22  -3   0   50.69   11.10
  -3  22   0   44.70    7.60
 -19  22   0   49.50    7.80
   2  20   0   -1.60    6.70
   2 -22   0   -3.90   15.00
 -22   2   0   13.00    7.50
 -22  20   0   -1.20    6.20
  20   2   0    2.90    8.60
  20 -22   0    4.60   19.10
  -2  22   0    6.50    6.50
 -20  22   0    8.50    6.30
 -20  -2   0    3.80    7.40
  22 -20   0   15.30   18.70
  22  -2   0    6.00    9.70
  -2 -20   0   -1.60   13.50
   1  21   0   37.10    7.30
  21 -22   0   40.60   20.30
 -22   1   0   46.10    9.10
  21   1   0   41.40   10.60
   1 -22   0   55.49   17.60
 -22  21   0   50.39    8.50
  -1  22   0   55.19    8.00
 -21  -1   0   55.99    9.60
  22  -1   0   42.50   11.00
 -21  22   0   54.99    8.40
  -1 -21   0   50.99   16.40
  22 -21   0   33.30   19.30
   0 -22   0    0.60   14.80
 -22  22   0    1.40    6.70
  22 -22   0   -3.30   19.80
  22   0   0   10.60    9.70
 -22   0   0    6.20    7.60
   0  22   0    3.10    6.40
 -23  12   0   53.09    8.00
 -23  11   0   45.50    7.70
  11 -23   0   38.90   20.00
  12 -23   0   41.90   20.00
  23 -11   0   56.99   15.60
 -11 -12   0   60.39   10.80
 -11 -12   0   50.89   12.00
 -11  23   0   39.80    6.90
 -12  23   0   49.90    7.30
 -12 -11   0   51.19   10.50
 -12 -11   0   51.39   11.40
  23 -12   0   42.50   16.10
 -23  13   0   -2.50    5.90
  13 -23   0   -4.60   18.10
 -23  10   0    8.50    6.20
  10 -23   0   29.30   18.90
 -13 -10   0   11.10    9.80
 -13  23   0    8.30    6.10
  23 -10   0    7.40   13.50
 -10  23   0   -1.10    5.80
 -10 -13   0    5.80    8.50
 -10 -13   0    0.40    9.80
  23 -13   0    4.80   14.30
 -13 -10   0   11.70    9.00
 -23  14   0   72.99    8.90
  14 -23   0   75.19   22.30
 -23   9   0   63.89    9.30
   9 -23   0   73.09   21.50
  -9 -14   0  118.19   14.70
  23  -9   0   64.89   15.30
  -9  23   0   44.20    7.50
 -14  -9   0   82.39   13.60
 -14  -9   0   95.29   13.50
  -9 -14   0   91.09   15.90
  23 -14   0   85.79   18.20
 -14  23   0   98.99   10.20
 -23   8   0   17.10    7.00
  15 -23   0   19.70   20.40
   8  15   0    6.20    6.60
   8 -23   0    8.60   17.60
 -23  15   0   10.50    5.90
  -8 -15   0   16.10   11.40
  23  -8   0   18.00   12.90
  23 -15   0   20.70   17.40
  -8  23   0   17.00    6.20
 -15  23   0   20.90    6.10
 -15  -8   0   33.80    9.20
   7 -23   0   63.39   21.80
 -23   7   0   66.59    9.60
 -23  16   0   62.69    8.20
  16 -23   0   47.30   21.00
  16   7   0   59.59   11.30
   7  16   0   53.09    8.00
  -7 -16   0   71.49   14.50
 -16  23   0   69.69    9.20
  23 -16   0   78.49   20.30
  -7  23   0   65.29    9.10
 -16  -7   0   59.49   10.40
  23  -7   0   66.89   14.10
   6  17   0   50.49    7.80
 -23  17   0   55.99    7.80
  17 -23   0   70.09   21.70
  17   6   0   50.19    9.90
 -23   6   0   50.89    8.50
   6 -23   0   60.59   21.30
  -6  23   0   64.29    9.20
  23 -17   0   57.19   19.40
  -6 -17   0   57.79   14.20
 -17  23   0   47.50    7.50
  23  -6   0   40.40   12.90
 -17  -6   0   83.49   11.90
 -23   5   0   13.10    6.80
  18   5   0    6.90    8.40
   5 -23   0   15.60   18.30
   5  18   0    3.60    6.60
 -23  18   0   15.90    5.70
  18 -23   0    7.50   18.80
  23  -5   0   10.90   11.30
 -18  23   0    4.60    6.50
  -5  23   0    7.80    6.40
 -18  -5   0   17.80    8.40
  23 -18   0   14.80   17.60
  -5 -18   0   32.60   13.70
 -23   4   0   51.89    8.90
  19 -23   0   63.79   21.30
  19   4   0   64.69   12.20
   4 -23   0   66.29   20.80
 -23  19   0   63.59    9.20
   4  19   0   53.99    8.30
  -4  23   0   93.99   10.90
 -19  23   0   72.49   10.50
  23  -4   0   55.49   12.50
  -4 -19   0   67.29   15.60
 -19  -4   0   46.20    9.50
  23 -19   0   69.49   20.70
   3 -23   0   -6.30   15.80
  20   3   0    5.60    8.60
 -23   3   0    8.80    6.80
   3  20   0   -8.20    6.10
  20 -23   0    5.40   18.40
  -3 -20   0   22.60   14.20
  -3  23   0   10.50    6.40
  23 -20   0    9.30   18.50
  23  -3   0    2.00   10.30
 -20  23   0   14.20    7.10
 -20  -3   0   13.40    8.40
   2  21   0   78.99   11.40
  21 -23   0   93.99   23.50
  21   2   0   80.99   13.50
 -23   2   0   91.79   11.80
   2 -23   0   85.39   20.40
  -2  23   0   80.39   10.60
 -21  -2   0   80.09   11.20
  -2 -21   0   78.99   17.70
  23  -2   0   77.99   14.00
  23 -21   0   81.49   21.50
 -21  23   0   69.59    8.90
  22   1   0   33.50   10.40
  22 -23   0   48.90   22.00
 -23  22   0   13.10    7.30
 -23   1   0   46.70    9.40
   1  22   0   15.00    7.00
   1 -23   0   31.20   17.20
 -22  23   0   16.20    7.30
  23  -1   0   27.90   10.70
 -22  -1   0   37.30    8.90
  -1  23   0   37.90    7.90
  23 -22   0   36.90   20.40
  -1 -22   0   31.40   16.40
 -24  12   0   80.69    9.50
  12 -24   0   79.99   22.40
 -12 -12   0   84.29   14.40
 -12  24   0   99.19   10.50
 -12 -12   0  105.99   14.30
  24 -12   0   76.19   17.80
 -24  13   0    2.80    6.00
  13 -24   0    1.00   17.90
  11 -24   0    3.20   19.40
 -24  11   0    4.00    6.30
 -13 -11   0   18.90    9.50
 -13 -11   0    4.60   10.10
 -13  24   0    7.20    6.30
  24 -13   0   -2.80   15.10
 -11 -13   0   -4.90   10.10
 -11  24   0    1.80    6.00
 -11 -13   0    7.00    9.40
  24 -11   0   -1.10   14.00
 -24  14   0   77.09    9.40
  14 -24   0   92.19   23.90
 -24  10   0   64.19    9.50
  10 -24   0   48.10   21.70
 -14 -10   0   86.99   12.40
 -14 -10   0   72.39   13.70
 -10 -14   0  108.59   15.10
  24 -10   0   90.29   17.90
 -14  24   0   92.69   10.40
 -10 -14   0   76.69   13.80
  24 -14   0   82.29   18.60
 -10  24   0   80.99    8.80
   9 -24   0   21.40   18.70
 -24   9   0   15.90    6.90
 -24  15   0   14.20    6.40
  15 -24   0   28.90   20.80
  24  -9   0   16.10   14.10
  -9 -15   0   10.70   10.80
 -15  -9   0   26.40    9.30
  -9  24   0    4.90    6.00
 -15  24   0   19.90    6.70
  24 -15   0    9.90   17.80
 -24  16   0  146.89   11.70
   8 -24   0  152.48   27.60
  16 -24   0  170.88   28.60
 -24   8   0  156.48   12.20
  16   8   0  152.58   14.10
 -16  -8   0  183.58   14.70
 -16  24   0  153.28   12.60
  24  -8   0  156.28   19.50
  -8  24   0  159.78   11.70
  24 -16   0  132.49   24.60
  -8 -16   0  171.18   18.10
   7 -24   0   62.29   20.90
  17 -24   0   63.09   21.80
   7  17   0   43.30    9.70
 -24   7   0   63.39    9.70
 -24  17   0   68.29    9.60
  17   7   0   70.09   11.60
 -17  -7   0   72.69   11.00
 -17  24   0   71.39    9.60
  -7  24   0   66.49    9.40
  24 -17   0   53.59   19.90
  24  -7   0   59.29   14.70
  -7 -17   0   82.39   15.80
 -24   6   0   22.00    7.30
  18   6   0   24.30    8.90
   6  18   0    7.20    6.90
 -24  18   0   22.50    6.70
  18 -24   0   26.70   21.30
   6 -24   0   25.20   18.70
  24  -6   0   22.50   12.60
 -18  24   0    8.70    6.50
  24 -18   0    3.40   17.90
  -6 -18   0   22.90   13.00
 -18  -6   0   33.50    9.00
  -6  24   0   14.40    6.30
  19 -24   0   61.49   21.00
 -24   5   0   65.49    9.90
  19   5   0   63.99   12.10
 -24  19   0   71.39    9.40
   5  19   0   74.39    9.40
   5 -24   0   58.09   19.80
  -5  24   0   71.99    8.60
  24  -5   0   64.09   13.70
  -5 -19   0   66.09   16.00
  24 -19   0   87.99   21.30
 -19  24   0   73.79    9.10
 -19  -5   0   62.59   10.30
 -24   4   0    9.60    6.90
  20   4   0   -2.60    8.60
   4  20   0   -1.80    7.00
   4 -24   0   -5.00   15.60
  20 -24   0   21.30   19.70
 -20  24   0    3.50    7.10
 -20  -4   0   15.10    8.40
  24  -4   0    5.80   11.10
  24 -20   0   -2.50   18.90
  -4  24   0   12.40    6.50
  -4 -20   0   23.40   14.00
  21 -24   0   26.40   20.30
   3 -24   0   14.70   16.40
  21   3   0    8.70    9.40
  24 -21   0   28.10   20.50
  24  -3   0   19.70   11.10
  -3 -21   0   15.60   13.80
  12 -25   0    0.00   19.30
  13 -25   0    7.90   20.40
 -25  12   0   13.70    6.40
 -25  13   0   16.80    6.80
 -13 -12   0   16.50    9.70
 -12  25   0   13.40    6.10
  25 -12   0    7.60   15.60
 -12 -13   0   11.60   10.70
  25 -13   0   26.40   16.30
 -13 -12   0   -4.60   10.00
 -12 -13   0   37.60   10.40
 -13  25   0   12.80    6.50
 -25  14   0   12.80    6.70
  14 -25   0    7.00   19.80
  11 -25   0   14.60   19.80
 -25  11   0   12.10    6.60
 -14  25   0   16.10    6.30
 -14 -11   0   34.60    9.90
  25 -11   0    2.30   15.30
 -11 -14   0   23.60   10.10
 -11 -14   0   18.00   11.40
 -14 -11   0   12.50    9.70
 -11  25   0   12.20    6.30
  25 -14   0   12.90   16.50
 -25  15   0    7.40    6.70
  10 -25   0   24.60   19.10
 -25  10   0   10.00    6.50
  15 -25   0    4.20   19.30
 -10 -15   0    7.40   10.80
  25 -15   0    3.40   17.10
  25 -10   0    8.00   14.90
 -15  25   0   16.50    6.60
 -15 -10   0   16.50    9.30
 -10  25   0    5.20    6.20
   9 -25   0   29.60   20.40
 -25   9   0   12.10    6.80
 -25  16   0   24.30    6.90
  16 -25   0   38.80   22.50
  16   9   0   31.20    8.90
  25  -9   0   29.00   15.50
  -9 -16   0   16.60   12.10
 -16  -9   0   26.00    9.40
 -16  25   0   21.00    7.10
  25 -16   0   33.50   18.50
  -9  25   0   23.10    7.00
   8 -25   0   18.40   19.60
 -25  17   0   -2.60    6.00
 -25   8   0    5.80    6.70
  17   8   0   -3.90    7.80
  17 -25   0    6.30   20.40
  25  -8   0   -4.80   13.00
  25 -17   0  -12.10   16.80
 -17  25   0    1.10    6.60
  -8  25   0   -5.10    6.30
 -17  -8   0   10.20    8.30
  -8 -17   0   13.00   12.00
  18   7   0   18.80    8.80
   7  18   0    7.20    7.50
 -25  18   0   12.50    6.30
 -25   7   0   25.80    7.30
   7 -25   0   23.50   18.60
  18 -25   0   23.10   20.30
 -18  25   0    9.30    6.70
  25 -18   0   33.10   20.70
  25  -7   0   25.70   14.10
  -7  25   0   10.40    6.60
 -18  -7   0   33.90    8.90
  -7 -18   0   24.20   12.70
  19   6   0   52.39   10.60
 -25  19   0   28.80    6.90
   6  19   0   35.80    8.40
  19 -25   0   62.29   23.00
 -25   6   0   55.09    9.00
   6 -25   0   49.70   19.40
  25 -19   0   48.60   19.80
  25  -6   0   41.20   14.00
  -6  25   0   34.60    7.40
 -19  25   0   51.19    8.10
 -19  -6   0   83.19   11.30
  -6 -19   0   64.59   15.30
 -26  13   0   16.00    6.70
  13 -26   0   34.80   21.50
  26 -13   0   13.50   16.50
 -13 -13   0   24.70   10.40
 -13 -13   0   26.50   11.30
 -13  26   0   34.40    7.50
  12 -26   0  154.68   29.30
  14 -26   0  150.18   28.20
 -26  14   0  129.09   11.10
 -26  12   0  139.29   12.00
  26 -12   0  128.99   24.70
 -12 -14   0  142.29   17.30
 -14  26   0  147.99   11.90
 -14 -12   0  129.29   15.90
 -14 -12   0  167.68   15.80
 -12  26   0  150.48   11.50
  26 -14   0  135.39   23.50
  11 -26   0   44.10   20.30
 -26  11   0   32.10    7.20
  15 -26   0   38.60   21.30
 -26  15   0   30.80    7.20
  26 -15   0   18.60   17.90
  26 -11   0   30.50   16.20
 -11 -15   0   24.30   11.80
 -15  26   0   16.50    6.90
 -15 -11   0   40.00   10.20
 -11  26   0   34.90    7.50
  16  10   0  133.09   13.20
  26 -10   0  111.09   19.60
  26 -16   0  110.19   22.10
   0   0   1 2220.88   83.49
   0   0  -1 2150.48   82.69
  -1   1   1  205.08   10.80
   0  -1   1  206.58   10.80
   0   1  -1  224.18    8.70
   1  -1  -1  222.48    9.90
   0   1  -1  210.58    8.40
  -1   0  -1  218.88    8.70
   1  -1  -1  225.98    8.70
  -1   0  -1  200.38    9.50
  -1   0  -1  223.08    8.60
  -1   0   1  407.16   19.20
   1   0  -1  425.56   17.10
   0  -1  -1  453.25   18.40
   1   0  -1  423.26   16.80
   0   1   1  449.86   17.80
   0  -1  -1  450.95   17.00
  -1   1  -1  438.56   16.80
   0  -2   1 4180.98  162.68
  -2   2   1 4364.06  162.18
  -2   1  -1   80.19    3.90
  -2   1  -1   75.89    3.80
   1   1  -1   73.39    3.60
   1  -2  -1   55.89    7.50
   1  -2   1   76.29    7.40
   1  -2   1   64.39    4.00
   1   1  -1   75.39    3.80
  -2   1  -1   79.79    3.80
   1  -2  -1   81.09    4.00
  -2   1   1   71.29    8.90
   2  -1  -1   73.29    3.70
  -1   2  -1   82.99    4.00
  -1  -1  -1   74.19    3.50
  -1  -1  -1   70.79    6.50
  -1  -1  -1   72.99    3.90
  -1  -1   1   77.29    9.60
  -1   2   1   84.69    6.50
  -2   0   1 2558.64   96.99
   0  -2  -1 2516.45   94.79
   0  -2  -1 2450.75   96.49
   0  -3   1 6173.38  245.08
  -3   3   1 6730.83  244.08
  -3   1  -1  824.52   32.50
   1  -3   1  857.61   35.60
   1  -3   1  781.42   33.70
   2  -3  -1  860.31   35.70
   1   2  -1  855.51   32.50
  -3   1  -1  841.52   32.90
  -3   2   1  935.81   35.50
   2  -3  -1  884.21   32.80
  -3   1  -1  821.22   32.70
  -2  -1  -1  841.02   32.60
  -2   3   1  851.81   34.00
  -1  -2   1  878.21   37.00
  -1  -2   1  849.02   33.20
  -1   3  -1  846.82   32.70
  -2  -1  -1  823.42   34.40
   3  -2  -1  874.91   32.50
   3  -2  -1  862.91   33.80
  -2  -1  -1  847.22   32.60
   1  -3  -1   74.89   12.40
   2   1  -1  118.89    5.10
   1  -3  -1  118.69    5.80
   2  -3   1   89.19    7.90
  -3   1   1  100.19   13.10
  -3   2  -1  114.99    5.50
  -3   2  -1  113.89    5.40
  -2  -1   1  134.89   14.80
  -1  -2  -1  102.59   10.20
  -1   3   1   86.09    6.90
  -2   3  -1  129.19    5.80
  -1  -2  -1  115.59    5.60
   3  -1  -1  112.29    7.10
   3  -1  -1  105.59    5.00
  -1  -2  -1  114.39    5.00
   3  -2   1  115.99    5.50
   3   0  -1 2200.18   84.19
   0  -3  -1 2196.18   86.79
   0  -3  -1 2183.28   83.79
  -3   0   1 2297.17   86.99
   3  -3   1 2190.08   84.09
   0  -4   1 6710.23  255.17
   3  -4  -1   75.89   10.50
   3  -4  -1   86.29    5.00
  -4   1  -1   84.49    5.80
   1   3  -1   94.49    4.90
  -4   1  -1   79.59    5.20
   1  -4   1   61.49    9.10
  -4   1  -1   73.09    4.40
  -4   3   1   61.49    9.70
   1  -4   1   79.79   10.50
  -3  -1  -1   75.49    8.10
  -3   4   1   74.09    7.00
  -1   4  -1   87.89    5.10
  -1  -3   1   80.59    8.20
   4  -3  -1   99.49    9.80
  -3  -1  -1   73.69    5.30
  -1  -3   1   97.69   15.60
   4  -3  -1   81.99    4.70
  -3  -1  -1   74.99    4.50
   2  -4  -1   -0.90    8.90
   2  -4   1    1.60    5.90
   2  -4  -1   10.80    3.00
  -4   2   1   -0.70    8.00
  -4   2  -1   11.90    2.80
  -4   2  -1   15.10    2.30
   2  -4   1    7.30    7.60
   2   2  -1   15.70    2.10
   4  -2  -1   16.80    4.30
  -2  -2  -1    9.80    2.40
  -2  -2  -1   12.20    2.40
  -2  -2   1    7.30   10.50
   4  -2  -1   12.30    1.90
  -2   4   1    8.30    4.00
  -2   4  -1   17.20    2.90
  -2  -2   1   10.50    4.20
   4  -2   1   13.00    2.90
  -2  -2  -1   10.60    7.10
  -4   3  -1  380.76   14.40
   1  -4  -1  383.16   14.70
   1  -4  -1  344.67   20.50
   3  -4   1  352.96   16.80
  -4   1   1  333.37   19.90
   3   1  -1  365.56   13.90
  -4   3  -1  364.96   14.50
  -1  -3  -1  354.06   14.10
   4  -1  -1  366.06   15.60
   4  -3   1  350.46   14.90
  -3  -1   1  317.87   21.40
   4  -1  -1  356.16   13.90
  -1   4   1  332.97   14.40
  -1  -3  -1  361.76   14.60
  -3   4  -1  369.46   14.30
  -1  -3  -1  328.57   19.70
  -3   4  -1  366.06   14.60
  -4   0   1  526.05   26.40
   4   0  -1  539.15   21.90
  -4   4  -1  567.54   21.20
  -4   4  -1  538.75   21.10
   4   0  -1  527.05   20.60
   0  -4  -1  528.25   26.30
   0  -4  -1  548.75   21.30
   0  -4  -1  530.35   20.50
   4  -4   1  535.65   22.30
   5  -5  -1 6592.04  250.67
   0  -5   1 6582.94  250.97
  -5   1  -1 2462.25   92.99
  -5   4   1 2584.04   93.69
   1   4  -1 2306.77   92.09
  -5   1  -1 2412.26   92.09
   1  -5   1 2432.86   94.59
  -5   1  -1 2464.45   92.69
   1  -5   1 2431.66   94.99
   4  -5  -1 2597.44   95.09
  -4  -1  -1 2346.77   92.09
  -4  -1  -1 2468.25   92.69
   5  -4  -1 2429.66   94.39
  -1   5  -1 2303.07   92.19
  -1  -4   1 2427.36   95.69
  -1  -4   1 2375.66   93.89
  -4  -1  -1 2406.36   93.79
  -4   5   1 2421.16   92.29
  -4   5   1 2556.24   92.59
   3  -5  -1  382.96   21.60
   2  -5   1  394.06   19.00
   2   3  -1  406.96   15.70
  -5   2  -1  406.36   15.70
  -5   2  -1  400.36   16.40
   2  -5   1  402.36   19.50
  -5   3   1  380.26   18.80
  -3   5   1  398.46   16.00
  -2  -3   1  392.66   22.40
   5  -3  -1  410.46   18.30
  -2   5  -1  400.56   16.10
  -2  -3   1  396.16   17.80
  -3  -2  -1  399.26   15.90
  -3  -2  -1  392.66   19.20
  -3   5   1  390.76   15.80
   5  -2   1  402.56   16.50
  -3  -2  -1  399.76   16.30
   3   2  -1  928.41   36.60
  -5   2   1 1014.60   39.80
   2  -5  -1 1007.40   42.00
  -5   3  -1  966.10   36.80
   3  -5   1  983.70   39.50
  -5   3  -1  938.01   37.10
  -3  -2   1  929.41   41.40
  -2   5   1  937.31   37.00
  -2  -3  -1  982.60   37.00
   5  -2  -1  961.70   36.50
   5  -2  -1  977.30   38.20
  -3  -2   1  951.60   38.00
   5  -3   1  916.31   37.40
  -3   5  -1  973.20   37.00
  -2  -3  -1  947.51   36.90
  -2  -3  -1  961.00   40.50
   1  -5  -1   64.09   11.20
  -5   1   1   61.29    9.20
  -5   4  -1   68.69    4.40
   4  -5   1   52.69    8.60
   4   1  -1   68.99    3.40
  -5   4  -1   67.19    4.40
   5  -1  -1   66.19    3.20
  -1  -4  -1   57.99   10.10
  -1  -4  -1   72.29    4.90
  -4  -1   1   64.29   10.60
  -1  -4  -1   62.99    3.70
   5  -4   1   83.59    6.50
  -4   5  -1   68.19    4.10
  -4   5  -1   78.19    5.00
   5  -1  -1   58.59    5.30
   0  -5  -1  380.86   14.80
   5   0  -1  377.16   14.70
   5   0  -1  381.36   16.50
   5  -5   1  377.26   17.30
  -5   5  -1  389.26   15.40
  -5   0   1  399.26   20.50
  -5   5  -1  394.76   15.60
   0  -5  -1  368.26   21.40
  -6   0  -1 1650.73   65.89
   6  -6  -1 1522.55   69.29
   0  -6   1 1724.43   67.69
  -6   6   1 1706.23   64.49
  -6   0  -1 1670.23   64.29
   0  -6   1 1770.82   68.89
  -6   6   1 1783.52   65.29
   0   6  -1 1663.33   64.59
  -6   0  -1 1751.22   65.29
  -6   1  -1  514.25   21.30
   1  -6   1  509.85   24.20
   1   5  -1  506.05   20.10
   1  -6   1  485.95   25.10
  -6   5   1  530.75   21.80
  -6   5   1  492.35   19.90
  -6   1  -1  508.35   19.90
   5  -6  -1  513.45   24.90
  -6   1  -1  495.65   20.90
  -1   6  -1  485.95   20.20
  -5  -1  -1  510.85   19.90
  -5  -1  -1  531.05   20.90
  -5   6   1  515.05   20.20
  -1  -5   1  508.05   26.20
  -1  -5   1  490.25   23.00
   6  -5  -1  512.45   22.90
  -5   6   1  525.55   20.40
  -5  -1  -1  516.35   22.30
   4  -6  -1   66.19   10.80
  -6   4   1   42.10    7.00
   2  -6   1   51.39    9.20
  -6   2  -1   59.79    5.10
   2  -6   1   76.29   11.80
   2   4  -1   68.49    4.10
  -6   4   1   62.69    3.60
  -6   2  -1   62.89    3.70
  -2  -4   1   59.79   10.90
  -4   6   1   57.69    4.30
  -2   6  -1   67.39    4.70
  -2  -4   1   65.99    7.60
  -4  -2  -1   62.29    5.20
  -4  -2  -1   56.99    4.10
  -4   6   1   63.59    3.70
  -4  -2  -1   66.69    8.50
   6  -4  -1   74.69    8.90
   6  -2   1   58.99    5.00
   3   3  -1   14.40    2.00
   3  -6   1    7.60    6.90
   3  -6  -1    4.30    7.50
  -6   3   1   11.70    1.50
  -6   3  -1   14.00    2.90
  -6   3  -1   13.50    2.10
  -6   3   1    8.80    6.10
   3  -6   1    9.40    6.60
  -3  -3  -1    7.20    2.40
   6  -3  -1   14.50    4.20
  -3   6  -1   14.80    2.80
  -3   6   1   10.00    0.90
  -3  -3  -1   12.40    2.70
  -3  -3   1   10.40    9.60
  -3   6   1   10.60    2.60
  -3  -3   1   13.90    4.50
  -3  -3  -1    8.00    6.30
   6  -3   1   11.80    3.10
  -6   4  -1   43.60    3.70
   4   2  -1   46.30    3.00
   2  -6  -1   40.20    8.90
   4  -6   1   41.00    7.70
  -6   4  -1   42.40    4.20
  -6   2   1   49.60    8.20
  -4  -2   1   30.70   10.00
  -4   6  -1   47.10    3.60
  -2  -4  -1   42.60    3.80
  -4   6  -1   45.90    4.30
   6  -2  -1   46.40    6.30
  -2   6   1   49.40    4.10
  -2  -4  -1   46.00    3.80
   6  -4   1   44.60    5.20
  -4  -2   1   45.60    6.10
  -2  -4  -1   43.90    9.10
  -6   1   1   53.49    8.90
   5   1  -1   56.59    3.00
   5  -6   1   49.20    9.10
  -6   5  -1   57.29    4.20
  -6   5  -1   64.29    4.20
   1  -6  -1   52.69   11.10
  -1   6   1   50.19    4.40
   6  -1  -1   64.39    6.00
  -5  -1   1   55.89    9.90
   6  -1  -1   59.49    2.70
  -5   6  -1   62.79    4.80
  -1  -5  -1   62.19    3.60
  -1  -5  -1   46.40   10.20
   6  -5   1   67.99    6.70
  -5   6  -1   59.49    3.90
   6   0  -1  417.26   16.50
   6   0  -1  465.25   18.80
   6  -6   1  440.46   20.10
   0  -6  -1  436.16   16.80
   0   6   1  456.05   17.50
  -6   0   1  381.56   23.60
  -6   6  -1  447.96   17.60
  -6   6  -1  448.36   17.50
   0  -6  -1  367.36   26.10
   0  -7   1 9999.00  380.06
   1  -7   1 1662.73   66.39
   6  -7  -1 1737.83   66.89
  -7   1  -1 1587.74   63.49
  -7   1  -1 1638.44   62.39
  -7   6   1 1714.33   63.79
   1   6  -1 1670.93   62.79
   1  -7   1 1703.53   66.39
  -7   6   1 1588.74   62.49
  -6  -1  -1 1595.34   62.39
  -1  -6   1 1648.73   65.69
  -6   7   1 1665.23   62.89
  -1  -6   1 1681.53   67.29
  -1   7  -1 1555.04   62.79
   7  -6  -1 1673.33   65.49
  -6  -1  -1 1522.95   63.59
  -6   7   1 1671.13   62.79
   2  -7   1 3050.79  115.09
   2  -7   1 2997.80  114.39
   2   5  -1 2842.92  111.29
  -7   2  -1 2934.11  111.19
   5  -7  -1 3102.39  115.69
  -7   5   1 3123.39  112.99
  -7   2  -1 2732.33  111.99
  -5  -2  -1 2997.10  113.79
  -5  -2  -1 3004.30  112.19
   7  -2   1 2976.60  112.29
  -2  -5   1 3208.08  115.69
  -2   7  -1 2627.94  111.79
  -5   7   1 2830.52  111.49
  -2  -5   1 2858.51  113.69
   7  -5  -1 3012.70  113.79
  -5   7   1 2823.52  111.09
  -7   4   1  482.65   18.80
   3  -7   1  498.35   23.20
   3  -7   1  487.35   24.00
   3   4  -1  477.35   19.00
  -7   4   1  495.75   21.70
  -7   3  -1  490.55   19.00
  -3  -4   1  497.35   21.80
  -4   7   1  478.85   19.40
  -4  -3  -1  474.75   19.90
  -4   7   1  466.45   18.40
  -4  -3  -1  455.75   22.70
   7  -3   1  492.35   20.40
  -3  -4   1  477.75   24.90
  -4  -3  -1  497.55   19.20
   4   3  -1  166.78    7.30
   4  -7   1  174.88   12.00
  -7   4  -1  164.58    8.30
  -7   4  -1  176.98    7.60
  -7   3   1  169.98    6.90
  -7   3   1  176.18   11.90
   4  -7   1  163.78   12.90
  -3  -4  -1  167.68    8.30
  -3  -4  -1  170.28   11.90
  -4  -3   1  166.68   10.30
   7  -4   1  164.78    9.30
  -3  -4  -1  174.58    7.90
  -4  -3   1  157.58   15.00
  -7   2   1  186.48    7.60
   5   2  -1  193.28    7.90
   2  -7  -1  181.88   17.00
   5  -7   1  194.08   13.10
  -7   5  -1  204.88    9.10
  -7   5  -1  201.48    8.70
  -5   7  -1  198.88    8.60
  -2  -5  -1  188.78    8.80
  -2  -5  -1  177.18   15.10
   7  -5   1  198.48   10.60
  -2   7   1  193.48    8.90
   7  -2  -1  189.98   10.00
  -5  -2   1  196.18   10.80
  -7   6  -1   75.79    5.00
   6   1  -1   76.39    3.30
  -7   1   1   70.99   10.50
   6  -7   1   70.89    9.10
   1  -7  -1   64.19   11.00
   1   6   1   71.39    4.70
  -7   6  -1   69.89    4.70
  -1  -6  -1   74.89    4.40
  -1   7   1   68.49    4.90
   7  -1  -1   71.49    6.70
  -1  -6  -1   57.99   11.10
  -6  -1   1   72.39   10.20
  -6   7  -1   74.99    4.30
   7  -6   1   77.19    8.70
  -7   0   1   50.69    8.70
   0   7   1   40.20    4.10
  -7   7  -1   42.10    3.70
   7   0  -1   41.70    5.80
   0  -7  -1   38.40   10.90
   0  -7  -1   40.10    2.80
   7  -7   1   44.70    8.00
   8  -8  -1 1446.66   57.59
   0  -8   1 1304.77   54.79
  -8   8   1 1292.77   50.29
  -8   8   1 1307.47   50.79
   0   8  -1 1254.97   50.29
  -8   0  -1 1302.07   52.09
  -8   0  -1 1286.77   49.90
  -8   0  -1 1279.17   51.39
   0  -8   1 1316.67   55.49
  -8   1  -1   92.59    4.80
  -8   7   1   90.99    5.30
   1  -8   1  105.89   12.90
  -8   7   1   88.99    6.80
   7  -8  -1   82.19   13.40
   1   7  -1   94.69    5.60
  -8   1  -1   94.19    6.90
  -1   8  -1   96.89    5.90
  -7  -1  -1   93.29    4.90
  -7  -1  -1   91.09    8.50
  -1  -7   1   83.29   10.60
  -1  -7   1  105.89   13.60
  -7   8   1   92.39    5.50
  -7   8   1   97.09    5.50
  -7  -1  -1   86.59    7.00
   8  -7  -1   79.49    9.70
   2  -8   1 3572.94  138.29
  -8   6   1 3672.83  135.59
   2   6  -1 3468.95  134.09
   6  -8  -1 3773.02  139.19
  -8   2  -1 3396.06  134.99
   2  -8   1 3746.13  137.89
   8  -6  -1 3488.85  136.99
  -6  -2  -1 3585.94  133.99
  -6  -2  -1 3542.85  135.09
  -6   8   1 3496.65  134.29
  -2  -6   1 3429.86  136.89
   8  -2   1 3449.35  135.19
  -2   8  -1 3457.15  134.29
  -2  -6   1 3713.03  138.59
  -6  -2  -1 3424.46  136.39
  -8   3  -1   30.50    4.80
   3  -8   1   33.30    8.50
  -8   5   1   28.80    2.80
   5  -8  -1   16.90   10.40
  -8   3  -1   29.40    3.00
   3  -8   1   31.00    8.50
   3   5  -1   32.70    3.50
  -8   5   1   21.50    5.40
  -5  -3  -1   33.50    4.40
  -5   8   1   29.00    2.10
  -5  -3  -1   33.20    7.20
  -3   8  -1   43.50    4.50
  -3  -5   1   32.20   10.30
  -5   8   1   31.60    3.90
  -5  -3  -1   29.00    3.50
   8  -3   1   32.40    5.20
   8  -5  -1   52.99    8.90
  -3  -5   1   38.50    6.50
  -8   4  -1    1.90    1.80
  -8   4  -1   -0.50    3.00
   4  -8   1   -0.40    6.60
  -8   4   1   -0.40    1.20
   4  -8   1   -8.80    6.90
   4  -8  -1   -1.60    8.30
  -8   4   1    1.20    5.70
   4   4  -1    0.60    1.70
  -4   8  -1    0.90    2.80
   8  -4   1    0.30    3.60
  -4  -4  -1    4.40    6.80
  -4  -4  -1    1.10    3.10
  -4  -4   1   -1.50    9.50
  -4   8   1    1.80    2.50
  -4  -4   1    3.40    4.80
   8  -4  -1    5.70    5.60
  -8   3   1    0.00    5.30
   5  -8   1   -2.40    7.60
   3   5   1    1.60    2.20
  -8   5  -1    3.00    2.10
   3  -8  -1    1.00    9.60
  -8   3   1    2.90    1.00
   5   3  -1    6.90    1.70
  -8   5  -1    4.80    2.70
  -3   8   1    3.10    2.50
  -5   8  -1    4.90    3.00
  -5  -3   1   -5.60    8.20
  -3  -5  -1    4.50    2.80
  -3  -5  -1   -2.10    7.50
  -5  -3   1    4.30    4.60
   8  -3  -1    4.30    4.70
   8  -5   1    7.60    4.30
   6  -8   1  223.08   15.30
   2   6   1  204.78   11.40
   2  -8  -1  220.48   19.40
   6   2  -1  247.48    9.50
  -8   2   1  250.27   14.80
  -8   6  -1  242.68   10.80
  -8   6  -1  247.38   10.40
  -6  -2   1  254.07   16.50
  -6   8  -1  241.48   10.60
  -2  -6  -1  232.38   10.60
   8  -2  -1  233.28   12.60
   8  -6   1  244.08   13.00
  -6  -2   1  238.68   12.70
  -6   8  -1  239.08   10.10
  -2   8   1  231.48   10.50
  -2  -6  -1  239.98   17.50
   1  -8  -1   11.60    1.30
   7   1  -1   11.30    4.40
   1  -8  -1    8.10    8.40
  -8   7  -1    8.90    2.60
  -8   1   1    7.30    7.40
   1   7   1   13.20    2.70
   7  -8   1    9.40    7.00
   7   1  -1   12.70    1.50
  -7   8  -1   16.50    2.60
   8  -1  -1   16.20    4.70
   8  -7   1   13.40    6.30
  -1   8   1   11.50    2.90
  -1  -7  -1   10.20    9.40
  -7  -1   1    9.70    8.10
  -1  -7  -1   10.20    2.40
  -7   8  -1   14.10    3.00
  -8   8  -1  182.88    8.40
  -8   8  -1  177.78    8.70
   8  -8   1  130.89   14.40
   8   0  -1  195.28   11.80
   0  -8  -1  184.58    7.80
   0   8   1  182.58    8.70
   0  -9   1  599.24   28.90
  -9   0  -1  583.44   25.20
  -9   9   1  574.84   23.30
  -9   0  -1  566.44   24.40
   9  -9  -1  577.74   29.30
  -9   9   1  579.54   23.00
  -9   0  -1  572.24   22.40
   0  -9   1  548.15   30.10
   0   9  -1  550.54   23.20
  -9   8   1   67.19    5.00
   1   8  -1   76.79    5.70
  -9   8   1   70.99    6.30
  -9   1  -1   71.49    6.80
   8  -9  -1   76.49   12.20
  -9   1  -1   73.89    4.30
   1  -9   1   82.29   12.50
   1  -9   1   80.49   14.10
  -8   9   1   78.69    5.30
  -1  -8   1   67.59   11.40
   9  -1   1   72.29    7.30
   9  -8  -1   77.09   11.40
  -8  -1  -1   73.29    4.40
  -1  -8   1   92.79   13.50
  -8   9   1   77.99    5.10
   2   7  -1 3734.93  146.29
  -9   2  -1 3627.04  147.29
   7  -9  -1 3728.63  153.48
   2  -9   1 4105.59  151.58
  -9   7   1 3764.12  147.69
   2  -9   1 4092.89  150.38
   9  -2   1 3874.71  147.59
  -7  -2  -1 3834.22  147.49
   9  -7  -1 3971.70  150.18
  -7  -2  -1 3766.82  148.69
  -2  -7   1 3794.62  149.79
  -7   9   1 3965.50  146.49
  -2   9  -1 4041.20  148.39
   3  -9   1  587.44   28.60
  -9   3  -1  591.64   22.50
   6  -9  -1  574.04   30.30
   3   6  -1  574.94   22.80
  -9   6   1  569.14   24.80
   3  -9   1  562.84   28.70
  -9   6   1  563.14   22.50
  -9   3  -1  648.74   25.60
   9  -6  -1  650.23   29.00
  -6   9   1  586.04   23.20
   9  -3   1  586.84   24.40
  -6   9   1  563.64   22.20
  -6  -3  -1  562.84   24.00
  -3   9  -1  563.64   23.20
  -3  -6   1  552.94   28.80
  -3  -6   1  525.05   26.40
  -6  -3  -1  571.54   22.70
  -6  -3  -1  548.35   26.50
   4   5  -1 1973.10   78.59
   4  -9   1 2198.08   84.19
  -9   4  -1 2026.10   78.59
  -9   4  -1 2028.30   79.69
   5  -9  -1 2161.18   84.99
   4  -9   1 2115.99   82.19
  -9   5   1 2061.19   78.39
  -9   5   1 2092.19   80.89
  -4  -5   1 2200.48   83.89
   9  -4   1 2073.19   80.29
  -5  -4  -1 1994.20   79.69
  -5  -4  -1 2094.59   82.49
  -4  -5   1 2078.59   81.59
  -4   9  -1 2003.10   79.09
   9  -5  -1 2052.19   81.39
  -5   9   1 2021.20   79.09
   5  -9   1  566.44   27.70
   5   4  -1  517.45   20.60
  -9   4   1  528.75   24.00
   4  -9  -1  509.35   27.60
   4   5   1  523.75   20.90
  -9   5  -1  519.85   21.80
  -9   4   1  525.85   20.30
  -9   5  -1  553.94   20.90
   5  -9   1  535.95   24.70
  -5   9  -1  517.85   21.40
  -4  -5  -1  538.75   25.60
  -4   9   1  548.45   21.50
   9  -5   1  512.25   22.80
  -5  -4   1  502.55   23.70
  -5  -4   1  547.25   26.60
   9  -4  -1  517.65   23.30
  -4  -5  -1  497.15   21.70
   3  -9  -1  367.36   22.90
   6   3  -1  387.66   15.00
  -9   3   1  352.66   19.20
  -9   6  -1  386.06   15.60
  -9   6  -1  382.76   16.30
   3   6   1  394.66   15.70
  -9   3   1  353.86   14.60
   6  -9   1  381.76   22.50
  -3  -6  -1  381.36   22.50
  -6  -3   1  372.66   18.10
  -6   9  -1  364.66   16.00
  -3  -6  -1  381.06   16.30
  -6  -3   1  397.06   21.30
  -6   9  -1  400.96   15.70
   9  -6   1  379.26   18.10
   9  -3  -1  367.46   19.30
  -3   9   1  403.36   16.80
   2   7   1  281.77   12.40
   7   2  -1  303.67   11.40
  -9   7  -1  279.27   12.60
  -9   2   1  271.27   16.30
   2  -9  -1  281.37   19.70
   9  -2  -1  285.37   14.80
  -2  -7  -1  310.07   12.80
  -2  -7  -1  289.07   20.10
   9  -7   1  294.17   15.70
  -7   9  -1  289.27   12.70
  -2   9   1  265.67   13.10
  -7   9  -1  276.77   12.30
  -7  -2   1  357.56   25.50
   1  -9  -1   75.39   14.20
   8   1  -1   62.49    7.20
  -9   1   1   68.59    9.50
   8  -9   1   66.99   12.90
   1   8   1   66.79    5.10
  -9   8  -1   75.69    5.70
  -9   8  -1   67.19    5.00
   1  -9  -1   71.19    3.30
  -1  -8  -1   73.49    4.90
  -1  -8  -1   70.39   12.60
   9  -1  -1   67.89    6.50
   9  -8   1   64.39   10.10
  -1   9   1   73.39    5.60
  -8  -1   1   73.39   12.10
  -8   9  -1   77.69    4.80
  -8   9  -1   71.99    5.60
   9   0  -1  315.47   15.40
  -9   0   1  300.17   18.50
  -9   9  -1  304.67   13.30
   0  -9  -1  307.27   23.20
  -9   9  -1  312.37   13.60
   0  -9  -1  317.07   12.80
   0   9   1  315.07   13.60
   9  -9   1  307.07   18.60
   0 -10   1  616.24   32.70
   0  10  -1  625.14   25.40
 -10   0  -1  654.03   24.50
  10 -10  -1  609.84   32.40
 -10   0  -1  629.44   26.80
   0 -10   1  633.24   31.80
 -10  10   1  616.64   25.70
   1 -10   1   -5.10   11.00
   1 -10   1    6.40    9.70
   9 -10  -1    2.20    8.60
 -10   9   1    9.40    2.90
 -10   1  -1    3.90    4.40
 -10   1  -1    7.10    1.90
   1   9  -1    8.70    3.20
 -10   9   1    8.60    3.90
  -9  -1  -1    9.90    5.90
  -9  -1  -1    8.70    2.00
  -9  -1  -1    7.10    4.70
  10  -1   1    2.80    4.70
  10  -9  -1    2.30   10.20
  -1  -9   1    6.40    8.60
  -1  -9   1   -1.80   10.70
  -1  10  -1    6.50    3.40
  -9  10   1    6.90    2.70
  -9  10   1    6.90    3.20
   2 -10   1  257.27   20.60
 -10   8   1  273.77   13.30
   2   8  -1  276.97   11.90
 -10   2  -1  276.27   13.40
 -10   2  -1  279.67   11.10
 -10   8   1  216.68   12.20
   8 -10  -1  251.97   21.00
   2 -10   1  290.27   19.70
  -8  -2  -1  268.77   15.40
  -8  10   1  274.27   11.30
  -8  -2  -1  282.27   11.30
  10  -2   1  273.97   13.70
  -2  -8   1  268.97   20.50
  -8  -2  -1  250.17   13.40
  -8  10   1  278.27   12.00
  -2  10  -1  258.57   12.20
  10  -8  -1  249.18   18.10
  -2  -8   1  277.17   17.50
   3 -10   1  404.76   24.60
 -10   7   1  443.56   19.70
   3 -10   1  432.96   24.80
 -10   3  -1  447.76   18.90
   7 -10  -1  412.26   26.10
 -10   7   1  416.06   17.20
   3   7  -1  437.66   17.60
 -10   3  -1  443.96   17.10
  -7  10   1  420.46   16.90
  10  -7  -1  423.46   22.70
  -7  10   1  427.66   17.90
  -7  -3  -1  419.96   19.00
  -3  -7   1  438.36   22.40
  10  -3   1  441.86   19.60
  -3  -7   1  419.26   24.50
  -3  10  -1  413.46   18.00
  -7  -3  -1  445.56   21.50
   4   6  -1    1.60    2.30
 -10   4  -1   -0.50    3.70
   4 -10   1    1.20    9.00
   6 -10  -1  -12.30   11.80
 -10   6   1   -1.60    4.80
   4 -10   1   -2.00   10.10
 -10   4  -1   -0.40    1.80
 -10   6   1   -1.20    1.90
   6   4   1    0.70    1.90
  -4  -6   1    1.30    6.30
  -6  -4  -1    0.50    6.60
  10  -4   1    1.80    4.30
  -6  10   1   -0.40    1.10
  10  -6  -1    4.20    7.30
  -6  10   1   -1.80    2.80
  -6  -4  -1   -3.20    3.90
  -4  -6   1   -7.20    8.90
  -4  10  -1    3.80    3.20
 -10   5  -1  877.11   33.10
 -10   5   1  807.72   32.60
 -10   5   1  897.51   38.10
   5 -10   1  859.11   39.40
 -10   5  -1  855.61   34.20
   5   5  -1  849.81   32.90
   5   5   1  833.52   33.10
   5 -10  -1  862.91   41.20
   5 -10   1  863.01   37.20
  -5  10  -1  840.22   33.70
  -5  10   1  829.62   33.60
  -5  -5   1  870.91   39.20
  -5  -5  -1  903.21   38.00
  -5  -5   1  854.91   36.30
  -5  -5  -1  818.62   34.30
  10  -5  -1  837.72   35.90
  10  -5   1  861.01   35.20
 -10   6  -1  204.38   10.20
 -10   4   1  195.08    8.20
 -10   6  -1  215.18    9.30
 -10   4   1  195.48   13.30
   4   6   1  197.68    9.20
   6   4  -1  199.68    8.70
   6 -10   1  209.68   17.30
   6 -10   1  211.68   14.20
   4 -10  -1  174.18   19.80
  10  -6   1  221.68   13.00
  -4  10   1  196.18    9.90
  -6  -4   1  197.28   12.70
  10  -4  -1  201.58   12.00
  -6  10  -1  215.28   10.00
  -4  -6  -1  185.08   16.30
  -4  -6  -1  205.68   10.40
   7 -10   1  323.37   21.00
   7   3  -1  356.26   13.30
   3 -10  -1  322.17   24.70
 -10   7  -1  332.47   14.70
 -10   3   1  309.47   18.10
   3   7   1  325.17   14.10
  -7  10  -1  336.67   14.60
  -7  -3   1  326.27   20.40
  10  -3  -1  350.16   17.10
  -7  -3   1  343.97   17.10
  -3  -7  -1  328.27   21.70
  -3  -7  -1  328.37   14.90
  -3  10   1  326.47   14.60
  10  -7   1  347.77   18.10
 -10   2   1  262.47   15.50
 -10   8  -1  254.57   12.00
   2 -10  -1  269.07   19.70
   8   2  -1  277.97   10.50
   8 -10   1  263.37   18.50
 -10   8  -1  267.67   11.90
  -8  10  -1  271.57   12.40
  10  -8   1  267.47   16.80
  -2  -8  -1  274.57   12.10
  -2  10   1  264.27   12.20
  -2  -8  -1  258.67   18.60
  -8  -2   1  260.17   18.00
  -8  10  -1  258.47   11.50
  10  -2  -1  263.47   13.70
   1   9   1  265.17   11.90
 -10   9  -1  251.77   11.60
 -10   1   1  245.88   16.50
 -10   9  -1  227.38   12.00
   1 -10  -1  261.77   10.20
   9   1  -1  261.37   13.00
   1 -10  -1  255.07   22.00
   9 -10   1  240.38   19.10
  10  -1  -1  251.17   14.00
  10  -9   1  257.97   17.00
  -9  10  -1  254.57   11.30
  -1  10   1  270.97   11.90
  -1  -9  -1  238.78   21.60
  -9  10  -1  267.47   11.90
  -9  -1   1  245.28   17.10
  -1  -9  -1  266.07   11.40
 -10  10  -1  682.13   28.00
   0  10   1  705.33   28.10
   0 -10  -1  678.33   37.10
  10   0  -1  712.83   29.60
 -10  10  -1  652.33   28.40
   0 -10  -1  731.93   27.40
 -10   0   1  730.23   32.20
 -11   0  -1   86.29    5.10
   0  11  -1   91.99    7.20
 -11  11   1   94.49    6.90
 -11   0  -1   80.59    8.80
 -11  11   1   92.99    6.70
  11 -11  -1  106.09   15.80
   0 -11   1   97.49   15.10
   0 -11   1   86.29   14.90
   1  10  -1    2.50    3.50
 -11  10   1    3.30    3.30
  10 -11  -1   -6.10   11.30
   1 -11   1  -13.90   11.80
 -11  10   1    0.60    3.70
   1 -11   1   -5.50   10.60
 -11   1  -1    0.10    4.70
 -11   1  -1   -0.50    1.80
 -10  11   1    4.30    2.80
 -10  -1  -1    2.60    6.00
  -1  11  -1    4.60    3.90
 -10  -1  -1   -0.20    5.00
 -10  11   1    3.00    3.40
  11  -1   1   -2.30    5.30
  -1 -10   1   -3.30    9.80
 -10  -1  -1    1.70    2.10
  11 -10  -1  -16.20   11.20
  -1 -10   1   -8.10   11.20
   9 -11  -1 1300.77   59.09
 -11   2  -1 1362.46   51.09
 -11   2  -1 1275.17   53.09
 -11   9   1 1367.36   52.99
 -11   9   1 1368.06   51.69
   2   9  -1 1313.67   51.79
   2 -11   1 1349.66   57.99
   2 -11   1 1411.56   58.39
  -2  -9   1 1341.57   57.49
  -9  11   1 1338.47   51.99
  -2  11  -1 1264.87   51.99
  11  -2   1 1360.16   53.59
  -9  11   1 1377.36   51.49
  -2  -9   1 1347.47   56.99
  -9  -2  -1 1293.17   54.59
  11  -9  -1 1313.77   56.49
  -9  -2  -1 1389.16   53.39
   3 -11   1  129.49   18.50
 -11   8   1  155.68   11.40
   3   8  -1  149.79    8.10
 -11   3  -1  146.19    6.80
   8 -11  -1  125.69   19.70
 -11   3  -1  138.29    9.60
   3 -11   1  140.19   18.60
 -11   8   1  146.89    7.40
  11  -3   1  150.38   10.30
  11  -8  -1  154.08   15.80
  -3  11  -1  153.18    8.90
  -8  -3  -1  137.29    9.60
  -8  11   1  135.49    8.10
  -8  -3  -1  152.48   12.50
  -3  -8   1  142.59   16.50
  -3  -8   1  152.08   14.10
  -8  11   1  142.09    6.60
 -11   4  -1 1148.59   46.30
 -11   7   1 1157.68   47.00
   4 -11   1 1217.38   50.79
   4 -11   1 1195.68   51.99
 -11   7   1 1145.19   44.80
 -11   4  -1 1184.48   44.80
   4   7  -1 1176.78   45.10
   7 -11  -1 1190.08   53.49
   7   4   1 1170.38   44.80
  -4  -7   1 1136.79   48.90
  -7  -4  -1 1223.78   49.30
  -4  11  -1 1131.19   45.50
  -7  11   1 1170.88   44.40
  -4  -7   1 1170.28   50.79
  11  -7  -1 1134.99   49.20
  -7  11   1 1144.89   45.50
  11  -4   1 1145.99   47.10
   6 -11  -1   12.90   14.30
   6 -11  -1   28.90    4.00
 -11   6   1   27.60    2.70
 -11   5  -1   29.00    5.10
   5 -11   1   34.40   11.80
 -11   6   1   25.50    6.40
 -11   5  -1   28.00    3.50
   5   6  -1   30.20    4.00
   5 -11   1   15.30   10.00
  11  -6  -1   41.60    9.00
  -6  -5  -1   28.60    5.10
  -5  11  -1   30.30    4.50
  11  -5   1   27.00    6.30
  -5  -6   1   25.80   11.30
  -6  -5  -1   31.90    9.20
  -6  11   1   24.20    4.00
  -5  -6   1   33.80    8.00
 -11   6  -1  658.83   25.50
 -11   6  -1  632.34   26.70
   6 -11   1  644.14   32.80
 -11   5   1  619.74   28.50
   6 -11   1  646.14   30.40
   5 -11  -1  677.73   35.50
   5   6   1  658.33   25.60
 -11   5   1  587.04   24.80
   6   5  -1  665.83   25.30
  -6  -5   1  659.33   29.10
  -6  11  -1  683.53   26.30
  11  -5  -1  638.44   28.50
  11  -6   1  657.33   29.90
  -5  11   1  625.34   26.10
  -6  -5   1  591.24   31.20
  -5  -6  -1  691.63   31.50
  -5  -6  -1  635.74   26.80
   7   4  -1  426.66   16.90
 -11   7  -1  425.66   18.30
   7 -11   1  422.16   25.50
   4   7   1  420.76   17.50
   4 -11  -1  409.56   28.40
 -11   4   1  443.76   16.20
 -11   4   1  435.36   21.40
  -4  -7  -1  426.76   23.20
  -7  11  -1  409.76   18.10
  -4  -7  -1  427.66   18.60
  -7  -4   1  432.96   21.00
  11  -4  -1  437.56   21.10
  -4  11   1  396.96   18.00
  -7  -4   1  401.86   23.80
   3   8   1  266.57   11.80
   3 -11  -1  261.97   21.00
 -11   3   1  245.08   16.40
   8 -11   1  245.38   20.90
   8   3  -1  277.67   10.70
 -11   8  -1  264.67   12.50
 -11   8  -1  269.07   12.10
  11  -3  -1  255.77   15.50
  -3  11   1  243.78   12.50
  -8  -3   1  253.97   18.60
  -3  -8  -1  272.17   12.80
  -8  11  -1  272.27   11.70
  11  -8   1  266.17   18.20
  -8  11  -1  259.37   12.40
  -3  -8  -1  274.47   21.20
  -8  -3   1  280.37   15.30
   2 -11  -1  220.08   23.50
   9   2  -1  251.07    9.40
 -11   9  -1  221.68   11.20
   2   9   1  241.08   11.30
 -11   9  -1  233.88   11.30
 -11   2   1  234.78   16.30
  -2  -9  -1  224.78   21.00
  -9  11  -1  260.67   11.80
  -2  11   1  232.68   11.50
  -2  -9  -1  247.08   11.60
  -9  11  -1  251.67   10.90
  11  -9   1  239.48   17.50
  -9  -2   1  195.78   17.20
  11  -2  -1  258.77   14.50
 -11  10  -1   27.30    4.50
 -11  10  -1   32.20    4.30
   1 -11  -1   28.50    2.50
   1 -11  -1   32.70   15.00
   1  10   1   36.70    4.80
  10 -11   1   19.40   11.10
 -11   1   1   24.10    9.00
  10   1  -1   27.40    6.60
  -1 -10  -1   31.30    4.80
 -10  11  -1   32.20    4.80
  -1 -10  -1   31.10   13.80
  11 -10   1   31.80   11.10
 -10  -1   1   19.10    9.30
 -10  11  -1   28.50    4.20
  -1  11   1   29.40    4.50
  11  -1  -1   28.30    7.10
 -11   0   1   36.40   10.30
  11 -11   1   48.00   12.00
 -11  11  -1   49.00    5.30
   0  11   1   49.20    6.10
   0 -11  -1   54.59    4.40
   0 -11  -1   40.60   15.20
 -11  11  -1   46.50    6.60
  11   0  -1   47.80    7.60
   0 -12   1   49.30   13.60
  12 -12  -1   28.00   14.60
 -12  12   1   56.79    6.10
 -12  12   1   46.80    5.80
   0 -12   1   73.29   14.70
  12   0   1   41.90    7.90
 -12   0  -1   48.50    7.30
   0  12  -1   56.79    7.40
   1 -12   1   15.70   13.10
   1 -12   1   15.50   12.80
 -12   1  -1   19.00    2.40
 -12  11   1   26.10    4.20
   1  11  -1   25.50    4.80
 -12   1  -1   24.20    6.10
  11 -12  -1    4.40   13.10
  -1 -11   1   20.40   12.50
 -11  12   1   15.30    3.50
  12 -11  -1   17.80   13.30
 -11  -1  -1   25.70    7.40
 -11  12   1   18.40    4.20
  -1 -11   1   16.00   11.50
 -11  -1  -1   20.50    6.30
  12  -1   1   15.80    6.60
  -1  12  -1   19.40    4.60
 -12   2  -1   92.09    9.30
   2  10  -1  120.09    7.70
  10 -12  -1   97.39   16.30
   2 -12   1  109.29   16.20
 -12  10   1  123.69    8.70
 -12   2  -1  120.59    5.80
   2 -12   1  111.79   18.10
 -12  10   1  128.39    7.50
  12  -2   1  109.49   10.30
 -10  12   1  115.99    6.40
 -10  12   1  126.69    8.40
  12 -10  -1  118.49   14.30
  -2 -10   1  113.69   16.00
 -10  -2  -1  123.19   11.90
 -10  -2  -1  102.59    9.70
  -2 -10   1  122.69   19.10
  -2  12  -1  119.49    8.20
 -12   9   1  241.68   13.10
   9 -12  -1  217.08   23.60
   3 -12   1  225.88   22.10
 -12   3  -1  246.98   10.50
 -12   3  -1  254.67   13.50
   3   9  -1  253.97   11.90
   3 -12   1  235.58   22.60
 -12   9   1  244.58   11.30
   9   3   1  281.57   10.70
  -9  -3  -1  234.18   14.10
  -9  12   1  249.97   12.30
  12  -3   1  254.17   14.40
  -3  12  -1  252.17   12.60
  -3  -9   1  244.38   18.20
  -9  12   1  242.58   10.50
  -9  -3  -1  260.07   14.90
  12  -9  -1  233.18   19.60
   4   8  -1    6.50    3.40
   8 -12  -1  -15.90   13.70
 -12   4  -1    0.90    4.70
   4 -12   1    4.80   12.20
 -12   8   1    1.70    2.60
   4 -12   1   -1.80   11.60
 -12   8   1    4.40    5.10
   8   4   1    5.90    2.40
 -12   4  -1    0.70    2.10
  -4  -8   1    2.20    8.50
  -8  -4  -1    6.20    7.90
  -8  -4  -1   -2.60    5.20
  -4  -8   1    2.10   10.70
  12  -4   1    3.90    5.80
  -4  12  -1    2.70    4.00
  -8  12   1    4.50    1.80
  -8  12   1    6.30    4.10
  12  -8  -1   13.50   10.30
   5 -12   1 1141.89   53.29
   7   5   1 1252.87   45.70
   7 -12  -1 1265.07   46.10
 -12   5  -1 1154.28   47.10
   5 -12   1 1182.68   51.69
 -12   7   1 1183.48   48.10
 -12   5  -1 1202.98   45.50
 -12   7   1 1112.19   45.40
   7 -12  -1 1159.08   55.79
   5   7  -1 1148.39   45.70
  -7  -5  -1 1152.28   47.40
  12  -5   1 1201.08   48.40
  -5  -7   1 1183.98   51.29
  -7  -5  -1 1165.28   50.49
  12  -7  -1 1260.87   49.80
  -5  12  -1 1151.28   46.30
  -7  12   1 1105.39   46.20
  -5  -7   1 1259.27   50.29
 -12   6  -1  569.34   24.60
   6 -12  -1  562.24   34.70
   6 -12   1  581.04   29.90
   6   6  -1  590.44   23.00
 -12   6   1  614.34   26.20
   6   6   1  572.14   23.20
 -12   6  -1  587.34   23.00
 -12   6   1  561.94   22.60
   6 -12   1  557.04   32.00
  -6  -6   1  594.14   27.40
  -6  12  -1  563.54   24.00
  -6  12   1  561.14   23.80
  -6  -6  -1  589.34   25.00
  -6  -6  -1  538.75   29.30
  12  -6   1  577.94   26.50
  12  -6  -1  604.54   28.00
  -6  -6   1  608.44   30.10
   7 -12   1 1414.76   60.99
   7   5  -1 1349.56   52.89
 -12   5   1 1406.26   56.29
   5   7   1 1346.17   53.29
   7 -12   1 1423.26   57.59
 -12   7  -1 1376.16   54.39
   5 -12  -1 1351.76   62.69
 -12   5   1 1404.56   52.39
  -7  -5   1 1413.76   56.49
  12  -7   1 1370.26   56.39
  -5  -7  -1 1411.16   59.09
  -7  12  -1 1339.07   53.79
  -5  -7  -1 1406.16   54.59
  -5  12   1 1365.76   53.79
  -7  -5   1 1378.56   58.99
  12  -5  -1 1377.56   56.69
   8   4  -1  615.84   23.30
 -12   8  -1  577.24   24.90
   4   8   1  604.84   24.20
   4 -12  -1  576.54   36.20
   8 -12   1  590.74   32.90
 -12   4   1  618.74   27.50
 -12   8  -1  618.44   24.20
  -8  -4   1  586.74   30.00
  -4  12   1  580.84   24.60
  -4  -8  -1  607.44   30.40
  -4  -8  -1  617.04   25.30
  -8  -4   1  596.24   27.50
  -8  12  -1  589.74   24.70
  12  -4  -1  593.54   27.50
  12  -8   1  570.64   28.20
 -12   9  -1  393.36   17.20
 -12   9  -1  406.06   17.80
   9   3  -1  419.46   15.80
   3   9   1  406.36   17.20
 -12   3   1  378.46   21.60
   3 -12  -1  423.16   26.60
   9 -12   1  396.06   25.60
  -9  12  -1  417.16   17.70
  -9  -3   1  407.66   20.50
  12  -3  -1  411.46   20.80
  -3  12   1  386.96   17.60
  -3  -9  -1  406.96   17.90
  -9  -3   1  372.06   23.10
  -3  -9  -1  409.06   26.60
  -9  12  -1  400.36   16.90
  12  -9   1  416.66   22.60
 -12   2   1  833.12   37.90
  10   2  -1  861.71   36.10
   2  10   1  848.92   34.10
 -12  10  -1  823.12   34.10
  10 -12   1  853.51   41.80
 -12  10  -1  856.11   34.40
   2 -12  -1  881.61   45.10
  12  -2  -1  860.41   36.30
  12 -10   1  905.11   39.90
 -10  12  -1  804.52   34.30
  -2  12   1  866.81   34.40
 -10  12  -1  892.81   34.40
  -2 -10  -1  838.82   42.60
  -2 -10  -1  902.51   34.30
 -10  -2   1  845.92   38.30
  11   1  -1  221.48   14.20
 -12  11  -1  231.58   11.70
   1  11   1  208.38   11.50
  11 -12   1  204.58   22.00
 -12  11  -1  228.88   11.00
   1 -12  -1  242.18    9.40
   1 -12  -1  224.18   25.50
 -12   1   1  217.18   17.00
  12 -11   1  218.68   19.10
  -1  12   1  243.38   11.90
 -11  12  -1  245.78   12.00
 -11  12  -1  226.88   10.70
 -11  -1   1  213.38   17.40
  -1 -11  -1  246.78   11.00
  -1 -11  -1  222.08   23.90
  12  -1  -1  237.18   14.80
   0  12   1  962.60   37.60
 -12   0   1  881.51   41.40
 -12  12  -1  976.70   37.60
   0 -12  -1  886.91   47.10
  12 -12   1  945.51   43.60
   0 -12  -1  980.00   36.60
 -12  12  -1  947.61   37.30
  12   0  -1  938.71   39.70
 -13   0  -1    5.50    6.00
   0  13  -1    3.40    4.50
  13   0   1   -2.20    6.30
   0 -13   1    7.30   11.90
  13 -13  -1   -9.90   13.70
 -13  13   1   10.80    3.90
 -13  13   1    3.50    3.70
 -13  12   1   50.49    6.20
  12 -13  -1   19.00   14.90
 -13   1  -1   28.60    6.70
 -13  12   1   30.50    4.90
   1  12  -1   36.20    5.40
   1 -13   1   28.20   13.80
   1 -13   1   37.70   13.50
  -1  13  -1   32.50    5.40
  13  -1   1   31.80    7.50
 -12  13   1   34.40    4.40
  -1 -12   1   21.90   12.70
 -12  13   1   35.90    4.90
  13 -12  -1   20.20   11.60
 -12  -1  -1   25.50    7.00
 -13   2  -1   60.49    8.50
   2  11  -1   60.79    7.40
  11 -13  -1   68.59   17.20
   2 -13   1   73.89   15.30
 -13  11   1   55.09    6.90
 -13   2  -1   70.69    4.20
 -13  11   1   69.09    6.10
   2 -13   1   71.29   16.60
  13 -11  -1   48.80   14.90
  -2  13  -1   71.59    7.40
  -2 -11   1   71.29   13.50
  13  -2   1   62.39    9.70
  -2 -11   1   72.69   14.50
 -11  13   1   80.09    7.80
 -11  -2  -1   83.39   11.10
 -11  -2  -1   64.39    8.50
 -11  13   1   57.39    7.00
 -13  10   1   50.79    5.70
  10   3   1   57.49    4.20
   3 -13   1   53.29   16.00
 -13   3  -1   49.90    4.00
   3  10  -1   53.29    6.70
  10 -13  -1   40.70   16.00
   3 -13   1   29.50   14.40
 -13   3  -1   51.39    7.20
 -13  10   1   52.99    6.80
 -10  -3  -1   52.89    9.40
  -3  13  -1   65.09    7.20
 -10  13   1   45.90    4.20
  -3 -10   1   48.70   11.70
  13  -3   1   49.10    8.00
 -10  13   1   63.69    6.70
  13 -10  -1   48.60   13.10
  -3 -10   1   66.59   14.10
 -10  -3  -1   54.09    7.60
 -13   9   1  315.07   14.50
   4 -13   1  306.77   25.80
 -13   9   1  358.56   17.40
   9   4   1  341.17   14.10
 -13   4  -1  334.77   13.80
 -13   4  -1  319.87   16.60
   4   9  -1  363.66   15.20
   9 -13  -1  333.67   27.70
  -4  13  -1  341.17   15.60
  -9  -4  -1  332.57   16.90
  13  -9  -1  351.16   23.10
  -9  13   1  338.57   13.70
  13  -4   1  348.27   18.20
  -9  13   1  333.07   15.40
  -4  -9   1  338.47   21.10
  -4  -9   1  310.97   22.50
  -9  -4  -1  351.16   18.70
 -13   5  -1   19.10    5.50
 -13   8   1    5.00    2.80
   8   5   1    6.00    2.70
   5 -13   1   15.30   14.90
 -13   5  -1   14.90    2.70
   8 -13  -1   27.50    5.40
 -13   8   1   16.00    6.20
   5   8  -1   18.60    3.70
   8 -13  -1   -1.30   16.40
  -5  13  -1   18.50    4.80
  -8  -5  -1   16.50    5.70
  -8  -5  -1   17.40    8.90
  -8  13   1   21.40    4.60
  13  -8  -1   20.40   10.60
  13  -5   1   22.50    7.30
  -5  -8   1   13.60    8.80
  -5  -8   1    8.20   12.00
 -13   6  -1  500.15   19.60
 -13   7   1  534.35   19.40
 -13   7   1  452.85   22.70
   7   6   1  487.55   19.80
 -13   6  -1  502.65   21.50
   7 -13  -1  420.86   32.40
   6   7  -1  496.35   19.90
   6 -13   1  475.35   30.90
  -6  13  -1  488.55   20.90
  -6  -7   1  469.25   27.10
  -7  -6  -1  469.95   22.00
  13  -7  -1  479.85   25.30
  13  -6   1  474.25   23.70
  -7  -6  -1  467.45   26.20
  -7  13   1  500.45   20.80
  -6  -7   1  474.35   24.90
   7 -13   1   -8.60   13.30
   7   6  -1    4.30    2.70
   6   7   1   -2.10    2.90
 -13   6   1   -4.60    1.90
   7 -13   1    2.40   10.80
 -13   6   1   -7.60    6.30
   6 -13  -1  -10.40   15.40
 -13   7  -1    0.30    4.60
  -7  -6   1    5.30   10.50
  -6  -7  -1   -4.40   10.00
  13  -6  -1    8.70    9.30
  -7  13  -1    4.30    4.40
  -6  13   1    3.20    4.10
  -7  -6   1   -0.50    6.00
  13  -7   1    7.30    7.90
  -6  -7  -1   -5.30    5.70
   5   8   1  300.97   13.10
   8 -13   1  315.77   20.10
   8   5  -1  286.97   12.20
 -13   8  -1  283.47   13.90
   5 -13  -1  281.77   27.50
   8 -13   1  286.27   24.20
 -13   8  -1  290.37   12.80
 -13   5   1  270.57   17.00
  -5  -8  -1  283.27   14.60
  -5  13   1  280.57   13.70
  13  -5  -1  286.87   18.40
  -8  -5   1  264.27   20.30
  -5  -8  -1  286.97   21.70
  -8  -5   1  277.17   17.60
  13  -8   1  298.37   18.40
  -8  13  -1  306.37   14.00
   9   4  -1   33.40    3.60
 -13   9  -1   42.10    6.80
   9 -13   1   30.10   15.80
 -13   4   1   23.00    8.80
 -13   9  -1   35.50    4.60
   4   9   1   32.00    4.70
   4 -13  -1   23.70   16.80
  -4  -9  -1   35.10   13.30
  -4  -9  -1   36.20    5.80
  13  -9   1   42.30   10.70
  13  -4  -1   37.50    9.00
  -9  -4   1   22.10   10.70
  -9  13  -1   34.90    5.30
  -4  13   1   36.20    5.30
  -9  -4   1   39.70    7.40
 -13  10  -1   -5.20    3.40
   3  10   1   -2.60    3.80
 -13  10  -1    2.40    3.90
  10   3  -1    2.30    1.50
  10 -13   1  -16.60   12.30
   3 -13  -1  -21.80   15.30
 -13   3   1  -13.30    7.80
  13  -3  -1   -0.20    7.50
  -3 -10  -1   -7.50   12.70
  13 -10   1    8.30   10.30
  -3  13   1    3.30    4.50
 -10  13  -1    4.90    4.20
 -10  13  -1   -2.00    3.00
  -3 -10  -1   -2.30    4.30
 -10  -3   1    0.40    9.40
 -13  11  -1  315.37   14.30
   2 -13  -1  294.27   28.40
  11 -13   1  293.97   23.90
  11   2  -1  290.17   16.80
 -13  11  -1  307.37   14.30
 -13   2   1  290.87   19.30
   2  11   1  307.87   14.40
 -11  13  -1  307.47   14.60
  13  -2  -1  325.17   18.20
  -2  13   1  299.67   14.70
  -2 -11  -1  307.47   25.50
  13 -11   1  325.27   22.60
  -2 -11  -1  329.77   14.50
 -11  -2   1  292.37   20.00
 -11  13  -1  320.87   13.90
  12 -13   1  131.09   18.70
 -13  12  -1  114.79    8.60
  12   1  -1  130.89   11.60
   1 -13  -1  129.39    5.50
   1  12   1  126.39    8.70
   1 -13  -1  128.09   20.80
 -13   1   1  115.99   14.60
 -13  12  -1  129.09    8.30
  -1 -12  -1  127.89   22.70
  -1 -12  -1  128.99    7.80
 -12  13  -1  120.09    8.50
  -1  13   1  119.39    8.90
  13  -1  -1  133.99   10.60
  13 -12   1  127.99   18.20
 -12  13  -1  129.49    7.40
 -12  -1   1  106.19   15.00
  13   0  -1   39.80    8.10
   0 -13  -1   38.10   16.70
   0 -13  -1   44.20    4.10
 -13  13  -1   40.70    5.20
 -13  13  -1   32.30    5.20
   0  13   1   41.90    5.80
  13 -13   1   35.30   15.00
 -13   0   1   30.40    9.80
   0 -14   1   93.39   17.10
  14   0   1   73.09    9.90
 -14  14   1   74.19    6.70
 -14  14   1   85.39    7.40
  14 -14  -1   79.29   16.80
 -14   0  -1   74.79    9.10
   0  14  -1   86.69    8.00
   1 -14   1   -4.10   12.50
 -14   1  -1    0.10    5.50
  13   1   1   -3.20    7.00
  13 -14  -1  -16.40   14.60
 -14  13   1    3.90    3.70
   1  13  -1    6.80    4.60
 -14  13   1    2.20    4.10
  14 -13  -1    8.30   14.20
  14  -1   1   -1.50    6.60
  -1  14  -1    3.40    5.00
 -13  14   1   -3.10    4.60
 -13  -1  -1   -1.00    5.50
 -13  14   1   15.70    4.20
  -1 -13   1    6.90   11.70
 -14   2  -1  113.99   10.30
  12   2   1  136.69    6.10
   2  12  -1  114.39    8.60
  12 -14  -1  115.89   19.00
 -14  12   1  129.39    8.00
   2 -14   1  121.69   20.50
 -14  12   1  108.99    9.20
  14  -2   1  113.79   11.60
  -2  14  -1  116.99    9.00
 -12  14   1  131.49    8.50
 -12  14   1  112.99    7.00
  -2 -12   1  149.19   18.70
 -12  -2  -1  132.19   12.20
  -2 -12   1  128.39   17.90
  14 -12  -1  108.29   17.30
 -12  -2  -1  116.79   10.50
 -14  11   1   14.90    3.80
   3 -14   1   17.90   14.20
  11   3   1   18.40    2.60
   3 -14   1    9.70   12.70
  11 -14  -1    9.70   16.10
 -14  11   1   16.40    5.50
 -14   3  -1   10.60    6.40
 -14   3  -1   22.00    3.20
   3  11  -1   18.00    5.00
 -11  14   1   15.40    3.10
  14 -11  -1   28.40   14.30
  -3 -11   1   37.70   12.20
 -11  -3  -1   26.20    8.90
 -11  -3  -1   13.70    6.60
 -11  14   1   25.50    5.00
  14  -3   1   11.80    7.50
  -3 -11   1   27.90   11.50
  -3  14  -1   18.90    5.10
 -14   4  -1   70.19    4.70
   4 -14   1   66.89   17.10
 -14  10   1   42.50    5.60
 -14  10   1   66.29    8.30
 -14   4  -1   58.39    8.60
  10 -14  -1   43.70   18.00
   4  10  -1   61.79    7.10
  10   4   1   65.49    4.80
  14 -10  -1   63.39   14.40
 -10  -4  -1   78.89   10.10
  -4  14  -1   85.69    8.70
  -4 -10   1   70.89   12.80
  14  -4   1   73.09   11.10
 -10  -4  -1   62.59    9.20
 -10  14   1   84.59    7.60
  -4 -10   1   70.09   13.80
 -10  14   1   68.99    4.60
   9 -14  -1  262.77   28.80
   5 -14   1  250.97   25.20
   5 -14   1  231.78   24.00
 -14   5  -1  300.67   12.10
 -14   9   1  267.17   15.80
 -14   5  -1  269.27   14.80
   5   9  -1  298.47   13.20
   9   5   1  276.87   12.20
  -5  -9   1  277.87   19.90
  -9  -5  -1  267.57   15.20
  -9  14   1  287.47   14.20
  -9  -5  -1  280.57   19.10
  -5  14  -1  279.97   14.00
  14  -5   1  279.77   16.80
  -5  -9   1  305.37   21.90
  14  -9  -1  278.87   19.10
   6 -14   1  -11.60   15.00
 -14   6  -1   12.60    3.00
 -14   8   1   10.50    6.30
 -14   8   1   10.10    2.80
   8   6   1    2.60    3.00
   6   8  -1   18.60    3.80
   6 -14   1   17.50   14.10
   8 -14  -1   -2.70   13.20
 -14   6  -1   11.10    5.60
  14  -8  -1   13.20   11.60
  -8  -6  -1   15.90    6.10
  -8  14   1   16.50    5.10
  -6  -8   1   23.60    9.60
  14  -6   1   21.80    8.50
  -6  -8   1   16.10   12.00
  -8  -6  -1   15.20    8.30
  -6  14  -1   14.80    5.10
   7   7   1  646.04   28.00
   7 -14  -1  592.94   39.60
 -14   7   1  695.03   26.70
 -14   7  -1  713.13   29.10
   7   7  -1  707.43   27.40
 -14   7   1  670.23   30.40
   7 -14   1  657.33   38.50
   7 -14   1  701.43   35.70
 -14   7  -1  692.03   27.20
  14  -7  -1  696.03   33.20
  -7  -7   1  692.43   32.40
  -7  14   1  650.13   28.20
  14  -7   1  722.13   31.90
  -7  14  -1  704.73   28.40
  -7  -7  -1  690.13   33.90
  -7  -7   1  661.83   34.70
  -7  -7  -1  703.03   29.60
   6   8   1  157.58    8.80
 -14   8  -1  155.18    8.40
   8   6  -1  164.08    8.00
   8 -14   1  108.59   21.30
 -14   8  -1  138.09    9.80
   8 -14   1  155.88   18.30
   6 -14  -1  129.19   22.20
 -14   6   1  131.19   12.50
 -14   6   1  154.98    6.50
  14  -6  -1  152.38   15.80
  -6  14   1  148.19    9.80
  14  -8   1  167.48   15.20
  -6  -8  -1  146.89   18.30
  -8  -6   1  145.69   16.90
  -6  -8  -1  150.68   10.80
  -8  14  -1  157.58    9.80
  -8  -6   1  145.29   13.80
   5 -14  -1  703.13   41.50
 -14   9  -1  726.13   28.30
 -14   9  -1  694.13   29.20
   5   9   1  689.63   28.30
   9   5  -1  742.23   27.40
   9 -14   1  697.13   39.70
   9 -14   1  741.83   34.10
 -14   5   1  657.83   31.30
  -5  -9  -1  674.83   36.00
  -9  -5   1  693.83   31.40
  -5  14   1  715.53   29.10
  14  -9   1  742.53   34.30
  14  -5  -1  676.13   31.50
  -9  -5   1  643.44   33.80
  -9  14  -1  696.83   28.90
  -5  -9  -1  701.43   29.70
  10 -14   1 1221.48   56.89
   4  10   1 1227.68   47.80
 -14   4   1 1169.38   50.89
   4 -14  -1 1198.78   58.99
 -14  10  -1 1208.18   47.70
 -14  10  -1 1163.08   48.10
  10   4  -1 1292.77   46.50
  14  -4  -1 1235.58   50.59
 -10  14  -1 1186.38   48.00
 -10  -4   1 1191.98   51.99
  -4  14   1 1205.98   48.10
 -10  -4   1 1267.67   50.89
  -4 -10  -1 1202.48   55.59
  14 -10   1 1232.58   52.79
  -4 -10  -1 1263.97   48.60
   3  11   1  594.34   24.20
 -14  11  -1  571.04   24.40
  11 -14   1  564.84   35.20
  11   3  -1  587.84   27.00
 -14  11  -1  535.25   24.10
 -14   3   1  593.54   28.40
   3 -14  -1  573.04   37.80
 -11  14  -1  579.54   24.50
  -3  14   1  575.14   24.60
  14  -3  -1  568.44   27.80
  -3 -11  -1  609.64   33.90
  14 -11   1  580.94   30.90
  -3 -11  -1  602.64   24.90
 -11  14  -1  586.24   23.90
 -11  -3   1  596.24   29.90
  12   2  -1 1527.95   63.69
   2  12   1 1652.73   61.69
   2 -14  -1 1607.44   71.29
 -14  12  -1 1589.04   61.69
 -14   2   1 1632.94   65.09
 -14  12  -1 1550.24   61.59
  12 -14   1 1611.24   69.09
 -12  -2   1 1459.95   65.39
  14 -12   1 1555.64   67.79
  14  -2  -1 1625.74   64.39
  -2  14   1 1587.44   61.79
 -12  14  -1 1567.24   61.39
  -2 -12  -1 1594.14   69.49
  -2 -12  -1 1647.94   61.69
 -12  14  -1 1565.54   61.79
 -14  13  -1  210.68   10.30
   1  13   1  208.38   11.40
 -14   1   1  181.98   15.70
   1 -14  -1  204.68   24.90
  13   1  -1  190.78   13.90
 -14  13  -1  191.08   10.60
  13 -14   1  178.48   21.70
  -1  14   1  196.18   11.60
  14  -1  -1  195.18   14.60
 -13  14  -1  180.88   11.00
  -1 -13  -1  196.78   23.30
  -1 -13  -1  217.38   10.00
 -13  14  -1  190.28    9.90
 -13  -1   1  191.18   16.20
  14 -13   1  201.98   20.60
  14 -14   1  522.95   30.90
 -14   0   1  510.45   26.50
  14   0  -1  531.25   24.30
 -14  14  -1  496.45   22.10
   0  14   1  514.25   22.30
   0 -14  -1  548.75   34.30
 -14  14  -1  530.65   22.00
 -15  15   1   30.70    4.90
 -15   0  -1   13.80    6.20
 -15  15   1   28.90    4.50
   0  15  -1   26.20    5.40
   0 -15   1   18.90   12.40
  15   0   1   21.00    7.20
  15 -15  -1    9.90   14.30
  14   1   1  104.59   11.00
  14 -15  -1   97.59   18.40
   1 -15   1  119.59   19.00
 -15  14   1  130.09    8.30
   1  14  -1  137.19    9.10
 -15  14   1  131.49    8.40
 -15   1  -1  121.79   10.70
  -1 -14   1  124.29   17.60
  15  -1   1  110.69   11.10
 -14  15   1  116.39    8.60
  -1  15  -1  132.19    9.70
 -14  15   1  122.29    9.90
 -14  -1  -1  124.19   10.70
  15 -14  -1  108.79   19.60
  13 -15  -1  -21.00   13.80
 -15  13   1    2.10    4.20
 -15  13   1    1.10    3.30
   2 -15   1    5.40   13.00
   2  13  -1    0.90    4.40
 -15   2  -1    0.30    5.30
 -13  15   1    7.20    3.90
 -13  -2  -1   -0.10    5.50
  -2  15  -1    6.60    4.90
  15 -13  -1  -15.50   12.70
  15  -2   1    4.80    6.50
  -2 -13   1    1.10    9.80
  12 -15  -1  140.09   18.40
 -15   3  -1  136.39   10.90
   3  12  -1  158.48    9.50
   3 -15   1  147.49   21.40
 -15  12   1  152.88   10.20
  12   3   1  146.49    7.00
 -15  12   1  155.88    8.70
   3 -15   1  119.09   18.40
 -12  -3  -1  154.78   13.20
  15  -3   1  140.59   12.90
  15 -12  -1  128.79   20.50
 -12  -3  -1  138.59   11.30
 -12  15   1  132.09    8.00
 -12  15   1  163.78    9.80
  -3  15  -1  146.19    9.90
  -3 -12   1  184.48   19.20
  -3 -12   1  158.78   17.20
  11 -15  -1   34.00   17.60
  11   4   1   46.90    4.20
 -15  11   1   49.60    5.80
 -15  11   1   51.39    7.30
   4  11  -1   52.99    7.30
   4 -15   1   38.60   15.90
 -15   4  -1   55.79    8.50
  15 -11  -1   45.10   14.00
 -11  15   1   39.00    4.30
 -11  15   1   55.59    7.10
 -11  -4  -1   48.40    7.80
  -4 -11   1   71.19   13.30
  -4 -11   1   38.00   11.90
 -11  -4  -1   44.30    9.90
  -4  15  -1   53.89    7.70
  15  -4   1   50.79    9.40
  10   5   1   68.39    5.50
  10 -15  -1   48.50   19.70
   5 -15   1   88.09   19.10
   5  10  -1   94.59    7.40
 -15  10   1   80.59    9.10
 -15   5  -1   81.19    5.30
 -15   5  -1   87.59    9.10
  -5 -10   1   73.29   13.50
 -10  -5  -1   67.89   13.40
  15 -10  -1   81.69   15.00
  15  -5   1   99.59   12.90
 -10  -5  -1   76.09    9.60
  -5 -10   1   79.49   14.30
 -10  15   1   94.59    8.10
  -5  15  -1  105.29    8.60
   6 -15   1  160.88   19.20
   9 -15  -1  158.58   25.90
 -15   9   1  176.08   12.90
 -15   6  -1  186.88   12.20
   6   9  -1  203.18   10.40
   6 -15   1  196.78   24.00
   9   6   1  177.58    9.40
 -15   6  -1  202.98    9.40
  15  -6   1  211.08   15.70
  15  -9  -1  181.78   19.50
  -6  -9   1  213.98   17.30
  -9  -6  -1  211.18   12.80
  -6  -9   1  203.78   20.30
  -6  15  -1  196.38   11.60
  -9  15   1  210.48   11.20
  -9  -6  -1  207.78   17.20
 -15   7  -1   69.99    5.80
   7 -15   1   52.79   15.70
 -15   8   1   63.39    9.60
 -15   7  -1   51.59    8.20
 -15   8   1   68.89    5.10
   8   7   1   44.50    4.90
   7 -15   1   56.99   17.60
   7   8  -1   58.49    6.10
   8 -15  -1   39.00   18.20
  -7  15  -1   71.89    7.90
  -8  -7  -1   61.29    9.80
  -7  -8   1   61.79   11.30
  -7  -8   1   77.59   14.10
  15  -8  -1   93.19   15.60
  -8  15   1   65.89    7.70
  -8  -7  -1   71.79   13.00
  15  -7   1   97.39   14.30
   7 -15  -1   49.99   19.50
 -15   7   1   64.29    9.20
 -15   7   1   70.59    4.60
 -15   8  -1   70.59    6.20
   7   8   1   73.29    6.70
   8 -15   1   56.99   17.40
 -15   8  -1   64.49    8.00
   8   7  -1   67.79    6.10
   8 -15   1   67.39   15.40
  -7  -8  -1   74.69    9.20
  -8  -7   1   95.49   14.20
  15  -8   1  114.69   15.60
  -8  -7   1   79.79   12.80
  -7  15   1   79.69    8.70
  15  -7  -1   85.29   15.40
  -7  -8  -1   91.19   15.70
  -8  15  -1   90.19    8.10
   9 -15   1  120.19   22.10
   9   6  -1  151.18    7.60
 -15   9  -1  139.29    9.70
   9 -15   1  126.79   18.20
   6 -15  -1  124.19   23.00
 -15   9  -1  151.18    8.70
 -15   6   1  124.69   12.50
   6   9   1  134.39    8.70
  -6  15   1  139.79    9.70
  15  -6  -1  159.28   16.10
  -9  -6   1  141.69   14.10
  -6  -9  -1  127.59   10.50
  -9  15  -1  139.19    9.70
  15  -9   1  185.18   16.60
  -6  -9  -1  134.89   18.50
  -9  -6   1  144.09   15.90
  10 -15   1   -0.80   16.70
  10   5  -1   -1.50    2.40
 -15  10  -1    3.00    3.60
  10 -15   1    5.50   15.10
 -15  10  -1    2.00    4.60
   5 -15  -1   -5.90   16.40
   5  10   1    1.30    3.90
 -15   5   1   -5.40    7.10
 -10  15  -1    3.40    4.50
  -5 -10  -1    4.80    5.30
 -10  -5   1    8.30    9.60
  -5  15   1    2.40    4.60
  15  -5  -1   -0.70    9.10
  15 -10   1    5.80   10.90
  -5 -10  -1   16.50   12.50
 -10  -5   1    9.70    7.90
   4  11   1    9.70    4.40
   4 -15  -1   -1.70   17.50
 -15   4   1   16.20    7.70
  11 -15   1    9.70   16.10
 -15  11  -1   19.00    4.50
 -15  11  -1   16.20    4.80
 -11  15  -1   11.20    4.80
 -11  -4   1    6.60    9.50
  -4 -11  -1   17.60    5.20
  15  -4  -1   15.80    7.40
  -4  15   1   14.00    5.10
  15 -11   1   20.70   11.60
  -4 -11  -1   16.10   13.50
 -15  12  -1  220.68   11.40
 -15  12  -1  186.28   11.00
  12 -15   1  173.98   22.30
   3  12   1  209.88   11.10
 -15   3   1  208.38   14.90
   3 -15  -1  225.48   26.00
  12   3  -1  219.38   14.20
 -12  -3   1  190.08   16.80
 -12  15  -1  190.58   11.30
  15 -12   1  235.68   22.40
  -3  15   1  218.58   11.80
 -12  15  -1  215.78   10.60
  -3 -12  -1  231.88   11.80
  15  -3  -1  212.78   15.80
  -3 -12  -1  228.28   21.80
  13   2  -1   93.19   10.70
 -15  13  -1   90.59    7.30
   2  13   1   97.69    7.70
 -15  13  -1   73.39    7.50
  13 -15   1   82.59   16.20
   2 -15  -1  105.39   19.30
 -15   2   1   85.99   12.00
  -2  15   1   98.49    8.20
  -2 -13  -1  118.49    7.50
  15  -2  -1  105.29   12.30
  15 -13   1  114.79   18.00
 -13  15  -1   97.69    6.80
  -2 -13  -1   87.69   17.20
 -13  15  -1   90.99    7.70
 -13  -2   1   87.69   13.20
   1  14   1  422.26   18.10
 -15   1   1  362.96   21.60
  14   1  -1  390.16   20.50
  14 -15   1  409.96   27.00
 -15  14  -1  423.16   17.90
 -15  14  -1  368.66   17.70
   1 -15  -1  378.96   30.20
 -14  15  -1  401.56   18.20
  -1  15   1  425.86   18.50
  15 -14   1  390.36   26.20
 -14  -1   1  399.86   23.00
  -1 -14  -1  400.56   29.10
 -14  15  -1  412.66   17.60
  15  -1  -1  409.56   21.30
  15   0  -1   85.99   10.80
   0 -15  -1   80.29   17.60
 -15  15  -1   74.29    6.10
  15 -15   1   98.59   16.70
   0  15   1   84.39    7.60
 -15  15  -1   69.09    6.90
 -15   0   1   65.59   10.40
  16   0   1   14.20    7.40
 -16   0  -1   16.20    6.30
 -16  16   1   17.70    4.40
  16 -16  -1   10.00   15.60
   0  16  -1   14.30    5.30
   0 -16   1   15.60   12.60
 -16  15   1    5.70    3.80
   1  15  -1    9.80    4.90
   1 -16   1    1.50   12.00
  15 -16  -1   -0.40   13.90
  15   1   1    5.20    6.80
 -16  15   1    8.80    4.20
 -15  16   1   13.70    4.40
  -1  16  -1   13.80    5.30
 -15  -1  -1   10.70    6.20
  16 -15  -1   -1.40   13.30
  -1 -15   1   20.60   12.20
  16  -1   1    1.50    6.60
  14   2   1   99.89   11.00
 -16   2  -1   93.19    9.80
 -16  14   1  121.19    8.10
   2 -16   1  176.08   18.70
 -16  14   1  109.29    8.00
  14 -16  -1   93.99   18.20
   2 -16   1  105.89   19.00
   2  14  -1  108.49    8.90
  16 -14  -1  102.99   17.00
  -2  16  -1  101.89    8.80
 -14  16   1   99.79    8.50
 -14  -2  -1   91.99    9.40
  -2 -14   1  105.49   16.20
  16  -2   1   89.39   11.00
 -16  13   1   42.00    6.90
  13 -16  -1   33.60   15.60
   3  13  -1   34.70    5.30
   3 -16   1   27.10   14.40
 -16   3  -1   33.80    7.00
   3 -16   1   41.50   12.30
 -16  13   1   36.70    4.70
  -3 -13   1   32.60   11.60
  16 -13  -1   31.70   13.60
  -3  16  -1   42.40    6.00
  16  -3   1   42.00    8.50
 -13  -3  -1   35.40    8.50
 -13  16   1   49.70    6.20
 -13  -3  -1   38.40    7.00
 -16   4  -1   44.60    7.40
 -16  12   1   82.19    8.20
 -16  12   1   57.49    6.30
  12 -16  -1   49.50   17.50
   4 -16   1   82.59   17.10
   4 -16   1   43.70   13.40
   4  12  -1   88.49    7.60
 -12  -4  -1   67.69   11.50
 -12  16   1   83.49    7.30
  -4  16  -1   84.99    8.00
 -12  -4  -1   65.59    8.80
  -4 -12   1   76.49   12.90
  16 -12  -1   48.50   14.80
  16  -4   1   67.39   10.80
  -4 -12   1  130.39   17.00
   5 -16   1  198.88   20.00
   5  11  -1  162.68    9.70
  11   5   1  149.09    7.80
 -16   5  -1  154.58   10.80
  11 -16  -1  125.49   21.80
   5 -16   1  137.79   22.10
 -16  11   1  147.89   10.50
 -11  -5  -1  145.29   11.30
  16 -11  -1  135.99   19.20
  -5 -11   1  162.08   16.10
 -11  16   1  162.28   10.30
  -5 -11   1  184.08   17.70
  -5  16  -1  156.18   10.30
 -11  -5  -1  158.08   14.50
  16  -5   1  170.48   13.70
   6 -16   1   72.49   17.30
   6  10  -1   64.69    6.90
   6 -16   1   22.90   13.70
 -16  10   1   68.79    8.60
  10 -16  -1   53.99   18.60
 -16   6  -1   55.69    8.20
  16  -6   1   92.49   12.20
 -10  16   1   80.59    7.90
  -6  16  -1   79.89    8.10
  -6 -10   1   86.79   14.00
  16 -10  -1   80.39   14.70
  -6 -10   1   75.39   13.80
 -10  -6  -1   63.39    8.70
 -10  -6  -1   74.49   13.20
 -16   9   1  363.36   14.90
   9   7   1  317.87   15.00
 -16   7  -1  365.16   17.30
   7 -16   1  340.27   28.10
   7   9  -1  344.07   15.50
 -16   9   1  364.36   18.90
 -16   7  -1  358.66   14.90
   9 -16  -1  293.87   29.10
  -7  -9   1  342.27   21.10
  -9  -7  -1  359.36   18.20
  -9  -7  -1  330.47   21.80
  -9  16   1  331.17   16.30
  -7  16  -1  342.47   16.50
  16  -9  -1  399.36   23.80
  16  -7   1  370.46   21.00
  -7  -9   1  337.37   22.10
   8 -16   1   49.80   15.30
 -16   8   1   67.89    9.70
   8 -16   1   63.39   18.80
 -16   8  -1   76.89    5.90
 -16   8  -1   61.19    7.80
   8   8   1   79.49    6.20
   8 -16  -1   54.89   19.30
   8   8  -1   63.29    6.20
  16  -8   1  122.89   15.50
  -8  16  -1   68.29    7.80
  -8  -8  -1   69.59   13.00
  16  -8  -1   80.99   15.20
  -8  -8   1   57.19   11.90
  -8  -8   1   54.19   10.80
  -8  16   1   81.19    7.80
  -8  -8  -1   69.69    9.10
   9   7  -1   12.50    3.40
 -16   9  -1   25.90    5.50
   7   9   1   22.30    4.20
 -16   7   1   20.20    7.30
   7 -16  -1   -9.90   17.00
   9 -16   1   24.40   13.80
   9 -16   1   -1.80   14.70
 -16   9  -1   17.10    3.80
  -7  -9  -1   24.40    6.10
  16  -9   1   32.30   10.80
  -7  -9  -1   24.10    9.10
  -7  16   1   24.20    5.40
  -9  -7   1   37.20    9.00
  -9  -7   1   20.10    9.50
  16  -7  -1   31.80   10.60
  -9  16  -1   27.30    5.40
  10 -16   1   54.69   14.90
   6 -16  -1   37.50   18.00
 -16   6   1   36.10    8.60
 -16  10  -1   43.40    6.00
  10   6  -1   37.80    4.70
 -16  10  -1   41.70    6.70
  10 -16   1   47.50   16.10
   6  10   1   34.00    4.80
 -10  16  -1   38.80    5.70
 -10  -6   1   39.10    9.20
  16  -6  -1   50.39   11.20
 -10  -6   1   29.60   10.70
  16 -10   1   60.09   12.60
  -6 -10  -1   36.80   12.70
  -6  16   1   53.59    6.40
  -6 -10  -1   47.60    6.80
 -16   5   1    3.20    7.30
  11 -16   1   18.70   10.40
   5  11   1   -1.30    3.90
   5 -16  -1    4.80   12.60
  11 -16   1   -4.10   13.70
 -16  11  -1    0.10    3.90
 -16  11  -1    3.70    3.60
 -11  -5   1    7.40    7.50
  16  -5  -1   10.50    9.30
  16 -11   1    4.20   11.00
  -5 -11  -1    8.90   11.20
 -11  -5   1    3.80    9.40
 -11  16  -1    1.80    4.80
  -5  16   1    2.80    4.70
  -5 -11  -1    3.30    4.60
 -16   4   1   69.19   10.90
  12   4  -1   67.49   10.40
   4  12   1   82.29    7.60
  12 -16   1  108.19   20.60
   4 -16  -1   89.19   19.90
 -16  12  -1   85.49    7.10
 -16  12  -1   87.09    7.20
  16  -4  -1  107.89   12.70
  -4 -12  -1   93.29    8.40
  16 -12   1   98.99   16.90
  -4  16   1   85.79    8.20
 -12  16  -1   77.69    7.50
 -12  -4   1   85.49   13.20
  -4 -12  -1  100.29   14.60
   3  13   1   45.50    5.70
 -16   3   1   36.40    8.70
  13   3  -1   48.00    8.20
   3 -16  -1   43.10   17.50
 -16  13  -1   40.40    5.50
  13 -16   1   32.10   14.50
  -3  16   1   37.70    5.70
 -13  -3   1   36.00   10.10
 -13  16  -1   31.60    4.60
  16 -13   1   44.70   13.60
 -13  16  -1   39.20    5.40
  -3 -13  -1   49.70   14.20
  16  -3  -1   41.20    9.20
  -3 -13  -1   53.09    6.60
 -16  14  -1  339.87   17.70
   2 -16  -1  447.46   30.80
 -16   2   1  426.96   21.50
 -16  14  -1  387.76   17.60
  14 -16   1  389.56   27.30
   2  14   1  426.96   18.30
  14   2  -1  385.96   20.50
  16 -14   1  398.26   26.60
 -14  16  -1  402.36   17.50
  -2  16   1  435.26   18.30
 -14  -2   1  390.76   23.10
 -14  16  -1  415.76   18.30
  -2 -14  -1  356.66   27.50
  16  -2  -1  388.96   21.40
 -16   1   1  149.99   13.90
  15 -16   1  171.08   20.70
  15   1  -1  166.88   11.80
 -16  15  -1  133.79    9.60
 -16  15  -1  169.18    9.50
   1  15   1  180.58   10.40
  16  -1  -1  166.18   13.90
 -15  16  -1  176.28    9.50
  -1  16   1  176.88   10.40
 -15  16  -1  158.08   10.30
  16 -15   1  179.48   20.50
   0 -16  -1  845.42   44.20
   0  16   1  831.22   34.10
  16 -16   1  828.82   43.90
 -16  16  -1  824.92   34.00
 -16  16  -1  816.22   33.70
 -16   0   1  825.42   37.00
   0  17  -1   38.70    6.10
   0 -17   1   33.50   14.30
  17 -17  -1   36.60   16.30
  17   0   1   42.00    8.40
 -17   0  -1   38.00    7.60
 -17  17   1   39.10    6.10
   1  16  -1  122.49    9.60
 -17   1  -1  142.19   11.20
 -17  16   1  141.59    9.50
  16 -17  -1  111.39   19.60
  16   1   1  129.29   12.20
 -16  17   1  145.89    9.80
  -1 -16   1  123.59   18.60
  -1  17  -1  150.18   10.70
  17  -1   1  126.09   12.30
  17 -16  -1  130.79   23.50
 -16  -1  -1  148.09   11.20
  15   2   1   65.09   10.10
 -17  15   1   76.69    7.50
 -17   2  -1   63.89    9.10
  15 -17  -1   56.09   17.30
 -17  15   1   67.19    7.30
   2  15  -1   79.69    8.30
   2 -17   1   77.89   16.60
  17 -15  -1   66.19   15.70
 -15  17   1   73.39    7.50
 -15  -2  -1   53.09   12.50
  -2 -15   1   76.79   14.30
  -2  17  -1   67.39    9.50
  17  -2   1   78.49   11.20
  14 -17  -1  227.18   25.00
 -17  14   1  282.87   14.00
 -17  14   1  272.37   13.30
   3 -17   1  254.27   24.60
   3 -17   1  237.98   21.90
   3  14  -1  275.47   13.50
 -17   3  -1  258.97   15.10
 -14  17   1  276.27   13.50
  -3 -14   1  331.57   22.00
 -14  -3  -1  267.47   15.00
  17  -3   1  258.07   16.80
  -3  17  -1  235.38   16.90
  -3 -14   1  268.87   21.40
 -17  13   1    1.90    3.70
   4 -17   1   -6.00   13.30
 -17  13   1   -1.40    4.20
  13 -17  -1  -11.90   15.00
   4 -17   1  -23.90   10.70
   4  13  -1    7.00    4.60
  17  -4   1    0.90    7.20
  17 -13  -1  -11.30   11.70
  -4  17  -1    1.60    5.20
  -4 -13   1   -2.60    9.30
 -13  -4  -1   -5.60    5.50
 -13  -4  -1    1.70    7.10
  -4 -13   1   19.20   10.00
 -13  17   1    3.20    4.10
   5 -17   1  471.85   31.90
 -17   5  -1  472.25   22.30
   5  12  -1  476.55   20.90
 -17  12   1  494.15   22.30
   5 -17   1  609.84   31.30
 -17  12   1  419.46   20.40
  12 -17  -1  460.25   33.30
 -12  -5  -1  479.35   22.70
  -5 -12   1  481.95   27.10
  -5 -12   1  509.55   26.90
  17 -12  -1  486.25   28.90
 -12  17   1  471.35   21.10
  17  -5   1  474.25   24.50
  -5  17  -1  529.15   21.70
 -12  -5  -1  491.25   25.20
  11   6   1   -6.00    2.60
   6  11  -1    1.00    4.00
   6 -17   1   -9.10   15.00
 -17  11   1   -0.60    5.00
   6 -17   1   32.50   13.80
  11 -17  -1  -11.50   15.40
 -17   6  -1    1.40    4.90
 -17  11   1    1.80    3.20
  17  -6   1    9.60    8.20
 -11  -6  -1    6.50    6.10
 -11  -6  -1   12.10    8.40
  17 -11  -1   -8.10   11.30
 -11  17   1    7.60    4.70
  -6 -11   1    6.20    8.90
  -6 -11   1   18.00   10.30
  -6  17  -1    6.40    4.80
   7  10  -1  329.17   15.60
  10 -17  -1  332.87   28.70
 -17  10   1  351.16   18.00
 -17   7  -1  337.17   17.10
  10   7   1  342.47   15.00
   7 -17   1  324.07   27.60
   7 -17   1  343.17   27.10
 -10  17   1  350.66   16.20
  17 -10  -1  352.06   23.80
  -7  17  -1  361.76   16.50
  -7 -10   1  331.57   21.10
  -7 -10   1  381.26   22.80
  17  -7   1  363.26   20.70
 -10  -7  -1  332.57   17.90
 -10  -7  -1  325.47   21.20
 -17   8  -1   75.59    7.90
 -17   9   1   70.09    9.10
   8 -17   1   72.59   17.30
   8   9  -1   77.89    6.60
   9 -17  -1   74.89   16.60
   9   8   1   64.59    6.20
  -9  -8  -1   71.49    9.10
  17  -8   1   89.29   13.70
  17  -9  -1   85.29   15.80
  -9  -8  -1   69.29   13.10
  -9  17   1   83.39    8.00
  -8  -9   1   66.69   11.30
  -8  -9   1   76.69   11.60
  -8  17  -1   80.89    8.00
   9   8  -1  157.68    8.90
   9 -17   1  142.39   20.60
   8 -17  -1  155.58   24.40
 -17   9  -1  170.78   10.60
 -17   9  -1  157.48    8.80
 -17   8   1  157.68   12.30
   9 -17   1  134.89   25.10
   8   9   1  167.28    9.50
  -8  17   1  168.68   10.30
  17  -8  -1  185.08   16.90
  -9  -8   1  169.78   15.20
  17  -9   1  190.48   16.30
  -8  -9  -1  164.48   17.20
  -9  17  -1  162.68   10.30
  -9  -8   1  154.48   14.30
  -8  -9  -1  156.68   11.00
   7 -17  -1  142.69   24.50
  10   7  -1  170.08   10.10
 -17  10  -1  174.38    9.60
 -17   7   1  173.28   12.90
  10 -17   1  139.99   25.90
  10 -17   1  160.48   22.60
 -17  10  -1  169.38   10.80
   7  10   1  173.78    9.90
 -10  -7   1  170.48   17.20
 -10  -7   1  170.38   14.70
  -7 -10  -1  197.08   12.30
  -7  17   1  193.68   10.80
  17 -10   1  200.58   17.90
  -7 -10  -1  185.18   15.40
 -10  17  -1  177.08   10.60
  17  -7  -1  179.48   17.20
  11 -17   1   92.19   14.50
  11 -17   1  103.69   18.20
   6  11   1   98.09    7.70
   6 -17  -1  102.69   20.00
 -17  11  -1  101.49    8.30
 -17   6   1   94.89   10.90
 -17  11  -1  103.29    7.90
  17 -11   1  127.29   18.60
 -11  -6   1  119.29   12.30
  17  -6  -1  113.99   12.00
  -6 -11  -1  113.89   16.80
 -11  -6   1  103.49   13.80
 -11  17  -1  105.29    8.20
  -6  17   1  101.29    8.60
  -6 -11  -1  111.29    9.70
  12 -17   1   81.39   17.50
 -17  12  -1   92.29    7.50
  12 -17   1  114.19   15.80
 -17  12  -1   88.89    7.40
 -17   5   1   87.59   10.80
   5 -17  -1   75.09   19.60
   5  12   1   91.09    7.70
  17 -12   1   91.09   16.50
  -5  17   1   92.09    8.20
  -5 -12  -1  100.69    9.10
  17  -5  -1   80.79   13.00
 -12  17  -1   72.79    7.70
  -5 -12  -1   86.99   14.80
 -12  -5   1   62.69   11.10
   4  13   1   10.80    4.50
  13 -17   1    2.20   14.30
   4 -17  -1   12.10   16.20
 -17  13  -1    0.40    3.80
 -17  13  -1   10.20    4.20
  -4  17   1   11.70    5.80
 -13  -4   1    5.50    8.50
  17 -13   1   12.00   12.80
 -13  17  -1   12.70    4.80
  14   3  -1    6.60    6.90
  14 -17   1    6.10   15.50
 -17  14  -1   10.60    4.40
 -17   3   1    8.80    7.40
   3 -17  -1   26.40   16.70
   3  14   1   13.20    4.70
  -3  17   1   13.90    5.90
 -14  17  -1   11.30    4.90
  17  -3  -1   12.60    8.10
  -3 -14  -1    7.40   13.20
  17 -14   1   29.10   13.10
 -14  -3   1    8.50   14.50
 -14  17  -1    6.20    4.80
   2  15   1   25.90    5.30
 -17  15  -1    9.80    4.80
   2 -17  -1   22.30   16.70
  15   2  -1   17.60    7.10
 -17   2   1   15.20    7.60
  15 -17   1   15.40   14.00
 -17  15  -1   21.20    4.50
  -2  17   1   23.40    5.30
  17 -15   1   23.00   14.30
  17  -2  -1   22.20    8.60
 -15  17  -1   27.40    5.30
 -15  -2   1   22.70    8.90
 -15  17  -1   24.80    4.40
  -2 -15  -1   15.10   13.40
  16   1  -1   97.79   11.70
 -17  16  -1   98.99    8.50
   1 -17  -1  115.29   19.80
 -17   1   1   92.79   11.90
  16 -17   1  106.99   20.00
 -17  16  -1   95.59    7.30
 -16  17  -1  104.29    8.10
  17 -16   1  113.39   20.40
  17  -1  -1   98.99   12.10
 -16  17  -1   93.69    7.50
  -1 -16  -1   87.79   17.80
  -1  17   1   98.59    8.70
 -16  -1   1  105.89   12.10
 -17   0   1   81.49   11.70
  17   0  -1  103.19   12.20
 -17  17  -1   97.29    8.50
 -17  17  -1   93.09    7.80
   0  17   1  111.79    9.50
  17 -17   1   99.59   18.70
   0 -17  -1   87.89   18.70
   0  18  -1   52.59    7.10
  18   0   1   48.90    9.20
 -18  18   1   48.30    6.30
  18 -18  -1   48.90   17.20
 -18   0  -1   54.79    9.00
   0 -18   1   59.99   15.50
  17 -18  -1    7.50   15.70
  17   1   1    3.70    7.00
   1  17  -1   -1.00    4.90
 -18   1  -1    1.40    5.80
 -18  17   1    5.50    4.90
   1 -18   1    4.80   13.00
 -17  -1  -1    1.40    5.90
  18  -1   1    1.70    7.20
  -1  18  -1   -0.70    5.30
  18 -17  -1  -19.70   14.40
 -17  18   1    1.00    4.70
  -1 -17   1    7.50   12.50
  16 -18  -1   40.20   16.50
 -18   2  -1   63.89    8.90
   2 -18   1   67.59   16.30
  16   2   1   57.19   10.20
 -18  16   1   63.39    9.10
   2  16  -1   46.90   10.20
 -16  -2  -1   68.39   10.00
 -16  18   1   84.29    8.30
  18  -2   1   60.89   11.90
  -2  18  -1   54.99    8.10
  -2 -16   1   49.80   13.80
  18 -16  -1   61.99   16.20
 -18  15   1   -3.00    4.40
  15   3   1   -2.90    6.20
   3  15  -1    3.30    4.60
  15 -18  -1   -8.40   14.70
 -18  15   1   -2.80    4.30
 -18   3  -1    2.90    5.50
  18  -3   1   -0.10    7.70
  -3  18  -1    4.10    5.30
  -3 -15   1    6.60   11.10
  18 -15  -1   -1.30   13.60
 -15  -3  -1    4.80    6.30
  -3 -15   1   21.60   10.90
 -15  18   1    2.50    4.60
 -18  14   1   65.29    7.50
   4 -18   1   62.19   17.40
  14 -18  -1   52.19   18.80
 -18   4  -1   67.29    8.70
 -18  14   1   56.89    7.30
   4  14  -1   64.89    8.10
  -4 -14   1  119.29   16.40
  18  -4   1   85.89   11.80
  -4  18  -1   68.19    8.80
  18 -14  -1   62.29   15.80
 -14  -4  -1   60.09    9.90
  -4 -14   1   60.69   13.00
 -14  18   1   66.29    7.40
 -18   5  -1   94.89    9.60
   5  13  -1  100.49    8.30
 -18  13   1   75.49    7.70
 -18  13   1  109.79    9.50
  13 -18  -1  103.89   20.90
   5 -18   1   91.09   18.80
 -13  18   1   88.89    9.20
  18 -13  -1   97.69   17.00
 -13  -5  -1   91.39   12.70
  -5 -13   1  112.99   15.90
 -13  -5  -1  110.69   10.80
  -5  18  -1  106.79    9.50
 -18  12   1   93.19    9.40
   6  12  -1   62.69    7.70
   6 -18   1   79.29   18.70
 -18  12   1   88.69    7.20
 -18   6  -1   88.59    9.50
 -12  18   1   74.19    8.70
 -12  -6  -1  102.89   10.50
 -12  -6  -1   91.89   12.60
  18  -6   1   97.39   12.80
  -6  18  -1   99.49    8.60
  -6 -12   1  130.89   15.80
  18 -12  -1   84.19   15.80
   7  11  -1   80.89    7.50
 -18   7  -1   82.59    8.80
  11   7   1   59.89    6.20
 -18  11   1   89.49    9.80
  11 -18  -1   67.59   21.40
   7 -18   1   79.99   18.30
  -7  18  -1   86.99    8.40
  -7 -11   1  120.29   15.20
 -11  -7  -1   76.79    9.20
 -11  -7  -1   91.99   13.40
  18  -7   1  102.89   13.40
  -7 -11   1   81.19   15.30
  18 -11  -1   56.49   16.90
  10 -18  -1   -6.80   15.50
   8 -18   1   -8.40   14.60
 -18  10   1    1.80    5.80
   8 -18   1  -21.50   14.20
   8  10  -1   -0.60    3.90
  -8  18  -1    5.50    5.10
  18  -8   1    1.50    9.70
  -8 -10   1   17.50    9.30
 -10  -8  -1    1.60    7.20
 -10  -8  -1    3.40    6.00
  -8 -10   1    3.20    8.80
   9 -18   1  -25.00   14.00
   9 -18   1   17.10   15.70
   9 -18  -1   13.00   17.10
 -18   9   1   21.40    7.10
   9   9  -1   17.10    4.10
   9   9   1   30.40    4.60
 -18   9  -1   28.20    6.20
  -9  -9   1   24.70   10.90
  -9  18   1   28.30    5.80
  -9  18  -1   24.70    5.30
  18  -9   1   37.40   11.40
  -9  -9  -1   25.90    6.70
  -9  -9  -1   19.30   10.30
  -9  -9   1   45.60   10.40
 -18   8   1    0.30    6.50
   8 -18  -1    1.10   16.40
  10 -18   1   -4.40   15.30
 -18  10  -1    1.40    4.70
   8  10   1   -2.50    3.80
 -10  18  -1   -0.30    4.50
 -10  -8   1   16.00    9.80
  -8  18   1    6.20    4.80
  18  -8  -1   11.00   11.10
  -8 -10  -1   -2.90   10.10
  18 -10   1   24.40   11.20
  -8 -10  -1    5.70    5.50
 -18  11  -1   10.90    5.10
  11 -18   1    5.80   15.40
  11 -18   1   -5.80   12.60
   7  11   1    5.80    4.20
 -18  11  -1    0.80    3.70
  18  -7  -1   20.10   10.80
 -11  18  -1    5.10    5.00
  -7 -11  -1    5.90    5.70
 -11  -7   1    7.50    7.50
  -7 -11  -1   -0.40   10.20
 -11  -7   1   17.40    9.30
  18 -11   1   14.50   11.80
  -7  18   1    5.40    4.90
  12 -18   1  165.48   19.70
 -18  12  -1  140.19    9.60
  12 -18   1  145.09   22.10
   6 -18  -1  146.09   24.70
 -18   6   1  126.59   12.20
   6  12   1  134.29    9.40
 -18  12  -1  122.79    9.30
 -12  18  -1  148.19    9.80
  18 -12   1  159.38   20.40
  -6 -12  -1  138.79   18.20
  -6  18   1  139.29    9.90
 -12  -6   1  146.19   14.80
  -6 -12  -1  147.29   10.90
  18  -6  -1  140.89   13.20
 -18  13  -1  103.09    8.40
  13 -18   1  134.49   18.60
  13   5  -1   86.99   10.70
 -18  13  -1   94.09    7.80
   5  13   1  103.79    8.60
 -18   5   1   84.89   11.20
  13 -18   1  139.69   24.40
   5 -18  -1   77.59   19.90
  18  -5  -1  104.79   11.50
  18 -13   1  109.99   18.80
  -5 -13  -1   92.39   17.50
  -5 -13  -1  121.39    9.40
  -5  18   1   97.29    8.70
 -13  18  -1   63.69    8.90
 -18  14  -1  171.68   10.20
  14 -18   1  240.78   19.00
   4 -18  -1  173.88   25.20
  14 -18   1  171.48   23.50
 -18   4   1  148.69   13.50
  14   4  -1  162.48   12.90
   4  14   1  166.58   10.80
 -14  18  -1  170.68   10.80
  18 -14   1  191.58   22.90
  18  -4  -1  175.98   15.10
  -4 -14  -1  171.08   20.40
  -4  18   1  181.28   11.00
 -14  -4   1  189.28   15.70
  15 -18   1   20.10   16.60
   3  15   1    3.70    4.80
 -18  15  -1   -2.00    4.20
   3 -18  -1    2.90   16.00
  15   3  -1    0.70    6.80
 -18   3   1   10.90    7.80
 -18  15  -1    0.90    4.20
  -3 -15  -1   -7.60   13.20
  18 -15   1   12.90   14.00
 -15  18  -1   10.70    4.80
  18  -3  -1   10.10    8.60
 -15  -3   1   13.00    8.90
  -3  18   1    8.10    5.20
 -18  16  -1  212.48   12.30
  16   2  -1  198.78   15.00
 -18   2   1  204.78   15.50
   2  16   1  227.68   12.80
 -18  16  -1  215.28   11.50
  16 -18   1  231.68   26.40
   2 -18  -1  209.58   26.10
  -2 -16  -1  211.68   22.80
  -2  18   1  237.78   12.60
  18 -16   1  233.68   25.10
 -16  -2   1  215.88   15.80
 -16  18  -1  224.08   12.20
  18  -2  -1  216.78   16.20
   1  17   1    6.70    5.40
 -18   1   1    2.20    7.30
 -18  17  -1   -1.00    4.60
 -18  17  -1   -5.10    3.60
  17 -18   1   22.40   17.00
   1 -18  -1   -6.60   13.80
  17   1  -1    1.10    7.00
  18 -17   1    5.70   15.10
 -17  -1   1    1.40    7.30
  -1  18   1    3.20    5.20
  18  -1  -1    5.60    7.50
  -1 -17  -1    4.00   13.10
 -17  18  -1    7.40    5.10
   0 -18  -1  176.88   23.90
 -18   0   1  188.38   14.70
 -18  18  -1  205.88   11.90
 -18  18  -1  186.48   10.90
  18 -18   1  171.48   23.30
   0  18   1  189.28   11.50
  18   0  -1  187.48   14.90
   0 -19   1   95.49   18.70
 -19  19   1   91.49    9.40
   0  19  -1   87.89    9.80
  19   0   1   88.59   12.00
 -19   0  -1   97.49   10.00
  19 -19  -1   82.89   19.20
   1 -19   1  115.09   22.00
   1  18  -1  119.19   10.10
 -19  18   1  101.99    9.50
  18 -19  -1  108.09   20.00
  18   1   1  106.29   11.80
 -19   1  -1  115.89   10.40
  -1  19  -1  122.19    9.70
  -1 -18   1  115.89   20.00
  19  -1   1  114.09   12.90
 -18  -1  -1  104.89   10.80
  19 -18  -1   85.49   19.60
 -18  19   1  112.09   10.00
   2 -19   1   58.79   16.00
  17   2   1   61.29   10.60
   2  17  -1   75.79    8.90
 -19  17   1   76.29    8.50
 -19   2  -1   66.79    9.00
  17 -19  -1   72.09   18.40
  19 -17  -1   51.49   17.40
 -17  -2  -1   61.69    9.40
  -2  19  -1   78.39    8.60
  -2 -17   1   88.69   15.50
  19  -2   1   71.59   11.70
 -17  19   1   71.49    8.20
   3 -19   1  322.17   27.90
 -19   3  -1  329.67   17.70
 -19  16   1  347.07   16.80
   3  16  -1  345.47   17.00
 -19  16   1  351.56   16.80
  16   3   1  344.27   19.00
  16 -19  -1  298.27   28.90
  -3  19  -1  347.07   16.90
  -3 -16   1  341.27   24.20
  19 -16  -1  326.47   27.10
  19  -3   1  336.77   19.90
 -16  -3  -1  359.56   18.30
 -16  19   1  362.86   16.90
 -19   4  -1   63.79    8.90
   4 -19   1   61.19   17.70
 -19  15   1   69.69    8.00
   4  15  -1   62.29    8.40
 -19  15   1   57.39    7.90
  15 -19  -1   54.79   19.10
 -15  19   1   81.69    8.80
  19  -4   1   77.29   12.00
 -15  -4  -1   64.89    9.80
  19 -15  -1   46.40   16.30
  -4 -15   1   72.69   13.70
  -4  19  -1   84.29    9.30
 -19  14   1  471.15   20.80
 -19  14   1  408.06   19.40
   5 -19   1  401.86   33.60
   5  14  -1  406.06   19.40
 -19   5  -1  429.26   20.90
  14 -19  -1  363.76   32.10
  -5 -14   1  498.45   25.80
  19 -14  -1  406.36   29.30
  -5 -14   1  439.96   26.40
 -14  -5  -1  415.86   23.30
 -14  -5  -1  436.86   21.10
 -14  19   1  422.06   19.60
  -5  19  -1  444.36   19.80
  19  -5   1  442.06   23.40
   6  13  -1   33.50    5.50
  13 -19  -1   56.59   18.70
 -19   6  -1   27.40    6.80
   6 -19   1   40.30   16.60
 -19  13   1   45.80    7.00
  19  -6   1   47.00   10.50
 -13  -6  -1   33.30    9.70
  -6  19  -1   43.40    6.50
 -13  19   1   32.00    5.70
  -6 -13   1   61.29   12.10
  19 -13  -1   42.00   14.30
  -6 -13   1   46.00   12.10
 -13  -6  -1   54.29    8.70
  12 -19  -1  484.95   35.50
   7 -19   1  519.85   35.90
 -19   7  -1  522.35   24.30
   7  12  -1  554.14   23.00
 -19  12   1  546.35   24.80
 -12  -7  -1  520.95   27.80
  -7 -12   1  538.35   28.70
  19  -7   1  511.05   27.80
 -12  -7  -1  539.95   24.90
  -7  19  -1  543.15   23.40
 -12  19   1  522.65   23.10
  -7 -12   1  600.34   29.60
  19 -12  -1  512.95   31.40
   8  11  -1  147.79    9.80
 -19   8  -1  157.78   11.00
  11 -19  -1  120.99   22.40
   8 -19   1  155.68   23.90
 -19  11   1  124.59   12.70
  11   8   1  125.89    9.80
  19 -11  -1  157.48   20.10
 -11  19   1  173.38   10.80
  19  -8   1  156.08   18.20
 -11  -8  -1  168.38   15.70
  -8 -11   1  163.78   15.60
  -8  19  -1  149.19   10.40
 -11  -8  -1  158.88   12.20
  -8 -11   1  217.98   18.10
  10 -19  -1  416.36   34.70
  10   9   1  512.05   21.90
   9 -19   1  523.95   36.70
 -19   9  -1  520.85   23.60
   9  10  -1  496.95   22.00
 -19  10   1  523.25   24.30
  -9 -10   1  590.84   28.90
  -9 -10   1  517.75   26.80
  19  -9   1  513.75   31.20
  -9  19  -1  499.35   22.50
 -10  -9  -1  517.65   24.40
  19 -10  -1  522.65   29.90
 -10  -9  -1  499.65   28.10
 -10  19   1  531.85   22.90
  10 -19   1  137.09   22.80
 -19   9   1  122.89   11.30
   9  10   1  128.39    9.00
 -19  10  -1  142.19   10.60
   9 -19  -1   77.59   21.40
  -9 -10  -1  133.19   11.30
  -9  19   1  130.09    9.60
 -10  19  -1  119.79    9.90
  -9 -10  -1  125.29   16.20
  19  -9  -1  137.89   18.00
 -10  -9   1  149.88   14.90
  19 -10   1  135.39   17.80
 -10  -9   1  127.19   14.10
  11 -19   1  140.49   23.70
   8  11   1  127.19    9.10
   8 -19  -1  127.49   24.30
 -19  11  -1  128.49    9.80
 -19   8   1  127.39   11.70
  19 -11   1  161.88   18.60
  -8  19   1  143.99    9.70
  -8 -11  -1  130.39   11.00
 -11  19  -1  128.49    9.90
  -8 -11  -1  117.99   17.00
 -11  -8   1  130.09   13.80
 -11  -8   1  154.58   15.00
  19  -8  -1  132.29   16.90
 -19  12  -1  141.09   10.10
  12 -19   1  183.18   24.70
 -19  12  -1  156.78    9.90
   7  12   1  145.59    9.90
  12 -19   1  121.39   23.20
   7 -19  -1  144.49   25.70
 -19   7   1  147.19   12.40
  -7 -12  -1  148.59   17.80
  -7 -12  -1  155.18   11.60
  19 -12   1  159.98   19.10
 -12  -7   1  136.79   13.90
  -7  19   1  155.28   10.20
 -12  19  -1  148.29   10.10
  19  -7  -1  143.49   16.80
  13 -19   1    0.90   13.60
   6 -19  -1    5.70   17.00
 -19  13  -1   17.90    5.10
 -19   6   1   17.00    7.60
  13 -19   1    6.00   17.00
 -19  13  -1    9.00    4.60
   6  13   1   11.40    5.00
  -6 -13  -1   23.30    6.00
  19  -6  -1   12.70   10.20
  19 -13   1   18.90   14.70
 -13  -6   1   18.40    9.80
  -6 -13  -1   17.50   12.40
 -13  19  -1   12.90    5.10
  -6  19   1   22.70    5.70
  14 -19   1   65.99   18.10
 -19   5   1   52.59    9.40
  14   5  -1   61.49   10.00
   5 -19  -1   53.39   19.00
   5  14   1   63.79    7.40
 -19  14  -1   56.09    6.40
 -19  14  -1   61.89    7.70
 -14  19  -1   70.09    7.70
 -14  -5   1   60.49   11.00
  -5 -14  -1   51.99   14.20
  19  -5  -1   49.00   11.30
  -5  19   1   72.39    8.80
  15 -19   1   31.30   11.80
  15   4  -1    5.60    6.80
 -19  15  -1    3.50    4.50
 -19  15  -1   -8.30    4.20
  15 -19   1    5.00   17.50
 -19   4   1   -3.80    6.70
   4 -19  -1    5.60   15.90
   4  15   1    3.10    5.60
  -4 -15  -1   11.30   12.60
 -15  -4   1    4.00    8.10
 -15  19  -1    2.90    5.10
  -4  19   1    7.70    5.30
  19 -15   1    5.40   14.20
  19  -4  -1    8.90    9.00
   3  16   1   71.39    9.00
  16   3  -1   64.99   10.40
 -19  16  -1   60.19    8.20
 -19   3   1   67.09   10.70
 -19  16  -1   70.49    8.00
  16 -19   1   92.19   19.70
   3 -19  -1   61.89   17.90
  19  -3  -1   66.59   12.70
 -16  19  -1   73.49    8.80
 -16  -3   1   76.09   11.60
  19 -16   1  103.69   19.30
  -3 -16  -1   69.69   15.90
  -3  19   1   65.69    8.20
 -19   2   1  105.19   12.10
 -19  17  -1  112.39    9.20
   2  17   1  119.39   10.00
   2 -19  -1  102.29   20.40
  17 -19   1  105.69   19.90
 -19  17  -1   93.99    9.10
  17   2  -1  120.59   12.40
 -17  -2   1  112.79   12.80
  -2  19   1  126.99   10.00
  -2 -17  -1  130.29   20.90
 -17  19  -1  135.59    9.80
  19  -2  -1  120.89   13.60
  19 -17   1  129.49   22.00
   1 -19  -1    4.60   15.20
  18   1  -1    5.00    8.20
  18 -19   1   18.00   16.10
 -19  18  -1    0.00    4.70
 -19  18  -1    1.70    5.10
   1  18   1    3.30    5.20
 -19   1   1    1.60    6.80
 -18  19  -1    9.10    5.10
  -1  19   1    4.50    5.20
  19  -1  -1    2.10    8.10
 -18  -1   1    2.60    7.70
  -1 -18  -1    8.20   14.10
  19 -18   1   13.70   15.30
 -19   0   1  278.87   18.10
 -19  19  -1  284.97   15.00
  19 -19   1  285.57   27.30
   0 -19  -1  284.97   25.80
   0  19   1  268.57   14.50
  19   0  -1  236.88   17.90
   0  20  -1   19.60    6.20
  20 -20  -1    8.60   16.80
  20   0   1   15.50    8.80
 -20  20   1   15.10    6.10
   0 -20   1    8.10   13.50
 -20   0  -1   15.80    7.30
  19   1   1   27.70    8.60
  19 -20  -1   20.00   16.70
 -20   1  -1   26.10    7.20
 -20  19   1   18.50    6.10
   1  19  -1   20.10    6.30
   1 -20   1   15.30   14.50
  20 -19  -1    9.30   16.40
  20  -1   1   29.10    9.00
 -19  20   1   14.30    5.90
  -1  20  -1   10.80    5.80
 -19  -1  -1   29.60    7.20
  -1 -19   1    8.40   13.00
   2  18  -1    4.00    5.90
 -20  18   1    4.40    5.20
  18 -20  -1    3.80   16.10
  18   2   1    1.50    7.50
 -20   2  -1   13.00    6.50
   2 -20   1   -2.40   13.80
  -2  20  -1   12.60    6.00
 -18  -2  -1    7.30    6.60
 -18  20   1   -2.40    5.60
  20 -18  -1   -2.60   15.70
  20  -2   1   -1.10    7.90
  -2 -18   1    5.40   11.90
 -20  17   1   -5.70    4.90
   3  17  -1    0.60    5.60
   3 -20   1   -1.00   13.50
  17 -20  -1    2.20   17.40
  17   3   1   -3.10    7.00
 -20   3  -1    3.40    5.90
 -17  20   1    5.00    5.20
  -3 -17   1    2.60   11.40
  20  -3   1    6.10    7.80
  20 -17  -1   -9.40   14.60
 -17  -3  -1    0.90    6.30
  -3  20  -1    5.90    5.40
  16   4   1   63.19   10.00
   4  16  -1   69.89    8.80
 -20  16   1   63.69    8.60
   4 -20   1   72.59   17.70
 -20   4  -1   73.69    9.20
 -20  16   1   69.89    8.70
  16 -20  -1   58.09   19.40
  -4 -16   1  131.99   17.40
  20 -16  -1   63.39   17.40
 -16  20   1   76.49    8.30
  -4  20  -1   77.59    9.40
  -4 -16   1   58.99   13.80
  20  -4   1   67.09   12.20
 -16  -4  -1   76.69    9.70
   5 -20   1   66.79   18.20
 -20   5  -1   60.69    8.40
  15 -20  -1   61.49   19.40
 -20  15   1   64.59   11.30
   5  15  -1   57.09    7.00
  20 -15  -1   57.19   16.40
  -5 -15   1  110.39   16.00
 -15  20   1   74.29    8.10
 -15  -5  -1   57.69    9.20
  -5  20  -1   80.19    8.40
  -5 -15   1   46.50   13.00
  20  -5   1   78.89   12.20
   6  14  -1    7.20    5.10
   6 -20   1   16.60   15.60
  14 -20  -1   13.10   16.70
 -20   6  -1   14.20    5.80
 -20  14   1   15.60    6.10
  -6  20  -1   17.60    5.50
 -14  20   1    7.30    5.40
 -14  -6  -1    7.90    6.20
  20 -14  -1   -1.50   14.30
  20  -6   1   10.40    9.00
 -14  -6  -1   14.30    8.70
  -6 -14   1   11.80   10.30
   7 -20   1   71.99   19.30
 -20   7  -1   64.99    8.70
 -20  13   1   69.99    9.40
   7  13  -1   67.69    8.10
  13 -20  -1   56.99   18.80
  -7  20  -1   80.89    9.20
 -13  -7  -1   72.29   12.50
  20  -7   1   81.39   13.90
  20 -13  -1   75.59   15.80
 -13  -7  -1   79.19   10.30
  -7 -13   1  128.49   16.40
 -13  20   1   54.09    8.00
  -7 -13   1   67.49   12.60
 -20  12   1   -0.20    5.50
 -20   8  -1    3.20    5.50
  12 -20  -1  -15.00   15.70
   8 -20   1    0.50   16.40
   8  12  -1   -3.10    4.60
 -12  -8  -1    8.00    6.00
  -8 -12   1   27.20   10.20
 -12  20   1   -2.70    4.70
  20  -8   1   13.30   10.90
  -8 -12   1   -2.70    8.60
  -8  20  -1    1.70    5.00
  20 -12  -1    7.90   13.20
 -12  -8  -1    1.20    8.90
 -20  11   1   95.59   10.90
   9 -20   1  109.19   22.60
  11 -20  -1   86.39   21.40
 -20   9  -1  104.79    9.10
  -9 -11   1   86.79   13.50
  20 -11  -1  105.69   18.00
  -9  20  -1   94.69    8.60
 -11  -9  -1  106.39   10.70
  -9 -11   1  104.79   14.10
 -11  -9  -1   92.49   14.40
 -11  20   1   97.19    8.50
  20  -9   1   91.29   15.80
 -20  10   1    5.00    6.30
  10  10   1   -7.10    4.10
  10 -20  -1    5.10   17.40
 -20  10  -1    0.10    5.40
  20 -10  -1   -2.30   12.40
 -10  20   1    2.40    4.80
 -10 -10   1   10.10    8.80
 -10 -10  -1    6.10    6.30
  20 -10   1    6.20   11.60
 -10 -10   1   -3.30    8.40
 -10 -10  -1   -1.10    9.70
 -10  20  -1   -4.80    4.70
   9 -20  -1   67.79   19.80
 -20  11  -1   83.39    9.10
   9  11   1   71.59    7.90
 -20   9   1   83.59    9.80
 -11  -9   1  121.09   15.50
  -9 -11  -1   58.69   12.80
  -9 -11  -1   92.09   10.00
  20 -11   1  120.09   19.60
  -9  20   1   75.19    8.40
  20  -9  -1   75.69   14.80
 -11  20  -1   54.59    7.90
 -11  -9   1   76.69   12.70
 -20   8   1    3.50    6.40
   8 -20  -1    4.20   16.10
 -20  12  -1    7.50    4.90
   8  12   1    0.30    4.80
  20 -12   1   20.20   13.20
  -8 -12  -1    1.00   10.90
 -12  -8   1    5.00    8.50
  20  -8  -1   13.80   11.30
 -12  20  -1    5.60    5.00
  -8  20   1   10.30    5.10
  -8 -12  -1    3.50    5.80
 -12  -8   1   18.00    9.30
 -20   7   1    5.50    6.90
   7  13   1   -1.70    4.80
 -20  13  -1   -1.30    4.60
  13 -20   1   16.70   17.20
   7 -20  -1    1.00   17.00
  -7  20   1    8.50    5.00
  20  -7  -1   -1.90   10.70
 -13  20  -1    7.20    5.00
  20 -13   1   20.30   13.10
  -7 -13  -1    6.30   10.50
  -7 -13  -1    3.90    5.30
 -13  -7   1    9.80    9.00
  14 -20   1   77.39   19.60
  14   6  -1   57.09   10.50
 -20   6   1   63.39   10.40
 -20  14  -1   73.59    7.40
   6 -20  -1   66.29   19.50
 -20  14  -1   49.10    6.80
   6  14   1   67.99    8.30
 -14  -6   1   72.99   12.10
  -6  20   1   75.09    8.30
 -14  20  -1   86.69    8.80
  20  -6  -1   83.89   14.70
  20 -14   1   83.09   18.10
  -6 -14  -1   54.29   13.80
 -20   5   1   -4.00    6.90
   5  15   1   -5.00    5.30
   5 -20  -1    0.60   16.30
  15   5  -1   -2.40    6.80
 -20  15  -1    6.00    4.50
  15 -20   1    3.20   15.30
 -15  20  -1    4.60    4.80
  -5  20   1    0.60    5.00
  -5 -15  -1    3.80   11.50
  20  -5  -1    1.00    9.00
 -15  -5   1   14.60    8.60
  20 -15   1    7.60   15.70
   4 -20  -1  136.89   24.40
  16 -20   1  126.59   23.10
  16   4  -1  131.29   12.50
 -20   4   1  126.39   12.20
   4  16   1  132.39   10.20
 -20  16  -1  142.99   10.20
 -20  16  -1  124.29    9.20
  -4  20   1  149.69   10.90
  20  -4  -1  137.19   15.20
  20 -16   1  145.99   23.60
 -16  20  -1  138.59   10.10
  -4 -16  -1  111.39   18.50
 -16  -4   1  165.48   14.80
   3  17   1    2.80    5.10
 -20   3   1    7.10    7.30
  17 -20   1    3.00   16.90
  17   3  -1    6.70    7.40
 -20  17  -1   -1.60    4.50
   3 -20  -1    7.90   15.70
 -20  17  -1    6.00    5.20
  -3 -17  -1    1.30   12.80
  -3  20   1    6.60    5.40
  20  -3  -1   -0.10    8.80
 -17  20  -1   12.50    5.20
 -17  -3   1    8.00    8.00
  20 -17   1   27.70   15.70
 -20   2   1   86.89   11.40
  18 -20   1  110.09   21.80
   2  18   1   97.59    9.10
  18   2  -1   86.59   11.70
   2 -20  -1   79.79   19.50
 -20  18  -1   79.39    8.10
 -20  18  -1   68.69    9.10
  -2  20   1   92.69    9.70
 -18  -2   1   88.79   12.30
  20 -18   1   85.39   19.60
  20  -2  -1   76.99   13.10
 -18  20  -1  107.89    9.70
  -2 -18  -1   96.99   17.30
 -20  19  -1   18.60    6.00
  19 -20   1   41.10   17.90
   1  19   1   41.80    6.60
 -20  19  -1   25.20    5.70
   1 -20  -1   31.00   16.90
 -20   1   1   57.89    9.60
  19   1  -1   28.60    9.00
 -19  -1   1   37.70    9.00
  20  -1  -1   27.90   10.00
  20 -19   1   29.30   17.20
  -1 -19  -1   40.10   16.20
  -1  20   1   32.30    6.30
 -19  20  -1   36.90    6.60
   0  20   1   28.50    6.30
 -20  20  -1   28.90    6.80
   0 -20  -1   36.30   16.50
 -20   0   1   22.30    9.00
  20 -20   1   34.80   17.40
  20   0  -1   20.90    9.20
   0 -21   1   20.30   14.50
  21 -21  -1    6.10   18.30
   0  21  -1   25.50    7.20
  21   0   1   20.20    9.60
 -21   0  -1   22.30    7.70
 -21  21   1    7.90    6.90
   1  20  -1   25.80    6.50
   1 -21   1   39.00   15.50
  20 -21  -1   16.20   17.80
 -21   1  -1   27.30    7.50
  20   1   1   27.20    9.10
 -21  20   1   17.20    6.70
  -1 -20   1   17.30   14.20
  21 -20  -1   18.70   17.60
  21  -1   1   17.50    9.40
  -1  21  -1   28.70    7.30
 -20  -1  -1   33.90    8.10
 -20  21   1   18.60    6.80
  19   2   1   42.40    9.80
   2  19  -1   63.19    9.10
 -21   2  -1   72.89    9.50
   2 -21   1   56.49   17.50
 -21  19   1   52.29    7.90
  19 -21  -1   63.49   20.40
  21 -19  -1   73.89   19.90
  -2 -19   1   58.49   15.40
 -19  21   1   61.19    8.70
 -19  -2  -1   71.99   10.80
  21  -2   1   50.59   10.70
  -2  21  -1   69.39    9.50
  18 -21  -1  121.09   22.80
 -21   3  -1  141.79   11.00
  18   3   1   94.79   12.30
   3  18  -1  122.79   10.80
   3 -21   1  126.99   23.80
 -18  -3  -1  129.59   11.50
 -18  21   1   99.39   10.80
  21  -3   1  120.09   14.10
  21 -18  -1  105.09   21.20
  -3  21  -1  132.49   10.20
  -3 -18   1  147.89   18.30
 -21   4  -1   69.29    9.10
  17 -21  -1   55.49   19.90
   4 -21   1   85.99   20.20
   4  17  -1   68.39    9.30
  17   4   1   63.99   10.70
 -21  17   1   70.89    8.90
  -4  21  -1   83.59    8.80
 -17  -4  -1   85.59   10.40
  21  -4   1   69.49   12.90
  -4 -17   1   78.09   14.80
  21 -17  -1   78.59   18.40
 -17  21   1   71.79    8.30
 -21   5  -1  437.26   21.80
  16   5   1  422.46   22.80
  16 -21  -1  429.36   33.30
 -21  16   1  461.35   21.50
   5  16  -1  470.45   21.10
   5 -21   1  430.56   32.50
 -16  21   1  471.45   21.00
  21 -16  -1  395.26   31.10
  21  -5   1  439.96   24.60
  -5  21  -1  462.45   20.90
  -5 -16   1  424.46   27.20
 -16  -5  -1  443.66   22.60
 -21  15   1   84.49    9.30
  15 -21  -1   60.99   19.60
 -21   6  -1   81.79    9.30
   6  15  -1   89.99    9.30
   6 -21   1   73.59   19.40
  -6 -15   1   73.59   13.70
  21 -15  -1   86.49   18.00
 -15  -6  -1   87.39   10.90
 -15  21   1   96.39    8.90
  21  -6   1   89.79   14.10
  -6 -15   1  146.79   16.30
  -6  21  -1   81.59    8.80
  14 -21  -1  466.45   34.30
   7 -21   1  461.15   35.50
 -21   7  -1  470.45   22.30
 -21  14   1  465.25   22.50
   7  14  -1  483.65   21.50
  21  -7   1  464.35   26.50
  -7 -14   1  489.45   27.50
  -7 -14   1  475.25   27.10
 -14  -7  -1  475.15   22.90
 -14  21   1  463.15   21.30
  -7  21  -1  491.35   21.70
  21 -14  -1  439.36   31.30
 -14  -7  -1  455.65   25.60
 -21  13   1  151.18   11.60
  13 -21  -1  130.89   22.80
   8  13  -1  141.09   10.80
 -21   8  -1  152.38   11.00
   8 -21   1  139.19   24.40
  21 -13  -1  132.09   19.90
  -8 -13   1  188.48   17.70
  -8 -13   1  151.48   16.20
 -13  21   1  152.28   10.60
 -13  -8  -1  169.48   13.10
 -13  -8  -1  146.79   15.60
  -8  21  -1  151.68   10.40
  21  -8   1  161.28   17.40
   9 -21   1  439.86   34.90
  12 -21  -1  408.06   33.30
 -21  12   1  415.76   20.70
  21 -12  -1  386.66   27.60
 -12  21   1  401.36   19.10
 -12  -9  -1  404.66   24.10
  -9 -12   1  401.26   23.80
 -21  10  -1  127.69   10.10
  11 -21  -1  135.59   26.10
  10 -21   1  118.19   21.90
 -21  11   1  128.59   11.00
  21 -10   1  141.89   18.10
 -11  21   1  122.09    9.70
 -10 -11   1  146.39   16.20
 -10 -11   1  113.19   14.70
 -10  21  -1  121.39    9.50
 -11 -10  -1  132.59   15.90
 -11 -10  -1  144.69   11.50
  21 -11  -1  100.49   19.60
 -21  11  -1  182.68   12.30
 -21  10   1  178.88   13.50
  11 -21   1  160.68   28.50
  10 -21  -1  152.08   26.50
 -10 -11  -1  192.58   13.30
 -11 -10   1  195.38   16.30
 -10  21   1  183.28   11.20
  21 -10  -1  168.28   20.40
  21 -11   1  189.68   20.50
 -11  21  -1  178.68   11.40
 -11 -10   1  166.28   15.80
  12 -21   1   87.99   20.80
   9  12   1   64.39    8.60
   9 -21  -1   51.69   19.60
 -21  12  -1   91.49    9.00
 -21   9   1   77.99    9.80
 -12  21  -1   90.99    8.60
 -12  -9   1   67.69   12.30
  21  -9  -1   74.79   15.10
  21 -12   1   95.19   17.20
  -9 -12  -1   78.19   14.90
  -9 -12  -1   97.29   10.30
  -9  21   1   88.99    8.40
 -12  -9   1  119.69   14.10
   8  13   1  161.38   11.30
 -21  13  -1  166.18   11.10
 -21   8   1  181.68   13.60
  13 -21   1  149.79   26.10
   8 -21  -1  159.58   26.10
  -8  21   1  163.48   11.00
 -13  21  -1  180.98   11.80
  21 -13   1  219.08   23.40
  -8 -13  -1  193.28   13.10
 -13  -8   1  190.18   16.00
  -8 -13  -1  170.88   18.50
  21  -8  -1  172.48   18.70
 -21  14  -1   59.89    7.30
   7 -21  -1   64.99   20.00
   7  14   1   41.30    6.30
  14 -21   1   58.79   20.40
  14   7  -1   57.39    9.40
 -21   7   1   57.59    8.90
  21 -14   1   77.19   17.00
  21  -7  -1   61.29   13.30
  -7 -14  -1   60.29   14.00
  -7  21   1   66.29    8.20
 -14  21  -1   65.99    8.00
 -14  -7   1   75.99   12.40
  15 -21   1    9.90   18.20
 -21   6   1   -0.30    6.80
  15   6  -1    4.70    7.10
   6 -21  -1   18.40   17.70
   6  15   1    5.60    5.50
 -21  15  -1   11.30    5.10
  21 -15   1    7.40   15.20
  21  -6  -1   10.40   10.70
  -6 -15  -1   16.00   11.90
 -15  21  -1   12.30    5.30
 -15  -6   1   16.60    8.60
  -6  21   1    5.20    5.20
   5  16   1   61.49    8.80
   5 -21  -1   59.19   19.20
  16 -21   1   75.79   20.70
 -21   5   1   63.59    9.50
 -21  16  -1   82.79    8.50
 -21  16  -1   60.29    7.30
  16   5  -1   65.69   10.60
 -16  21  -1   61.39    8.20
  -5 -16  -1   65.39   15.00
 -16  -5   1   79.79   12.00
  -5  21   1   44.50    6.80
  21  -5  -1   63.69   12.50
  21 -16   1   70.29   18.60
 -21  17  -1   16.50    5.80
 -21  17  -1   23.70    5.40
  17 -21   1   31.70   18.20
   4 -21  -1   42.80   18.00
 -21   4   1   20.50    8.10
   4  17   1   40.50    6.80
  17   4  -1   31.40    8.60
  -4  21   1   33.80    6.20
 -17  21  -1   39.60    6.70
  -4 -17  -1   40.10   14.00
 -17  -4   1   32.60    9.20
  21  -4  -1   23.70   10.60
  21 -17   1   33.70   17.20
  18   3  -1   15.70    8.50
 -21  18  -1   13.20    5.90
  18 -21   1   11.30   17.80
   3  18   1   19.20    6.00
 -21   3   1   25.20    8.00
 -21  18  -1   19.70    5.70
   3 -21  -1   16.70   16.80
  -3  21   1   27.10    6.00
 -18  -3   1   21.90    9.00
 -18  21  -1   27.60    6.50
  21 -18   1   29.20   18.00
  -3 -18  -1   16.30   13.80
  21  -3  -1   19.20   10.00
   2 -21  -1  150.78   25.40
 -21   2   1  150.48   13.30
   2  19   1  141.39   10.70
  19 -21   1  197.28   27.80
  19   2  -1  133.49   14.50
 -21  19  -1  128.99   10.40
  21 -19   1  157.38   25.30
 -19  21  -1  151.68   10.90
  21  -2  -1  133.09   15.50
  -2 -19  -1  158.28   22.30
  -2  21   1  164.78   11.50
 -19  -2   1  136.69   13.80
 -21   1   1    0.70    7.90
   1 -21  -1   23.00   16.50
   1  20   1    4.40    5.90
 -21  20  -1   11.30    6.40
  20   1  -1    7.90    9.10
  20 -21   1   18.60   20.10
  21 -20   1    3.50   17.30
  -1 -20  -1    0.50   14.30
 -20  -1   1   10.00    8.40
 -20  21  -1    9.10    6.50
  -1  21   1   16.30    6.20
  21  -1  -1   13.10    9.40
   0 -21  -1  162.38   24.40
   0  21   1  162.48   12.00
  21   0  -1  167.68   16.20
 -21   0   1  176.08   14.60
  21 -21   1  228.68   30.60
 -21  21  -1  160.68   12.60
 -22  22   1   -9.80    7.00
   0 -22   1   -2.90   14.90
 -22   0  -1   10.50    7.00
   0  22  -1    7.20    6.40
  22 -22  -1   12.70   18.30
  22   0   1   -4.50    8.70
  21   1   1    1.40    8.90
   1  21  -1    2.40    6.70
 -22  21   1   -9.20    6.40
   1 -22   1    0.20   14.80
 -22   1  -1    3.60    6.70
  21 -22  -1   -9.50   18.70
  -1 -21   1    2.80   13.40
  22  -1   1    5.70    8.90
 -21  -1  -1    9.60    7.10
  -1  22  -1    0.60    6.20
  22 -21  -1  -12.80   18.10
 -21  22   1  -13.40    6.30
 -22   2  -1    4.00    6.40
 -22  20   1   -2.50    6.20
  20 -22  -1    1.10   18.90
   2  20  -1    0.20    6.70
   2 -22   1    2.20   16.20
  20   2   1   -1.10    8.40
 -20  22   1   -5.20    6.60
  -2  22  -1    2.90    6.30
  -2 -20   1   -1.70   12.60
 -20  -2  -1    4.70    6.80
  22 -20  -1  -21.80   16.30
  22  -2   1    2.00    9.10
  19   3   1    3.30    8.00
 -22   3  -1    4.20    6.50
   3 -22   1   -3.30   15.70
  19 -22  -1  -18.90   18.10
   3  19  -1  -14.40    6.30
 -19  -3  -1   -4.10    6.30
  -3 -19   1   -6.60   12.20
  22 -19  -1   -5.20   17.10
  22  -3   1   10.80    9.50
 -19  22   1   -4.00    5.60
  -3  22  -1   -1.20    6.20
  18 -22  -1   29.80   19.40
   4 -22   1   42.80   18.30
  18   4   1   25.00    8.70
 -22   4  -1   29.10    7.30
   4  18  -1   12.90    6.70
  -4 -18   1   35.20   13.30
 -18  22   1   17.50    6.60
  22 -18  -1   15.30   17.70
 -18  -4  -1   31.20    7.90
  22  -4   1   28.90   10.30
  -4  22  -1   20.10    6.30
   5  17  -1   -0.80    6.00
  17   5   1    6.30    7.50
   5 -22   1   12.20   16.60
  17 -22  -1    7.20   18.70
 -22  17   1    0.70    5.80
 -22   5  -1    3.10    6.20
  -5  22  -1    4.80    6.00
  22 -17  -1   -2.50   16.00
  -5 -17   1    0.90   11.90
 -17  -5  -1   16.20    7.40
 -17  22   1   -2.70    5.40
  22  -5   1    6.10    9.30
 -22  16   1   75.09    9.50
   6  16  -1   76.39    8.60
  16   6   1   73.79   11.50
 -22   6  -1   75.59    9.30
   6 -22   1   73.39   19.70
  16 -22  -1   45.00   19.70
 -16  -6  -1   80.79   10.50
  22 -16  -1   74.29   18.40
  -6 -16   1   76.19   14.30
  22  -6   1   65.59   12.70
  -6  22  -1   82.39    9.70
 -16  22   1   87.69    9.20
  15 -22  -1   35.80   18.20
 -22  15   1   28.50    6.70
 -22   7  -1   22.90    6.40
   7 -22   1   21.50   18.00
  -7 -15   1   51.59   12.50
  -7  22  -1   33.80    6.50
  -7 -15   1   28.70   11.70
  22  -7   1   32.20   11.20
 -15  22   1   36.60    6.60
  22 -15  -1   37.50   16.40
 -15  -7  -1   32.60    8.30
  14 -22  -1   -2.60   17.40
 -22   8  -1    6.90    5.70
   8 -22   1   14.60   17.70
 -22  14   1    9.90    6.20
 -14  -8  -1   29.40    7.60
 -14  22   1   13.10    5.50
  -8  22  -1   12.00    5.70
  22  -8   1   32.80   11.80
  -8 -14   1   -4.40   10.10
 -14  -8  -1   17.80    9.30
  -8 -14   1   26.50   11.40
  22 -14  -1    5.00   15.30
  13 -22  -1   82.09   21.20
   9 -22   1   95.89   21.80
 -22  13   1   79.89    9.40
 -22   9  -1   82.79    9.60
 -13  -9  -1   91.89   11.30
  -9  22  -1   65.69    8.60
  -9 -13   1  115.49   15.50
 -13  -9  -1   69.79   13.40
 -13  22   1   91.49    9.10
  -9 -13   1   76.69   13.70
  22 -13  -1   72.89   16.90
  22  -9   1   89.29   16.30
 -22  12   1    5.20    6.10
  12 -22  -1    6.50   18.30
 -22  10  -1    2.40    5.50
  10 -22   1   12.20   17.60
  22 -10   1    7.80   12.30
 -12  22   1    0.80    5.20
 -10 -12   1    9.30   10.90
  22 -12  -1    3.60   13.70
 -10  22  -1    1.00    5.20
 -12 -10  -1   -1.30    9.10
 -12 -10  -1    9.10    7.10
 -10 -12   1    8.20    9.70
  11 -22  -1   28.10   18.60
 -22  11  -1   25.30    6.30
  11 -22   1    8.00   18.20
 -22  11   1   21.30    7.00
 -11 -11  -1   17.60   10.90
 -11 -11  -1   36.10    8.30
  22 -11  -1   15.60   13.80
 -11 -11   1   44.50   12.00
 -11  22   1   23.50    6.00
  22 -11   1   22.60   13.40
 -11  22  -1   21.30    5.90
 -11 -11   1   18.40    9.40
  10 -22  -1    0.10   17.80
  12 -22   1    2.00   18.70
 -22  12  -1    8.50    5.50
 -22  10   1    5.70    6.90
  22 -12   1    8.80   14.10
 -10 -12  -1    0.50   10.00
 -10 -12  -1    7.60    6.80
 -12 -10   1    1.40    8.80
  22 -10  -1    6.90   13.20
 -12  22  -1    2.50    5.20
 -12 -10   1   21.10   10.20
 -10  22   1    0.40    5.30
   9 -22  -1   -1.40   17.90
   9  13   1   -8.00    5.10
  13 -22   1   17.80   19.20
 -22  13  -1   -0.60    5.20
 -22   9   1    4.00    6.50
  -9  22   1    5.00    5.30
 -13  22  -1    4.20    5.40
 -13  -9   1   14.70    9.80
  -9 -13  -1    1.30   10.40
  -9 -13  -1    7.40    6.80
  22 -13   1   13.50   14.30
  22  -9  -1   12.00   13.30
  14   8  -1    5.60    7.40
   8 -22  -1    6.60   18.10
 -22   8   1    7.80    6.60
  14 -22   1   -0.60   18.10
 -22  14  -1   10.60    5.40
  22  -8  -1    7.30   11.90
 -14  -8   1   21.00   10.10
 -14  22  -1    9.80    5.50
  -8  22   1   10.90    5.50
  -8 -14  -1    4.20   11.20
  22 -14   1    7.50   16.30
   7 -22  -1   -4.60   17.90
 -22   7   1    3.60    6.40
   7  15   1    0.00    5.50
  15 -22   1  -10.10   17.10
  15   7  -1    5.40    7.00
 -22  15  -1   -1.80    5.10
  22  -7  -1    1.40   11.70
  22 -15   1   22.60   16.80
  -7 -15  -1    4.00   12.00
 -15  -7   1   15.70    8.40
 -15  22  -1    2.60    5.20
  -7  22   1   11.70    5.40
   6 -22  -1   24.10   17.70
 -22   6   1   20.30    7.60
 -22  16  -1   19.40    5.70
  16   6  -1   24.30    8.30
  16 -22   1   59.39   21.20
   6  16   1   18.40    6.20
  22 -16   1   36.50   17.60
 -16  -6   1   36.00    9.80
  22  -6  -1   35.90   12.30
 -16  22  -1   31.60    6.30
  -6  22   1   33.50    6.30
  -6 -16  -1   30.30   13.20
   5  17   1   38.30    6.70
 -22  17  -1   40.00    6.50
  17 -22   1   61.79   21.50
  17   5  -1   28.60    9.00
   5 -22  -1   50.69   20.30
 -22   5   1   46.60    8.70
  -5 -17  -1   42.60   14.60
  22  -5  -1   43.90   12.40
  -5  22   1   61.79    8.50
 -17  22  -1   51.39    7.40
 -17  -5   1   48.80   10.70
  22 -17   1   45.10   18.10
 -22  18  -1   30.10    6.30
   4  18   1   40.80    7.10
  18   4  -1   31.20    9.40
 -22   4   1   42.80    8.60
  18 -22   1   28.00   19.70
 -22  18  -1   21.50    6.30
   4 -22  -1   45.70   19.50
 -18  -4   1   46.40   10.10
 -18  22  -1   40.10    7.10
  -4  22   1   42.50    6.80
  22 -18   1   64.49   21.00
  -4 -18  -1   26.40   14.80
  22  -4  -1   28.00   11.50
   3  19   1   61.39    8.20
 -22  19  -1   51.39    7.40
  19   3  -1   43.40   10.10
 -22  19  -1   66.39    9.60
  19 -22   1   54.29   22.30
 -22   3   1   52.89    9.70
   3 -22  -1   36.50   18.60
 -19  -3   1   58.09   10.60
  22  -3  -1   48.60   12.20
 -19  22  -1   72.99   10.00
  22 -19   1   68.59   22.20
  -3 -19  -1   47.00   15.90
  -3  22   1   78.19   10.00
 -22  20  -1    5.90    6.10
   2  20   1   10.30    6.60
 -22   2   1   13.40    8.10
  20   2  -1    8.80    9.30
  20 -22   1   35.30   22.70
 -22  20  -1   16.00    6.20
   2 -22  -1   29.90   17.50
  -2 -20  -1   14.80   15.50
  -2  22   1   16.10    6.60
 -20  22  -1   11.00    6.60
 -20  -2   1   25.70    9.30
  22 -20   1   34.30   19.00
  22  -2  -1   14.70   10.00
  21   1  -1   54.49   11.40
   1  21   1   47.80    7.50
  21 -22   1   92.49   24.80
 -22  21  -1   52.29    8.20
   1 -22  -1   62.49   18.40
 -22   1   1   51.39    9.60
 -21  -1   1   51.59   10.50
 -21  22  -1   45.10    7.90
  22 -21   1   59.89   20.30
  -1 -21  -1   27.20   16.30
  22  -1  -1   47.70   11.50
  -1  22   1   47.50    7.50
 -22  22  -1    7.60    6.60
 -22   0   1   24.00    8.50
   0 -22  -1   14.40   15.70
  22 -22   1   29.20   22.20
  22   0  -1   -0.50    9.30
   0  22   1    6.70    6.30
   1 -23   1   -6.20   14.10
  22   1   1    0.70    9.10
  22 -23  -1    7.70   20.00
  -1 -22   1    8.10   13.90
  23  -1   1   11.10    9.90
  23 -22  -1   -8.10   18.10
  21 -23  -1   27.90   19.90
   2  21  -1   12.20    7.00
  21   2   1   20.20    9.30
 -23   2  -1   34.80    8.10
   2 -23   1   37.20   16.70
 -21  23   1   21.10    7.30
  23  -2   1   34.70   10.60
  -2 -21   1   33.90   15.30
  -2  23  -1   31.90    7.70
 -21  -2  -1   30.90    8.00
  23 -21  -1    5.80   18.20
 -23   3  -1   47.90    8.20
   3 -23   1   48.40   18.80
   3  20  -1   34.70    7.70
  20   3   1   38.40    9.90
  20 -23  -1   44.70   21.30
  23 -20  -1   22.20   19.20
  -3  23  -1   43.40    7.30
 -20  23   1   38.30    8.20
 -20  -3  -1   39.50    8.60
  -3 -20   1   43.20   14.70
  23  -3   1   56.19   12.00
  19 -23  -1   31.10   20.50
 -23   4  -1   31.30    7.50
   4 -23   1   47.00   18.80
   4  19  -1   23.50    7.30
  19   4   1   33.30    9.40
  -4  23  -1   43.90    7.10
  23 -19  -1   24.60   18.70
  -4 -19   1   40.20   14.20
 -19  23   1   42.30    7.50
  23  -4   1   44.70   11.00
 -19  -4  -1   49.90    8.90
 -23  18   1  118.09   10.90
   5  18  -1   95.39   11.80
 -23   5  -1  134.49   11.70
  18 -23  -1  117.79   23.90
  18   5   1  101.39   12.90
   5 -23   1  141.19   23.90
  -5 -18   1  145.69   20.30
  -5  23  -1  105.29   10.50
 -18  -5  -1  128.59   12.70
 -18  23   1  109.79   11.20
  23 -18  -1  113.89   21.90
  23  -5   1  140.59   17.30
   6 -23   1   48.80   19.90
 -23  17   1   33.10    7.40
  17   6   1   29.70    9.20
   6  17  -1   21.60    7.10
 -23   6  -1   31.10    7.20
  17 -23  -1   26.20   18.70
  -6 -17   1   26.60   12.60
  -6  23  -1   35.20    7.20
  23 -17  -1   17.00   17.60
 -17  -6  -1   40.70    9.20
 -17  23   1   30.00    7.20
  23  -6   1   41.50   12.20
  16 -23  -1  104.69   23.00
   7 -23   1  117.19   23.40
 -23  16   1  102.99   10.70
 -23   7  -1  118.19   10.50
  23 -16  -1   87.99   20.10
  -7  23  -1  116.39   11.20
  23  -7   1  139.09   17.30
 -16  -7  -1  126.09   12.00
 -16  23   1  140.79   10.80
  -7 -16   1  114.19   16.70
 -23   8  -1   -1.80    5.70
   8 -23   1  -10.90   17.40
 -23  15   1    6.10    6.20
  15 -23  -1   -3.30   18.10
  -8 -15   1   -2.10   10.90
 -15  23   1   11.50    6.00
  -8 -15   1   33.80   11.90
 -15  -8  -1    3.80    9.30
  23 -15  -1   -3.30   15.80
 -15  -8  -1    6.60    7.80
  -8  23  -1    1.90    5.90
  23  -8   1   12.10   12.20
   9 -23   1  206.58   27.30
 -23  14   1  214.78   13.70
 -23   9  -1  214.38   13.50
  14 -23  -1  192.28   28.50
  -9  23  -1  218.18   13.20
  -9 -14   1  202.68   18.30
 -14  -9  -1  223.88   18.10
 -14  -9  -1  232.18   15.10
  23  -9   1  217.08   21.60
  23 -14  -1  229.08   26.80
 -14  23   1  204.48   12.80
  13 -23  -1   55.89   21.40
 -23  10  -1   37.70    7.40
 -23  13   1   41.70    7.60
  10 -23   1   25.30   20.10
 -13  23   1   27.40    6.20
 -13 -10  -1   50.89    9.10
  23 -10   1   36.00   15.10
 -13 -10  -1   43.10   11.30
  23 -13  -1   43.70   15.70
 -10  23  -1   29.90    6.50
 -10 -13   1   27.70   11.20
 -10 -13   1   38.00   12.20
  11 -23   1  210.58   28.60
 -23  12   1  211.08   13.90
  12 -23  -1  210.18   28.80
 -23  11  -1  192.88   13.10
 -12 -11  -1  229.58   15.60
 -11  23  -1  222.18   13.00
 -11 -12   1  228.28   17.90
 -12 -11  -1  228.18   18.70
 -11 -12   1  224.18   19.10
  23 -12  -1  200.48   22.50
 -12  23   1  205.88   12.90
  23 -11   1  219.18   22.30
 -23  12  -1   74.99    8.50
 -23  11   1   75.39    9.90
  11 -23  -1   54.09   20.50
  12 -23   1   62.09   21.90
 -11 -12  -1   62.89   13.10
  23 -11  -1   64.89   16.10
 -12 -11   1   57.29   11.90
 -11  23   1   69.59    9.70
  23 -12   1   86.09   17.60
 -12 -11   1  112.29   14.50
 -11 -12  -1   96.59   12.20
 -12  23  -1   93.09   10.00
 -23  10   1   84.19   11.40
  10 -23  -1   65.59   21.20
 -23  13  -1   81.49    9.50
  13 -23   1  109.99   24.00
  23 -10  -1   80.59   16.60
 -10 -13  -1  103.99   15.80
 -10 -13  -1   95.29   14.30
 -13  23  -1   91.79    9.40
  23 -13   1  118.79   20.80
 -10  23   1   82.29    9.40
 -13 -10   1  122.19   14.90
   9 -23  -1   89.99   22.20
  14 -23   1  121.29   24.80
 -23  14  -1  102.49    9.20
   9  14   1   82.89   11.10
 -23   9   1   85.39   10.90
  23  -9  -1  103.29   19.20
  -9  23   1  113.39   10.60
  23 -14   1  131.29   22.10
 -14  23  -1  110.09    9.70
  -9 -14  -1   87.99   16.40
 -14  -9   1  122.19   15.10
 -23   8   1   16.70    7.50
  15 -23   1   34.00   22.20
  15   8  -1   20.20    8.40
   8 -23  -1   26.10   19.50
   8  15   1   11.50    6.40
 -23  15  -1    9.20    5.70
 -15  23  -1   19.10    6.60
  -8 -15  -1   18.90   12.80
 -15  -8   1   30.50    9.80
  23  -8  -1    8.80   12.10
  23 -15   1   35.60   17.90
  -8  23   1   25.30    6.50
 -23  16  -1   17.60    6.10
 -23   7   1    9.40    7.00
  16   7  -1   11.40    7.70
   7 -23  -1   18.20   18.10
  16 -23   1   23.70   20.30
   7  16   1   13.10    6.60
 -16  -7   1   22.20    9.60
  23  -7  -1   11.70   12.60
 -16  23  -1   18.50    6.30
  -7  23   1   15.20    5.90
  -7 -16  -1   18.40   13.10
  23 -16   1    1.20   17.00
   6 -23  -1    1.30   17.90
   6  17   1   -3.60    6.30
 -23  17  -1    4.30    5.50
  17 -23   1   13.10   20.20
  17   6  -1    9.20    8.10
 -23   6   1   14.10    7.20
  -6  23   1   12.80    6.30
 -17  -6   1   26.90    9.80
  23  -6  -1   -2.60   11.80
  -6 -17  -1    8.00   12.80
 -17  23  -1   12.70    6.70
  23 -17   1   10.70   18.70
   5 -23  -1   34.70   19.50
 -23   5   1   31.90    8.20
 -23  18  -1   23.10    6.20
   5  18   1   42.40    8.00
  18   5  -1   21.90    9.10
  18 -23   1   51.59   21.90
  -5  23   1   37.10    7.20
 -18  23  -1   32.60    7.00
  23  -5  -1   28.40   12.30
 -18  -5   1   47.10   10.80
  -5 -18  -1   43.20   14.40
  23 -18   1   40.90   19.70
   4  19   1   38.80    7.40
 -23   4   1   50.39    9.00
   4 -23  -1   41.60   18.90
  19   4  -1   49.50   10.40
  19 -23   1   86.89   23.20
 -23  19  -1   61.29    7.80
 -19  -4   1   68.89   11.20
  23  -4  -1   38.20   12.60
  23 -19   1   75.79   21.80
  -4 -19  -1   38.00   15.60
 -19  23  -1   44.30    7.30
  -4  23   1   63.49    9.10
 -23  20  -1    8.10    7.00
   3  20   1   17.80    7.00
  20 -23   1   36.40   20.80
  20   3  -1    6.30    8.70
 -23  20  -1    9.90    5.90
   3 -23  -1   11.60   17.70
 -23   3   1   18.80    7.80
  23  -3  -1    8.40   10.60
  -3 -20  -1    8.90   14.70
 -20  -3   1   26.00    9.50
 -20  23  -1   16.80    6.80
  23 -20   1   25.00   20.00
  -3  23   1   15.80    6.60
  21   2  -1   58.29   11.40
   2  21   1   55.79    8.50
 -23  21  -1   42.50    8.20
 -23   2   1   31.30    8.80
  21 -23   1   57.89   22.10
   2 -23  -1   42.60   17.80
 -21  -2   1   47.90   10.00
  -2  23   1   53.79    8.00
 -21  23  -1   47.40    8.30
  -2 -21  -1   50.69   16.70
  23  -2  -1   48.20   12.00
  23 -21   1   56.09   21.90
  22 -23   1   44.60   23.40
   1 -23  -1   15.20   16.40
  22   1  -1    8.50    9.90
  23  -1  -1    4.30   10.10
  23 -22   1   38.80   20.80
  -1 -22  -1   18.40   15.20
 -24   4  -1   11.60    6.60
  20   4   1    3.50    8.60
   4 -24   1    1.30   17.20
   4  20  -1    1.50    7.40
  20 -24  -1    7.40   18.80
  24 -20  -1   18.50   19.30
 -20  -4  -1   16.00    7.90
  24  -4   1   14.90   10.80
 -20  24   1   -4.40    6.80
  -4 -20   1   13.60   13.10
  -4  24  -1    2.00    6.40
 -24   5  -1    5.30    6.00
  19   5   1    1.60    8.20
   5 -24   1   11.60   16.90
   5  19  -1   -3.80    6.80
  19 -24  -1    1.70   18.30
 -19  24   1    5.70    6.80
 -19  -5  -1   17.20    7.70
  -5 -19   1    5.50   12.80
  24 -19  -1  -17.80   18.00
  -5  24  -1    6.20    6.10
  24  -5   1   22.20   11.40
   6 -24   1   12.10   18.20
   6  18  -1    1.30    7.30
 -24  18   1    8.30    6.50
  18   6   1    1.90    8.10
  18 -24  -1   12.30   18.50
 -24   6  -1    8.10    6.20
 -18  -6  -1   24.60    8.10
 -18  24   1   -3.20    6.30
  24 -18  -1  -12.20   17.60
  24  -6   1    8.80   11.30
  -6 -18   1   -1.60   11.40
  -6  24  -1    7.70    6.10
  17 -24  -1   27.10   19.90
   7  17  -1   -7.80    6.90
   7 -24   1    5.80   16.90
  17   7   1    1.00    7.90
 -24   7  -1   10.20    6.30
 -24  17   1    0.00    6.10
 -17  24   1   -2.50    6.10
  24 -17  -1  -22.30   15.90
 -17  -7  -1   -0.40    7.70
  -7  24  -1   -0.10    5.70
  24  -7   1   15.10   12.70
  -7 -17   1    1.70   11.20
   8 -24   1   66.59   19.90
 -24  16   1   46.60    8.30
 -24   8  -1   49.70    7.90
  16 -24  -1   36.30   21.60
  -8 -16   1   40.80   12.50
 -16  24   1   66.79    8.40
  -8  24  -1   61.49    7.70
  24 -16  -1   38.50   18.30
 -16  -8  -1   74.89   11.00
  24  -8   1   64.59   15.60
 -24  15   1   -5.80    5.80
   9 -24   1   24.00   19.80
  15 -24  -1   -3.10   19.40
 -24   9  -1    2.10    5.90
 -15  -9  -1   12.20    8.40
  -9 -15   1   29.30   11.90
 -15  -9  -1    2.20    9.40
 -15  24   1   10.70    6.40
  24 -15  -1   -9.00   16.30
  -9 -15   1    6.50   10.40
  24  -9   1  -10.70   12.30
  -9  24  -1    5.10    6.00
 -24  14   1  105.89   11.30
  14 -24  -1  114.29   25.60
 -24  10  -1  103.59   10.30
  10 -24   1  107.89   23.20
 -10  24  -1  108.79   10.30
 -14  24   1  131.69   10.50
 -14 -10  -1  100.19   15.40
 -14 -10  -1  132.59   13.40
  24 -10   1  123.59   20.40
 -10 -14   1  151.58   16.80
  24 -14  -1   87.29   19.80
 -10 -14   1  103.59   15.80
  13 -24  -1   14.90   19.40
  11 -24   1    8.20   20.30
 -24  13   1    5.00    6.80
 -24  11  -1    5.60    6.40
 -13 -11  -1    9.20    8.20
 -13  24   1   10.70    5.80
  24 -11   1   13.90   14.50
 -11  24  -1    4.90    6.20
 -13 -11  -1    6.80   10.00
 -11 -13   1   24.60   10.30
 -11 -13   1    4.20    9.90
  24 -13  -1   -2.80   15.10
  12 -24   1   80.89   23.20
 -24  12   1   75.39   10.40
 -24  12  -1   73.19    9.00
  12 -24  -1   86.39   22.40
 -12 -12   1   99.79   15.60
  24 -12   1   78.79   17.90
 -12 -12  -1  110.59   12.90
 -12  24   1   81.79   10.10
 -12 -12   1   59.69   12.40
 -12 -12  -1   83.29   15.20
  24 -12  -1   78.69   17.50
 -12  24  -1   98.39    9.70
 -24  13  -1    8.50    5.90
 -24  11   1    7.00    6.90
  11 -24  -1   -1.40   18.50
  13 -24   1   30.50   20.10
  24 -13   1   15.20   16.30
 -13  24  -1   13.80    6.30
 -13 -11   1   12.90   10.10
 -11 -13  -1   15.10   10.90
 -11  24   1   -1.00    5.70
  24 -11  -1    9.80   14.50
 -13 -11   1    6.30    9.10
 -24  10   1   26.80    7.60
  14 -24   1   23.10   20.40
 -24  14  -1   19.80    6.30
  10 -24  -1   55.19   21.80
  24 -14   1   25.10   16.30
 -10 -14  -1    6.50   11.70
 -10  24   1   16.10    6.50
  24 -10  -1    8.10   14.90
 -14 -10   1   26.00    9.90
 -14  24  -1   24.90    6.70
  15 -24   1   92.29   23.40
   9 -24  -1  102.89   23.40
 -24   9   1   85.99   11.60
 -24  15  -1   90.09    9.30
  15   9  -1  101.69   12.30
  -9  24   1  106.89   10.10
  24 -15   1  105.89   21.70
 -15  -9   1  113.19   14.10
 -15  24  -1   83.89    9.90
  -9 -15  -1   85.59   16.80
  24  -9  -1   92.29   17.80
  16   8  -1    3.50    8.20
   8 -24  -1    7.70   18.10
   8  16   1   -9.90    6.90
 -24   8   1    8.10    7.40
 -24  16  -1    0.10    5.50
  16 -24   1   34.10   23.40
 -16  24  -1   -9.30    6.00
  -8  24   1   -3.00    5.80
  24  -8  -1    7.10   12.90
 -16  -8   1   10.00    9.50
  -8 -16  -1  -11.50   11.20
  24 -16   1    4.50   17.80
   7 -24  -1   27.30   19.40
  17   7  -1   29.10    8.90
  17 -24   1   -3.40   21.10
 -24  17  -1   29.40    6.40
 -24   7   1   31.70    8.30
   7  17   1   25.00    7.80
  -7  24   1   22.80    6.50
 -17  24  -1   39.80    7.60
 -17  -7   1   32.30   10.30
  24 -17   1   40.60   20.20
  -7 -17  -1   30.70   13.70
  24  -7  -1   16.20   13.50
  18   6  -1    2.90    8.00
 -24   6   1    8.80    7.10
   6  18   1    3.20    6.80
 -24  18  -1   -1.80    5.50
   6 -24  -1   -3.00   17.90
  18 -24   1   -5.30   21.10
  24  -6  -1   14.30   12.50
  -6  24   1    2.70    5.90
  24 -18   1   11.00   18.20
  -6 -18  -1   14.00   13.20
 -18  24  -1    1.90    6.10
 -18  -6   1    8.80    9.20
   5 -24  -1   79.29   21.10
  19   5  -1   84.69   13.10
 -24   5   1  113.99   11.40
   5  19   1   90.49   11.60
 -24  19  -1  104.69   10.00
  19 -24   1  119.59   25.00
  -5 -19  -1  125.19   19.70
 -19  -5   1  125.09   14.50
  24  -5  -1  108.39   17.50
  -5  24   1  120.39   11.40
  24 -19   1  138.79   26.80
 -19  24  -1  118.39   10.80
 -24  20  -1   -5.00    5.40
  20   4  -1    6.40    9.00
   4 -24  -1    4.90   18.10
   4  20   1   -2.30    6.90
 -24   4   1   11.20    7.40
  20 -24   1   42.50   21.70
  -4 -20  -1    4.20   14.60
 -20  -4   1   24.60    9.40
  -4  24   1    6.70    6.30
  24  -4  -1    5.10   11.60
 -20  24  -1   -1.10    6.40
  24 -20   1   24.20   21.30
   7 -25   1   77.19   20.80
 -25   7  -1   89.69   10.00
  18   7   1   94.59   12.70
  18 -25  -1   88.19   23.00
  -7 -18   1   80.29   15.20
 -18  25   1   98.59   11.30
  25 -18  -1   87.29   20.80
  25  -7   1  119.09   18.50
  -7  25  -1   88.59   10.30
 -18  -7  -1  105.99   11.80
   8 -25   1   28.70   18.70
  17   8   1   15.50    8.90
 -25   8  -1   24.30    6.90
  17 -25  -1   43.10   20.80
 -25  17   1   21.10    7.20
 -17  25   1   21.80    6.90
  -8 -17   1   26.60   12.20
  25  -8   1   33.20   13.80
 -17  -8  -1   32.10    9.20
  25 -17  -1   11.20   17.70
  -8  25  -1   21.20    6.70
   9 -25   1  169.88   29.50
 -25   9  -1  137.99   11.20
  16 -25  -1  163.58   31.10
 -25  16   1  142.99   12.30
  25 -16  -1  139.49   22.30
 -16  25   1  154.88   12.40
 -16  -9  -1  146.99   13.20
  -9 -16   1  130.29   16.80
  -9  25  -1  145.89   11.60
  25  -9   1  141.69   19.90
  10 -25   1   -0.30   20.00
 -25  10  -1   11.90    6.10
 -25  15   1    0.50    6.30
  15 -25  -1   13.40   20.40
 -10  25  -1    6.60    6.10
 -15  25   1   15.50    6.80
  25 -10   1    8.00   14.30
  25 -15  -1    0.80   17.10
 -15 -10  -1    3.30    8.00
 -15 -10  -1    6.80    9.70
 -10 -15   1   27.70   12.10
 -10 -15   1    8.10   10.70
 -25  11  -1   73.89    9.10
  11 -25   1   94.09   23.00
 -25  14   1   61.89    9.40
  14 -25  -1  103.89   23.50
 -11 -14   1   71.79   13.50
 -14 -11  -1   91.69   15.20
  25 -11   1   87.79   17.70
 -11  25  -1  108.39   10.90
 -14 -11  -1   96.89   12.70
 -14  25   1   89.69   10.70
  25 -14  -1   76.29   18.60
 -25  12  -1   -1.90    5.90
  12 -25   1    3.80   20.60
  13 -25  -1    5.30   19.10
 -25  13   1    4.00    6.20
 -13  25   1    6.30    6.30
 -13 -12  -1    7.40    8.30
  25 -13  -1   -1.60   15.70
 -12 -13   1    4.60   11.10
 -12  25  -1   12.90    6.30
 -12 -13   1   -1.90    9.90
 -13 -12  -1   -4.00    9.80
  25 -12   1    2.50   15.50
  13 -25   1   41.20   20.70
 -25  12   1   29.30    7.80
  12 -25  -1   45.80   21.20
 -25  13  -1   19.20    6.30
  25 -12  -1   22.40   15.50
 -12  25   1   25.30    6.50
 -13  25  -1   31.60    7.00
  25 -13   1   32.30   16.80
 -12 -13  -1   18.80   11.20
 -13 -12   1   24.80   10.70
  11 -25  -1   -2.40   20.00
 -25  14  -1   10.90    6.00
  14 -25   1    5.10   19.50
 -25  11   1    6.50    6.90
 -14 -11   1   35.20   11.60
  25 -14   1   26.60   17.20
 -11 -14  -1    8.00   10.90
 -11  25   1    6.90    6.20
  25 -11  -1   -0.40   15.20
 -14  25  -1   17.50    6.80
  15 -25   1   32.00   22.30
  15  10  -1    0.40    8.10
 -25  10   1    3.00    6.60
 -25  15  -1    2.20    5.50
  10 -25  -1   -4.90   19.10
  25 -10  -1    9.00   14.20
 -15 -10   1   12.50   10.60
 -10  25   1   -0.60    5.80
 -10 -15  -1    4.00   10.90
  25 -15   1   12.60   17.30
 -15  25  -1   -3.30    6.50
  16 -25   1   43.70   22.20
 -25  16  -1   24.50    6.30
   9 -25  -1   31.80   19.60
 -25   9   1   30.90    7.70
  16   9  -1   23.90    8.90
 -16  -9   1   48.30   11.20
 -16  25  -1   33.20    7.80
  -9  25   1   27.20    6.70
  25  -9  -1   15.90   14.90
  -9 -16  -1   51.69   13.00
  25 -16   1   20.90   19.80
   8  17   1   -0.40   10.70
  17 -25   1   23.20   22.30
 -25   8   1    1.80    6.60
 -25  17  -1    5.60    6.20
   8 -25  -1   -0.80   18.80
  17   8  -1    4.20    8.30
  25  -8  -1   10.40   13.70
  -8 -17  -1    5.90   11.30
  -8  25   1    1.20    5.90
 -17  25  -1    3.60    6.30
  25 -17   1   -9.00   17.90
 -17  -8   1    8.20    9.30
  18 -25   1   64.99   24.30
 -25  18  -1    2.70    5.60
   7  18   1    4.90    7.30
  18   7  -1   11.80    8.60
 -25   7   1   10.90    7.30
   7 -25  -1    7.40   18.50
  -7  25   1   19.60    6.40
  -7 -18  -1   14.60   13.00
  25  -7  -1    3.10   12.70
 -18  -7   1   15.20    9.70
 -18  25  -1    6.50    6.90
  25 -18   1   29.80   20.20
  14 -26  -1  103.29   24.70
  12 -26   1   88.79   23.80
  26 -14  -1   58.29   18.20
  26 -12   1   88.89   19.00
 -14 -12  -1   79.29   15.10
 -12 -14   1   90.39   14.40
  13 -26  -1   39.60   21.30
  13 -26   1   26.30   21.00
  26 -13  -1    9.80   16.00
  26 -13   1   27.20   17.20
 -13 -13  -1   27.40   11.70
  12 -26  -1   61.59   22.40
  14 -26   1   73.99   22.90
 -12 -14  -1   67.99   13.70
  26 -12  -1   41.00   16.90
  26 -14   1   68.49   19.00
   0   0   2 1364.96   54.79
   0   0  -2 1376.96   52.69
   0   0  -2 1326.57   51.79
   0   1  -2  228.88   10.50
   0  -1   2  239.68   17.00
   1   0   2  231.58   14.10
   1  -1  -2  241.18   10.10
   1  -1  -2  218.08   12.60
   0   1  -2  231.78   10.10
  -1   0  -2  219.48   11.80
  -1   1   2  241.28   15.90
  -1   0  -2  236.28   10.20
  -1   1  -2    5.40    2.60
   0  -1  -2   -1.50    6.10
   0  -1  -2    1.60    2.70
   1   0  -2    2.10    2.40
   1   0  -2    1.60    4.10
  -1   1  -2    0.30    3.10
   1  -1   2   -5.30    7.30
   0   1   2   -2.70    7.50
  -1   0   2   10.80   10.10
  -2   2   2  845.92   36.60
   0   2  -2  816.72   32.20
  -2   0  -2  825.32   32.70
   2  -2  -2  856.61   32.60
  -2   0  -2  830.52   33.70
   0  -2   2  815.52   37.10
  -2   0  -2  828.22   32.40
   0   2  -2  875.61   32.50
   2  -2  -2  868.71   34.90
   1  -2  -2  412.36   16.40
  -2   1  -2  398.26   16.30
  -2   1   2  412.66   22.10
   1  -2   2  383.16   21.10
   1   1  -2  409.36   16.50
   1  -2  -2  404.56   19.40
  -2   1  -2  421.16   16.30
   1   1  -2  414.26   16.30
  -2   1  -2  384.06   16.30
  -1  -1  -2  391.56   16.50
   2  -1  -2  396.36   17.90
  -1   2   2  418.96   20.50
  -1  -1  -2  398.16   18.80
  -1   2  -2  414.66   16.30
   2  -1  -2  409.56   16.30
  -1  -1   2  375.36   23.30
   0  -2  -2  701.33   28.10
   0  -2  -2  743.63   31.10
   2   0  -2  698.43   27.80
  -2   2  -2  704.83   28.00
   2   0  -2  746.23   28.80
  -2   0   2  718.83   33.20
   2  -2   2  713.03   31.20
   0   2   2  714.03   30.20
  -3   3   2  652.03   29.60
   3  -3  -2  634.94   25.30
   0   3  -2  665.63   25.20
  -3   0  -2  664.03   25.20
   0  -3   2  610.54   30.70
  -3   0  -2  644.44   26.40
   3  -3  -2  630.94   28.20
  -3   0  -2  635.04   25.30
  -3   1  -2  326.37   13.40
  -3   1  -2  331.27   13.70
   1   2  -2  331.57   13.30
   2  -3  -2  304.57   17.70
   1   2  -2  325.27   13.30
   2  -3  -2  332.77   13.70
  -3   2   2  315.37   19.40
   1  -3   2  327.37   19.40
  -3   1  -2  341.97   13.50
  -1   3  -2  332.17   13.50
  -2  -1  -2  312.97   16.10
  -2   3   2  303.97   18.00
  -1  -2   2  313.37   21.30
  -1   3  -2  315.97   12.60
  -2  -1  -2  337.27   13.70
   3  -2  -2  331.87   16.30
   3  -2  -2  317.47   13.30
  -2  -1  -2  330.97   13.20
   1  -3  -2   66.59    9.80
  -3   1   2   62.09   11.90
  -3   2  -2   59.39    4.20
  -3   2  -2   60.89    4.40
   1  -3  -2   56.39    4.70
   2   1  -2   59.49    4.90
   2  -3   2   57.29    9.20
   2   1  -2   57.49    4.30
   3  -2   2   55.29    3.00
   3  -1  -2   68.39    6.80
  -1  -2  -2   58.69    3.70
  -1   3   2   68.59    9.30
   3  -1  -2   47.40    4.00
  -2  -1   2   67.79   12.10
  -1  -2  -2   55.99    4.60
  -2   3  -2   58.29    4.50
  -1  -2  -2   49.40    9.00
   0  -3  -2  514.15   25.20
   0   3   2  513.15   22.30
  -3   3  -2  508.65   20.60
   3   0  -2  518.75   20.40
  -3   0   2  514.25   27.10
   3  -3   2  521.85   20.00
  -3   3  -2  511.75   20.60
   0  -3  -2  543.05   20.90
   3   0  -2  520.25   21.50
   0  -4   2 1721.93   66.59
  -4   4   2 1790.52   69.19
   0  -4   2 1769.52   71.09
  -4   0  -2 1702.13   66.19
   4  -4  -2 1785.02   69.19
  -4   0  -2 1737.03   66.19
  -4   0  -2 1656.13   67.09
   4  -4  -2 1765.22   66.29
   0   4  -2 1707.23   66.19
   1   3  -2 1310.77   49.20
   1  -4   2 1340.87   53.79
  -4   1  -2 1227.88   49.30
  -4   1  -2 1261.77   49.30
   3  -4  -2 1315.97   52.79
   1  -4   2 1249.77   49.30
  -4   1  -2 1235.28   49.60
  -4   3   2 1323.17   53.29
   3  -4  -2 1298.17   49.40
  -1   4  -2 1280.57   49.30
  -3  -1  -2 1261.47   49.30
  -1  -3   2 1318.17   49.60
  -3  -1  -2 1280.27   49.20
  -3  -1  -2 1281.17   51.09
   4  -3  -2 1262.47   49.30
  -1  -3   2 1330.07   54.59
  -3   4   2 1263.47   51.79
   4  -3  -2 1314.17   51.49
  -4   2  -2  980.70   35.80
   2  -4   2  875.11   35.50
   2  -4  -2  938.71   39.60
   2   2  -2  918.91   35.50
   2  -4  -2  967.30   36.00
  -4   2  -2  914.91   35.70
   2   2  -2  924.81   35.90
  -4   2   2  872.21   40.70
   2  -4   2  977.30   39.60
  -2   4   2  877.71   37.90
   4  -2  -2  930.01   35.60
  -2  -2   2  898.31   41.70
   4  -2  -2  900.91   37.40
  -2   4  -2  929.01   35.70
  -2  -2  -2  933.01   35.90
  -2  -2  -2  901.31   35.40
  -2  -2  -2  939.81   38.70
  -4   3  -2  148.59    6.90
   3  -4   2  132.09    6.90
   3   1  -2  140.49    6.50
  -4   1   2  118.89   15.80
   3  -4   2  140.39   12.50
  -4   3  -2  137.79    6.70
   1  -4  -2  141.49    7.20
   1  -4  -2  125.29   13.30
   3   1  -2  136.69    7.40
  -1  -3  -2  124.79   13.10
   4  -1  -2  140.59    6.50
  -3   4  -2  138.59    7.00
  -1   4   2  127.29    9.60
  -3  -1   2  134.79   16.70
  -1  -3  -2  135.69    7.10
   4  -1  -2  144.09    8.70
  -1  -3  -2  138.09    6.20
   4  -3   2  133.49    6.20
  -4   4  -2  662.23   26.20
   4  -4   2  682.13   26.30
  -4   0   2  660.03   31.50
   0  -4  -2  630.94   30.90
  -4   4  -2  670.63   26.30
   4   0  -2  666.03   25.90
   0  -4  -2  691.93   26.50
   4   0  -2  659.93   27.00
  -5   0  -2 3346.97  126.89
   0  -5   2 3436.56  127.79
  -5   5   2 3449.85  129.19
   0  -5   2 3215.38  131.79
   0   5  -2 3350.96  126.89
  -5   0  -2 3296.97  126.99
  -5   0  -2 3290.17  127.99
   5  -5  -2 3416.86  126.99
   1   4  -2  966.70   37.20
  -5   1  -2  968.00   37.50
   1  -5   2  958.50   38.10
   1  -5   2  934.21   42.20
   4  -5  -2 1001.90   41.60
  -5   4   2 1015.30   40.80
   4  -5  -2  976.50   37.50
  -5   1  -2  932.81   37.90
  -5   1  -2  955.50   37.30
  -4  -1  -2  963.70   37.30
  -1   5  -2  959.60   37.40
  -1  -4   2  946.71   38.10
  -4  -1  -2  960.10   39.30
   5  -4  -2  989.10   40.20
  -4   5   2  959.40   39.80
   5  -4  -2  970.10   37.30
  -1  -4   2  980.30   43.30
  -4  -1  -2  933.81   37.40
   2  -5   2 1051.29   42.20
   2  -5   2 1089.79   45.80
  -5   3   2 1070.99   45.70
   3  -5  -2 1125.29   46.10
   3  -5  -2 1063.89   41.80
  -5   2  -2 1084.19   41.50
  -5   2  -2 1105.99   41.70
   2   3  -2 1082.19   41.40
  -3  -2  -2 1088.09   41.70
  -3   5   2 1078.59   43.60
  -2  -3   2 1080.39   47.60
   5  -3  -2 1094.89   43.70
  -2  -3   2 1069.59   42.10
  -2   5  -2 1051.29   41.70
  -3  -2  -2 1057.99   41.40
   5  -3  -2 1077.49   41.40
  -3  -2  -2 1056.29   44.30
  -5   2   2  417.96   23.20
   2  -5  -2  429.36   23.60
   3   2  -2  442.36   17.00
  -5   3  -2  393.66   17.80
  -5   3  -2  431.06   17.30
   3  -5   2  406.66   21.50
   3  -5   2  419.56   18.20
   3   2  -2  437.96   17.80
   2  -5  -2  438.56   17.60
   5  -2  -2  459.35   19.40
  -2  -3  -2  417.46   21.40
  -2   5   2  415.06   19.50
  -3   5  -2  388.66   17.90
   5  -3   2  434.86   17.20
   5  -2  -2  428.56   17.00
  -2  -3  -2  431.76   16.90
  -3  -2   2  388.36   27.00
  -2  -3  -2  449.56   17.50
   1  -5  -2   33.60    5.00
   4  -5   2   56.09    6.40
   4   1  -2   53.09    3.70
  -5   1   2   60.49    9.90
   4   1  -2   46.80    5.10
  -5   4  -2   51.59    4.30
   1  -5  -2   55.99   10.40
  -1  -4  -2   54.09    9.70
  -1  -4  -2   49.20    3.10
  -4  -1   2   40.50   14.50
  -1  -4  -2   49.60    4.60
   5  -1  -2   52.29    6.40
   5  -1  -2   48.80    3.60
  -1   5   2   44.20    5.80
   0  -5  -2 1656.23   63.49
   5   0  -2 1684.03   64.29
  -5   5  -2 1656.43   63.29
  -5   0   2 1793.02   68.59
   5  -5   2 1715.23   63.89
   5   0  -2 1655.83   62.89
   0  -5  -2 1670.13   67.99
  -5   5  -2 1426.96   63.49
   6  -6  -2  483.35   20.00
  -6   0  -2  485.35   19.70
  -6   6   2  517.55   22.50
  -6   0  -2  504.45   20.00
   0  -6   2  494.75   27.50
   0  -6   2  471.65   21.60
  -6   0  -2  474.05   21.20
   6  -6  -2  480.65   24.80
   0   6  -2  497.05   19.80
   5  -6  -2  670.73   30.30
  -6   1  -2  704.03   27.30
   1   5  -2  671.03   26.10
   1  -6   2  681.13   27.90
   5  -6  -2  584.74   26.60
  -6   1  -2  691.83   26.20
   1  -6   2  529.85   34.10
  -6   5   2  694.43   29.50
  -6   1  -2  678.93   26.40
  -1   6  -2  656.63   26.20
  -5  -1  -2  660.33   28.10
  -5   6   2  696.03   28.40
  -5  -1  -2  695.63   26.20
   6  -5  -2  689.13   30.10
  -5  -1  -2  575.84   26.80
   6  -5  -2  693.93   26.20
  -1  -5   2  670.33   33.60
  -1  -5   2  651.73   27.40
  -6   2  -2   12.70    2.80
   4  -6  -2    8.40    2.90
   2   4  -2   11.70    2.50
  -6   4   2    9.10    7.70
   2  -6   2   12.60    4.50
  -6   2  -2   11.10    2.50
   4  -6  -2    4.90    9.10
   2  -6   2   19.60    9.80
  -4  -2  -2    8.20    2.50
  -4  -2  -2   10.80    2.30
  -2  -4   2   11.10   11.60
   6  -4  -2    7.40    6.80
  -4  -2  -2   10.40    5.80
  -2   6  -2   12.30    3.00
   6  -4  -2    7.60    2.30
  -2  -4   2   11.90    3.90
  -4   6   2   14.50    5.20
   3  -6   2  182.18   10.80
   3  -6   2  178.78   14.60
   3   3  -2  182.08    8.10
  -6   3  -2  178.58    8.50
   3  -6  -2  182.08   14.40
   3  -6  -2  179.38    8.80
  -6   3  -2  179.78    8.30
  -6   3   2  186.78   14.70
  -3  -3   2  174.38   18.00
   6  -3   2  184.68    8.60
  -3  -3  -2  176.98    8.60
  -3   6  -2  192.08    8.70
  -3   6   2  202.08   11.30
   6  -3  -2  171.98    8.00
  -3  -3  -2  188.08    8.00
  -3  -3  -2  164.58   13.70
  -3  -3   2  166.58    9.30
   4   2  -2  395.76   15.20
   4   2  -2  389.06   16.40
  -6   4  -2  391.16   15.80
   2  -6  -2  386.46   16.10
   4  -6   2  397.06   17.70
  -6   2   2  379.26   21.60
  -6   4  -2  398.46   15.70
   2  -6  -2  375.96   22.60
  -4  -2   2  350.26   24.00
  -2   6   2  367.66   17.00
   6  -2  -2  362.96   15.20
  -2  -4  -2  330.97   16.30
   6  -4   2  377.56   15.90
  -2  -4  -2  392.56   15.20
  -4   6  -2  394.56   15.90
  -2  -4  -2  388.06   20.80
   1  -6  -2    1.20    2.90
   5  -6   2    6.90    4.80
   1  -6  -2   -0.30    9.30
   5   1  -2   -0.10    1.70
  -6   1   2   -3.50    7.40
   5   1  -2    0.20    3.50
  -6   5  -2    3.70    2.40
  -6   5  -2    5.90    2.50
   6  -5   2   10.50    3.60
  -1  -5  -2    1.60    1.50
  -5   6  -2    2.80    2.40
   6  -1  -2    4.00    4.70
  -5   6  -2    5.40    2.80
  -1  -5  -2    1.40    2.70
   6  -1  -2    4.70    1.80
  -1  -5  -2    0.50    8.50
  -1   6   2   -2.00    4.00
  -5  -1   2   -8.10   10.20
   0  -6  -2  209.18   10.10
   6  -6   2  241.68   12.00
  -6   0   2  183.48   17.90
   6   0  -2  205.08   11.10
   0  -6  -2  210.68    8.70
  -6   6  -2  217.88    9.80
  -6   6  -2  216.18    9.60
   0  -6  -2  212.08   17.40
   6   0  -2  203.18    8.90
  -7   0  -2 4034.70  156.98
   0   7  -2 3859.41  155.48
  -7   0  -2 4016.30  155.48
  -7   0  -2 4266.07  156.08
   0  -7   2 4159.48  160.98
   0  -7   2 4111.49  157.68
  -7   7   2 4335.57  157.28
   1  -7   2  703.23   35.00
  -7   1  -2  704.93   28.90
   1   6  -2  691.13   27.70
   1  -7   2  686.23   30.00
  -7   6   2  709.13   30.60
  -7   1  -2  726.83   27.70
  -7   1  -2  684.93   28.10
   6  -7  -2  702.03   33.40
  -6  -1  -2  714.53   27.80
  -6   7   2  748.03   29.60
  -1  -6   2  716.63   36.60
  -6  -1  -2  596.74   30.80
  -1  -6   2  739.73   29.90
   7  -6  -2  700.13   32.20
  -6  -1  -2  703.83   28.10
  -1   7  -2  727.73   27.90
   2  -7   2 2307.57   89.99
  -7   2  -2 2222.38   85.39
  -7   2  -2 2090.49   84.89
  -7   5   2 2313.37   87.89
   2   5  -2 2167.68   84.89
   5  -7  -2 2330.17   90.29
   2  -7   2 2179.68   87.19
  -2  -5   2 2209.08   86.39
   7  -5  -2 2266.57   88.09
  -5  -2  -2 2200.08   85.09
  -2   7  -2 2175.68   85.09
  -5   7   2 2318.37   86.09
   7  -5  -2 2224.68   84.99
   7  -2   2 2318.27   85.69
  -2  -5   2 2204.48   90.69
   4  -7  -2 4150.48  160.08
   3   4  -2 4088.69  154.88
  -7   3  -2 4149.18  155.48
  -7   4   2 3754.32  159.38
   3  -7   2 4151.48  158.98
   3  -7   2 4090.59  157.18
   4  -7  -2 4263.57  155.38
  -3  -4   2 4080.99  156.28
  -3   7  -2 4191.98  155.18
   7  -4  -2 4091.69  157.38
  -4  -3  -2 4040.10  155.08
  -4  -3  -2 4055.69  158.18
   7  -4  -2 4057.69  154.88
  -4   7   2 4211.58  155.58
  -3  -4   2 4112.99  160.28
   3  -7  -2 1633.34   60.69
   3  -7  -2 1616.54   66.39
   4   3  -2 1543.35   59.99
  -7   3   2 1627.14   64.29
   4  -7   2 1608.94   63.89
   4  -7   2 1650.23   62.69
  -7   4  -2 1447.76   60.49
  -7   4  -2 1516.65   60.19
  -4  -3   2 1595.84   66.49
  -3   7   2 1632.24   60.69
  -3  -4  -2 1542.65   60.49
   7  -4   2 1506.05   60.69
   7  -3  -2 1545.95   62.39
  -3  -4  -2 1596.14   60.19
  -3  -4  -2 1609.14   64.69
  -4   7  -2 1555.74   60.49
   7  -3  -2 1574.14   59.99
   2  -7  -2 1846.72   75.79
   5   2  -2 1801.12   71.29
   2  -7  -2 1867.41   70.79
   5   2  -2 1826.52   69.99
  -7   5  -2 1848.72   70.49
   5  -7   2 1937.81   72.69
  -7   2   2 1881.61   74.79
  -7   5  -2 1799.22   70.59
  -2  -5  -2 1818.92   70.09
   7  -5   2 1779.12   71.09
  -5   7  -2 1844.72   70.59
   7  -2  -2 1839.22   69.99
  -2   7   2 1779.22   70.59
  -2  -5  -2 1846.32   70.69
  -5  -2   2 1954.20   76.29
   7  -2  -2 1801.72   72.09
  -2  -5  -2 1919.91   75.29
   1  -7  -2 1021.00   40.10
  -7   6  -2 1041.20   39.90
   6   1  -2  985.00   40.80
  -7   6  -2 1033.00   39.80
   1  -7  -2 1035.20   46.80
  -7   1   2 1069.19   45.40
   6   1  -2 1019.80   39.20
   6  -7   2 1107.89   42.10
  -1  -6  -2 1027.80   39.20
  -6   7  -2  998.00   39.80
  -1   7   2 1011.40   40.00
   7  -1  -2 1003.50   41.40
  -6  -1   2 1014.40   45.90
   7  -1  -2 1004.50   39.20
  -1  -6  -2 1011.30   40.10
  -1  -6  -2 1022.40   45.70
  -6   7  -2 1016.10   39.90
   7  -6   2 1040.70   41.00
   0  -7  -2  382.66   24.00
  -7   7  -2  400.86   16.00
  -7   7  -2  367.26   15.60
   0  -7  -2  380.86   14.60
   7   0  -2  367.26   17.40
   0  -7  -2  365.46   15.90
   7  -7   2  390.26   18.10
  -7   0   2  285.37   24.50
   7   0  -2  373.66   14.80
  -8   8   2 2162.18   78.89
   0   8  -2 1901.31   77.69
  -8   8   2 2041.50   77.19
   8  -8  -2 1994.70   82.19
  -8   0  -2 2018.80   77.19
  -8   0  -2 1935.31   78.99
  -8   0  -2 2001.50   77.79
   0  -8   2 2032.40   80.09
   0  -8   2 2131.19   84.69
  -8   7   2   21.20    3.00
  -8   1  -2   18.20    3.80
  -8   1  -2   19.30    4.60
   1  -8   2   18.20    6.60
  -8   1  -2   17.30    2.90
   1  -8   2   17.80   12.60
   1   7  -2   22.00    3.30
  -8   7   2   22.00    6.50
   7  -8  -2   14.60   10.40
  -7  -1  -2   17.10    3.00
  -1   8  -2   19.20    4.00
  -7   8   2   13.70    2.90
  -7  -1  -2   15.40    3.50
   8  -7  -2   19.90   10.00
  -1  -7   2   24.10   14.00
  -7  -1  -2   16.60    5.60
  -7   8   2   25.20    5.00
   2  -8   2    4.60    6.30
   2  -8   2    3.90   11.40
  -8   6   2    6.00    2.20
  -8   6   2    6.50    7.50
  -8   2  -2    7.90    2.60
  -8   2  -2    5.30    3.20
   6  -8  -2    4.90   11.10
   2   6  -2    8.00    2.70
   8  -6  -2   -0.40    8.10
  -6   8   2   12.90    3.70
  -6  -2  -2   12.20    5.90
  -6   8   2    4.20    2.60
  -6  -2  -2    3.20    2.80
  -6  -2  -2    7.30    2.80
   8  -2   2    6.00    3.70
  -2  -6   2    7.70   12.30
   3   5  -2  192.88    8.80
  -8   3  -2  188.28    8.90
   3  -8   2  188.38   13.60
  -8   3  -2  176.18    9.90
   3  -8   2  177.38   18.70
  -8   5   2  181.08   13.80
  -5   8   2  203.88    9.10
  -5  -3  -2  177.08   13.20
   8  -5  -2  207.88   14.40
  -5  -3  -2  188.18    8.90
  -3  -5   2  197.38   20.30
  -5   8   2  188.28    9.00
   8  -3   2  194.08    9.80
  -5  -3  -2  185.18    9.00
  -3  -5   2  186.98   11.00
   4  -8  -2   -1.60   11.90
   4  -8   2    3.70    8.60
   4   4  -2    4.70    2.20
   4  -8   2    2.80    6.60
  -8   4   2    3.90    7.60
  -4  -4   2    1.50   12.10
  -4   8   2    8.20    2.00
   8  -4   2    6.20    3.50
  -4  -4  -2    3.70    7.20
  -4   8   2    0.90    2.90
  -4  -4  -2    4.70    2.60
   8  -4  -2   19.20    6.50
  -4  -4  -2    5.20    2.70
   8  -4  -2    5.20    2.10
  -4  -4   2    8.40    4.80
  -8   3   2  701.03   32.60
  -8   5  -2  725.73   28.00
   5   3  -2  731.73   27.60
   3  -8  -2  738.33   38.90
   5  -8   2  714.03   32.70
   5  -8   2  709.03   31.30
  -3  -5  -2  720.13   27.80
   8  -5   2  683.73   28.90
   8  -3  -2  668.63   30.40
  -3  -5  -2  696.43   33.30
   8  -3  -2  723.63   27.50
  -3  -5  -2  667.93   28.10
  -5  -3   2  743.63   38.50
   6   2  -2   87.59    7.60
   2  -8  -2   92.19   16.60
   6  -8   2  105.39   12.10
  -8   6  -2  107.59    6.40
   6   2  -2  108.49    5.40
  -8   6  -2   96.59    6.50
  -2  -6  -2  109.79    5.40
  -2  -6  -2   93.99   14.40
  -2  -6  -2  105.49    6.60
   8  -2  -2  110.89    5.20
   8  -2  -2  108.69    9.10
  -6   8  -2  112.99    7.40
  -6  -2   2  112.49   17.20
   8  -6   2  111.39    8.20
  -8   1   2  101.89   15.30
   1  -8  -2  121.79   17.70
   7   1  -2  131.99    6.00
  -8   7  -2  126.69    7.40
  -8   7  -2  131.59    7.10
   7   1  -2  121.99    8.60
   7  -8   2  154.78   12.00
  -1  -7  -2  104.59    8.00
  -1  -7  -2  134.29    5.80
  -7  -1   2   97.89   16.40
  -1   8   2  116.19    7.10
   8  -7   2  159.68   10.20
   8  -1  -2  101.79   10.40
  -7   8  -2  137.29    7.00
   8  -1  -2  129.79    5.90
  -1  -7  -2  112.89   17.00
  -7   8  -2  131.89    7.40
  -8   8  -2  234.18   11.10
   8   0  -2  243.08   13.20
   8   0  -2  243.08    9.90
  -8   8  -2  232.88   11.30
   8  -8   2  259.57   14.80
  -8   0   2  243.98   17.40
   0  -8  -2  235.68   18.50
   0  -8  -2  251.47    9.80
   0   9  -2  678.13   27.20
  -9   0  -2  653.03   26.80
  -9   0  -2  693.83   29.50
   0  -9   2  666.73   31.10
  -9   0  -2  653.73   27.70
  -9   9   2  684.03   28.50
  -9   9   2  733.93   27.80
   9  -9  -2  633.64   34.10
   1   8  -2  496.75   21.10
   1  -9   2  531.05   25.20
   1  -9   2  512.75   30.30
   8  -9  -2  489.85   26.90
  -9   1  -2  514.45   20.70
  -9   1  -2  522.75   22.60
  -9   1  -2  532.75   21.70
  -9   8   2  514.35   23.40
  -9   8   2  534.25   20.90
  -8  -1  -2  501.25   23.80
  -8  -1  -2  504.25   21.50
  -8   9   2  509.15   21.90
  -1  -8   2  509.15   24.40
  -8   9   2  472.75   21.40
  -1  -8   2  618.94   36.50
   9  -8  -2  505.05   27.60
  -1   9  -2  531.95   21.30
  -9   7   2  537.35   23.40
   2   7  -2  507.45   20.90
   2  -9   2  489.55   25.30
  -9   2  -2  519.05   20.80
  -9   7   2  477.25   20.90
  -9   2  -2  549.15   21.80
   2  -9   2  527.95   29.60
   7  -9  -2  515.85   29.50
  -7  -2  -2  507.25   20.90
  -2   9  -2  504.95   21.20
   9  -7  -2  519.45   26.10
  -7  -2  -2  531.75   21.60
  -7   9   2  519.85   21.00
   9  -2   2  513.25   22.00
  -2  -7   2  497.45   23.70
  -7   9   2  530.25   21.40
   6  -9  -2  399.16   25.60
  -9   6   2  419.06   16.50
  -9   3  -2  407.26   17.50
  -9   3  -2  405.26   16.70
   3  -9   2  405.96   24.60
   3   6  -2  404.06   16.80
   3  -9   2  421.06   21.40
  -9   6   2  367.16   20.20
  -6  -3  -2  405.56   17.00
  -3  -6   2  407.76   19.20
  -6  -3  -2  398.36   17.20
  -3   9  -2  396.16   17.20
   9  -6  -2  420.96   22.30
  -6   9   2  426.26   16.60
  -6   9   2  420.36   17.10
  -3  -6   2  308.37   29.40
   9  -3   2  399.06   17.80
  -6  -3  -2  447.86   23.30
  -9   5   2  497.25   24.70
   4   5  -2  509.85   19.80
   5  -9  -2  480.95   29.30
   4  -9   2  489.55   27.60
   4  -9   2  480.95   24.50
  -9   4  -2  493.15   20.50
  -9   5   2  498.55   19.40
  -9   4  -2  495.65   20.00
  -4  -5   2  506.95   22.30
  -5  -4  -2  489.15   20.10
   9  -5  -2  516.75   24.20
  -5  -4  -2  469.45   20.00
  -5   9   2  467.55   18.90
  -4   9  -2  486.15   20.30
  -4  -5   2  479.35   29.10
  -5   9   2  493.15   20.20
   5  -9   2  750.42   33.40
   4  -9  -2  735.93   37.20
  -9   5  -2  717.73   29.10
   5  -9   2  699.13   34.30
   5   4  -2  740.63   28.20
  -9   5  -2  733.73   28.60
  -4   9   2  712.13   28.80
  -4  -5  -2  741.23   33.90
   9  -5   2  715.73   29.90
  -5  -4   2  733.53   36.30
  -5  -4   2  715.83   30.60
   9  -4  -2  722.33   31.30
  -4  -5  -2  706.83   28.70
  -4  -5  -2  740.23   28.90
  -5   9  -2  716.13   29.00
  -9   6  -2  383.76   15.70
   6   3  -2  393.16   15.00
  -9   6  -2  375.46   15.80
   6  -9   2  380.06   20.80
   3  -9  -2  331.67   25.40
  -9   3   2  361.26   21.20
   6  -9   2  362.56   20.50
  -3  -6  -2  379.46   22.50
   9  -3  -2  384.56   14.70
   9  -6   2  340.47   17.00
  -6  -3   2  356.86   24.50
   9  -3  -2  368.26   18.80
  -3  -6  -2  354.76   15.70
  -6   9  -2  368.26   15.90
  -3  -6  -2  369.76   15.20
  -3   9   2  357.16   15.70
   7   2  -2 1994.00   81.09
  -9   2   2 2043.80   84.29
  -9   7  -2 2181.18   79.99
   7  -9   2 2244.08   83.49
   2  -9  -2 2119.49   87.59
   7   2  -2 2086.49   79.29
  -9   7  -2 2035.60   80.09
   9  -2  -2 2123.49   79.09
  -2  -7  -2 2133.99   86.29
   9  -2  -2 2008.80   81.89
  -2   9   2 2071.69   79.99
  -7   9  -2 2160.28   80.29
  -7   9  -2 2021.30   80.09
  -2  -7  -2 2032.40   80.09
   9  -7   2 2065.29   81.59
  -2  -7  -2 2132.39   79.39
  -7  -2   2 2096.09   85.69
   8   1  -2  641.74   24.60
   8  -9   2  664.33   29.80
   1  -9  -2  624.34   34.50
   8   1  -2  625.64   27.10
  -9   8  -2  670.43   25.90
  -9   8  -2  642.34   25.70
  -9   1   2  625.64   31.70
   9  -1  -2  607.04   27.70
   9  -8   2  677.83   28.70
  -1   9   2  539.55   24.70
  -8   9  -2  666.53   25.90
  -8   9  -2  623.84   25.60
   9  -1  -2  659.13   24.50
  -1  -8  -2  643.94   24.70
  -1   9   2  656.03   25.80
  -1  -8  -2  628.14   33.90
  -8  -1   2  632.04   32.60
   0  -9  -2 1698.93   71.49
   9   0  -2 1642.54   66.19
   9  -9   2 1701.23   67.49
  -9   9  -2 1664.73   64.49
   0  -9  -2 1702.23   63.29
  -9   9  -2 1720.73   64.59
   9   0  -2 1669.53   63.29
   0   9   2 1666.23   64.49
  -9   0   2 1590.14   69.59
 -10   0  -2 1001.40   41.20
   0 -10   2  949.90   48.70
 -10  10   2 1016.50   39.90
   0  10  -2  974.80   39.10
  10 -10  -2  967.20   46.10
   0 -10   2  975.40   43.30
 -10   0  -2  999.40   39.80
 -10  10   2 1013.00   38.80
   9 -10  -2  702.93   37.50
 -10   1  -2  705.33   29.00
   1 -10   2  738.63   33.70
   1   9  -2  709.43   29.30
 -10   9   2  746.23   31.10
 -10   9   2  762.52   29.20
 -10   1  -2  754.32   30.10
  -9  -1  -2  724.53   30.10
  -9  -1  -2  697.13   29.50
  -1  10  -2  723.53   29.60
  -9  -1  -2  720.33   31.80
  -1  -9   2  763.82   40.50
  -9  10   2  779.62   29.50
  -9  10   2  760.12   29.90
  -1  -9   2  728.33   34.90
  10  -9  -2  720.63   36.10
   2 -10   2  557.84   27.60
 -10   2  -2  552.64   22.00
 -10   8   2  569.34   25.10
   8 -10  -2  523.35   31.40
   2 -10   2  567.14   33.50
 -10   2  -2  571.14   23.10
 -10   8   2  524.75   21.90
   2   8  -2  553.14   22.20
  -8  -2  -2  533.25   22.80
  -2  10  -2  547.15   22.50
  10  -2   2  529.45   23.50
  -8  10   2  540.75   22.20
  -8  10   2  578.64   22.30
  -2  -8   2  506.85   32.30
  -8  -2  -2  523.15   22.00
  10  -8  -2  539.05   27.40
  -8  -2  -2  531.05   25.30
   3   7  -2  327.37   14.40
 -10   3  -2  338.57   15.50
   3 -10   2  353.26   20.80
 -10   7   2  358.96   18.10
   7 -10  -2  310.27   25.00
 -10   7   2  343.97   14.10
   3 -10   2  327.67   24.60
  -7  10   2  353.86   15.10
  -7  10   2  349.17   14.10
  10  -3   2  351.46   16.00
  10  -7  -2  307.47   20.90
  -3  -7   2  332.77   25.60
  -7  -3  -2  339.87   14.50
  -7  -3  -2  324.37   19.10
  -7  -3  -2  331.07   15.20
  -3  10  -2  360.96   15.10
   4 -10   2  390.76   24.10
   6 -10  -2  361.76   27.10
   4 -10   2  369.46   22.10
 -10   4  -2  372.46   15.60
 -10   6   2  369.96   19.60
   4   6  -2  361.06   15.50
 -10   4  -2  393.56   16.50
 -10   6   2  375.86   15.20
  -6  10   2  351.26   16.00
  -6  -4  -2  367.56   20.90
  -4  10  -2  375.36   16.30
  10  -4   2  381.26   17.20
  -6  -4  -2  369.46   15.90
  -6  -4  -2  375.26   16.20
  -4  -6   2  362.46   26.20
  10  -6  -2  377.96   21.30
  -6  10   2  360.76   14.40
   5 -10   2  112.19   14.20
   5 -10   2  107.19   14.60
 -10   5  -2  108.69    6.40
 -10   5  -2  115.29    7.10
   5 -10  -2  100.09   17.30
   5   5  -2  106.09    6.10
 -10   5   2  111.29    5.50
 -10   5   2   86.79   12.00
  -5  -5   2  112.69    9.60
  -5  -5  -2  117.29    6.70
  -5  -5  -2  111.19    7.00
  -5  -5   2  118.39   18.60
  10  -5  -2  112.29   12.40
  -5  -5  -2  109.39   14.10
  10  -5   2   87.29    7.80
  -5  10   2   96.69    7.00
  -5  10  -2  110.09    7.40
 -10   4   2   11.70    1.90
   6 -10   2    1.00    9.70
 -10   6  -2    8.40    3.00
   6 -10   2    6.00    8.60
   6   4  -2    4.80    2.30
 -10   6  -2   10.10    3.50
   4 -10  -2    2.60   12.90
 -10   4   2    0.60    8.50
  -6  10  -2    8.10    3.60
  -4  -6  -2   10.00    9.80
  -4  -6  -2   11.30    2.90
  -6  -4   2    9.50   12.70
  -4  10   2   -0.80    3.40
  10  -4  -2   12.60    7.50
  -6  -4   2    8.10    5.30
 -10   7  -2   31.30    4.70
 -10   3   2   12.70    9.60
 -10   7  -2   40.30    4.80
   7   3  -2   32.40    5.80
   3 -10  -2   40.80   12.40
 -10   3   2   40.70    2.70
   7   3  -2   30.30    3.60
   7 -10   2   39.70    9.80
  10  -3  -2   40.80    8.10
  -3  -7  -2   26.60   11.70
  -7  -3   2   17.60   13.10
  -3  10   2   32.50    4.40
  10  -7   2   42.30    7.50
  -7  10  -2   32.80    4.60
  -3  -7  -2   33.50    3.80
 -10   8  -2  173.28    9.20
 -10   2   2  151.28   16.90
 -10   2   2  192.38    7.30
   8   2  -2  188.08    7.90
 -10   8  -2  183.58    9.30
   2   8   2  171.58    9.20
   2 -10  -2  149.79   21.00
   8 -10   2  175.68   16.10
   8   2  -2  169.88   11.20
  10  -2  -2  170.88   12.90
  -2  -8  -2  187.98    8.20
  -2  -8  -2  184.08   19.80
  -8  10  -2  191.58    9.70
  -2  10   2  169.28    9.50
  -8  -2   2  171.98   19.00
  -8  10  -2  174.38    9.30
  10  -8   2  217.48   13.60
 -10   9  -2  482.35   20.10
   9   1  -2  445.76   21.90
   9   1  -2  483.45   18.70
   9 -10   2  486.05   25.70
 -10   1   2  422.56   26.50
   1 -10  -2  476.75   31.30
 -10   9  -2  507.35   20.50
   1   9   2  473.05   20.20
  10  -9   2  514.45   24.30
  -1  -9  -2  463.95   29.60
  10  -1  -2  491.05   22.80
  -9  10  -2  477.95   20.00
  -9  10  -2  487.65   20.40
  -1  10   2  515.35   20.40
  -1  -9  -2  484.85   18.90
  -9  -1   2  460.45   27.80
 -10   0   2  102.69   15.00
   0 -10  -2  126.49    5.40
 -10  10  -2  124.09    7.80
   0  10   2  120.69    8.00
 -10  10  -2  121.89    8.20
  10   0  -2  129.99   11.30
   0 -10  -2  123.29   17.50
  10 -10   2  145.39   15.00
 -11  11   2   66.79    7.50
 -11   0  -2   73.59    9.50
   0 -11   2   55.09   18.00
   0 -11   2   44.50   10.90
 -11   0  -2   59.19    8.70
   0  11  -2   62.19    6.70
 -11   0  -2   58.79    7.20
 -11  11   2   63.99    6.60
  11 -11  -2   42.70   15.40
   1 -11   2    4.50   16.60
 -11  10   2    6.90    3.40
 -11  10   2    7.80    4.90
   1 -11   2    4.80    9.30
 -11   1  -2    9.90    4.70
   1  10  -2   11.80    4.10
  10 -11  -2   -8.50   13.80
  11 -10  -2   -4.80   12.40
  -1 -10   2    6.90    9.20
 -10  -1  -2    6.80    4.70
 -10  -1  -2   22.40    7.40
 -10  11   2   13.90    3.90
  -1 -10   2   -6.90   16.50
  11  -1   2    9.80    5.80
 -10  -1  -2    9.60    3.10
 -10  11   2   12.00    4.00
  -1  11  -2   14.80    4.60
 -11   2  -2  269.67   13.10
 -11   9   2  258.87   11.80
   2   9  -2  268.47   12.50
 -11   9   2  267.37   14.90
   9 -11  -2  244.28   24.40
   2 -11   2  252.47   27.00
  -9  -2  -2  257.87   16.20
  -9  11   2  248.08   11.80
  -9  -2  -2  239.68   11.60
  -9  -2  -2  267.07   13.30
  -2  11  -2  275.07   12.70
  11  -2   2  255.87   14.20
  -2  -9   2  231.58   27.40
  -9  11   2  254.67   12.50
  -2  -9   2  265.17   16.70
  11  -9  -2  270.07   21.50
 -11   8   2   63.69    5.20
 -11   8   2   55.99    8.40
   3 -11   2   84.09   20.70
   8 -11  -2   51.09   13.80
   3   8  -2   71.79    6.00
   3 -11   2   62.89   12.20
 -11   3  -2   62.49    5.90
 -11   3  -2   61.39    6.70
  11  -8  -2   67.19   12.80
  -3  -8   2   66.79   10.50
  -3  11  -2   64.29    6.70
  11  -3   2   71.29    7.70
  -8  11   2   68.49    6.80
  -8  -3  -2   60.39    5.60
  -8  -3  -2   64.59   11.30
  -8  11   2   63.79    4.50
  -8  -3  -2   64.59    6.90
  -3  -8   2   63.89   18.00
   4 -11   2   47.30   11.80
 -11   4  -2   46.30    5.00
   7 -11  -2   27.20   15.20
   4 -11   2   43.80   14.40
 -11   7   2   45.60    4.20
 -11   7   2   44.10    8.50
   4   7  -2   36.60    4.80
 -11   4  -2   44.50    5.20
  11  -7  -2   43.50   11.60
  -7  -4  -2   46.90    5.10
  -4  -7   2   41.90    8.00
  -4  11  -2   51.49    6.30
  -7  -4  -2   41.70    5.80
  11  -4   2   59.19    7.10
  -4  -7   2   44.70   15.40
  -7  -4  -2   45.70    9.90
  -7  11   2   40.80    2.70
  -7  11   2   38.70    5.70
 -11   6   2  462.15   24.00
 -11   5  -2  485.15   20.90
 -11   6   2  500.15   19.50
   5 -11   2  503.05   29.70
   6 -11  -2  487.85   29.60
   5   6  -2  495.75   19.90
 -11   5  -2  494.55   20.10
   5 -11   2  474.95   27.30
  -5  11  -2  486.15   20.90
  -6  -5  -2  527.45   26.10
  11  -6  -2  512.85   25.80
  11  -5   2  479.25   22.10
  -5  -6   2  508.55   23.20
  -6  11   2  484.85   20.50
  -6  -5  -2  466.35   20.30
  -6  -5  -2  497.75   20.70
  -5  -6   2  435.36   30.30
 -11   6  -2  182.28    9.80
   5 -11  -2  155.88   23.30
   6 -11   2  175.68   17.90
 -11   6  -2  199.78    9.20
   6   5  -2  200.28    8.80
 -11   5   2  188.88    8.00
 -11   5   2  162.18   14.50
  11  -5  -2  209.48   13.80
  11  -6   2  141.99   11.00
  -6  -5   2  172.08   12.30
  -5  -6  -2  184.08    9.30
  -5  -6  -2  188.88   18.00
  -5  11   2  176.08    9.80
  -6  11  -2  201.38   10.20
  -5  -6  -2  171.38    9.40
  -6  -5   2  150.38   20.70
   7 -11   2  526.55   27.80
 -11   7  -2  523.65   21.20
   7 -11   2  526.85   28.00
 -11   7  -2  500.65   21.60
   4 -11  -2  500.65   32.80
 -11   4   2  480.25   26.20
 -11   4   2  531.55   20.00
   7   4  -2  528.35   20.50
  -4  11   2  498.15   21.50
  11  -4  -2  548.15   25.30
  11  -7   2  485.65   23.20
  -7  11  -2  512.75   21.60
  -7  -4   2  493.35   30.00
  -4  -7  -2  526.25   29.00
 -11   8  -2   30.60    4.50
   3 -11  -2   25.60   16.40
   8 -11   2   19.00   11.20
   3   8   2   30.30    4.30
   8   3  -2   32.10    3.60
 -11   3   2   32.60    2.20
   8   3  -2   23.50    6.30
 -11   3   2   13.80   10.00
 -11   8  -2   26.40    4.10
  -3  -8  -2   31.70   10.80
  -3  -8  -2   27.70    4.10
  -3  11   2   27.10    4.60
  11  -3  -2   27.90    8.50
  -8  11  -2   31.60    4.80
  -8  -3   2   26.50   13.50
   9   2  -2 1200.68   44.90
   9   2  -2 1154.68   47.80
 -11   9  -2 1156.78   46.20
 -11   2   2 1081.29   50.89
   2 -11  -2 1075.29   55.39
   9 -11   2 1257.47   51.39
 -11   9  -2 1216.68   46.20
   2   9   2 1172.98   46.20
  -2  -9  -2 1191.48   45.30
  -9  -2   2 1142.09   52.49
  -9  11  -2 1209.68   46.30
  -2  -9  -2 1172.98   54.39
  11  -2  -2 1209.58   48.70
  11  -9   2 1232.88   49.50
  -9  11  -2 1166.38   46.00
  -2  11   2 1183.88   46.20
   1  10   2    9.40    3.90
 -11  10  -2   12.80    3.70
   1 -11  -2   13.80   15.50
  10   1  -2   17.20    5.60
 -11   1   2   -4.70   10.80
  10 -11   2   14.60    9.90
  10   1  -2   17.20    1.90
 -11  10  -2   13.40    4.40
  -1 -10  -2   11.30   13.90
  -1  11   2    3.30    4.10
  11  -1  -2   17.70    7.50
  -1 -10  -2   12.00    2.00
 -10  -1   2   -3.60   11.50
 -10  11  -2   11.40    4.50
  11 -10   2   33.90   10.40
 -10  11  -2    9.30    3.70
   0  11   2 1131.99   46.00
  11 -11   2 1248.08   55.09
   0 -11  -2 1222.28   56.19
 -11  11  -2 1188.08   46.30
  11   0  -2 1159.48   48.00
 -11  11  -2 1163.58   46.00
 -11   0   2 1104.59   51.59
   0 -12   2  540.35   29.60
 -12   0  -2  540.35   22.90
 -12  12   2  545.65   22.30
   0 -12   2  478.85   34.90
   0  12  -2  522.45   22.40
  12 -12  -2  520.75   32.40
 -12  12   2  531.85   22.90
 -12   0  -2  527.85   23.40
 -12   1  -2  256.37   13.80
  11 -12  -2  187.08   24.30
   1 -12   2  263.27   19.90
   1  11  -2  269.17   12.90
 -12  11   2  284.57   12.70
   1 -12   2  238.78   27.50
 -11  -1  -2  255.47   13.60
  12 -11  -2  238.28   23.30
 -11  -1  -2  259.27   12.00
 -11  12   2  267.07   12.90
  -1 -11   2  276.77   18.90
 -11  12   2  278.17   12.70
  -1 -11   2  221.18   28.40
  -1  12  -2  269.47   13.10
  12  -1   2  279.37   15.10
 -11  -1  -2  269.77   16.10
 -12  10   2  875.41   37.00
 -12  10   2  896.81   35.00
   2 -12   2  855.61   46.30
 -12   2  -2  909.71   36.30
   2 -12   2  913.91   42.30
   2  10  -2  914.91   35.50
  10 -12  -2  872.81   43.10
 -10  -2  -2  889.21   38.50
  12 -10  -2  808.62   42.70
  -2 -10   2  851.71   45.00
 -10  12   2  919.71   35.50
  -2 -10   2  891.11   40.10
 -10  -2  -2  902.41   35.00
 -10  -2  -2  857.21   36.10
  -2  12  -2  876.31   35.60
 -10  12   2  881.01   35.00
  12  -2   2  937.91   37.20
 -12   9   2  259.27   15.50
   3   9  -2  269.87   12.90
 -12   3  -2  278.07   13.70
   9 -12  -2  276.27   22.40
 -12   3  -2  269.07   12.40
   3 -12   2  274.57   25.50
 -12   9   2  290.27   12.30
   3 -12   2  271.97   20.50
  -3  12  -2  277.17   13.40
  12  -3   2  286.27   14.90
  -9  -3  -2  256.97   12.30
  -3  -9   2  265.97   25.60
  -3  -9   2  266.17   17.80
  -9  12   2  277.17   11.70
  -9  12   2  273.97   13.00
  -9  -3  -2  261.97   13.70
  12  -9  -2  251.27   21.30
  -9  -3  -2  296.87   17.70
 -12   4  -2  112.29    8.60
 -12   8   2  129.09    6.70
 -12   4  -2  110.49    7.10
   8 -12  -2   81.49   19.10
 -12   8   2  122.59   12.90
   4 -12   2   94.89   18.20
   4   8  -2  115.69    7.00
  12  -4   2  119.09   10.40
  -4  12  -2  121.29    8.40
  -8  -4  -2  118.39    7.50
  -4  -8   2  106.49   12.00
  -8  -4  -2  112.49    8.30
  12  -8  -2  120.79   17.10
  -8  12   2  113.39    8.00
  -8  -4  -2  118.69   14.00
  -8  12   2  114.09    5.20
  -4  -8   2  101.19   18.10
 -12   7   2  174.08    7.80
 -12   5  -2  157.78    9.70
   5   7  -2  175.68    8.60
   5 -12   2  148.39   18.40
 -12   7   2  148.29   14.70
   5 -12   2  169.28   22.70
 -12   5  -2  167.88    8.50
   7 -12  -2  147.19   24.70
  -7  -5  -2  157.18   15.40
  -5  -7   2  155.78   13.10
  12  -7  -2  156.78   14.40
  -7  -5  -2  151.68    9.00
  -7  12   2  160.08    9.30
  -5  -7   2  143.69   22.10
  12  -5   2  118.79   11.20
  -5  12  -2  168.28    9.50
   6 -12   2   -0.40   13.30
 -12   6  -2    8.60    3.20
 -12   6   2    8.60    2.20
   6 -12   2    2.10   11.00
   6   6  -2    7.20    2.90
   6 -12  -2    1.40   12.70
 -12   6  -2    3.90    4.30
 -12   6   2   -9.10    8.30
  -6  -6  -2    0.20    9.70
  -6  -6   2    3.80    6.20
  12  -6   2   -6.60    5.10
  -6  -6  -2    5.20    3.60
  12  -6  -2   18.20    9.90
  -6  12   2    8.10    4.10
  -6  12  -2    8.10    4.30
  -6  -6   2   -9.80   13.30
   5 -12  -2   53.79   15.20
   7   5  -2   84.79    5.60
   7 -12   2   72.59   14.00
 -12   7  -2   76.09    6.90
 -12   5   2   73.09   11.20
   7 -12   2   71.89   13.40
 -12   7  -2   96.29    7.80
 -12   5   2   86.69    4.40
  -5  -7  -2   81.39    6.20
  -7  -5   2   88.69   10.30
  -7  12  -2   86.19    8.10
  -7  -5   2   70.19   15.30
  -5  -7  -2   90.89   16.80
  12  -5  -2   91.19   13.80
  -5  12   2   58.19    7.50
  12  -7   2   61.99    9.90
   8 -12   2  203.78   19.60
 -12   4   2  177.78   15.70
   8   4  -2  211.08    9.10
 -12   4   2  184.18    8.10
   4 -12  -2  178.88   25.30
 -12   8  -2  213.38   10.60
   4   8   2  203.68   10.40
 -12   8  -2  195.38   10.00
   8 -12   2  213.08   19.60
  12  -4  -2  212.28   15.70
  -4  -8  -2  205.78    9.70
  -8  12  -2  215.98   11.00
  -8  -4   2  161.18   20.40
  -4  12   2  177.48   10.60
  -4  -8  -2  195.08   19.70
 -12   9  -2   48.70    5.80
   9   3  -2   51.99    4.00
   3 -12  -2   26.10   17.20
   9   3  -2   41.90    7.40
 -12   9  -2   47.90    5.90
   3   9   2   43.50    6.40
   9 -12   2   50.19   13.80
 -12   3   2   33.20   10.30
  -3  12   2   44.10    5.30
  -9  12  -2   56.09    6.80
  -3  -9  -2   46.30    4.60
  12  -3  -2   60.59   11.70
  -9  -3   2   29.70   13.40
  -3  -9  -2   53.49   15.00
 -12  10  -2  531.65   22.80
 -12  10  -2  534.65   22.70
  10   2  -2  516.25   24.70
   2  10   2  538.45   22.60
 -12   2   2  536.35   28.50
  10   2  -2  546.95   20.90
   2 -12  -2  534.65   35.50
  10 -12   2  569.84   34.20
 -10  12  -2  552.04   22.90
  12  -2  -2  546.15   26.10
  -2 -10  -2  527.65   30.80
  -2  12   2  527.25   22.70
  -2 -10  -2  546.85   21.60
 -10  12  -2  526.85   22.60
 -10  -2   2  526.25   30.60
  12 -10   2  620.34   28.70
  11   1  -2   57.69   10.00
  11 -12   2   62.59   13.20
 -12  11  -2   56.99    5.80
 -12   1   2   39.40   12.80
 -12  11  -2   43.80    6.40
   1  11   2   52.69    5.70
   1 -12  -2   53.29   15.30
 -11  12  -2   54.09    5.70
  -1  12   2   43.30    5.60
  12  -1  -2   57.99   10.90
 -11  12  -2   61.99    7.20
  12 -11   2   95.19   16.00
  -1 -11  -2   71.89   17.60
 -11  -1   2   46.20   13.90
   0  12   2  634.64   26.30
   0 -12  -2  604.24   37.30
 -12  12  -2  634.24   26.50
 -12  12  -2  654.93   26.10
  12 -12   2  648.34   33.80
 -12   0   2  626.14   32.60
  12   0  -2  609.04   29.00
   0  13  -2  110.59    8.40
  13 -13  -2   83.19   15.40
 -13   0  -2  104.59    9.10
  13   0   2   99.79   10.30
 -13  13   2  114.49    8.40
 -13  13   2  139.49    8.10
   0 -13   2   94.79   19.00
   0 -13   2  104.09   15.60
   1 -13   2  -18.50   14.60
  12 -13  -2   11.00   15.30
   1 -13   2    7.30   10.70
 -13  12   2   24.70    4.30
   1  12  -2    9.90    4.60
 -13  12   2   14.30    5.30
 -13   1  -2   10.30    5.50
  -1  13  -2   15.00    4.80
  -1 -12   2   10.60   16.40
 -12  -1  -2    9.20    3.50
  13 -12  -2   -8.50   14.40
 -12  -1  -2    9.70    5.30
 -12  -1  -2   25.50    7.70
  13  -1   2   20.10    7.00
 -12  13   2    9.20    3.90
 -12  13   2   22.40    4.60
  -1 -12   2   13.10   11.00
 -13   2  -2   82.99    8.50
 -13  11   2   63.79    9.00
   2 -13   2  102.89   16.20
  11 -13  -2   67.19   18.20
 -13  11   2   97.09    6.90
   2  11  -2   80.09    7.40
   2 -13   2   42.00   18.10
 -11  -2  -2   89.39    8.80
  13 -11  -2   82.59   16.60
 -11  -2  -2  101.89   12.80
  13  -2   2   88.79    9.80
  -2 -11   2  104.39   14.10
 -11  -2  -2   84.19    6.40
  -2 -11   2   74.39   18.00
 -11  13   2   83.49    6.30
  -2  13  -2   85.89    8.60
 -11  13   2   95.09    7.50
 -13   3  -2   -1.20    4.40
 -13   3  -2   -2.00    3.00
  10 -13  -2  -12.30   16.10
   3 -13   2  -15.00   17.50
 -13  10   2    5.50    3.20
 -13  10   2    2.50    6.40
   3 -13   2   -9.00   11.70
   3  10  -2    0.10    4.20
 -10  -3  -2    2.20    3.30
 -10  -3  -2   -4.20    4.50
  13  -3   2   -6.60    5.40
  -3  13  -2    4.70    4.60
  13 -10  -2   -2.70   13.10
  -3 -10   2    1.50   15.60
 -10  13   2    2.50    2.50
 -10  -3  -2    6.10    7.60
  -3 -10   2    4.40    8.80
 -10  13   2    3.60    4.20
   4   9  -2   15.00    4.10
   4 -13   2    6.50   12.50
 -13   4  -2   15.60    5.30
 -13   4  -2    9.50    3.30
   4 -13   2   13.70   16.70
 -13   9   2    9.10    7.00
 -13   9   2   13.50    3.20
   9 -13  -2   -3.40   16.80
  -9  -4  -2   14.00    8.50
  13  -4   2   -6.90    5.80
  -9  -4  -2    6.50    4.50
  13  -9  -2    9.70   12.30
  -9  13   2   13.20    4.50
  -9  -4  -2   10.10    3.50
  -4  -9   2   10.30    8.40
  -4  13  -2   15.20    4.90
  -4  -9   2    9.00   15.40
  -9  13   2    9.40    1.90
 -13   8   2    9.90    3.60
   5 -13   2    2.90   15.70
   5 -13   2    0.20   12.40
 -13   5  -2   -1.40    3.20
 -13   8   2   -7.60    7.20
   8 -13  -2  -13.40   17.70
 -13   5  -2    3.40    4.90
   5   8  -2    3.20    3.40
  -5  -8   2  -16.40   14.10
  -5  13  -2    8.40    4.90
  -5  -8   2    3.20    7.50
  -8  13   2    2.80    4.30
  -8  -5  -2   -6.90    8.70
  -8  -5  -2    4.50    4.10
  13  -8  -2    7.30   12.20
 -13   6  -2   37.90    5.60
   7 -13  -2   28.70   17.30
 -13   7   2   54.59    4.40
   6   7  -2   46.50    5.40
   6 -13   2   46.20   15.80
 -13   7   2   38.40    9.30
   6 -13   2   39.00   14.00
 -13   6  -2   30.20    4.30
  -7  13   2   41.20    5.30
  -7  -6  -2   34.60   11.50
  -7  -6  -2   34.80    5.30
  13  -6   2   29.80    7.40
  -6  13  -2   47.30    6.90
  13  -7  -2   49.70   10.60
  -6  -7   2   22.70   15.10
  -6  -7   2   48.50    8.80
   6 -13  -2  -11.70   16.70
   7 -13   2    7.60   13.00
   7 -13   2    7.70   13.60
 -13   6   2    4.00    8.90
   6   7   2    5.40    3.70
   7   6  -2   15.10    3.30
 -13   6   2   15.00    2.30
 -13   7  -2   16.30    4.70
  13  -7   2    6.50    6.70
  -7  -6   2   17.00    7.50
  -7  13  -2   11.90    4.70
  -7  -6   2   -7.50   13.30
  13  -6  -2   16.50   10.70
  -6  -7  -2   15.90   11.30
  -6  13   2   10.20    4.50
  -6  -7  -2   12.00    4.10
 -13   5   2   14.10   10.40
 -13   8  -2   22.50    4.80
   5   8   2   18.30    4.40
   8 -13   2   14.40   13.30
   8   5  -2   29.00    3.40
   8 -13   2   29.90   13.80
 -13   8  -2   28.30    4.20
   5 -13  -2   -0.20   18.00
  -5  -8  -2   25.70   13.40
  -5  -8  -2   26.80    4.30
  -5  13   2   13.80    4.90
  -8  -5   2   33.30    7.90
  -8  -5   2   19.30   12.90
  13  -5  -2   39.90   10.80
  -8  13  -2   29.30    5.30
   9   4  -2  417.56   20.90
   9 -13   2  425.26   28.30
   4   9   2  407.76   18.50
   9 -13   2  406.56   26.30
   4 -13  -2  415.06   33.50
 -13   9  -2  425.96   19.10
 -13   9  -2  455.65   18.90
   9   4  -2  451.15   17.50
 -13   4   2  388.66   24.10
  -4  13   2  419.86   19.10
  -9  13  -2  435.26   19.20
  13  -4  -2  448.06   22.40
  -4  -9  -2  448.06   18.30
  13  -9   2  521.65   24.30
  -4  -9  -2  433.96   28.30
  -9  -4   2  396.26   27.60
 -13  10  -2   87.09    7.00
  10 -13   2   90.29   16.50
   3 -13  -2   86.89   17.30
  10   3  -2   74.89   10.00
   3  10   2   87.29    7.60
 -13  10  -2   80.99    7.00
 -13   3   2   66.89   12.10
  10   3  -2   85.09    4.60
 -10  13  -2   79.89    7.90
  -3 -10  -2   83.39   17.40
  13  -3  -2   89.99   12.70
  -3  13   2   60.79    8.30
 -10  -3   2   78.49   15.20
  -3 -10  -2   87.59    5.90
  11 -13   2  362.46   24.00
   2  11   2  344.07   15.60
 -13   2   2  323.07   21.40
 -13  11  -2  332.87   15.50
   2 -13  -2  330.17   30.70
  11   2  -2  348.17   18.40
 -13  11  -2  348.27   16.00
 -11  13  -2  346.07   15.60
  13  -2  -2  330.67   19.80
  -2 -11  -2  337.97   28.40
 -11  -2   2  296.67   23.80
 -11  13  -2  341.07   15.90
  -2  13   2  336.47   16.00
  -2 -11  -2  359.36   14.30
  13 -11   2  384.46   23.40
  12 -13   2  123.79   19.60
   1 -13  -2  145.79   25.20
 -13   1   2  119.29   15.50
 -13  12  -2  123.09    8.10
  12   1  -2  129.49   12.30
   1  12   2  127.59    8.90
 -13  12  -2  135.09    8.80
 -12  -1   2  134.49   17.40
 -12  13  -2  132.49    8.60
 -12  13  -2  135.19    9.20
  -1 -12  -2  135.49    6.20
  13 -12   2  159.68   18.30
  13  -1  -2  140.89   13.10
  -1 -12  -2  128.69   23.30
  -1  13   2  130.39    9.10
  13 -13   2  210.38   19.80
  13   0  -2  195.28   14.40
 -13   0   2  213.18   17.30
   0 -13  -2  158.48   24.70
 -13  13  -2  189.68   10.10
 -13  13  -2  177.28   11.10
   0  13   2  194.28   11.20
 -14  14   2  650.63   25.60
   0  14  -2  631.04   25.70
  14 -14  -2  572.24   35.20
  14   0   2  620.54   27.60
 -14   0  -2  616.94   26.60
   0 -14   2  623.64   31.90
   0 -14   2  519.25   34.00
 -14  13   2   99.89    7.30
  13 -14  -2   81.79   18.20
   1 -14   2   92.19   15.60
 -14   1  -2   77.39    7.20
 -14   1  -2   76.79    8.30
 -14  13   2   88.69    8.00
   1  13  -2   96.19    8.20
 -13  -1  -2   79.29    8.10
 -13  14   2  105.49    7.20
  14  -1   2   64.09    9.30
  -1 -13   2   92.69   16.40
  -1 -13   2  104.09   14.60
  14 -13  -2   75.59   16.60
  -1  14  -2   92.09    7.80
 -13  -1  -2   85.59    6.40
   2 -14   2  956.00   46.10
 -14  12   2 1042.20   40.20
   2  12  -2  992.30   38.90
 -14  12   2 1017.70   38.50
   2 -14   2  867.41   47.70
  12 -14  -2  913.31   48.20
 -14   2  -2  968.10   39.70
  14 -12  -2  931.71   45.10
 -12  -2  -2  952.70   41.80
  14  -2   2  969.20   40.90
 -12  14   2  986.00   38.80
  -2 -12   2  973.50   43.80
  -2 -12   2  961.50   48.00
  -2  14  -2  982.50   39.10
 -12  -2  -2  968.50   39.80
 -12  -2  -2  988.00   38.10
   3 -14   2  293.57   24.20
 -14  11   2  318.87   16.40
 -14   3  -2  305.07   15.60
 -14  11   2  344.27   14.20
   3 -14   2  218.28   27.10
  11 -14  -2  260.67   27.20
   3  11  -2  299.77   14.50
 -11  -3  -2  316.07   18.90
 -11  14   2  316.37   13.30
 -11  14   2  335.57   14.70
  -3 -11   2  323.07   20.40
  -3  14  -2  337.57   15.50
  14 -11  -2  303.07   25.20
  14  -3   2  299.27   16.80
 -11  -3  -2  320.17   15.60
  -3 -11   2  307.57   27.40
 -14  10   2  262.47   15.90
   4  10  -2  276.97   13.00
   4 -14   2  252.97   28.70
  10 -14  -2  210.48   27.40
 -14   4  -2  277.57   12.40
 -14   4  -2  281.07   14.00
 -14  10   2  293.27   12.60
   4 -14   2  255.27   24.40
  -4 -10   2  274.97   18.30
 -10  -4  -2  280.77   14.00
  -4 -10   2  242.98   25.10
 -10  -4  -2  279.67   18.40
  14 -10  -2  232.58   22.10
  14  -4   2  224.58   14.90
  -4  14  -2  269.97   13.50
 -10  14   2  265.37   11.00
 -10  14   2  274.97   13.70
 -14   5  -2   80.69    8.10
   5 -14   2   73.99   16.70
   9 -14  -2   45.50   19.90
   5   9  -2   75.99    6.70
 -14   5  -2   82.99    6.60
 -14   9   2   90.49    5.90
 -14   9   2   72.29   10.40
   5 -14   2   57.29   18.80
  -9  14   2   70.39    7.70
  -5  14  -2   77.09    8.00
  -5  -9   2   84.59   16.90
  -9  -5  -2   71.19    8.00
  -5  -9   2   79.19   12.40
  -9  -5  -2   81.69   13.90
  14  -9  -2   75.59   13.90
  14  -5   2   57.19    8.70
 -14   8   2   41.90    4.50
   6   8  -2   40.40    5.70
 -14   8   2   32.90    8.80
   8 -14  -2   36.30   19.20
 -14   6  -2   33.90    4.30
   6 -14   2   29.20   16.90
 -14   6  -2   37.00    6.10
   8   6   2   21.00    4.10
   6 -14   2   37.20   13.90
  14  -6   2   24.90    7.40
  -8  -6  -2   33.90    5.40
  -6  14  -2   45.20    5.80
  14  -8  -2   42.20   13.20
  -8  -6  -2   34.80   11.20
  -8  14   2   31.70    5.30
  -6  -8   2   40.40   16.00
  -6  -8   2   40.80    9.20
   7 -14   2  171.88   23.80
   7   7  -2  147.09    8.30
   7   7   2  126.49    8.30
 -14   7   2  135.99    6.90
 -14   7  -2  145.89    9.70
   7 -14  -2  152.58   25.70
   7 -14   2  150.88   21.90
 -14   7   2  107.79   13.80
  -7  -7   2  152.18   21.00
  14  -7  -2  170.38   18.30
  -7  -7  -2  135.79   17.70
  -7  14   2  136.19    9.50
  -7  -7  -2  156.88    9.50
  -7  -7   2  169.98   13.80
  14  -7   2  152.28   12.60
  -7  14  -2  139.79   10.20
   6 -14  -2   -6.00   17.60
   6   8   2    2.20    3.60
 -14   8  -2   11.40    4.80
 -14   8  -2    9.00    3.70
 -14   6   2    6.70    9.20
   8   6  -2    7.40    3.10
   8 -14   2   13.80   15.50
   8 -14   2   10.90   13.80
  -6  -8  -2    4.60    4.00
  -8  14  -2   10.80    4.90
  -8  -6   2   22.20    8.00
  -6  14   2    6.40    4.80
  14  -6  -2    8.80   11.00
  14  -8   2   23.80    7.80
  -6  -8  -2   10.70   12.00
  -8  -6   2    3.70   12.70
 -14   9  -2   53.29    6.60
   5   9   2   45.10    6.70
   5 -14  -2   30.00   20.00
 -14   9  -2   53.29    6.60
   9 -14   2   60.49   16.30
   9   5  -2   54.49    5.00
   9 -14   2   38.70   13.60
 -14   5   2   52.19   10.80
  -5  14   2   52.29    6.30
  -5  -9  -2   46.90   14.60
  -9  14  -2   54.59    7.50
  -5  -9  -2   46.70    5.70
  14  -5  -2   61.79   11.90
  -9  -5   2   43.80   14.70
  10   4  -2  271.57   11.20
  10   4  -2  242.18   15.40
   4  10   2  250.97   12.90
  10 -14   2  253.17   22.00
 -14  10  -2  264.67   12.90
 -14  10  -2  266.67   13.10
   4 -14  -2  270.77   28.30
  10 -14   2  280.97   24.40
 -14   4   2  235.18   18.70
  -4 -10  -2  276.47   20.70
  -4 -10  -2  255.37   12.10
 -10  14  -2  265.97   13.70
 -10  -4   2  257.97   22.10
  -4  14   2  264.27   13.30
  14  -4  -2  263.47   18.60
  11   3  -2  137.19   11.90
 -14   3   2  146.29   15.70
   3 -14  -2  116.49   22.40
   3  11   2  131.39    8.60
 -14  11  -2  142.09    9.20
  11 -14   2  133.49   22.60
 -14  11  -2  145.29    8.80
  -3  14   2  128.59    9.50
  -3 -11  -2  156.98    7.90
  14  -3  -2  161.88   12.40
  -3 -11  -2  117.29   21.80
 -11  -3   2  135.39   18.20
 -11  14  -2  140.69    9.40
  14 -11   2  189.48   18.50
  12   2  -2  360.06   19.10
 -14  12  -2  371.96   16.50
 -14   2   2  357.06   22.40
 -14  12  -2  360.16   16.60
   2 -14  -2  362.76   30.40
  12 -14   2  351.86   26.70
   2  12   2  340.97   16.50
  -2 -12  -2  348.97   28.20
  14  -2  -2  388.66   20.80
 -12  14  -2  364.16   16.30
 -12  -2   2  367.76   23.90
  -2  14   2  355.96   16.80
 -12  14  -2  366.36   16.80
  -2 -12  -2  386.66   15.10
  14 -12   2  400.46   23.90
   1 -14  -2    8.40   15.40
  13   1  -2    6.60    7.20
 -14   1   2   -1.80    9.10
 -14  13  -2    2.10    4.20
 -14  13  -2    4.00    3.70
   1  13   2    4.00    4.20
  13 -14   2   13.10   12.20
  14 -13   2   19.20   11.30
 -13  14  -2   -1.10    4.50
  14  -1  -2   10.50    7.90
  -1  14   2    4.50    4.30
 -13  -1   2    5.70    8.90
 -13  14  -2   -0.80    3.40
  -1 -13  -2   17.70   15.10
 -14  14  -2  981.20   39.80
   0 -14  -2  972.10   50.49
 -14  14  -2  982.80   39.60
  14 -14   2 1038.50   47.60
  14   0  -2  991.80   42.40
   0  14   2 1017.30   39.80
 -14   0   2  968.30   44.50
  15   0   2   -9.50    5.50
   0 -15   2    2.00   10.50
  15 -15  -2   -1.60   16.50
 -15  15   2    2.30    3.80
   0  15  -2   -3.10    4.70
 -15   0  -2    3.60    4.90
  14 -15  -2  163.88   22.30
   1 -15   2  173.68   18.20
 -15  14   2  174.68   10.40
 -15   1  -2  161.58   10.90
 -15  14   2  169.18    9.80
   1 -15   2  120.69   19.50
  14   1   2  154.38   12.30
   1  14  -2  178.58   10.10
  -1 -14   2  222.88   21.40
 -14  -1  -2  163.68   11.20
  -1 -14   2  176.88   18.10
  15 -14  -2  138.29   20.80
  15  -1   2  154.08   11.90
  -1  15  -2  162.48   10.10
 -14  15   2  172.38    9.90
 -15  13   2   43.30    6.10
   2  13  -2   54.29    7.10
 -15   2  -2   44.40    5.00
 -15  13   2   50.89    6.70
 -15   2  -2   41.10    6.40
   2 -15   2   34.70   14.90
   2 -15   2   46.90   12.30
  13 -15  -2   20.90   15.30
 -13  15   2   59.39    6.90
  15  -2   2   33.80    7.30
  -2 -13   2   69.29   15.40
 -13  -2  -2   49.60    8.60
 -13  -2  -2   42.20    6.20
  -2  15  -2   52.99    7.60
  15 -13  -2   26.50   14.60
  -2 -13   2   46.10   10.70
 -15  12   2   46.00    6.90
  12 -15  -2   20.10   16.00
 -15  12   2   44.50    5.90
   3 -15   2   45.00   13.30
   3  12  -2   40.20    5.40
 -15   3  -2   44.10    7.10
   3 -15   2   14.00   14.60
 -12  15   2   62.09    7.20
  15  -3   2   39.20    7.40
  -3  15  -2   55.69    7.70
  15 -12  -2   40.10   14.60
 -12  -3  -2   50.39    7.10
 -12  -3  -2   57.59   10.90
  -3 -12   2   56.59   11.40
  -3 -12   2   51.99   15.30
  11   4   2   34.80    4.20
 -15   4  -2   24.90    3.80
  11 -15  -2    3.00   16.30
 -15  11   2   27.30    6.70
   4  11  -2   24.10    4.70
   4 -15   2   19.50   13.50
 -15   4  -2   27.30    5.70
 -15  11   2   24.90    3.90
 -11  -4  -2   20.30    5.40
  -4 -11   2   23.80   14.00
  -4  15  -2   27.90    5.50
  -4 -11   2   32.90    9.70
  15  -4   2    9.00    6.30
 -11  -4  -2   29.90    8.90
 -11  15   2   28.50    4.90
  15 -11  -2   11.80   13.70
  10 -15  -2   25.60   18.40
   5 -15   2   35.50   13.30
 -15   5  -2   32.10    5.90
 -15  10   2   43.90    5.10
 -15   5  -2   31.30    4.10
   5 -15   2    8.80   16.40
 -15  10   2   27.20    7.30
  10   5   2   30.10    4.40
   5  10  -2   48.50    6.30
  15 -10  -2   38.60   13.90
 -10  15   2   39.80    5.40
  15  -5   2   33.60    7.50
  -5 -10   2   40.40   14.00
  -5 -10   2   43.40    9.60
 -10  -5  -2   46.60   10.40
  -5  15  -2   52.69    7.20
 -10  -5  -2   38.40    6.30
 -15   6  -2   39.10    5.40
   6   9  -2   30.80    4.50
   6 -15   2   30.60   14.00
   9 -15  -2   15.60   17.70
 -15   9   2   35.30    5.20
 -15   9   2   33.40    7.80
 -15   6  -2   36.30    6.00
   9   6   2   28.80    3.90
   6 -15   2   21.70   16.90
  -9  15   2   28.40    5.20
  -9  -6  -2   43.60   11.20
  15  -6   2   24.90    7.40
  -9  -6  -2   29.80    5.60
  -6  -9   2   30.40    9.10
  -6  15  -2   30.30    5.40
  -6  -9   2   46.70   15.20
  15  -9  -2   31.70   13.60
   8   7   2   -3.90    3.10
 -15   7  -2   -1.30    4.40
   7 -15   2    3.30   16.20
 -15   8   2    4.00    6.80
   8 -15  -2  -18.80   15.70
   7 -15   2   -0.10   13.90
   7   8  -2    3.00    3.40
 -15   8   2   -4.00    2.40
  -8  -7  -2    3.50    4.00
  -8  -7  -2    2.90   10.40
  -7  15  -2    3.80    4.80
  15  -8  -2   16.10   12.20
  -7  -8   2   -2.40    7.20
  -8  15   2    6.00    4.50
  -7  -8   2   -0.70   13.30
  15  -7   2    5.70    7.10
   7 -15  -2  110.69   21.90
 -15   8  -2  126.79    8.90
   7   8   2  128.79    8.20
 -15   8  -2  139.69    8.10
   8   7  -2  127.89    7.60
 -15   7   2  111.79   12.70
   8 -15   2  120.89   18.70
   8 -15   2  124.29   22.30
  15  -7  -2  148.99   17.10
  -7  -8  -2  122.29    8.50
  -8  -7   2  126.99   12.40
  -8  15  -2  120.09    9.20
  -8  -7   2  116.29   17.30
  -7  -8  -2  126.49   17.60
  -7  15   2  126.19    9.10
 -15   9  -2   39.20    5.60
   6   9   2   38.30    4.90
 -15   6   2   39.00    9.90
   9 -15   2   40.70   15.50
 -15   9  -2   36.20    4.70
   6 -15  -2   20.00   18.70
   9 -15   2   45.20   14.50
  -6  15   2   32.80    5.50
  -9  15  -2   30.30    5.70
  15  -6  -2   44.10   12.10
  -9  -6   2   30.50   13.20
  -6  -9  -2   33.30   12.90
  -6  -9  -2   40.90    6.10
  -9  -6   2   39.10    8.60
   5 -15  -2   85.39   20.60
 -15  10  -2  109.89    8.00
  10 -15   2  116.69   18.50
  10   5  -2   98.99   10.80
  10 -15   2  117.69   16.40
 -15  10  -2  106.09    7.90
   5  10   2  101.89    7.50
 -15   5   2  118.19   13.40
 -10  -5   2  111.89   16.10
 -10  15  -2   98.29    8.90
  -5  15   2   96.49    8.40
  -5 -10  -2  111.09    7.90
  15  -5  -2  119.49   15.00
  -5 -10  -2   94.99   14.90
  11 -15   2  109.09   20.60
   4  11   2  113.09    8.00
   4 -15  -2  122.39   23.90
 -15   4   2  109.69   13.90
  11   4  -2  112.69   10.70
 -15  11  -2  119.09    8.10
 -15  11  -2  125.29    8.60
  11 -15   2  134.69   17.70
  -4 -11  -2  109.39   18.90
 -11  15  -2  116.09    8.80
  -4  15   2  123.89    8.70
  15  -4  -2  127.29   14.40
  -4 -11  -2  128.89    7.50
 -11  -4   2  122.09   17.20
 -15   3   2  162.18   15.40
  12 -15   2  201.18   22.30
 -15  12  -2  160.58    9.70
 -15  12  -2  153.28    9.40
  12   3  -2  153.28   12.40
   3 -15  -2  159.08   20.60
   3  12   2  160.28    9.50
 -12  15  -2  156.98    9.80
 -12  -3   2  147.59   16.90
  -3 -12  -2  156.18   20.90
  -3  15   2  165.88   10.00
  15  -3  -2  174.08   14.30
  15 -12   2  195.18   19.70
  -3 -12  -2  173.58    8.30
   2  13   2  137.59    9.00
  13 -15   2  172.58   20.70
 -15  13  -2  141.39    8.50
  13   2  -2  132.79   11.70
   2 -15  -2  162.78   24.50
 -15  13  -2  134.39    9.20
 -15   2   2  122.79   14.60
 -13  15  -2  134.69    9.00
 -13  -2   2  130.49   15.10
 -13  15  -2  145.79    8.80
  15 -13   2  164.98   19.10
  15  -2  -2  153.18   13.20
  -2  15   2  134.59    9.30
  -2 -13  -2  142.29   20.70
  14   1  -2  198.78   14.60
  14 -15   2  234.58   20.70
   1  14   2  216.48   11.50
   1 -15  -2  234.28   24.70
 -15  14  -2  219.98   11.00
 -15  14  -2  186.88   11.40
 -15   1   2  214.88   17.30
 -14  15  -2  200.28   11.50
  -1 -14  -2  230.38   24.40
  15  -1  -2  220.98   15.30
 -14  -1   2  193.68   17.40
  15 -14   2  243.28   20.30
  -1  15   2  220.58   11.70
 -14  15  -2  207.08   10.80
 -15  15  -2   23.70    5.40
 -15  15  -2   38.30    5.40
   0 -15  -2   50.09   16.80
  15 -15   2   52.19   14.40
 -15   0   2   36.00   10.10
   0  15   2   36.60    5.50
 -16   0  -2  968.20   39.20
   0  16  -2  770.22   41.00
   0 -16   2  988.00   48.50
  16   0   2  918.31   40.30
  16 -16  -2  929.91   48.20
   0 -16   2 1014.70   45.80
 -16  16   2  992.90   38.10
  15 -16  -2   96.59   19.10
  15   1   2  136.19   11.80
   1  15  -2  142.39    9.80
 -16   1  -2  139.79   10.10
   1 -16   2  130.29   17.60
 -16  15   2  143.49    9.10
  -1 -15   2  134.99   16.90
  -1  16  -2  140.39    9.50
  16  -1   2  118.69   11.90
 -15  16   2  144.39    9.50
  16 -15  -2  108.19   20.90
  -1 -15   2  127.39   19.30
  14 -16  -2  547.05   35.20
 -16   2  -2  491.05   26.10
   2 -16   2  587.54   36.10
 -16  14   2  574.64   25.00
 -16  14   2  607.74   24.00
   2  14  -2  592.14   24.20
   2 -16   2  582.74   32.90
  16 -14  -2  498.65   33.10
 -14  -2  -2  579.84   25.20
 -14  16   2  566.44   24.10
  16  -2   2  560.04   26.30
  -2  16  -2  568.74   24.30
  -2 -14   2  601.24   30.10
   3 -16   2   74.89   17.60
 -16  13   2   73.79    8.50
  13   3   2  102.29    5.90
   3  13  -2   72.79    7.80
 -16   3  -2   78.49    8.30
  13 -16  -2   74.29   15.30
 -16  13   2   84.99    7.10
   3 -16   2   90.79   16.40
  16  -3   2   73.69    9.60
 -13  -3  -2   89.69    8.80
 -13  -3  -2   84.29   11.40
  -3 -13   2  134.19   17.90
  -3  16  -2   95.29    8.00
 -13  16   2   98.39    8.00
  16 -13  -2   64.49   15.90
  -3 -13   2   78.89   13.60
   4  12  -2  343.87   15.80
   4 -16   2  338.67   28.60
 -16   4  -2  329.37   16.60
 -16  12   2  342.97   15.20
 -16  12   2  364.46   17.70
   4 -16   2  329.97   26.10
  12 -16  -2  315.27   28.40
  12   4   2  355.56   14.80
 -12  16   2  351.16   15.90
  16 -12  -2  305.27   25.40
  -4  16  -2  333.67   16.10
 -12  -4  -2  369.66   20.20
  16  -4   2  321.87   18.10
  -4 -12   2  345.37   21.10
  -4 -12   2  384.06   26.00
 -12  -4  -2  313.97   16.50
  11   5   2   45.20    4.70
 -16   5  -2   45.20    5.30
   5 -16   2   38.50   13.50
   5  11  -2   36.60    4.80
 -16  11   2   38.30    5.40
 -16   5  -2   43.00    6.30
   5 -16   2    4.90   15.80
 -16  11   2   36.70    7.10
  11 -16  -2   37.20   18.20
  -5 -11   2   66.29   15.10
 -11  16   2   52.39    6.60
  -5  16  -2   39.00    5.70
  16 -11  -2   33.30   13.40
  -5 -11   2   43.30    9.80
  16  -5   2   57.19    8.90
 -11  -5  -2   41.40    6.70
 -11  -5  -2   42.80    9.60
 -16   6  -2  102.29    7.00
 -16  10   2   94.69   10.30
  10   6   2   93.99    6.50
 -16  10   2   88.39    6.70
  10 -16  -2   94.79   17.50
   6 -16   2   32.70   17.50
   6  10  -2  115.79    7.40
   6 -16   2  111.59   18.00
 -16   6  -2   93.39    8.50
  16 -10  -2  100.29   17.50
 -10  -6  -2  107.99    8.70
 -10  16   2  106.49    8.10
 -10  -6  -2  106.49   13.50
  -6  16  -2  106.39    8.30
  16  -6   2  103.29   10.60
  -6 -10   2  103.89   12.70
  -6 -10   2  112.59   17.40
 -16   7  -2    4.60    4.50
   9 -16  -2   -7.40   15.80
   9   7   2   -6.00    2.70
 -16   9   2    1.00    6.70
 -16   9   2    0.10    2.70
   7 -16   2  -21.20   14.80
   7 -16   2    1.90   12.40
   7   9  -2   -1.80    3.40
  -9  -7  -2   11.20    4.40
  -9  -7  -2    2.90    9.00
  -7  -9   2    3.00    7.10
  -7  -9   2   -7.70   11.60
  -7  16  -2    1.30    4.40
  -9  16   2    2.50    4.50
  16  -7   2   16.20    7.80
  16  -9  -2   16.40   11.40
   8 -16   2   -0.50   15.40
   8   8   2    3.10    3.20
 -16   8   2   15.20    7.10
 -16   8  -2    8.90    3.50
   8   8  -2    0.70    3.20
   8 -16   2   -1.70   12.70
 -16   8  -2    6.40    4.60
   8 -16  -2  -21.30   16.40
  16  -8  -2   18.20   11.50
  -8  -8   2   12.80   12.20
  16  -8   2   27.70    8.20
  -8  16   2    9.40    4.50
  -8  -8   2    6.10    7.50
  -8  16  -2   10.80    4.90
  -8  -8  -2   10.40    4.50
  -8  -8  -2   11.40    9.60
 -16   9  -2  126.59    9.00
   7   9   2  126.29    8.20
   9 -16   2  138.59   21.70
   9 -16   2  142.89   20.00
 -16   7   2  125.79   12.60
   7 -16  -2  120.19   21.90
   9   7  -2  135.79    7.80
 -16   9  -2  134.49    8.50
  -7  -9  -2  155.58    9.20
  -9  16  -2  145.39    9.90
  16  -7  -2  167.88   16.80
  -7  -9  -2  118.69   17.30
  -9  -7   2  147.19   18.30
  -7  16   2  126.49    9.20
  -9  -7   2  147.79   12.60
   6  10   2   96.59    7.10
 -16  10  -2  110.49    8.10
 -16   6   2   90.59   12.00
 -16  10  -2  103.39    8.00
  10 -16   2  120.29   19.80
   6 -16  -2   60.29   19.90
  10 -16   2  104.59   18.00
  16  -6  -2   99.69   14.80
 -10  -6   2   97.49   14.60
  -6 -10  -2  126.99   16.80
  -6  16   2  106.79    8.30
 -10  16  -2  102.49    8.40
  -6 -10  -2   95.29    7.60
 -16  11  -2   84.89    7.40
  11 -16   2   91.79   15.10
  11   5  -2   84.19    9.90
 -16   5   2   80.59   12.10
  11 -16   2   99.99   18.10
   5  11   2   84.99    7.30
   5 -16  -2   68.09   18.90
 -16  11  -2   88.89    7.20
  -5 -11  -2   92.79    9.80
  -5 -11  -2   94.29   17.70
  -5  16   2   73.29    7.80
 -11  16  -2   80.79    7.70
 -11  -5   2  106.49   14.70
  16  -5  -2   97.59   14.40
 -16  12  -2  138.79    9.40
 -16  12  -2  141.09    9.00
 -16   4   2  156.88   14.40
   4  12   2  142.89    9.40
   4 -16  -2  100.29   21.00
  12 -16   2  154.98   21.80
  12   4  -2  134.89   11.70
  12 -16   2  195.18   18.90
  16  -4  -2  147.09   14.80
  -4 -12  -2  148.59   19.70
  -4 -12  -2  151.98    8.40
 -12  -4   2  169.58   16.90
  -4  16   2  131.89    9.50
  16 -12   2  183.78   18.70
 -12  16  -2  140.99    9.40
 -16   3   2  166.18   15.20
   3 -16  -2  114.19   24.80
 -16  13  -2  167.98   10.10
   3  13   2  178.98   10.30
 -16  13  -2  165.28    9.70
  13   3  -2  164.18   12.40
  13 -16   2  221.48   23.80
  -3 -13  -2  192.98   21.40
  16 -13   2  186.38   20.20
  -3  16   2  181.28   10.50
  16  -3  -2  160.38   14.70
 -13  -3   2  187.48   16.60
 -13  16  -2  173.18   10.50
 -16  14  -2   59.89    7.40
   2  14   2   79.19    7.60
 -16   2   2   99.09   13.50
  14 -16   2   87.39   16.80
   2 -16  -2   85.39   19.70
 -16  14  -2   95.09    7.40
 -14  16  -2   87.69    7.20
  -2 -14  -2   82.19   18.10
  16 -14   2  115.19   18.80
 -14  -2   2   78.29   12.90
  16  -2  -2   80.49   12.30
 -14  16  -2   63.39    8.10
 -16   1   2    2.40    9.00
  15   1  -2   -2.30    7.30
 -16  15  -2   -0.30    3.70
  15 -16   2   10.00   13.10
   1 -16  -2   -0.30   15.10
   1  15   2    1.40    4.40
 -15  -1   2   -5.90    8.80
  -1  16   2    5.80    4.70
  16  -1  -2    2.50    7.40
  -1 -15  -2    7.50   13.70
  16 -15   2   23.00   12.80
 -15  16  -2   -1.10    3.50
 -15  16  -2  -11.50    3.70
  16 -16   2   29.10   13.70
 -16  16  -2   -0.20    4.50
 -16  16  -2    7.50    4.00
   0  16   2   12.90    5.10
  16   0  -2    7.60    7.90
 -16   0   2    6.40    9.60
   0 -16  -2   16.00   15.40
  17   0   2   -3.50    6.40
 -17  17   2   14.30    5.00
 -17   0  -2    1.90    5.20
   0  17  -2    3.80    5.40
   0 -17   2   -6.00   13.10
   0 -17   2   -4.40   10.50
  17 -17  -2  -22.60   14.60
 -17   1  -2  207.08   12.40
  16   1   2  193.18   13.90
  16 -17  -2  153.38   23.20
 -17  16   2  218.98   11.80
   1 -17   2  208.98   21.50
   1  16  -2  210.38   12.10
   1 -17   2  234.48   25.10
  -1 -16   2  139.59   20.20
  17 -16  -2  147.89   22.60
  17  -1   2  178.78   13.70
  -1 -16   2  181.88   19.40
 -16  17   2  215.28   11.80
 -16  -1  -2  213.48   13.10
  -1  17  -2  213.08   11.90
 -17   2  -2   56.59    7.80
   2 -17   2  109.69   18.90
 -17  15   2   60.39    7.30
   2  15  -2   55.79    8.10
   2 -17   2   57.59   14.30
  15 -17  -2   48.00   17.30
  15   2   2   49.40    8.60
  17  -2   2   51.79    9.30
  -2  17  -2   62.49    7.70
  -2 -15   2   48.70   14.70
 -15  17   2   63.79    7.20
 -15  -2  -2   59.39    8.00
  17 -15  -2   38.90   15.60
  -2 -15   2   77.29   13.40
   3  14  -2   54.59    7.20
 -17  14   2   66.19    8.00
  14 -17  -2   56.99   17.10
   3 -17   2   56.69   14.10
 -17   3  -2   63.59    8.00
   3 -17   2   72.49   18.20
 -17  14   2   54.09    6.90
  -3 -14   2   63.69   12.60
  17 -14  -2   39.90   15.50
  17  -3   2   66.79   10.70
  -3  17  -2   58.49    7.80
 -14  -3  -2   61.89   10.90
 -14  17   2   69.79    7.90
 -14  -3  -2   63.39    7.90
 -17   4  -2    7.90    5.10
 -17  13   2    1.80    4.90
   4 -17   2   -1.50   16.10
 -17  13   2   -0.20    3.90
  13 -17  -2    3.10   15.90
   4  13  -2    7.00    4.40
   4 -17   2   -2.90   12.60
  17  -4   2    3.90    6.20
 -13  17   2   12.00    4.50
  -4  17  -2    4.90    4.90
  17 -13  -2    2.30   13.70
  -4 -13   2    4.90    9.30
 -13  -4  -2   13.20    5.50
   5 -17   2   78.69   17.00
 -17   5  -2   71.59    8.00
 -17  12   2   81.59    9.80
  12   5   2   90.89    5.90
 -17  12   2   54.09    6.70
   5  12  -2   73.69    7.50
  12 -17  -2   72.69   19.60
   5 -17   2  103.39   19.80
  17 -12  -2   71.79   14.80
  -5 -12   2   73.79   12.70
  -5 -12   2  123.09   18.50
  17  -5   2   80.99   10.20
 -12  17   2   91.59    7.80
  -5  17  -2   71.59    8.00
 -12  -5  -2   81.89   12.40
 -12  -5  -2   86.29    8.10
   6 -17   2   19.30   17.80
   6  11  -2   45.30    6.60
   6 -17   2   46.30   14.80
 -17  11   2   52.29    8.40
 -17   6  -2   42.70    6.70
  11   6   2   54.19    5.20
 -17  11   2   30.80    4.60
 -11  -6  -2   52.49   10.60
  17  -6   2   55.69    9.80
  -6 -11   2   51.49   10.40
 -11  -6  -2   43.80    6.90
 -11  17   2   66.29    7.70
  17 -11  -2   31.80   15.80
  -6 -11   2   59.49   13.80
 -17   7  -2  128.29    8.50
  10 -17  -2  107.39   21.30
 -17  10   2  125.69   11.40
   7  10  -2  126.89    8.70
   7 -17   2  128.39   21.80
  10   7   2  137.79    7.80
   7 -17   2   70.69   19.80
 -17   7  -2  129.29   10.90
  -7 -10   2  128.39   13.30
 -10  17   2  144.19    9.20
  17  -7   2  161.58   13.20
 -10  -7  -2  142.29    9.40
  -7 -10   2  176.38   18.70
 -10  -7  -2  141.59   15.00
   8 -17   2   26.10   15.20
   9 -17  -2   18.10   16.70
 -17   8  -2   33.80    5.90
   9   8   2   28.70    4.30
 -17   9   2   25.20    7.90
 -17   8  -2   33.50    4.60
   8   9  -2   33.50    4.70
   8 -17   2    3.70   16.70
  17  -9  -2   31.60   12.90
  -8  -9   2   33.70    8.90
  -9  17   2   34.80    5.40
  17  -8   2   69.69   12.80
  -9  -8  -2   33.60    5.70
  -8  17  -2   36.00    6.30
  -8  -9   2   66.89   14.10
  -9  -8  -2   31.30   11.10
   9 -17   2  188.78   23.90
   8   9   2  178.58    9.80
   8 -17  -2  164.18   25.00
 -17   9  -2  182.88   10.20
 -17   9  -2  170.08   10.60
   9 -17   2  168.08   24.00
 -17   8   2  152.78   13.10
  17  -9   2  235.58   17.00
  -8  -9  -2  182.48   10.70
  17  -8  -2  167.68   20.80
  -9  -8   2  177.48   14.00
  -9  -8   2  186.48   20.40
  -9  17  -2  161.18   10.60
  -8  17   2  181.48   11.10
  -8  -9  -2  184.28   17.50
 -17   7   2  317.07   18.70
   7  10   2  296.57   15.00
 -17  10  -2  339.57   15.70
  10 -17   2  318.87   27.70
 -17  10  -2  333.77   15.40
  10 -17   2  325.67   28.20
   7 -17  -2  292.47   35.30
  17 -10   2  383.76   21.90
  -7 -10  -2  333.27   15.80
 -10  17  -2  331.07   15.90
 -10  -7   2  330.37   24.40
  -7 -10  -2  324.57   23.40
  11 -17   2   21.10   13.90
 -17  11  -2   17.40    4.70
 -17   6   2   22.90    8.40
  11   6  -2   18.40    7.00
   6  11   2   14.70    4.40
  11 -17   2   18.60   15.50
 -17  11  -2   11.40    4.40
  17  -6  -2   13.40   12.80
  -6  17   2   11.90    5.60
  -6 -11  -2   14.60    4.30
 -11  -6   2   18.50   11.90
 -11  17  -2    7.20    5.40
 -17  12  -2  494.55   21.40
   5  12   2  496.85   21.00
 -17  12  -2  512.05   21.60
   5 -17  -2  500.15   35.30
  12 -17   2  526.45   30.30
  12   5  -2  482.95   23.50
  12 -17   2  521.55   32.90
  -5 -12  -2  492.85   30.20
 -12  -5   2  503.85   28.20
  -5 -12  -2  450.55   22.10
 -12  17  -2  398.86   21.90
  -5  17   2  469.75   21.30
  17  -5  -2  463.05   26.20
  17 -12   2  551.54   29.50
  13   4  -2   11.10    6.90
  13 -17   2   21.10   14.10
 -17  13  -2   22.10    4.90
 -17   4   2   20.50    8.50
   4  13   2    9.50    4.70
  13 -17   2   28.70   12.30
   4 -17  -2   12.50   16.10
 -17  13  -2   19.50    4.90
 -13  -4   2   17.40    9.90
  17 -13   2   41.80   13.80
  17  -4  -2    7.90    9.40
  -4 -13  -2    7.30   13.40
  -4  17   2   17.40    5.00
  14   3  -2  392.76   21.40
 -17  14  -2  446.26   19.10
   3 -17  -2  418.36   33.00
   3  14   2  416.56   18.80
  14 -17   2  435.26   29.70
 -17   3   2  361.26   22.80
 -17  14  -2  459.25   19.00
  17 -14   2  451.35   27.60
 -14  -3   2  393.86   24.60
  -3  17   2  428.46   19.30
  -3 -14  -2  414.36   26.70
  17  -3  -2  407.86   23.20
   2 -17  -2  141.79   24.20
 -17  15  -2  164.88    9.60
  15   2  -2  154.78   13.30
 -17   2   2  152.28   14.90
  15 -17   2  197.38   24.10
   2  15   2  142.99   11.10
 -15  -2   2  152.08   16.10
  -2  17   2  160.18   10.30
  17  -2  -2  163.48   14.80
  -2 -15  -2  166.08   22.30
  17 -15   2  191.68   20.40
 -17  16  -2   26.20    5.50
   1  16   2   54.29    8.00
 -17   1   2   50.39   10.70
   1 -17  -2   55.69   17.60
 -17  16  -2   46.70    6.70
  16   1  -2   50.49    9.50
  16 -17   2   60.79   16.00
 -16  -1   2   42.20   10.60
  -1 -16  -2   62.19   17.80
 -16  17  -2   48.80    6.00
 -16  17  -2   49.20    6.50
  -1  17   2   56.89    6.70
  17 -16   2   75.09   16.50
  17  -1  -2   55.39   10.20
  17   0  -2   -2.50    7.80
   0  17   2   -1.50    4.60
   0 -17  -2    0.70   15.30
 -17  17  -2    3.10    4.30
 -17   0   2    1.60    8.80
 -17  17  -2    4.20    4.20
  17 -17   2   39.70   15.20
  18   0   2  158.48   13.50
   0 -18   2  201.58   20.00
 -18   0  -2  185.68   12.00
   0  18  -2  186.78   12.00
 -18  18   2  169.68   11.80
  18 -18  -2  167.38   23.20
  17 -18  -2    5.90   15.20
   1 -18   2   30.50   12.50
 -18   1  -2   31.00    6.20
   1 -18   2   75.49   16.90
  17   1   2   22.20    7.60
 -18  17   2   17.10    5.70
   1  17  -2   28.90    6.30
 -17  18   2   36.20    6.20
  -1 -17   2   24.10   11.90
  18 -17  -2    7.20   16.10
  -1 -17   2    9.50   13.40
 -17  -1  -2   25.10    6.40
  -1  18  -2   27.60    6.20
  18  -1   2   25.90    7.80
   2 -18   2  377.36   41.10
  16   2   2  400.26   21.30
  16 -18  -2  371.36   30.50
 -18  16   2  422.26   19.40
   2 -18   2  533.95   33.60
   2  16  -2  444.66   19.50
 -18   2  -2  429.16   20.10
 -16  -2  -2  426.86   20.20
  -2  18  -2  427.76   19.40
  18 -16  -2  419.06   29.30
 -16  18   2  429.86   19.10
  -2 -16   2  324.57   28.10
  18  -2   2  414.56   21.80
 -18   3  -2    2.70    5.20
  15 -18  -2   -6.60   15.00
   3  15  -2   -0.30    5.00
   3 -18   2   34.00   16.80
 -18  15   2    1.20    4.50
   3 -18   2    7.10   12.30
 -15  -3  -2    6.90    5.80
  -3 -15   2    5.10   11.00
  -3 -15   2    7.90   12.80
  18 -15  -2  -20.10   13.50
  -3  18  -2    0.20    5.20
  18  -3   2    8.70    7.00
 -15  18   2    0.10    4.80
   4 -18   2  329.77   27.40
 -18  14   2  322.17   16.10
 -18   4  -2  340.17   17.00
  14 -18  -2  278.17   29.40
   4 -18   2  428.16   32.60
 -18  14   2  352.56   17.80
   4  14  -2  386.56   16.80
  18  -4   2  354.96   19.30
 -14  18   2  355.16   16.90
  -4 -14   2  296.17   22.10
 -14  -4  -2  356.06   20.50
  -4  18  -2  337.87   16.40
  18 -14  -2  312.57   26.30
 -14  -4  -2  341.77   17.30
   5 -18   2   30.80   17.60
  13 -18  -2    3.30   17.20
   5 -18   2   14.80   14.80
 -18  13   2   12.50    4.60
 -18  13   2   21.30    6.30
   5  13  -2   17.60    4.90
 -18   5  -2   18.10    5.60
 -13  18   2   23.70    5.30
 -13  -5  -2   23.40    6.10
  -5 -13   2   57.39   13.50
  -5  18  -2   21.30    5.30
  18 -13  -2    1.50   14.00
  18  -5   2   27.40    7.70
 -13  -5  -2   22.30    9.20
  12   6   2   83.39    6.80
   6 -18   2   98.99   19.10
 -18  12   2   94.19    9.70
   6  12  -2   81.49    7.90
  12 -18  -2   72.69   19.70
   6 -18   2   77.09   19.60
 -18   6  -2   89.39    8.70
 -12  -6  -2   97.29   13.30
  18 -12  -2   59.09   15.90
  -6  18  -2   94.29    9.10
  18  -6   2  114.19   12.80
 -12  18   2   95.09    8.10
 -12  -6  -2  108.89    9.50
  -6 -12   2   91.69   14.80
 -18  11   2   13.10    6.90
  11 -18  -2   -8.50   16.80
   7  11  -2    2.90    4.30
 -18   7  -2   14.00    5.60
  11   7   2   11.10    3.60
   7 -18   2   23.20   15.20
   7 -18   2   26.40   18.20
 -11  -7  -2    9.90    9.20
  -7 -11   2   50.49   13.00
  -7  18  -2    9.00    4.90
  18  -7   2   22.30    8.30
  -7 -11   2   15.30   10.20
 -11  18   2   13.50    5.00
 -11  -7  -2    7.60    5.40
  18 -11  -2    6.70   12.20
 -18  10   2    2.40    6.50
   8  10  -2    1.50    4.00
   8 -18   2    8.40   15.20
 -18   8  -2   12.40    6.40
 -18   8  -2    5.20    4.80
  10 -18  -2    0.10   15.90
 -10  -8  -2    0.90    9.50
  -8 -10   2   16.50   14.40
 -10  18   2    9.80    4.80
 -10  -8  -2   10.00    5.20
  -8 -10   2   29.40   12.60
  18 -10  -2   10.10   13.10
  -8  18  -2    6.30    4.60
 -18   9  -2   45.90    7.50
 -18   9   2   36.20    8.20
   9   9   2   54.29    6.20
   9 -18   2   -8.30   16.90
 -18   9  -2   40.00    5.10
   9 -18   2   44.60   15.70
   9 -18  -2   31.60   18.50
   9   9  -2   28.40    4.50
  18  -9  -2   44.40   11.40
  -9  18   2   31.60    5.60
  -9  -9   2   55.29   13.00
  -9  -9  -2   54.09    7.30
  -9  -9  -2   45.70   12.10
  -9  18  -2   32.20    5.70
 -18  10  -2   16.30    5.00
 -18  10  -2   11.00    4.40
  10 -18   2   -6.50   15.70
   8  10   2   16.90    4.50
  10 -18   2   25.50   14.80
   8 -18  -2   26.10   18.80
  18 -10   2   34.60   11.00
  -8 -10  -2   19.70    9.60
  -8  18   2   14.50    4.90
 -10  18  -2    8.10    4.90
  -8 -10  -2   23.20    5.30
 -10  -8   2   29.30   11.30
 -10  -8   2   21.80    8.30
  18  -8  -2   25.10   12.30
 -18  11  -2   21.40    4.80
   7  11   2   25.80    4.90
  11 -18   2   26.90   16.00
  11 -18   2   32.40   17.50
   7 -18  -2    8.60   17.40
 -18  11  -2   26.90    5.60
 -18   7   2   20.80    7.90
  -7 -11  -2   31.10    5.30
  18  -7  -2   23.80   11.50
  -7 -11  -2   16.50   11.90
  18 -11   2   37.10   11.80
 -11  18  -2   14.50    5.10
  -7  18   2   23.90    5.40
 -18   6   2   91.09   12.50
  12 -18   2   99.89   17.40
  12 -18   2  121.99   20.70
   6  12   2   90.79    7.50
   6 -18  -2   75.29   19.90
  12   6  -2   98.49   10.90
 -18  12  -2   84.99    7.70
 -18  12  -2   91.59    8.10
  -6  18   2   97.89    8.50
 -12  -6   2  110.89   15.10
  -6 -12  -2  100.99   17.30
  18 -12   2  137.89   18.60
  -6 -12  -2   88.49    7.70
  18  -6  -2  109.69   15.70
 -12  18  -2   84.09    8.10
  13   5  -2   74.69   10.50
   5 -18  -2   82.89   20.50
 -18  13  -2   81.49    7.60
 -18   5   2   81.49   11.20
 -18  13  -2   85.89    8.30
  13 -18   2   97.09   16.10
  13 -18   2  131.99   23.50
   5  13   2   83.19    8.00
  -5  18   2   89.19    9.00
  -5 -13  -2   89.59   15.80
 -13  -5   2   69.69   12.40
 -13  18  -2   88.29    8.00
  18 -13   2  148.99   20.50
  18  -5  -2   81.79   14.50
 -18   4   2   36.10    9.40
 -18  14  -2   36.90    5.60
 -18  14  -2   35.90    6.00
  14   4  -2   39.10    8.30
  14 -18   2   45.70   17.30
  14 -18   2   69.49   15.10
   4  14   2   40.70    5.90
   4 -18  -2   31.40   18.60
  -4 -14  -2   41.70   15.30
  18  -4  -2   44.50   10.80
  -4  18   2   44.40    6.30
 -14  -4   2   29.50   10.80
  18 -14   2   62.89   16.20
 -14  18  -2   31.90    6.00
   3 -18  -2   26.40   16.10
  15 -18   2   28.50   15.80
  15 -18   2   34.90   12.40
   3  15   2   15.00    4.80
  15   3  -2   25.30    7.90
 -18  15  -2   18.60    4.80
 -18   3   2   10.50    8.60
 -18  15  -2   -3.80    4.60
 -15  -3   2   12.80    9.50
  18  -3  -2   12.10    9.40
 -15  18  -2   11.10    5.10
  -3  18   2   21.50    5.30
  -3 -15  -2   20.20   14.00
  18 -15   2   39.50   15.20
 -18   2   2  108.89   13.60
  16 -18   2  175.68   25.20
   2 -18  -2   88.39   20.10
  16   2  -2  112.59   12.30
 -18  16  -2  121.29    8.90
   2  16   2  117.69    9.70
  -2 -16  -2  119.69   20.00
  18  -2  -2  109.69   13.20
  -2  18   2  114.09    9.10
 -16  -2   2  119.99   14.50
  18 -16   2  141.99   22.20
 -16  18  -2  123.29    9.60
  17   1  -2    2.70    7.40
   1 -18  -2    3.70   14.50
  17 -18   2    4.80   15.30
 -18  17  -2   -0.30    4.50
 -18   1   2    1.30    7.70
 -18  17  -2   -5.30    4.00
   1  17   2    1.20    4.80
  -1 -17  -2    6.30   14.40
  18 -17   2   13.60   13.60
  18  -1  -2    0.50    8.00
 -17  18  -2    2.70    4.80
 -17  -1   2    3.40    8.60
  -1  18   2    2.90    4.90
 -17  18  -2   -0.30    4.40
   0  18   2   24.70    5.90
 -18  18  -2   26.30    5.50
  18 -18   2   48.30   19.00
  18   0  -2   26.90    9.00
 -18  18  -2   29.30    5.40
 -18   0   2   22.00    9.30
   0 -18  -2   24.20   16.40
   0 -19   2    8.90   12.60
 -19  19   2    1.50    5.50
   0  19  -2   12.10    5.80
  19 -19  -2    6.30   16.30
 -19   0  -2   19.00    6.40
  19   0   2   19.00    7.90
   1 -19   2   39.40   13.70
 -19   1  -2   38.70    7.10
  18   1   2   49.20    9.00
  18 -19  -2   28.20   17.60
   1  18  -2   50.79    7.30
 -19  18   2   64.69    8.30
  -1 -18   2   36.90   12.60
  19  -1   2   59.59   10.20
 -18  -1  -2   57.79    8.30
  19 -18  -2   34.10   17.10
 -18  19   2   56.99    7.20
  -1  19  -2   57.99    7.30
 -19  17   2   -6.10    4.70
 -19   2  -2   -1.80    5.40
   2 -19   2    0.10   12.00
   2  17  -2   -2.20    5.40
  17   2   2   -7.20    6.80
  17 -19  -2    2.80   15.80
  19  -2   2   14.10    7.40
  -2 -17   2   -4.50   13.10
 -17  -2  -2   -1.40    5.50
  19 -17  -2  -13.20   14.80
  -2  19  -2   -0.30    5.30
 -17  19   2    9.90    5.20
  -2 -17   2   -0.90   10.90
  16   3   2  161.88   13.50
   3 -19   2  198.38   23.30
   3  16  -2  187.48   11.60
 -19   3  -2  170.68   11.50
  16 -19  -2  153.48   24.50
 -19  16   2  157.68   11.40
  19 -16  -2  158.78   22.20
  19  -3   2  183.88   14.00
  -3 -16   2  188.68   22.30
  -3  19  -2  177.18   11.20
 -16  19   2  187.28   11.40
  -3 -16   2  153.48   17.50
 -16  -3  -2  184.78   12.00
  15 -19  -2   -3.20   16.70
   4 -19   2   25.40   22.40
   4  15  -2    6.90    4.90
 -19  15   2    3.50    4.90
 -19  15   2   12.10    5.70
 -19   4  -2   10.00    5.50
 -15  19   2    9.40    5.30
  -4  19  -2    7.20    5.20
 -15  -4  -2   14.70    5.90
  19 -15  -2   -5.10   14.00
  -4 -15   2   15.10   11.00
  19  -4   2   23.90    7.70
  -4 -15   2   36.00   14.20
 -19   5  -2  177.58   11.30
   5  14  -2  167.18   10.80
  14 -19  -2  132.09   24.00
   5 -19   2  164.48   23.60
 -19  14   2  172.48   12.10
  -5  19  -2  153.88   10.60
 -14  19   2  149.29   10.80
  19  -5   2  187.88   14.20
  -5 -14   2  165.98   16.40
 -14  -5  -2  160.98   11.70
  19 -14  -2  139.09   21.40
 -14  -5  -2  161.48   14.90
 -19  13   2   -6.10    5.70
  13 -19  -2   11.00   16.70
 -19   6  -2   -3.40    4.90
   6  13  -2    0.40    4.40
   6 -19   2   25.30   20.70
   6 -19   2    6.40   13.90
 -13  -6  -2   -6.20    8.10
  19 -13  -2  -11.70   13.10
  -6  19  -2    0.60    4.90
 -13  19   2   -1.50    4.80
 -13  -6  -2   -3.40    8.30
  -6 -13   2   31.60   13.20
  19  -6   2   21.90    8.20
  -6 -13   2   -9.50    9.10
 -19  12   2  150.68   12.60
   7 -19   2  166.58   22.50
 -19   7  -2  160.58   11.30
   7 -19   2  238.48   29.90
  12   7   2  176.78   12.40
  12 -19  -2  134.89   24.50
   7  12  -2  167.68   10.80
 -12  -7  -2  189.28   16.10
 -12  -7  -2  175.88   11.30
 -12  19   2  188.58   10.90
  -7 -12   2  192.78   15.90
  -7  19  -2  178.68   10.90
  19 -12  -2  151.88   20.20
  -7 -12   2  189.08   20.50
   8 -19   2  139.49   23.50
  11 -19  -2  120.59   22.00
 -19   8  -2  160.08   10.70
   8 -19   2  182.68   24.50
  11   8   2  133.29    9.00
 -19  11   2  120.49   13.30
   8  11  -2  148.09    9.80
  -8 -11   2  153.28   14.90
  19 -11  -2  143.09   16.40
 -11  19   2  155.58   10.60
  -8  19  -2  151.78   10.60
 -11  -8  -2  145.89   16.10
  -8 -11   2  192.68   18.80
 -11  -8  -2  153.78   10.40
   9  10  -2   22.30    4.80
   9 -19   2   24.90   16.30
  10 -19  -2   27.70   17.80
   9 -19   2  -43.00   17.10
 -19  10   2   18.90    7.40
  10   9   2   28.50    4.80
 -19   9  -2   19.20    5.70
 -10  -9  -2   32.20   11.10
 -10  19   2   30.90    5.80
  -9  19  -2   14.50    5.20
  19 -10  -2   12.20   13.10
  -9 -10   2   19.60    9.20
 -10  -9  -2   41.20    6.80
  19  -9   2   42.70   10.60
  -9 -10   2   66.69   19.60
  10 -19   2  348.97   31.10
 -19  10  -2  358.26   17.90
   9 -19  -2  319.47   32.70
 -19   9   2  381.26   20.40
 -19  10  -2  438.36   20.30
   9  10   2  360.96   17.30
 -10  -9   2  364.46   21.50
 -10  19  -2  362.16   17.70
  -9  19   2  383.46   17.80
 -10  -9   2  357.86   24.70
  -9 -10  -2  379.26   24.70
  -9 -10  -2  407.16   18.50
  19  -9  -2  366.66   25.60
  19 -10   2  458.35   26.20
 -19   8   2  170.88   13.80
  11 -19   2  163.18   22.70
  11 -19   2  185.88   25.70
   8 -19  -2  182.48   26.80
 -19  11  -2  190.18   11.00
 -19  11  -2  168.18   10.80
   8  11   2  189.38   10.80
 -11  19  -2  162.08   10.90
 -11  -8   2  172.78   17.30
  -8 -11  -2  191.88   11.30
  -8  19   2  166.08   10.90
  19  -8  -2  190.68   19.50
  -8 -11  -2  166.78   18.70
 -19   7   2  185.08   14.80
  12 -19   2  189.38   27.10
  12 -19   2  181.38   26.50
 -19  12  -2  200.88   11.80
   7  12   2  193.58   11.40
 -19  12  -2  215.48   12.10
  12   7  -2  197.98   14.00
   7 -19  -2  198.18   27.20
  -7 -12  -2  212.98   11.90
  19 -12   2  265.77   22.30
  -7 -12  -2  202.88   20.30
 -12  19  -2  189.58   11.70
 -12  -7   2  251.47   19.50
  19  -7  -2  190.38   18.80
  -7  19   2  203.48   11.90
   6 -19  -2   82.89   21.00
  13   6  -2  104.19   11.30
 -19  13  -2   90.59    8.80
   6  13   2  108.99    8.30
 -19  13  -2  111.39    8.50
 -19   6   2  117.69   12.30
  13 -19   2  113.99   18.60
  13 -19   2  125.79   21.80
  19  -6  -2  116.19   16.40
 -13  19  -2  108.29    8.90
 -13  -6   2  114.69   15.50
  -6  19   2  117.49    9.00
  -6 -13  -2  121.99   18.60
  19 -13   2  164.48   19.60
 -19   5   2  316.37   19.40
  14 -19   2  339.47   26.80
   5 -19  -2  322.77   30.90
  14 -19   2  356.16   30.30
  14   5  -2  322.27   18.70
 -19  14  -2  366.76   16.70
 -19  14  -2  349.27   16.60
  -5  19   2  342.37   16.50
  19  -5  -2  335.37   22.00
 -14  19  -2  342.97   16.50
 -14  -5   2  307.57   21.90
  19 -14   2  383.06   28.10
  -5 -14  -2  338.37   23.10
   4  15   2   64.49    8.40
  15   4  -2   66.79   10.50
  15 -19   2   75.89   18.50
 -19   4   2   65.79   10.10
   4 -19  -2   59.69   19.20
 -19  15  -2   66.79    7.60
  15 -19   2   92.39   16.40
  19  -4  -2   59.39   12.00
 -15  -4   2   59.39   11.50
  -4 -15  -2   83.89   16.90
  -4  19   2   62.89    7.90
 -15  19  -2   57.29    8.20
  19 -15   2   81.19   17.10
 -19  16  -2  304.87   15.40
 -19   3   2  300.97   18.70
 -19  16  -2  305.37   15.70
  16   3  -2  282.07   18.20
   3  16   2  318.17   15.60
  16 -19   2  356.06   24.40
  16 -19   2  292.37   28.70
   3 -19  -2  330.77   29.60
  -3  19   2  298.87   15.50
  19  -3  -2  316.07   20.10
 -16  -3   2  299.17   20.20
 -16  19  -2  317.97   15.90
  19 -16   2  361.56   26.60
   2  17   2   13.40    5.20
 -19  17  -2    7.10    5.00
 -19   2   2   13.00    8.20
  17 -19   2   65.09   19.70
   2 -19  -2   16.20   17.30
  17   2  -2   24.10    8.60
 -19  17  -2    8.20    4.70
  19  -2  -2   17.10    9.30
 -17  19  -2   29.60    5.90
 -17  -2   2   24.20    9.90
  19 -17   2   45.60   18.90
  -2  19   2   20.20    5.80
  -2 -17  -2    6.10   14.20
 -19   1   2   60.39   10.30
 -19  18  -2   42.30    6.30
   1  18   2   55.39    7.20
  18 -19   2   73.99   19.10
  18   1  -2   53.09   10.30
   1 -19  -2   56.29   18.20
 -19  18  -2   52.59    7.50
  -1  19   2   59.89    7.90
 -18  19  -2   54.79    7.60
 -18  -1   2   55.99   11.20
  19  -1  -2   62.29   10.90
  19 -18   2   57.09   17.60
  -1 -18  -2   51.99   17.00
 -18  19  -2   43.10    6.50
  19 -19   2   89.19   19.90
 -19  19  -2   73.49    9.00
  19   0  -2   54.09   10.50
   0 -19  -2   43.60   17.40
 -19   0   2   52.19   10.10
 -19  19  -2   45.70    7.60
   0  19   2   38.00    6.50
  20 -20  -2   -5.20   16.20
 -20   0  -2   13.60    6.20
   0  20  -2   -5.70    5.80
   0 -20   2   -3.20   12.90
  20   0   2    4.10    8.00
 -20  20   2  -13.40    5.70
 -20   1  -2    6.50    5.90
  19 -20  -2    3.60   16.00
   1 -20   2   -0.60   14.10
   1  19  -2    7.00    6.10
  19   1   2    6.90    7.60
 -20  19   2    2.50    5.90
  -1 -19   2   -3.30   11.80
  -1  20  -2   -0.90    5.80
 -19  20   2    5.70    5.90
  20  -1   2    4.90    7.50
  20 -19  -2   -5.80   15.60
 -19  -1  -2    5.80    6.00
   2 -20   2   97.19   18.00
  18 -20  -2   71.49   19.50
  18   2   2   80.59   11.20
 -20   2  -2   82.49    9.10
   2  18  -2   82.59   10.10
 -18  20   2   80.29    9.80
  20 -18  -2   69.79   19.50
 -18  -2  -2   93.99    9.70
  -2 -18   2   80.59   15.50
  20  -2   2   95.79   11.80
  -2  20  -2   91.09   10.10
 -20   3  -2    6.20    5.40
 -20  17   2   -7.00    5.30
   3 -20   2  -15.70   13.60
   3  17  -2    2.90    5.10
  17 -20  -2   -5.30   15.30
  17   3   2   -0.90    6.90
  -3 -17   2    7.10   11.10
  20 -17  -2   -9.20   14.60
  -3  20  -2    3.00    5.40
 -17  20   2    1.10    5.30
 -17  -3  -2   -4.20    5.50
  20  -3   2   18.90    8.30
  -3 -17   2  -15.10   13.20
   4 -20   2  127.79   20.40
   4  16  -2  106.59   10.00
  16   4   2  113.49   12.30
  16 -20  -2  105.89   21.70
 -20   4  -2  117.49    9.80
  20 -16  -2  108.39   19.40
  -4 -16   2  156.38   21.40
  -4 -16   2  105.29   15.80
  20  -4   2  128.49   12.90
 -16  -4  -2  104.19   10.80
 -16  20   2  118.99    9.20
  -4  20  -2  123.99   10.20
 -20  15   2   14.70   10.40
 -20   5  -2   21.20    6.10
  15 -20  -2   16.20   17.50
   5 -20   2   21.60   15.70
   5  15  -2   11.70    5.80
  -5  20  -2   22.10    6.00
 -15  -5  -2   19.40    6.30
 -15  -5  -2   27.80    9.10
  20 -15  -2   -2.80   14.70
 -15  20   2   17.70    5.60
  -5 -15   2   46.50   14.20
  -5 -15   2   25.70   10.50
 -20   6  -2   72.89    8.50
   6 -20   2   67.69   17.30
   6  14  -2   63.79    8.20
 -20  14   2   78.39    9.20
  14 -20  -2   60.99   19.30
  -6  20  -2   76.99    9.00
 -14  -6  -2   91.39   13.00
  20 -14  -2   68.89   16.80
 -14  20   2   70.79    8.60
  -6 -14   2   80.99   13.60
 -14  -6  -2   81.59    9.50
   7  13  -2    2.50    4.90
 -20   7  -2    9.50    5.50
 -20  13   2   11.20    6.20
  13 -20  -2   -6.40   15.70
  20 -13  -2    2.30   13.90
  -7 -13   2    9.90    9.20
  -7  20  -2   11.00    5.40
 -13  -7  -2   11.30    8.80
 -13  20   2   16.50    5.30
 -13  -7  -2   11.50    6.40
 -20   8  -2    2.50    5.00
  12 -20  -2   -7.80   15.60
   8 -20   2   -5.50   13.90
   8  12  -2   -3.80    4.50
 -20  12   2   -0.80    6.60
  -8 -12   2   -4.10    8.30
  -8 -12   2   51.29   13.30
 -12  -8  -2    6.00    9.10
  20  -8   2   28.60   10.00
 -12  20   2    0.10    4.80
  20 -12  -2  -20.30   12.60
  -8  20  -2    2.30    4.90
 -12  -8  -2   -7.00    5.30
  11   9   2   -7.80    3.80
  11 -20  -2    0.10   16.10
   9 -20   2    8.10   16.10
 -20  11   2    5.20    6.30
 -20   9  -2   -0.30    5.00
  20 -11  -2   -0.40   12.90
 -11  -9  -2    6.00    5.40
 -11  -9  -2   11.30   10.20
  -9  20  -2    0.30    4.60
 -11  20   2    3.40    5.00
  -9 -11   2   26.00   11.80
  20  -9   2   32.80   10.60
  -9 -11   2    0.80    8.70
  10  10   2    6.30    4.30
  10 -20   2    9.00   17.00
 -20  10   2   17.90    7.00
  10 -20  -2    4.50   17.20
 -20  10  -2   13.10    5.10
  20 -10  -2   18.20   13.00
 -10  20  -2    6.30    5.00
 -10  20   2   10.50    5.00
 -10 -10   2   33.70   11.30
 -10 -10  -2   17.30   10.60
 -10 -10  -2   18.60    6.00
  20 -10   2   29.10   12.20
 -10 -10   2   11.00    8.50
 -20  11  -2   58.79    7.30
   9  11   2   54.69    7.40
 -20   9   2   54.19    9.30
  11 -20   2   77.59   19.50
   9 -20  -2   54.19   20.00
  -9 -11  -2   59.89    8.10
 -11  -9   2   93.29   14.80
  -9 -11  -2   72.29   13.80
  -9  20   2   67.49    8.60
  20 -11   2  118.99   17.30
 -11  20  -2   61.39    7.90
  20  -9  -2   56.89   14.00
 -20  12  -2   16.40    5.10
   8 -20  -2    7.80   17.20
   8  12   2   12.70    4.60
  12 -20   2   19.40   15.90
  12   8  -2    4.70    7.20
  12 -20   2  -37.90   16.60
 -20   8   2   16.20    7.60
  -8 -12  -2   11.60    5.30
 -12  20  -2    9.30    5.00
  -8 -12  -2   13.10   11.70
  -8  20   2   14.60    5.20
 -12  -8   2   37.50   11.50
  20 -12   2   32.70   13.30
  20  -8  -2   23.30   12.50
   7  13   2   10.50    4.60
  13   7  -2   10.80    7.00
 -20   7   2    8.20    7.40
   7 -20  -2   13.30   16.60
 -20  13  -2    6.20    4.70
  13 -20   2    3.10   16.70
  13 -20   2   21.30   18.00
 -20  13  -2   12.60    5.00
  -7  20   2   17.90    5.30
  -7 -13  -2   19.20   11.60
 -13  -7   2   26.60   10.50
  20 -13   2   45.80   16.20
  20  -7  -2   25.60   11.90
 -13  20  -2   11.60    5.10
   6  14   2   31.60    5.50
 -20  14  -2   32.00    6.10
 -20  14  -2   38.50    6.20
   6 -20  -2   38.30   19.00
 -20   6   2   22.90    8.60
  14 -20   2   46.00   18.70
  14   6  -2   35.20    8.20
  14 -20   2   45.30   16.90
  20 -14   2   54.39   16.50
 -14  20  -2   45.40    6.50
 -14  -6   2   46.20   11.20
  -6 -14  -2   44.30   14.10
  -6  20   2   38.20    6.10
  20  -6  -2   42.00   12.40
 -20   5   2    3.10    7.50
 -20  15  -2   -4.10    4.60
   5  15   2    3.70    4.80
   5 -20  -2   -3.90   17.00
  15 -20   2   22.00   17.20
 -20  15  -2    3.30    4.30
  15   5  -2    2.60    6.70
  15 -20   2   13.50   14.90
 -15  -5   2   10.30    9.90
 -15  20  -2    8.60    4.90
  -5  20   2    2.50    4.90
  20  -5  -2   -0.10   10.10
  -5 -15  -2   -2.00    9.80
  20 -15   2   17.50   16.10
  16 -20   2  190.78   22.70
  16   4  -2  152.38   13.30
   4  16   2  145.19   10.90
   4 -20  -2  178.38   24.70
  16 -20   2  163.38   26.10
 -20  16  -2  163.48   10.10
 -20   4   2  164.08   14.10
  -4  20   2  156.88   10.90
  20  -4  -2  159.08   16.40
 -16  20  -2  167.38   11.30
  -4 -16  -2  171.88   21.20
  20 -16   2  194.68   23.20
 -16  -4   2  170.18   16.10
  17 -20   2   33.20   13.80
  17 -20   2   45.90   18.10
 -20   3   2    7.10    7.90
   3 -20  -2   -8.60   16.20
  17   3  -2    5.20    7.80
 -20  17  -2   -4.30    4.60
   3  17   2    3.00    5.60
 -20  17  -2    1.10    5.00
 -17  -3   2    8.30    9.20
  20  -3  -2    4.60    9.50
 -17  20  -2    7.30    5.40
  -3 -17  -2   10.00   14.00
  -3  20   2    4.10    5.10
  20 -17   2   26.80   17.20
 -20  18  -2   15.30    5.50
  18   2  -2   11.70    8.70
  18 -20   2   21.10   18.60
   2  18   2   17.60    5.90
 -20   2   2   14.40    8.20
   2 -20  -2    7.10   17.00
 -20  18  -2   13.00    5.40
 -18  20  -2   14.70    5.70
  -2 -18  -2   15.20   14.20
 -18  -2   2   23.40    9.50
  -2  20   2   10.00    5.50
  20  -2  -2   28.30   10.20
  20 -18   2   36.40   17.80
  19   1  -2    3.30    8.90
 -20  19  -2   -7.30    4.60
 -20  19  -2    0.30    5.40
 -20   1   2    0.70    7.70
  19 -20   2   29.50   20.30
   1  19   2   -0.30    5.40
   1 -20  -2    5.40   16.10
 -19  -1   2    4.80    8.40
  20 -19   2   28.20   16.80
 -19  20  -2   13.90    5.60
  20  -1  -2    6.80    9.00
  -1 -19  -2   12.60   15.40
  -1  20   2    5.00    5.80
   0  20   2    0.40    6.10
 -20  20  -2   -5.70    5.10
 -20  20  -2    4.00    5.90
  20   0  -2    5.70    9.30
 -20   0   2   -0.70    8.20
   0 -20  -2   -2.10   15.10
  20 -20   2   20.70   19.50
 -21  21   2   32.80    7.50
  21   0   2   76.99   13.10
   0 -21   2   46.20   14.80
   0  21  -2   56.59    8.00
 -21   0  -2   58.49    8.90
  21 -21  -2   44.30   18.70
   1 -21   2    7.80   14.50
 -21   1  -2    4.20    6.10
  20   1   2    5.90    8.00
 -21  20   2  -10.00    6.10
  20 -21  -2  -11.60   17.00
   1  20  -2   -3.80    6.20
  21 -20  -2  -17.20   16.70
  -1  21  -2   -9.50    5.90
  21  -1   2   17.30    8.70
 -20  21   2   -9.20    5.80
 -20  -1  -2    3.50    6.00
  -1 -20   2  -18.10   13.00
 -21   2  -2   17.50    6.50
 -21  19   2   11.40    6.40
   2  19  -2   16.00    6.90
  19 -21  -2   11.10   17.70
   2 -21   2    9.90   13.80
  19   2   2   16.70    8.20
 -19  21   2    9.10    6.40
  21  -2   2   20.80    8.60
 -19  -2  -2   14.40    6.60
  21 -19  -2   -0.80   16.70
  -2  21  -2   17.00    6.90
  -2 -19   2   16.80   12.70
 -21   3  -2   50.49    7.50
  18   3   2   38.40    8.90
  18 -21  -2   36.90   19.30
   3 -21   2   32.80   15.00
   3  18  -2   31.20    6.80
  -3  21  -2   45.60    7.00
  -3 -18   2   39.60   13.60
 -18  -3  -2   46.30    7.60
  21  -3   2   78.79   12.00
  21 -18  -2   20.10   16.40
 -18  21   2   19.50    6.30
  17 -21  -2   10.40   18.10
   4 -21   2   28.40   15.40
   4  17  -2   14.20    6.30
  17   4   2    7.90    7.60
 -21   4  -2   13.90    6.10
  -4 -17   2   13.00   11.30
 -17  -4  -2   25.30    7.40
 -17  21   2   16.20    5.90
  21  -4   2   32.70    9.20
  -4  21  -2   20.90    6.50
  21 -17  -2   16.40   16.10
   5  16  -2   75.19    8.30
 -21  16   2   58.69    9.40
 -21   5  -2   67.69    8.60
  16 -21  -2   55.99   19.40
   5 -21   2   77.29   18.40
  -5  21  -2   55.79    8.30
  -5 -16   2   95.09   17.50
  21  -5   2  100.09   12.50
 -16  -5  -2   63.29    9.00
 -16  21   2   65.29    8.40
  -5 -16   2   71.19   13.50
  21 -16  -2   44.40   17.10
 -21   6  -2    8.80    5.90
 -21  15   2   13.00    6.70
   6 -21   2   25.90   16.70
   6  15  -2   -1.40    6.30
  15 -21  -2   20.60   16.40
 -15  21   2   10.90    5.40
  21 -15  -2  -22.70   14.40
 -15  -6  -2   12.60    8.70
 -15  -6  -2   11.20    6.50
  -6  21  -2   -0.50    5.20
  -6 -15   2   -3.20    9.70
  -6 -15   2   43.20   15.00
  14 -21  -2   78.49   20.10
   7 -21   2   92.09   19.40
 -21   7  -2   84.69    9.40
   7  14  -2   74.09    8.00
 -21  14   2   77.69   10.40
 -14  21   2   74.59    8.60
  21 -14  -2   72.49   17.30
 -14  -7  -2   90.79   13.70
  -7  21  -2   76.69    8.60
 -14  -7  -2   91.79   10.40
  -7 -14   2   87.89   13.70
  -7 -14   2  124.09   19.50
   8 -21   2  103.79   21.40
 -21  13   2   94.49   10.80
  13 -21  -2   73.59   20.40
 -21   8  -2   88.19    8.50
  -8 -13   2  103.89   16.60
  21 -13  -2   75.89   17.30
 -13  -8  -2   86.99   14.30
 -13  21   2   89.59    9.50
  -8  21  -2   87.49    8.60
 -13  -8  -2   85.19   10.10
  -8 -13   2   88.29   13.70
 -21  12   2  118.79   12.00
   9 -21   2  133.29   23.20
 -21   9  -2  124.99    9.90
  12 -21  -2  126.59   22.90
  -9 -12   2  121.09   14.50
  -9 -12   2  170.58   17.20
  21  -9   2  156.28   16.90
 -12  21   2  138.49   10.70
 -12  -9  -2  141.19   11.50
  21 -12  -2  115.99   19.80
 -12  -9  -2  151.48   16.00
  -9  21  -2  125.49   10.00
 -21  11   2  202.38   14.80
 -21  10  -2  215.78   12.50
  10 -21   2  217.98   29.80
  11 -21  -2  190.28   28.20
 -11  21   2  219.58   13.10
  21 -10   2  255.57   22.40
 -10 -11   2  221.58   17.10
 -11 -10  -2  215.28   13.30
 -10  21  -2  213.78   12.50
  21 -11  -2  194.38   22.20
 -10 -11   2  210.98   19.40
 -11 -10  -2  206.48   18.80
  10  11   2  228.68   12.50
 -21  10   2  202.88   15.60
 -21  11  -2  219.08   12.60
  11 -21   2  214.38   26.50
  10 -21  -2  196.68   28.20
 -10  21   2  230.48   12.90
  21 -11   2  248.48   23.10
 -11  21  -2  224.98   12.80
 -10 -11  -2  233.38   13.70
 -11 -10   2  232.58   20.70
  21 -10  -2  204.98   21.90
   9  12   2  498.75   21.90
 -21   9   2  457.95   24.10
  12 -21   2  507.65   37.50
   9 -21  -2  442.56   35.70
 -21  12  -2  482.85   22.00
  -9  21   2  505.55   22.00
  21  -9  -2  484.95   29.50
  -9 -12  -2  487.85   28.70
  21 -12   2  528.15   31.80
 -12  -9   2  467.55   27.80
 -12  21  -2  487.15   21.90
  13 -21   2  128.19   22.50
   8 -21  -2   90.79   22.30
 -21   8   2  130.39   12.20
  13   8  -2  114.99   12.10
 -21  13  -2  129.39    9.90
 -13  -8   2  125.79   15.70
  21 -13   2  170.98   22.70
  -8  21   2  136.79   10.10
  -8 -13  -2  125.69   17.80
 -13  21  -2  138.39   10.00
  21  -8  -2  121.79   18.60
   7  14   2  176.88   11.80
 -21  14  -2  207.28   11.70
 -21   7   2  194.68   14.40
  14 -21   2  219.38   31.10
  14   7  -2  185.28   14.20
   7 -21  -2  159.58   27.30
  -7  21   2  207.18   12.00
  -7 -14  -2  193.48   19.90
 -14  -7   2  183.48   17.30
 -14  21  -2  201.48   11.90
  21 -14   2  245.78   26.20
  21  -7  -2  178.58   19.40
 -21  15  -2   99.89   10.10
 -21   6   2  113.59   12.30
  15   6  -2  116.19   12.80
 -21  15  -2  123.39    9.00
   6 -21  -2  130.49   23.50
   6  15   2  114.29    9.80
  15 -21   2  129.09   24.40
  -6 -15  -2  119.19   19.10
  -6  21   2  126.89    9.80
 -15  21  -2  119.69   10.00
  21 -15   2  160.48   22.70
  21  -6  -2  121.59   16.90
 -15  -6   2  149.19   15.60
 -21  16  -2  333.77   16.60
   5 -21  -2  375.56   30.90
 -21   5   2  334.17   19.90
  16   5  -2  338.87   19.70
  16 -21   2  378.26   31.90
  16 -21   2  277.07   41.10
 -21  16  -2  324.97   17.50
   5  16   2  340.57   17.10
 -16  -5   2  308.17   22.10
  21 -16   2  380.76   29.60
 -16  21  -2  361.26   17.10
  -5 -16  -2  361.06   26.00
  -5  21   2  334.87   16.90
  21  -5  -2  326.87   22.80
  17 -21   2   82.09   20.30
 -21  17  -2   63.09    7.50
 -21  17  -2   53.19    7.40
  17 -21   2   85.39   20.70
   4  17   2   52.89    7.20
   4 -21  -2   83.39   21.00
 -21   4   2   74.49   11.00
  17   4  -2   59.39   11.50
 -17  21  -2   59.29    8.40
 -17  -4   2   75.99   12.40
  21  -4  -2   57.89   12.70
  -4 -17  -2   61.59   15.50
  -4  21   2   70.59    8.70
  21 -17   2  102.29   21.50
 -21  18  -2  115.49    9.30
   3 -21  -2  121.89   23.10
  18 -21   2  176.68   28.90
 -21  18  -2   83.09   10.50
  18   3  -2  125.29   13.80
 -21   3   2  129.99   13.50
  18 -21   2  161.88   23.60
   3  18   2  109.99    9.90
 -18  21  -2  138.09   10.40
 -18  -3   2  127.09   16.00
  -3 -18  -2  133.49   21.50
  21  -3  -2  106.99   15.90
  21 -18   2  172.08   27.90
  -3  21   2  148.19   11.20
   2  19   2    3.50    5.80
 -21   2   2   18.40    9.00
  19   2  -2    2.40    8.70
  19 -21   2   44.80   20.70
   2 -21  -2   12.90   17.40
 -21  19  -2    4.90    5.80
 -21  19  -2    5.30    5.70
 -19  21  -2   15.50    5.90
  21 -19   2   35.70   18.80
 -19  -2   2    8.80    8.60
  21  -2  -2   11.50   10.40
  -2  21   2   16.60    6.10
  -2 -19  -2   21.20   16.10
  20 -21   2   98.69   24.40
   1  20   2   40.30    7.60
 -21  20  -2   25.80    6.20
   1 -21  -2   38.50   18.30
 -21  20  -2   34.00    7.20
 -21   1   2   32.90    9.80
  20   1  -2   50.99   11.10
 -20  -1   2   37.20   10.00
 -20  21  -2   50.09    7.80
  21 -20   2   52.79   19.90
  21  -1  -2   43.60   11.20
  -1 -20  -2   38.90   16.40
  -1  21   2   39.00    7.10
 -21   0   2   17.40    9.10
   0  21   2   23.00    6.50
  21   0  -2   22.80   10.70
  21 -21   2   46.50   21.90
 -21  21  -2   27.30    6.80
   0 -21  -2   25.80   16.50
   0  22  -2   -2.20    6.80
  22   0   2   14.90    8.80
 -22  22   2   -3.60    7.10
 -22   0  -2   21.80    7.20
   0 -22   2   21.20   15.10
  22 -22  -2   -4.80   17.40
   1  21  -2   52.79    8.40
  21   1   2   40.70   10.20
   1 -22   2   47.20   16.20
 -22   1  -2   49.90    8.30
  21 -22  -2   51.39   20.70
 -22  21   2   55.59    8.80
  22  -1   2   63.19   12.00
  22 -21  -2   25.60   18.70
  -1 -21   2   54.09   15.30
 -21  -1  -2   48.90    8.20
 -21  22   2   29.90    7.50
  -1  22  -2   50.49    8.10
 -22   2  -2    2.30    6.20
   2  20  -2   -2.30    6.50
   2 -22   2   12.50   14.70
  20   2   2    0.40    7.60
  20 -22  -2  -19.80   17.40
  -2 -20   2    0.40   12.20
  22  -2   2   23.30    9.60
 -20  -2  -2   12.80    6.90
  22 -20  -2  -15.40   15.60
  -2  22  -2   -7.90    6.00
 -20  22   2  -11.20    6.10
  19   3   2   30.10    9.50
   3  19  -2   10.70    6.50
   3 -22   2   23.60   15.30
  19 -22  -2   23.00   19.50
 -22   3  -2   28.20    7.00
 -19  22   2   20.40    6.90
  -3  22  -2   16.90    6.60
  22 -19  -2    2.40   18.10
  -3 -19   2   26.30   13.00
  22  -3   2   44.30   10.20
 -19  -3  -2   38.80    7.60
   4  18  -2   21.00    7.20
   4 -22   2   15.40   15.60
 -22   4  -2   24.50    6.70
  18 -22  -2   11.10   18.50
  18   4   2   20.00    8.40
  22 -18  -2   -1.00   16.20
 -18  -4  -2   31.70    7.80
 -18  22   2   12.00    6.30
  -4 -18   2   22.60   12.60
  -4  22  -2   18.80    6.70
   5 -22   2   35.20   16.70
  17   5   2   37.10    9.30
  17 -22  -2   32.80   19.30
   5  17  -2   43.60    7.60
 -22   5  -2   45.40    7.40
 -17  22   2   28.90    6.80
  22 -17  -2   31.50   17.00
  -5  22  -2   37.20    6.90
 -17  -5  -2   40.20    7.60
  -5 -17   2   23.70   15.00
  -5 -17   2   46.10   13.70
   6 -22   2   25.90   17.50
 -22  16   2   16.20    6.90
  16 -22  -2   14.80   18.00
 -22   6  -2   16.90    6.40
   6  16  -2    9.80    6.40
  -6 -16   2   22.10   11.90
 -16  -6  -2   15.10    7.00
  22  -6   2   28.10    9.90
  -6  22  -2   15.00    6.00
 -16  22   2   11.90    5.80
  -6 -16   2   55.49   14.70
  22 -16  -2    3.50   16.20
   7 -22   2    8.90   16.80
 -22  15   2   15.30    6.90
  15 -22  -2   13.70   16.90
 -22   7  -2    9.90    5.80
   7  15  -2    0.50    6.10
  -7  22  -2   11.20    5.80
 -15  -7  -2   12.90    6.90
  22  -7   2   37.80   11.10
 -15  22   2   10.10    5.80
  -7 -15   2   12.30    9.90
  -7 -15   2   43.10   14.20
 -15  -7  -2    9.10    9.50
  22 -15  -2    7.80   15.80
 -22   8  -2    5.70    5.50
 -22  14   2    3.10    6.30
  14 -22  -2    0.80   17.10
   8 -22   2  -13.00   15.20
  -8  22  -2    0.10    5.30
  22  -8   2   31.60   11.90
 -14  -8  -2   -1.90    6.00
  -8 -14   2    2.40    9.90
  -8 -14   2   -9.00   12.00
 -14  22   2   -3.60    5.00
 -14  -8  -2   -0.60    9.00
  22 -14  -2    4.60   15.30
 -22  13   2   -0.20    7.10
   9 -22   2    5.30   17.60
 -22   9  -2   -2.70    4.90
  13 -22  -2  -10.20   17.80
  -9  22  -2   -1.30    5.10
 -13  -9  -2    6.80    6.60
  -9 -13   2    1.80    9.30
  22 -13  -2   -3.30   14.10
 -13  -9  -2   -3.80    9.10
  22  -9   2   21.50   11.20
  -9 -13   2   12.20   11.50
 -13  22   2    0.20    5.40
  10 -22   2   11.30   18.00
  12 -22  -2   -3.30   18.00
 -22  12   2    1.80    6.80
 -22  10  -2    0.00    4.90
 -12  22   2   -0.80    5.20
  22 -10   2   24.90   13.90
 -12 -10  -2   -5.30    5.60
 -10 -12   2  -10.30    8.20
  22 -12  -2  -12.20   13.40
 -10  22  -2    1.00    5.10
 -12 -10  -2    0.00    9.50
 -10 -12   2   27.80   11.60
  11 -22  -2    6.20   17.90
 -22  11   2    8.60    7.50
  11 -22   2   -2.30   17.00
 -22  11  -2   -2.60    4.90
 -11  22  -2   -2.60    4.90
 -11 -11   2    2.20    8.40
  22 -11  -2    2.30   13.90
 -11 -11  -2    1.40   10.70
 -11 -11   2   23.20   11.40
  22 -11   2   19.00   13.00
 -11  22   2    1.50    5.10
  10 -22  -2   14.70   17.20
 -22  10   2   10.10    7.00
  12 -22   2   29.50   19.00
  10  12   2   16.80    5.90
 -22  12  -2   10.20    5.50
  22 -10  -2   11.10   13.60
 -10  22   2   23.60    6.00
 -10 -12  -2    8.30   10.90
 -12  22  -2    6.50    5.40
  22 -12   2   32.20   14.60
 -12 -10   2   17.70   10.40
  13   9  -2    4.80    7.20
 -22  13  -2   -0.40    4.90
  13 -22   2   14.20   19.20
   9 -22  -2   21.20   17.80
   9  13   2   -7.50    5.20
 -22   9   2    4.60    7.70
 -13  22  -2    2.00    5.30
  -9 -13  -2    1.30   10.90
  22 -13   2   29.70   15.80
 -13  -9   2   17.60   10.90
  22  -9  -2   -0.50   12.60
  -9  22   2    3.20    5.40
  14 -22   2  112.79   22.80
 -22  14  -2   69.19    8.10
  14   8  -2   61.29   11.00
   8 -22  -2   62.69   20.50
   8  14   2   87.99    9.60
 -22   8   2   65.69   10.90
  -8  22   2   98.49    9.20
  22  -8  -2   80.19   15.80
 -14  -8   2   94.49   14.80
  -8 -14  -2   80.39   15.30
 -14  22  -2   81.59    8.80
  22 -14   2  137.09   24.40
   7 -22  -2   -7.10   17.70
 -22   7   2    4.30    7.40
   7  15   2   -2.70    5.50
  15   7  -2    2.10    7.30
  15 -22   2   13.70   19.80
 -22  15  -2    7.10    5.40
 -15  -7   2   15.60   10.10
  22 -15   2   17.80   17.60
  -7 -15  -2    3.30   12.20
 -15  22  -2    4.90    5.40
  22  -7  -2    7.70   11.70
  -7  22   2    7.10    5.40
 -22  16  -2   51.09    7.50
  16 -22   2   95.59   24.10
  16   6  -2   69.09   11.20
 -22   6   2   72.79   10.80
   6 -22  -2   67.99   20.90
   6  16   2   55.59    7.50
  22  -6  -2   33.70   13.50
  22 -16   2   86.29   20.90
 -16  -6   2   77.79   13.10
  -6  22   2   71.59    8.90
  -6 -16  -2   59.19   15.50
 -16  22  -2   71.89    8.70
 -22  17  -2  -17.90    5.40
 -22  17  -2   -1.40    4.80
   5  17   2   10.00    6.20
  17   5  -2    4.00    8.50
  17 -22   2   43.70   20.60
 -22   5   2    2.90    7.60
   5 -22  -2   -7.40   18.00
  -5  22   2   12.70    5.90
  22  -5  -2    2.70   11.70
 -17  -5   2    8.10   10.30
 -17  22  -2   17.20    6.30
  22 -17   2    3.10   17.70
  -5 -17  -2   -1.40   13.10
 -22  18  -2    8.10    5.50
  18 -22   2   39.80   21.80
  18   4  -2   12.30    9.00
 -22  18  -2    2.50    5.80
   4  18   2    9.90    6.40
 -22   4   2   24.00    8.60
   4 -22  -2    1.10   18.20
  -4 -18  -2   16.70   14.20
 -18  -4   2   18.40    9.40
  -4  22   2   20.40    6.30
  22  -4  -2    8.50   11.40
  22 -18   2   67.49   20.40
 -18  22  -2   22.70    6.60
 -22  19  -2    9.60    5.40
 -22   3   2    7.20    8.10
  19   3  -2    5.90    8.80
   3  19   2   19.80    7.00
  19 -22   2   54.19   21.90
   3 -22  -2   16.00   18.00
 -22  19  -2   -4.30    6.40
  22  -3  -2   24.70   11.80
  -3  22   2   14.00    6.10
 -19  22  -2   12.00    6.40
 -19  -3   2   18.40    9.30
  -3 -19  -2   10.70   14.90
  22 -19   2   46.40   19.20
 -22  20  -2    6.80    6.50
 -22  20  -2   -9.30    5.40
   2 -22  -2   -3.10   17.60
  20   2  -2    5.10    9.50
 -22   2   2   -4.00    8.00
  20 -22   2   33.70   19.80
  20 -22   2   42.00   21.70
   2  20   2    3.70    6.10
  22 -20   2   34.30   19.00
 -20  22  -2    7.90    6.50
  -2  22   2    1.20    6.10
  -2 -20  -2    4.20   14.30
 -20  -2   2    9.80    9.10
  22  -2  -2    7.00   10.20
 -22   1   2    6.00    8.50
  21 -22   2   49.90   21.30
   1 -22  -2   10.80   16.50
  21   1  -2    7.70    9.70
 -22  21  -2  -13.60    5.40
 -22  21  -2    2.00    6.00
   1  21   2    5.30    6.00
  22  -1  -2    4.30   10.40
  -1 -21  -2    7.00   15.50
  22 -21   2   32.50   20.90
 -21  22  -2   -0.10    6.10
 -21  -1   2   12.00    8.70
  -1  22   2    3.60    6.10
 -22   0   2   -3.10    8.10
 -22  22  -2    2.30    6.70
  22 -22   2   31.20   21.60
  22   0  -2    4.20    9.50
   0 -22  -2   -2.00   16.50
   0  22   2    5.90    6.10
  21 -23  -2   20.40   20.20
  21   2   2   16.70    8.90
   2  21  -2   10.60    6.80
   2 -23   2   17.20   16.60
 -23   2  -2   25.30    7.20
 -21  -2  -2   23.50    7.50
 -21  23   2    7.20    6.80
  23  -2   2   32.90   10.10
  -2  23  -2   12.70    6.70
  -2 -21   2   18.40   14.40
  23 -21  -2   20.90   18.90
   3 -23   2   12.60   15.60
  20   3   2   10.00    8.40
   3  20  -2   -4.50    6.40
  20 -23  -2    2.20   18.30
 -23   3  -2   13.50    6.50
 -20  23   2    5.00    6.60
  23 -20  -2   11.80   17.00
  -3  23  -2    2.70    6.00
  -3 -20   2   15.10   12.90
 -20  -3  -2   21.30    7.30
  23  -3   2   33.50    9.90
   4  19  -2    0.90    6.70
 -23   4  -2   17.00    6.80
  19 -23  -2   10.20   18.60
   4 -23   2   12.90   15.90
  19   4   2    9.50    8.60
  23  -4   2   27.90    9.70
  23 -19  -2   -2.50   17.10
  -4  23  -2    4.20    6.50
  -4 -19   2   25.10   13.00
 -19  -4  -2   23.30    7.40
 -19  23   2   13.00    6.90
   5  18  -2   31.90    8.10
   5 -23   2   32.40   17.50
  18 -23  -2   24.40   19.00
 -23   5  -2   13.80    6.40
  18   5   2   26.20    9.20
  -5  23  -2   21.10    6.40
  23 -18  -2    3.10   16.50
  -5 -18   2   29.90   12.50
 -18  -5  -2   31.10    7.60
 -18  23   2   24.50    6.80
 -23  17   2   10.10    6.60
 -23   6  -2   14.70    6.00
   6  17  -2    9.10    7.00
  17 -23  -2   -2.90   17.50
   6 -23   2   14.10   16.60
  17   6   2   14.20    8.40
  -6 -17   2    8.40   10.90
  23 -17  -2  -12.30   16.20
 -17  -6  -2   11.40    7.10
  -6  23  -2   16.80    6.30
  -6 -17   2  -18.70   18.30
 -17  23   2    2.00    6.20
 -23  16   2   13.90    6.70
   7  16  -2    4.00    6.70
 -23   7  -2   28.40    6.70
   7 -23   2   30.80   19.00
  16 -23  -2   39.40   19.90
  -7  23  -2   30.40    6.70
  23  -7   2   40.60   12.10
  23 -16  -2    3.50   16.30
  -7 -16   2   22.10   11.00
 -16  23   2   23.70    6.50
  -7 -16   2   31.50   14.80
 -16  -7  -2   24.50    7.70
 -23  15   2    3.00    6.40
   8 -23   2    8.10   17.80
 -23   8  -2    5.00    6.00
  15 -23  -2    7.10   18.60
  -8 -15   2    5.60   10.20
 -15  -8  -2    1.10    9.50
  -8  23  -2   -0.30    5.60
  -8 -15   2   14.30   13.80
 -15  -8  -2    7.60    7.00
 -15  23   2    6.00    6.20
  23 -15  -2   -8.60   15.70
  23  -8   2   36.20   12.80
  14 -23  -2   66.59   20.80
   9 -23   2   61.09   22.00
 -23   9  -2   48.90    7.30
 -23  14   2   56.49    9.10
  23  -9   2   68.29   14.40
  23 -14  -2   23.70   16.50
 -14  23   2   52.79    7.10
  -9 -14   2   50.29   12.50
  -9  23  -2   43.50    7.10
 -14  -9  -2   62.79   12.30
  -9 -14   2   42.90   13.90
 -14  -9  -2   55.79    8.90
 -23  10  -2   22.70    6.30
  10 -23   2   34.10   20.60
  13 -23  -2   29.90   20.40
 -23  13   2   23.70    8.10
 -13 -10  -2   30.10   11.20
  23 -10   2   58.69   15.10
 -10 -13   2   35.80   12.90
 -13 -10  -2   26.90    7.50
 -10 -13   2    7.40    9.80
 -13  23   2   17.30    5.80
 -10  23  -2   20.60    6.10
  23 -13  -2   22.20   15.20
  11 -23   2   23.90   18.80
 -23  12   2   24.10    8.00
  12 -23  -2   36.40   20.10
 -23  11  -2   25.90    6.10
 -11 -12   2   35.90   11.70
  23 -11   2   36.20   14.60
 -12 -11  -2   26.70    7.40
  23 -12  -2   11.20   14.20
 -12  23   2   25.10    6.50
 -11  23  -2   28.40    6.30
 -11 -12   2   17.70    9.70
 -12 -11  -2   35.00   11.90
 -23  12  -2  111.39    9.90
  12 -23   2  121.49   23.80
 -23  11   2  104.59   11.40
  11 -23  -2  123.89   22.90
 -11 -12  -2  155.98   13.30
 -11  23   2  105.79   10.10
 -12  23  -2  128.29   11.00
  23 -11  -2  107.09   20.90
 -11 -12  -2  138.19   17.30
 -12 -11   2  120.09   16.10
  23 -12   2  181.98   24.40
 -23  10   2   89.49   11.00
  13 -23   2  101.69   23.40
 -23  13  -2  105.49    9.10
  13  10  -2  101.69   12.30
  10  13   2   88.99   10.70
  10 -23  -2  115.49   23.40
 -10  23   2  110.19    9.80
  23 -13   2  145.09   22.00
 -13  23  -2  115.99    9.90
 -10 -13  -2  106.79   16.70
  23 -10  -2   72.69   16.70
 -13 -10   2  116.69   15.80
 -23  14  -2  267.87   14.80
  14 -23   2  266.17   34.20
   9 -23  -2  270.87   31.20
 -23   9   2  254.27   16.90
  14   9  -2  273.87   17.50
 -14  23  -2  290.57   15.20
  -9  23   2  284.47   15.10
 -14  -9   2  269.17   20.60
  -9 -14  -2  282.37   22.80
  23  -9  -2  276.97   23.60
  23 -14   2  343.37   28.50
   8  15   2   57.39    7.90
  15   8  -2   50.29    9.80
   8 -23  -2   49.70   21.20
  15 -23   2   72.19   23.90
 -23  15  -2   50.89    7.90
 -23   8   2   73.89   11.10
  23 -15   2   82.19   21.10
 -15  -8   2  111.99   17.10
 -15  23  -2   65.19    8.00
  -8 -15  -2   47.80   14.60
  -8  23   2   70.89    8.90
  23  -8  -2   58.49   15.60
   7  16   2  315.07   17.60
  16 -23   2  391.86   38.50
 -23  16  -2  359.16   17.50
  16   7  -2  332.27   20.40
 -23   7   2  315.87   19.50
   7 -23  -2  290.47   32.40
  23  -7  -2  309.47   24.40
 -16  23  -2  365.06   17.50
  -7  23   2  368.26   17.80
  23 -16   2  408.46   33.80
 -16  -7   2  340.27   22.60
  -7 -16  -2  344.07   26.00
   6  17   2   81.09   10.90
 -23   6   2   80.29   11.90
  17 -23   2  120.49   27.30
   6 -23  -2   83.89   22.10
  17   6  -2   85.19   12.60
 -23  17  -2   89.39    8.70
 -17  23  -2  107.99   10.10
  23 -17   2  139.69   24.50
  23  -6  -2  100.39   18.00
  -6  23   2  100.49    9.70
 -17  -6   2  102.69   14.70
  -6 -17  -2   92.69   17.20
 -23  18  -2  151.58   11.00
   5 -23  -2  138.09   27.20
 -23   5   2  143.89   13.60
  18   5  -2  146.09   14.50
  18 -23   2  254.87   31.00
   5  18   2  147.89   12.10
 -18  -5   2  153.28   15.20
  -5 -18  -2  150.08   21.80
  23 -18   2  203.28   31.40
 -18  23  -2  153.18   11.70
  23  -5  -2  163.28   18.90
  -5  23   2  158.98   11.50
   4 -23  -2    5.60   17.90
  19 -23   2   57.09   24.70
 -23  19  -2    3.50    6.70
 -23   4   2   19.10    8.40
  19   4  -2   23.50    9.80
 -23  19  -2   15.80    6.10
   4  19   2   26.10    6.80
 -19  23  -2   30.10    7.00
  -4 -19  -2   11.30   14.40
  -4  23   2   26.10    6.80
 -19  -4   2   38.60   10.70
  23 -19   2   64.79   22.50
  23  -4  -2   28.50   12.50
 -23   3   2   23.80    8.70
  20 -23   2   72.89   23.50
 -23  20  -2   18.30    7.20
 -23  20  -2   20.50    6.10
   3 -23  -2   22.40   18.50
   3  20   2   32.20    7.00
  20   3  -2   22.90   10.10
 -20  23  -2   34.00    7.10
 -20  -3   2   30.50   10.00
  -3  23   2   35.90    7.00
  23  -3  -2   42.70   12.50
  23 -20   2   52.19   22.10
  -3 -20  -2   22.10   14.80
   2 -23  -2   11.70   17.30
 -23  21  -2   -3.70    6.20
  21   2  -2   23.10   10.30
   2  21   2   18.30    6.70
 -23  21  -2   -6.00    6.80
 -23   2   2   13.80    8.60
  21 -23   2   36.50   21.60
  -2  23   2   19.90    6.70
  23 -21   2   88.79   23.90
 -21  -2   2    8.50    8.90
  -2 -21  -2   22.10   15.60
 -21  23  -2    8.70    6.50
  23  -2  -2   21.30   11.80
 -24   5  -2   90.49    9.90
   5  19  -2   84.49   12.10
  19   5   2   92.09   12.70
  19 -24  -2   90.79   22.00
   5 -24   2   72.09   19.00
  24 -19  -2   87.69   21.10
  24  -5   2  121.29   15.40
  -5  24  -2   91.79   10.10
 -19  24   2   79.09   10.50
 -19  -5  -2  109.69   11.30
  -5 -19   2  123.59   17.50
 -24   6  -2   14.90    6.60
   6  18  -2   -1.20    7.30
  18   6   2    4.60    8.10
   6 -24   2    3.30   16.10
  18 -24  -2   24.20   18.60
  24 -18  -2  -19.40   15.50
  -6  24  -2   -0.20    5.80
 -18  24   2   -0.40    6.00
  -6 -18   2    9.20   11.50
 -18  -6  -2   13.00    6.90
  24  -6   2   35.70   12.30
  17   7   2   62.89   12.10
  17 -24  -2   65.89   20.80
   7 -24   2   66.79   18.70
 -24  17   2   63.79   10.40
 -24   7  -2   67.09    8.70
  24 -17  -2   57.69   18.80
  24  -7   2  123.39   17.10
 -17  -7  -2   66.19   10.90
  -7  24  -2   79.39   10.20
  -7 -17   2   47.90   23.80
 -17  24   2   76.69    8.80
  -7 -17   2   70.69   13.40
 -24  16   2    1.20    6.80
   8 -24   2    8.40   17.80
  16 -24  -2    6.10   17.70
 -24   8  -2    6.40    6.00
 -16  -8  -2   11.00    7.30
 -16  24   2    4.00    6.00
  -8  24  -2   16.70    6.50
  -8 -16   2   27.90   13.90
  24  -8   2   33.60   13.70
  24 -16  -2   -9.80   16.20
  -8 -16   2    8.00   10.40
  15 -24  -2   39.40   20.50
 -24   9  -2   55.79    8.30
 -24  15   2   58.99    9.10
   9 -24   2   52.39   19.30
 -15  -9  -2   35.40   11.50
 -15  -9  -2   62.09    9.50
  24 -15  -2   36.10   17.40
  -9 -15   2   49.30   12.50
  -9  24  -2   64.29    8.90
 -15  24   2   62.99    9.00
  -9 -15   2   98.89   16.80
  24  -9   2   67.09   14.60
  14 -24  -2   23.40   20.50
 -24  10  -2   15.90    6.10
  10 -24   2   28.70   18.80
 -24  14   2   17.00    7.80
 -14  24   2    6.50    6.20
 -14 -10  -2   16.10    7.60
  24 -10   2   30.10   14.80
 -10 -14   2   -2.60    9.60
  24 -14  -2   -4.30   15.50
 -10  24  -2   15.00    6.20
 -14 -10  -2    4.90   10.30
 -10 -14   2   23.50   12.20
 -24  13   2    1.00    6.90
  13 -24  -2    0.30   19.10
  11 -24   2    8.60   19.00
 -24  11  -2    0.20    5.60
  24 -11   2   31.00   15.10
 -13  24   2    2.40    5.60
  24 -13  -2  -13.40   14.80
 -13 -11  -2    1.20   10.10
 -11  24  -2   13.00    6.10
 -11 -13   2   18.30   12.10
 -13 -11  -2    3.50    6.60
 -11 -13   2   -1.20    9.60
  12 -24   2   10.50   18.50
 -24  12  -2    2.50    5.50
 -24  12   2   -1.40    6.90
  12 -24  -2   -2.10   17.90
 -12 -12   2   19.40   11.90
 -12  24   2   -6.90    5.50
  24 -12  -2   -7.10   14.10
 -12 -12  -2   -4.50   10.60
 -12  24  -2    8.00    5.90
  24 -12   2   17.50   16.80
 -24  11   2   32.00    8.20
  13  11  -2   37.30    9.30
 -24  13  -2   36.20    6.80
  13 -24   2   41.30   21.90
  11 -24  -2   38.50   20.40
 -11 -13  -2   49.20   12.80
 -11  24   2   36.30    6.80
  24 -13   2   70.09   18.10
  24 -11  -2   24.10   15.50
 -13  24  -2   56.79    7.50
 -13 -11   2   50.79   12.80
 -24  10   2   12.10    7.70
  10 -24  -2    9.30   19.80
 -24  14  -2    1.70    5.70
  14  10  -2   -6.40    7.70
  14 -24   2   22.20   20.80
  24 -14   2   49.90   19.30
  24 -10  -2    2.00   14.30
 -10  24   2    5.70    5.70
 -14  24  -2   -2.60    5.70
 -14 -10   2   40.70   12.30
 -10 -14  -2    0.80   11.40
  15 -24   2   74.19   22.90
 -24  15  -2   49.60    7.80
   9  15   2   45.10    7.70
  15   9  -2   50.79   10.30
 -24   9   2   52.59    9.40
   9 -24  -2   44.20   21.20
  -9  24   2   58.99    7.50
 -15  -9   2   71.69   13.20
 -15  24  -2   66.69    9.60
  24 -15   2   81.69   21.30
  -9 -15  -2   50.49   14.10
  24  -9  -2   55.89   16.10
  16 -24   2   18.90   22.00
 -24   8   2   14.70    8.30
   8  16   2   21.70    6.80
   8 -24  -2   31.20   19.90
  16   8  -2   13.00    8.60
 -24  16  -2   11.70    5.80
  24 -16   2   47.70   20.80
  -8 -16  -2   19.80   13.20
  24  -8  -2   17.00   13.60
 -16  24  -2   22.60    6.60
  -8  24   2   22.40    6.50
 -16  -8   2   21.30   11.20
 -24  17  -2   19.00    6.00
  17   7  -2   24.50    9.30
   7 -24  -2   34.40   19.10
   7  17   2   17.50    7.00
  17 -24   2   46.00   24.90
 -24   7   2   23.60    8.40
 -17  24  -2   29.80    6.80
  -7 -17  -2   23.80   13.90
  -7  24   2   25.50    6.80
 -17  -7   2   19.80   10.40
  24  -7  -2   25.00   13.30
  24 -17   2   77.49   23.00
 -24   6   2   10.40    7.90
  18   6  -2    9.50    8.80
   6  18   2    5.60    6.70
 -24  18  -2    6.80    5.40
   6 -24  -2   17.90   19.00
  18 -24   2   43.80   24.40
 -18  -6   2   17.60    9.50
  -6 -18  -2    9.20   13.30
  24 -18   2   49.50   22.10
  -6  24   2    9.30    5.80
 -18  24  -2    8.40    6.30
  24  -6  -2   10.30   12.60
 -24   5   2   23.10    8.80
  19   5  -2   20.40   10.30
   5  19   2   18.10    6.80
   5 -24  -2   46.10   19.40
  19 -24   2   56.79   25.20
 -24  19  -2   24.10    6.50
  24  -5  -2   16.60   13.30
  -5 -19  -2   23.50   14.40
  24 -19   2   73.39   23.00
 -19  24  -2   30.70    7.50
  -5  24   2   17.70    6.40
 -19  -5   2   22.90    9.80
 -25  17   2   -3.30    6.70
   8 -25   2    7.40   18.50
  17 -25  -2   16.60   19.90
 -25   8  -2   -1.20    5.40
  -8 -17   2    1.00   10.60
  -8  25  -2    1.00    6.30
 -17  25   2   -4.50    6.40
  25 -17  -2  -27.90   15.70
  25  -8   2   10.60   12.50
 -17  -8  -2   19.20    8.00
 -25   9  -2   24.00    6.50
   9 -25   2   36.20   20.60
  16 -25  -2   39.30   20.40
 -25  16   2   31.30    7.70
  -9  25  -2   23.90    7.20
  -9 -16   2   31.70   14.10
  25  -9   2   44.10   14.20
  25 -16  -2    8.80   17.10
 -16  25   2   35.30    7.00
 -16  -9  -2   36.20    9.00
  -9 -16   2   26.70   11.50
  10 -25   2    4.10   19.20
 -25  10  -2   12.40    5.90
  15 -25  -2   24.30   20.80
 -25  15   2    9.40    7.50
 -10 -15   2   31.70   13.40
  25 -10   2   37.40   16.50
 -15  25   2   12.20    6.30
 -10  25  -2   19.00    6.40
 -10 -15   2    5.10   10.20
  25 -15  -2   -6.00   16.50
 -15 -10  -2   16.00   10.80
 -15 -10  -2   17.20    7.90
  11 -25   2   51.19   21.70
  14 -25  -2   53.49   20.50
 -25  14   2   41.60    8.30
 -25  11  -2   34.50    6.90
 -14 -11  -2   40.00   11.80
 -14  25   2   29.00    6.70
 -11  25  -2   30.20    6.80
  25 -11   2   66.29   18.00
 -11 -14   2   37.00   11.00
 -14 -11  -2   27.90    8.70
 -11 -14   2   49.50   13.50
  25 -14  -2   21.40   17.00
 -25  13   2   72.59   10.00
  12 -25   2   75.29   22.50
 -25  12  -2   61.59    9.00
  13 -25  -2   53.99   21.00
 -13 -12  -2   51.09   13.00
 -12  25  -2   66.29    8.40
 -13  25   2   53.59    7.70
 -12 -13   2  100.49   16.70
  25 -13  -2   33.10   16.50
  25 -12   2   91.99   20.00
  13 -25   2   47.10   21.40
  13  12  -2   49.80   10.50
  12 -25  -2   49.70   21.30
 -25  12   2   37.90    8.30
 -25  13  -2   39.40    7.00
 -12  25   2   39.90    7.50
  25 -12  -2   34.80   16.30
  25 -13   2   53.29   18.50
 -12 -13  -2   43.50   12.30
 -13 -12   2   51.69   13.90
 -13  25  -2   30.90    6.80
 -25  14  -2   98.39   10.00
  14  11  -2   88.19   12.40
 -25  11   2  109.99   12.10
  11 -25  -2  146.89   28.00
  14 -25   2  106.09   25.60
 -11  25   2   91.19   10.00
 -14  25  -2  107.49   10.20
  25 -11  -2   86.69   18.50
  25 -14   2  158.58   24.90
 -11 -14  -2   92.19   16.90
 -14 -11   2  124.59   17.10
  15 -25   2   42.30   23.10
  10 -25  -2   12.00   19.50
 -25  15  -2    6.80    5.90
  15  10  -2    7.80    8.40
 -25  10   2    1.10    7.00
 -15  25  -2   10.00    6.10
 -10  25   2    4.90    5.90
 -15 -10   2   27.40   11.40
  25 -10  -2    6.60   15.00
 -10 -15  -2   11.60   11.90
  25 -15   2   49.80   22.20
  16   9  -2   79.99   13.10
 -25  16  -2   76.79    9.40
   9 -25  -2  101.29   23.90
  16 -25   2  114.79   27.00
 -25   9   2   69.29   10.70
  25 -16   2  112.39   23.40
 -16  25  -2   95.49   10.20
 -16  -9   2  103.79   15.70
  25  -9  -2   72.39   17.20
  -9  25   2   89.39   10.50
  -9 -16  -2   93.09   17.20
   8 -25  -2    6.60   18.10
   8  17   2   -9.00    6.60
  17   8  -2    1.20    8.60
  17 -25   2   -8.70   21.30
 -25   8   2   -2.70    7.10
 -25  17  -2    4.30    5.30
  -8  25   2    4.80    6.20
  25  -8  -2   15.30   14.40
 -17  25  -2   -0.10    6.30
  -8 -17  -2    5.80   12.50
 -17  -8   2   18.20   10.60
  25 -17   2   17.40   21.20
   0   0  -3 2529.55   91.89
   0   0  -3 2356.66   90.59
   0   0   3 2230.28   95.99
   1   0   3   69.09   10.20
   0   1  -3   65.99    6.60
   1  -1  -3   64.79    5.10
   0  -1   3   64.09   11.40
  -1   0  -3   59.79    5.20
  -1   0  -3   67.29    7.80
  -1   1   3   79.09   12.00
   1  -1  -3   53.79    9.10
   0   1  -3   60.69    5.00
  -1   1  -3  895.51   35.20
   1   0  -3  948.91   36.50
  -1   1  -3  898.51   35.60
   0  -1  -3  882.01   37.40
   1   0  -3  917.51   35.20
   1  -1   3  896.21   39.50
   0  -1  -3  890.31   35.20
  -1   0   3  853.41   40.90
   0   1   3  887.31   39.20
   2  -2  -3 1377.66   54.39
   0  -2   3 1269.17   59.09
   2  -2  -3 1481.15   57.19
   2   0   3 1527.05   57.69
  -2   2   3 1353.56   58.69
  -2   0  -3 1437.06   55.49
   0   2  -3 1401.96   54.29
   0   2  -3 1428.16   54.39
  -2   0  -3 1400.16   54.39
  -2   1  -3  364.66   15.90
   1   1  -3  384.36   16.60
   1   1   3  361.66   19.80
  -2   1  -3  384.46   15.90
   1  -2  -3  371.26   19.50
   1   1  -3  372.66   15.70
   1  -2   3  370.86   22.40
  -2   1   3  314.77   24.60
   1  -2  -3  373.16   16.00
   2  -1   3  393.96   20.40
  -1   2   3  348.17   20.80
  -1   2  -3  403.26   15.80
  -1   2  -3  362.86   15.20
  -1  -1  -3  389.06   16.00
  -1  -1   3  371.76   23.80
   2  -1  -3  387.36   18.30
   2  -1  -3  378.06   15.70
  -1  -1  -3  375.66   18.40
   2   0  -3 2297.17   91.89
   0   2   3 2522.05   95.29
   0  -2  -3 2411.56   94.59
   2  -2   3 2574.94   95.49
  -2   0   3 2421.06   97.09
   0  -2  -3 2306.07   92.09
   2   0  -3 2442.36   93.09
  -2   2  -3 2356.36   91.99
  -3   0  -3   60.69    5.20
   0   3  -3   66.69    4.80
   0   3  -3   59.29    4.90
  -3   0  -3   60.39    4.60
  -3   0  -3   54.69    6.60
   3  -3  -3   61.49   10.10
   3  -3  -3   63.19    5.10
   0  -3   3   60.79   13.10
  -3   3   3   73.39   11.80
   1  -3   3  749.33   35.70
   2  -3  -3  777.12   29.50
   1   2  -3  747.63   29.30
  -3   1  -3  713.83   29.30
   2  -3  -3  738.03   32.90
  -3   1  -3  754.52   29.40
   1   2  -3  724.33   29.40
  -2  -1  -3  760.62   31.70
  -1  -2   3  779.62   37.00
  -1   3  -3  723.33   29.30
   3  -2  -3  722.53   29.30
  -2   3   3  696.33   33.90
  -2  -1  -3  747.13   29.50
   3  -2  -3  751.92   32.10
  -3   2  -3  302.17   13.30
   1  -3  -3  322.47   13.60
   2   1  -3  326.27   14.40
   2   1  -3  309.97   13.30
  -3   1   3  301.87   22.00
   2  -3   3  334.67   20.00
   1   2   3  299.27   17.50
   1  -3  -3  295.37   18.50
  -1  -2  -3  309.67   13.70
  -2  -1   3  309.07   22.60
  -1  -2  -3  317.97   17.40
   3  -1  -3  291.57   13.40
  -2   3  -3  301.97   13.40
   3  -1  -3  307.37   15.90
   3  -2   3  312.47   18.30
  -1   3   3  317.57   19.00
  -3   3  -3 1385.66   54.09
   0  -3  -3 1391.16   57.79
   3   0  -3 1418.66   55.29
   0   3   3 1441.16   57.09
  -3   0   3 1338.27   60.19
   3  -3   3 1480.65   57.99
   0  -3  -3 1358.06   54.19
   0   4  -3 2003.10   76.79
  -4   0  -3 1934.01   76.69
  -4   4   3 2060.39   81.49
   4  -4  -3 1904.61   76.89
   4  -4  -3 2152.88   80.59
   0   4  -3 2052.49   76.49
   0  -4   3 2076.99   83.39
  -4   0  -3 1939.51   77.79
  -4   0  -3 1990.50   76.99
   1   3  -3  133.89    6.90
  -4   1  -3  127.99    7.30
   3  -4  -3  129.69   14.50
   1  -4   3  145.69   17.60
  -4   1  -3  123.69    7.20
  -4   1  -3  133.79    6.80
   1   3  -3  128.59    6.90
   3  -4  -3  126.59    7.30
   4  -3  -3  115.69   11.60
  -3  -1  -3  129.69   10.30
  -1  -3   3  118.79   19.50
   4  -3  -3  116.69    6.90
  -3   4   3  120.09   14.10
  -3  -1  -3  119.19    7.30
  -1   4  -3  126.69    7.00
  -3  -1  -3  126.99    6.70
  -1   4  -3  130.49    5.90
   2  -4   3 1570.04   67.09
  -4   2  -3 1598.14   61.69
  -4   2  -3 1668.73   62.29
   2  -4  -3 1664.73   66.69
  -4   2   3 1554.54   67.49
   2   2  -3 1642.54   62.59
  -4   2  -3 1607.44   62.29
   2  -4  -3 1604.94   62.39
   2   2  -3 1577.44   62.09
  -2   4  -3 1576.34   62.19
   4  -2  -3 1611.74   62.19
  -2  -2  -3 1649.23   65.49
   4  -2  -3 1661.53   64.39
  -2  -2   3 1648.54   68.69
  -2   4   3 1664.83   66.19
  -2  -2  -3 1630.44   62.49
  -4   1   3  216.78   22.10
   1  -4  -3  233.08   17.70
   1   3   3  246.78   14.80
   3  -4   3  222.38   17.40
  -4   3  -3  240.88   11.00
   3   1  -3  204.28   10.90
   1  -4  -3  252.67   11.20
   3   1  -3  238.68   12.00
   4  -1  -3  209.88   11.30
  -3  -1   3  239.78   21.60
  -1   4   3  239.38   16.00
   4  -1  -3  252.17   13.90
  -1  -3  -3  238.98   16.50
   4  -3   3  239.68    9.40
  -1  -3  -3  242.78   11.10
  -3   4  -3  251.37   10.90
  -4   0   3  998.70   47.90
   4  -4   3 1094.09   45.10
   0  -4  -3 1068.69   41.20
  -4   4  -3 1040.80   41.00
   4   0  -3 1079.49   42.40
   0  -4  -3 1008.20   45.60
   4   0  -3 1025.70   40.80
   0   4   3 1088.69   43.70
   0   5  -3   61.99    4.40
  -5   5   3   75.89   12.40
  -5   0  -3   62.39    5.80
   5  -5  -3   68.39   11.20
  -5   0  -3   61.29    4.80
   5  -5  -3   60.09    5.40
   0   5  -3   63.29    5.70
   0  -5   3   96.29   16.10
  -5   0  -3   62.39    6.90
  -5   4   3  243.68   19.60
   4  -5  -3  293.37   19.20
  -5   1  -3  263.97   12.80
  -5   1  -3  269.87   12.50
   1   4  -3  288.47   12.10
  -5   1  -3  274.67   12.20
   1   4  -3  289.47   12.20
   4  -5  -3  264.27   12.50
  -4  -1  -3  280.57   15.00
  -4  -1  -3  285.67   12.50
   5  -4  -3  280.77   12.50
   5  -4  -3  275.17   17.30
  -4  -1  -3  283.67   12.10
  -1   5  -3  288.47   11.40
  -4   5   3  290.27   19.20
  -1   5  -3  268.07   12.40
  -5   2  -3  152.98    7.60
   3  -5  -3  161.28   16.40
   2   3  -3  161.88    8.30
  -5   3   3  158.88   17.50
   2  -5   3  176.28   18.10
  -5   2  -3  161.78    7.90
   3  -5  -3  159.18    8.40
  -5   2  -3  163.88    8.20
   2   3  -3  154.78    7.80
   5  -3  -3  154.18   12.30
  -3  -2  -3  143.29    8.20
  -3   5   3  166.98   15.20
  -3  -2  -3  152.28    7.50
  -3  -2  -3  155.88   11.90
   5  -3  -3  147.29    7.80
  -2   5  -3  160.88    8.30
  -5   3  -3 1877.11   68.99
   3   2  -3 1714.03   67.99
  -5   3  -3 1755.72   68.19
   3   2  -3 1777.92   68.69
  -5   2   3 1711.33   73.69
   2  -5  -3 1756.52   68.59
   2  -5  -3 1778.92   73.09
   3  -5   3 1938.21   73.69
  -2  -3  -3 1721.63   72.09
  -2   5   3 1844.62   71.59
  -2  -3  -3 1746.93   67.89
  -2  -3  -3 1730.03   68.39
   5  -3   3 1786.42   67.59
   1   4   3   15.90    6.60
  -5   4  -3   23.30    3.60
   4   1  -3   24.40    4.80
   1  -5  -3   24.50    4.40
  -5   4  -3   27.10    4.20
   1  -5  -3   19.00   10.70
   4   1  -3   20.00    3.60
  -5   1   3   22.00   13.10
  -1   5   3   33.40    8.10
  -4   5  -3   21.10    4.90
   5  -4   3   17.70    2.30
   5  -1  -3   21.80    3.00
   0  -5  -3  215.18   17.60
  -5   0   3  216.08   21.60
   5   0  -3  224.38    9.90
  -5   5  -3  214.28   10.30
   0  -5  -3  210.88   10.60
   0   5   3  215.68   13.80
  -6   0  -3   74.69    6.00
   0   6  -3   70.59    5.50
   6  -6  -3   68.59   12.10
  -6   0  -3   69.79    5.20
  -6   6   3   63.29   10.40
   0  -6   3   67.49   16.70
  -6   0  -3   65.99    7.40
   0  -6   3   69.09    6.00
   6  -6  -3   73.69    5.60
   5  -6  -3   18.20   10.50
  -6   1  -3   17.50    3.30
   1  -6   3   21.80    4.10
  -6   1  -3   18.20    3.70
  -6   5   3   16.80    9.60
   5  -6  -3   19.60    4.20
  -6   1  -3   17.60    4.10
   1  -6   3   23.40   13.50
   1   5  -3   20.80    3.50
  -5  -1  -3   19.60    3.10
  -1   6  -3   16.10    3.40
   6  -5  -3   16.70    3.50
  -1  -5   3   16.30   14.30
   6  -5  -3   14.40    9.10
  -5  -1  -3   17.00    6.10
  -5   6   3   27.20    9.90
  -5  -1  -3   19.00    3.80
  -6   2  -3  682.33   27.10
   2   4  -3  684.43   26.90
  -6   4   3  636.44   33.60
   4  -6  -3  673.13   27.40
   2  -6   3  707.63   33.50
   2   4  -3  668.93   27.20
  -6   2  -3  657.33   27.00
   4  -6  -3  683.63   33.40
   2  -6   3  704.63   26.60
  -2  -4   3  659.13   36.90
  -4  -2  -3  657.63   30.10
  -4  -2  -3  672.43   26.80
  -4  -2  -3  689.23   27.30
   6  -4  -3  675.93   26.90
  -4   6   3  697.63   31.60
  -2   6  -3  688.43   27.20
   6  -4  -3  661.23   30.80
  -6   3  -3  125.49    7.60
   3  -6  -3  104.59   17.80
   3   3  -3  129.79    7.10
   3  -6  -3  125.19    7.60
  -6   3  -3  131.89    7.20
   3  -6   3  134.29   17.20
  -6   3   3  143.09   17.30
   3   3  -3  127.09    7.80
   3  -6   3  133.09    5.70
  -3  -3   3  137.09   17.50
  -3  -3  -3  128.99    6.60
  -3   6   3  131.69   14.20
   6  -3  -3  126.19   12.30
   6  -3  -3  117.69    6.80
   6  -3   3  127.39    6.70
  -3   6  -3  126.29    7.40
   2  -6  -3 1022.40   39.30
   4   2  -3  950.70   38.80
   2  -6  -3 1011.10   45.10
  -6   4  -3  998.90   39.00
   4  -6   3 1044.30   44.10
   4   2  -3 1016.40   39.80
  -6   2   3 1017.60   46.00
  -2  -4  -3 1019.20   43.90
  -2  -4  -3 1020.90   38.50
   6  -4   3  977.20   38.50
  -2   6   3  967.00   42.10
  -2  -4  -3  984.60   39.20
  -4  -2   3  916.61   46.90
   6  -2  -3  963.60   38.70
  -4   6  -3 1011.30   39.10
   6  -2  -3 1005.60   41.40
   5   1  -3  219.68    9.80
  -6   5  -3  208.68   10.20
  -6   5  -3  226.58   10.20
   1  -6  -3  224.68   10.70
  -6   1   3  194.18   21.20
   5  -6   3  199.28    9.00
   5   1  -3  221.48   11.90
   5  -6   3  208.78   16.90
   1  -6  -3  171.18   18.30
  -5  -1   3  218.88   22.80
  -1  -5  -3  211.18   10.60
  -1   6   3  227.48   14.50
   6  -1  -3  204.38    9.70
  -1  -5  -3  197.18   17.50
   6  -1  -3  213.18   12.90
   6  -5   3  239.48   10.20
  -5   6  -3  223.18   10.40
   0  -6  -3   22.10   10.70
   0  -6  -3   18.10    4.00
   6   0  -3   25.80    5.80
   0   6   3   10.40    6.30
   6   0  -3   21.50    3.00
  -6   6  -3   19.20    3.80
  -6   0   3   17.50   14.20
   0  -7   3  389.76   17.10
   7  -7  -3  381.66   16.30
  -7   0  -3  369.16   17.70
   0  -7   3  363.76   28.60
   7  -7  -3  379.36   23.30
  -7   0  -3  367.46   16.10
   0   7  -3  379.56   16.10
   1   6  -3   -0.40    2.90
  -7   1  -3    3.60    3.00
   1  -7   3    5.20   13.50
  -7   6   3    5.20    9.30
  -7   1  -3   -0.10    4.00
   6  -7  -3   -1.30    3.10
  -7   1  -3    1.20    3.10
   1  -7   3   -1.70    3.40
   6  -7  -3   -2.40   10.90
  -1  -6   3   -2.70   14.20
  -6   7   3    6.50    7.80
   7  -6  -3   -1.40    3.10
  -6  -1  -3   -1.50    2.90
   7  -6  -3   -2.20    9.30
  -1  -6   3   -1.90    3.60
  -1   7  -3    3.50    3.20
  -6  -1  -3    3.70    5.10
  -7   2  -3  186.18    8.20
   2  -7   3  164.88    8.70
   2  -7   3  169.08   20.40
   2   5  -3  164.28    8.50
   5  -7  -3  158.78    8.70
  -7   5   3  140.29   16.90
  -7   2  -3  157.48    8.50
   5  -7  -3  159.78   18.10
   7  -5  -3  136.29   14.80
  -5  -2  -3  119.59   10.80
  -2  -5   3  157.08   22.70
  -5   7   3  170.58   14.70
  -5  -2  -3  155.08   12.40
   7  -5  -3  151.78    8.30
  -5  -2  -3  161.08    7.90
  -2   7  -3  163.88    8.50
  -7   4   3  365.66   22.20
   3   4  -3  341.17   14.90
   4  -7  -3  347.17   15.60
  -7   3  -3  349.67   15.30
   3  -7   3  361.36   24.30
   3  -7   3  355.36   15.10
   4  -7  -3  354.86   24.30
   3   4  -3  356.26   15.70
  -3  -4   3  346.17   27.30
   7  -4  -3  369.36   15.10
  -4   7   3  384.06   20.00
  -4  -3  -3  349.87   15.40
  -4  -3  -3  339.77   19.50
   7  -3   3  366.16   15.20
  -4  -3  -3  343.37   14.80
  -3   7  -3  358.36   15.40
   4  -7   3  111.09    6.70
  -7   3   3  110.89   16.10
   3  -7  -3  111.19    7.50
  -7   4  -3  124.59    7.50
   4   3  -3  120.89    6.70
   4  -7   3  116.19   16.40
  -7   4  -3  115.99    7.00
   3  -7  -3   93.99   16.90
  -3  -4  -3  105.39    7.20
   7  -3  -3  110.19    6.60
  -4  -3   3  127.19   20.90
  -3  -4  -3  115.19   14.60
  -4   7  -3  126.39    7.30
   7  -3  -3  118.39   11.80
  -3  -4  -3   99.09    6.60
  -3   7   3  133.99   13.20
   7  -4   3  124.39    6.90
   5  -7   3  647.14   26.00
  -7   5  -3  687.33   26.20
  -7   5  -3  633.64   26.00
  -7   2   3  609.04   33.20
   2  -7  -3  656.63   26.50
   2  -7  -3  632.14   33.90
   5  -7   3  609.64   31.50
   5   2  -3  656.93   27.20
  -2   7   3  668.83   29.30
  -2  -5  -3  659.23   25.40
   7  -2  -3  650.63   28.80
   7  -2  -3  643.04   25.70
  -5  -2   3  606.84   36.10
   7  -5   3  604.34   25.90
  -2  -5  -3  678.93   26.40
  -5   7  -3  663.13   26.20
  -2  -5  -3  640.74   32.10
   6   1  -3    4.90    4.80
   1  -7  -3   -0.20    3.50
  -7   1   3   -4.70   12.80
   6   1  -3   -1.90    2.40
  -7   6  -3    1.80    2.50
   6  -7   3    7.40    4.30
   1  -7  -3  -12.50   11.10
  -7   6  -3    1.70    3.20
   6  -7   3  -13.80    9.30
   7  -1  -3    2.00    2.50
  -6  -1   3   -5.40   13.50
   7  -1  -3    4.60    6.00
  -1   7   3    6.50    6.40
  -1  -6  -3   -0.40    3.30
  -1  -6  -3   -5.50   11.50
  -6   7  -3    4.90    3.60
  -7   0   3 1449.15   64.59
   0  -7  -3 1458.85   64.49
  -7   7  -3 1490.65   57.59
   0   7   3 1514.15   59.09
   0  -7  -3 1451.85   57.79
  -7   7  -3 1453.85   57.59
   7   0  -3 1469.35   56.99
   7  -7   3 1586.74   58.49
   8  -8  -3    5.60    3.70
   0  -8   3    1.70   16.70
  -8   0  -3    6.50    3.70
   8  -8  -3    8.80   11.50
  -8   0  -3    7.90    3.50
   0  -8   3    7.30    5.00
  -8   8   3   14.50    8.40
   0   8  -3   13.60    3.80
  -8   0  -3    8.90    5.60
   1   7  -3   60.29    5.50
  -8   7   3   55.29    9.80
   1  -8   3   56.09    7.40
  -8   1  -3   60.69    5.60
   1  -8   3   65.49   18.00
   7  -8  -3   61.29   13.80
  -8   1  -3   59.59    6.20
  -8   1  -3   60.49    6.90
   7  -8  -3   56.39    5.90
  -7  -1  -3   61.69    6.10
   8  -7  -3   64.69   11.10
  -7  -1  -3   60.49    5.30
  -7  -1  -3   56.69    9.40
  -1  -7   3   66.19    7.40
  -7   8   3   57.79    9.10
  -1  -7   3   67.59   18.80
   8  -7  -3   49.00    6.10
  -1   8  -3   66.69    6.10
   6  -8  -3  117.89   16.40
  -8   2  -3  106.19    6.90
   6  -8  -3  109.29    7.20
   2   6  -3  112.69    6.90
   2  -8   3  108.69    8.30
  -8   6   3   84.39   13.60
   2  -8   3  114.89   17.90
  -8   2  -3   74.19    9.20
  -6  -2  -3  112.29    7.30
  -2   8  -3  116.99    7.20
  -2  -6   3   96.19   18.10
   8  -6  -3   89.49   15.10
  -6  -2  -3  100.69   11.60
  -6  -2  -3  109.59    6.40
   8  -6  -3  100.29    6.40
  -6   8   3  117.99   12.30
  -2  -6   3   88.29    9.40
   5  -8  -3  403.96   24.40
   3   5  -3  408.06   16.90
   5  -8  -3  396.36   17.60
  -8   3  -3  413.76   17.30
  -8   5   3  382.26   26.50
   3  -8   3  399.16   18.10
  -8   3  -3  401.76   17.30
   3  -8   3  380.16   27.10
  -3   8  -3  391.66   17.30
  -5  -3  -3  388.06   21.40
  -5   8   3  432.86   20.40
  -5  -3  -3  408.56   16.80
   8  -5  -3  398.46   22.40
  -3  -5   3  357.36   29.50
   8  -3   3  416.66   17.50
  -5  -3  -3  418.16   17.40
   8  -5  -3  411.66   17.00
   4   4  -3  150.48    9.20
   4  -8   3  143.99    9.10
   4   4  -3  147.59    7.70
   4  -8  -3  157.88    9.20
   4  -8  -3  121.59   19.20
  -8   4  -3  148.19    8.10
  -8   4  -3  152.28    8.20
  -8   4   3  129.79   18.40
   4  -8   3  172.88   19.30
  -4   8   3  157.18   13.40
   8  -4  -3  142.09   13.60
   8  -4  -3  142.69    7.70
  -4  -4  -3  149.59   14.70
  -4   8  -3  154.68    8.50
  -4  -4   3  130.49   20.20
  -4  -4  -3  140.59    8.60
  -4  -4  -3  146.79    7.30
   8  -4   3  144.19    8.40
  -8   5  -3  582.34   23.20
  -8   5  -3  569.74   23.30
   5   3  -3  572.64   24.30
   3  -8  -3  572.44   32.10
   3  -8  -3  570.24   23.60
   5   3  -3  588.64   22.80
   5  -8   3  569.64   24.10
   5  -8   3  560.44   30.10
  -8   3   3  563.34   31.80
  -3  -5  -3  532.25   23.40
  -3  -5  -3  575.74   30.40
   8  -5   3  532.65   23.40
   8  -3  -3  595.54   26.70
   8  -3  -3  584.74   22.70
  -5   8  -3  571.84   23.30
  -3   8   3  564.34   25.90
  -5  -3   3  500.55   34.30
  -8   6  -3   67.59    6.10
   2  -8  -3   52.69    6.50
   6   2  -3   56.29    7.30
   6  -8   3   73.29    8.30
   2  -8  -3   46.50   14.40
  -8   2   3   59.29   14.50
   6   2  -3   52.99    4.70
   6  -8   3   60.89   12.50
  -8   6  -3   56.59    5.50
   8  -2  -3   54.99   10.10
  -2  -6  -3   56.19    4.30
  -2  -6  -3   48.80    6.00
   8  -6   3   43.70    5.80
  -2  -6  -3   70.79   12.60
  -6   8  -3   64.49    6.20
   8  -2  -3   53.09    4.70
  -6  -2   3   52.49   16.90
  -2   8   3   75.19   10.70
   1  -8  -3 1210.38   54.99
  -8   7  -3 1178.48   47.20
   7   1  -3 1182.48   46.60
   7  -8   3 1249.97   48.80
   7   1  -3 1217.88   48.80
  -8   7  -3 1203.88   47.20
   1  -8  -3 1185.28   47.50
  -8   1   3 1179.48   54.49
  -7   8  -3 1247.08   47.30
  -7  -1   3 1246.18   55.19
   8  -7   3 1259.77   48.20
   8  -1  -3 1193.18   46.50
   8  -1  -3 1213.48   49.30
  -1  -7  -3 1224.48   47.50
  -1  -7  -3 1141.79   54.29
  -1   8   3 1188.28   48.70
   0  -8  -3  637.94   26.40
  -8   8  -3  615.64   26.00
  -8   8  -3  668.33   26.20
   8   0  -3  634.74   28.20
   8   0  -3  614.24   25.20
   0  -8  -3  636.94   35.40
  -8   0   3  624.84   33.70
   0   8   3  633.14   27.70
   8  -8   3  673.53   28.20
   0  -9   3    4.60    6.20
   9  -9  -3    2.10   13.20
  -9   0  -3    5.10    3.50
   0  -9   3   27.90   19.00
  -9   0  -3    4.00    4.20
  -9   9   3    3.90    3.30
  -9   0  -3    5.30    6.00
  -9   9   3    0.90    7.20
   0   9  -3    6.20    4.10
   1   8  -3   41.50    5.60
   1  -9   3   38.00   18.30
  -9   8   3   36.20    9.10
  -9   1  -3   31.50    4.30
  -9   1  -3   45.00    7.70
   8  -9  -3   37.40   12.40
  -9   1  -3   35.00    5.40
   1  -9   3   38.00    7.10
  -1  -8   3   35.20    6.70
  -1  -8   3   37.50   18.70
   9  -8  -3   17.50   12.40
  -8  -1  -3   31.50    4.30
  -8   9   3   35.30    7.90
  -8  -1  -3   36.30    5.20
  -1   9  -3   40.40    4.80
  -8  -1  -3   50.69    9.70
  -9   7   3  243.48   18.50
   2   7  -3  241.88   11.50
  -9   2  -3  242.28   12.00
   7  -9  -3  236.18   23.20
   2  -9   3  232.98   26.50
  -9   2  -3  261.67   11.90
   2  -9   3  238.68   14.30
   9  -7  -3  251.97   12.00
   9  -2   3  271.67   12.80
  -7  -2  -3  230.28   15.40
  -2  -7   3  242.58   28.00
  -7   9   3  261.27   15.40
  -2   9  -3  254.47   12.10
   9  -7  -3  238.08   20.50
  -7  -2  -3  256.07   11.90
  -7  -2  -3  251.47   11.90
  -2  -7   3  248.38   13.60
   3  -9   3   10.80    5.60
  -9   6   3    2.90    9.30
   3   6  -3   12.40    3.30
   3  -9   3   27.20   16.20
  -9   3  -3    7.80    3.50
   6  -9  -3   12.10    4.10
  -9   3  -3   12.80    3.80
   6  -9  -3   -0.90   12.90
  -3  -6   3    6.30    4.70
   9  -3   3   12.10    4.40
   9  -6  -3    4.60   10.20
  -6  -3  -3    8.10    3.10
  -3   9  -3   10.60    4.00
   9  -6  -3    8.10    3.10
  -6   9   3   19.00    6.20
  -3  -6   3    3.50   17.00
  -6  -3  -3   10.70    3.90
  -6  -3  -3    9.00    7.40
   4  -9   3  423.36   20.60
   5  -9  -3  400.36   29.90
   4  -9   3  486.05   29.10
   4   5  -3  427.16   18.10
  -9   5   3  391.66   24.60
   4   5  -3  455.15   19.60
   5  -9  -3  431.86   18.90
  -9   4  -3  442.56   18.60
  -9   4  -3  431.26   18.40
  -4   9  -3  426.06   18.80
  -5  -4  -3  423.66   24.60
   9  -5  -3  453.85   18.20
  -4  -5   3  411.46   31.70
  -5   9   3  464.15   20.50
   9  -4   3  458.35   19.20
   9  -5  -3  429.96   24.10
  -5  -4  -3  445.96   18.20
  -5  -4  -3  424.66   18.80
   5   4  -3  551.34   22.20
   5   4  -3  542.05   23.80
   4  -9  -3  563.14   23.30
  -9   5  -3  540.15   22.60
   5  -9   3  550.64   30.70
  -9   4   3  538.55   29.30
   4  -9  -3  547.15   32.90
   5  -9   3  553.54   24.80
  -9   5  -3  568.34   22.90
  -4   9   3  571.74   24.00
  -4  -5  -3  519.35   28.80
  -4  -5  -3  538.95   22.10
   9  -5   3  575.24   23.40
   9  -4  -3  529.55   22.20
  -5  -4   3  508.65   34.70
  -5   9  -3  551.74   22.90
  -4  -5  -3  550.74   23.10
   9  -4  -3  565.94   27.30
   6   3  -3  308.67   15.20
   3  -9  -3  266.07   24.80
  -9   6  -3  305.77   13.90
  -9   3   3  287.97   22.50
   6   3  -3  318.97   13.30
   3  -9  -3  312.97   14.40
   6  -9   3  305.07   16.90
  -9   6  -3  315.97   13.90
   6  -9   3  293.77   21.80
  -6  -3   3  265.37   27.10
   9  -3  -3  294.17   18.40
  -3   9   3  307.47   16.10
  -6   9  -3  314.77   14.10
   9  -3  -3  308.57   13.20
  -3  -6  -3  316.27   14.40
  -3  -6  -3  302.37   22.30
  -9   7  -3  359.56   15.30
   7   2  -3  340.27   14.40
   2  -9  -3  331.87   27.30
   7   2  -3  352.66   17.50
   7  -9   3  298.67   21.90
   2  -9  -3  350.16   15.80
  -9   2   3  290.67   24.60
  -9   7  -3  353.46   15.30
   7  -9   3  357.46   18.80
   9  -2  -3  345.17   19.00
  -7   9  -3  327.77   15.40
  -2  -7  -3  352.26   24.30
   9  -2  -3  339.87   14.40
  -2   9   3  346.37   17.40
  -2  -7  -3  351.86   14.20
  -2  -7  -3  329.17   15.40
   9  -7   3  348.17   16.70
  -7  -2   3  307.27   27.20
   8   1  -3   81.89    5.80
   1  -9  -3   91.49    7.60
   1  -9  -3   70.79   17.00
  -9   8  -3   91.39    7.20
  -9   1   3   87.89   16.50
  -9   8  -3   89.99    6.80
   8   1  -3   95.59    9.70
   8  -9   3  120.19   12.90
   9  -1  -3   99.19   11.40
  -8   9  -3  101.89    7.40
  -1  -8  -3   87.49    7.70
  -1   9   3   83.49   10.10
   9  -1  -3   84.49    5.60
  -8  -1   3   67.59   17.60
  -1  -8  -3   81.39   16.20
   9   0  -3  336.27   14.00
   9   0  -3  328.67   17.80
  -9   9  -3  323.17   14.80
   0   9   3  292.97   16.50
   9  -9   3  376.56   19.20
   0  -9  -3  320.27   15.30
  -9   0   3  335.47   25.90
   0  -9  -3  315.77   26.80
  -9   9  -3  336.97   15.40
 -10   0  -3  221.38   11.30
   0 -10   3  220.18   31.40
   0 -10   3  223.68   14.90
 -10   0  -3  215.38   11.10
 -10   0  -3  202.78   13.80
   0  10  -3  220.78   11.60
  10 -10  -3  174.38   22.50
 -10  10   3  206.98   10.90
 -10  10   3  216.48   14.70
 -10   9   3   36.00    9.20
   1 -10   3   48.80    8.20
 -10   1  -3   41.60    6.10
 -10   9   3   48.50    5.80
   1   9  -3   49.99    6.60
 -10   1  -3   45.80    6.20
   1 -10   3   44.60   19.80
   9 -10  -3   30.60   15.60
  -1  -9   3   51.79    7.90
  -1  10  -3   55.19    7.10
  -9  -1  -3   47.90    5.90
  -1  -9   3   46.00   19.40
  -9  -1  -3   48.40    9.20
  10  -9  -3   44.50   14.40
  -9  10   3   43.00    5.10
  -9  -1  -3   43.20    5.60
 -10   8   3   33.90    5.00
   2 -10   3   36.90    8.50
 -10   2  -3   31.70    4.90
   2 -10   3   17.40   18.50
   8 -10  -3   29.00   15.80
 -10   8   3   22.70    8.90
 -10   2  -3   34.40    4.60
   2   8  -3   38.50    4.80
  10  -8  -3   21.80   12.80
  -8  10   3   29.10    6.40
  -8  -2  -3   31.30    7.90
  -2  -8   3   31.40    6.50
  -2  -8   3   34.30   18.90
  -8  -2  -3   20.00    4.30
  -8  -2  -3   22.60    4.40
  -8  10   3   29.60    4.50
  -2  10  -3   34.20    5.10
   3 -10   3  634.04   37.60
   3   7  -3  592.54   24.60
   3 -10   3  578.04   27.70
 -10   7   3  571.44   29.60
 -10   3  -3  596.54   24.90
 -10   3  -3  589.94   25.10
   7 -10  -3  623.94   35.30
  -7  -3  -3  619.44   25.10
  10  -3   3  633.94   25.90
  -7  -3  -3  603.54   28.70
  -3  -7   3  626.04   27.30
  -7  -3  -3  615.24   24.90
  -7  10   3  598.14   24.80
  -7  10   3  630.54   26.20
  -3  -7   3  641.34   45.20
  10  -7  -3  622.44   31.50
  -3  10  -3  580.64   25.10
   4   6  -3    5.10    3.30
   6 -10  -3   -4.60   15.40
 -10   4  -3    7.30    3.70
 -10   6   3   -3.80   10.30
   4 -10   3    4.20    6.80
 -10   4  -3    2.40    3.90
   4 -10   3    4.40   15.70
  -6  10   3   -2.00    3.70
  -6  -4  -3    2.90    3.90
  -6  10   3    9.40    4.50
  -4  10  -3    6.80    4.10
  -4  -6   3  -16.50   16.60
  10  -6  -3    2.40    3.00
  10  -6  -3   -2.10   10.40
  -6  -4  -3    1.10    2.90
  10  -4   3    1.90    4.70
  -6  -4  -3   -4.40    8.90
   5   5  -3  866.41   34.80
   5 -10   3  885.51   42.60
 -10   5   3  835.02   39.10
 -10   5  -3  854.21   33.80
   5 -10   3  846.62   36.60
 -10   5  -3  820.52   33.50
   5 -10  -3  806.92   43.80
   5   5  -3  880.61   33.30
  -5  -5  -3  844.72   33.20
  -5  10  -3  837.52   33.90
  10  -5  -3  852.41   38.50
  10  -5  -3  801.12   33.10
  -5  10   3  897.41   33.50
  -5  -5  -3  814.12   33.60
  -5  -5  -3  816.02   39.10
  -5  -5   3  774.72   44.70
   6   4  -3   -0.50    2.90
   6 -10   3    3.50    7.70
   6   4  -3    1.90    4.80
   6 -10   3    9.20   13.70
 -10   6  -3    7.70    3.70
 -10   4   3    4.30   12.00
 -10   6  -3    3.20    3.80
   4 -10  -3  -14.00   14.80
  -6  10  -3    7.90    4.30
  -4  -6  -3   -1.20   11.00
  -4  10   3   12.90    2.90
  10  -4  -3    6.50    9.10
  10  -4  -3    5.30    2.80
  -6  -4   3  -18.70   16.30
  -4  -6  -3    2.20    2.70
  -4  -6  -3    6.00    4.00
 -10   7  -3 1400.76   53.79
   7 -10   3 1363.26   59.49
   7 -10   3 1453.65   57.29
 -10   7  -3 1361.26   53.99
 -10   3   3 1336.17   60.09
   7   3  -3 1395.56   55.29
   3 -10  -3 1380.96   63.39
  10  -3  -3 1389.56   57.19
  10  -7   3 1298.87   54.89
  -7  -3   3 1383.56   62.49
  10  -3  -3 1394.36   53.09
  -3  -7  -3 1395.86   54.09
  -3  -7  -3 1387.86   61.09
  -7  10  -3 1411.66   54.09
   2 -10  -3  456.05   33.50
   8   2  -3  538.95   21.40
 -10   2   3  459.15   30.20
 -10   8  -3  526.75   22.20
 -10   8  -3  533.35   22.30
   8   2  -3  525.85   24.20
   8 -10   3  574.84   26.60
   8 -10   3  536.15   29.00
  -8  -2   3  445.36   32.70
  -2  -8  -3  521.95   22.50
  -2  -8  -3  483.65   31.50
  10  -8   3  587.74   24.80
  10  -2  -3  536.35   21.20
  10  -2  -3  536.45   25.90
  -2  10   3  547.65   21.80
  -2  -8  -3  526.05   21.10
  -8  10  -3  549.95   22.40
   9   1  -3  810.22   35.40
 -10   9  -3  810.02   33.20
 -10   9  -3  811.12   33.10
   9   1  -3  842.62   32.30
 -10   1   3  826.92   39.80
   9 -10   3  870.91   37.50
   1 -10  -3  826.12   43.70
  10  -9   3  868.91   36.00
  -1  -9  -3  844.52   33.50
  10  -1  -3  817.82   32.10
  -9  10  -3  827.32   33.30
  -9  -1   3  745.63   41.90
  10  -1  -3  808.22   35.90
  -1  10   3  827.82   33.80
  -1  -9  -3  797.12   42.90
  10   0  -3   82.69   11.20
  10   0  -3   72.99    5.20
  10 -10   3  106.49   14.00
 -10  10  -3   78.09    6.70
   0 -10  -3   76.89   17.80
 -10  10  -3   62.09    7.80
   0  10   3   84.29    8.20
 -10   0   3   51.09   15.10
   0 -11   3   67.29   10.40
  11 -11  -3   43.30   16.20
 -11  11   3   50.49    6.70
 -11   0  -3   62.69    9.20
 -11   0  -3   53.49    6.70
   0  11  -3   55.89    6.90
 -11   0  -3   52.69    6.80
 -11  11   3   55.39    8.40
   0 -11   3   29.60   21.30
 -11  10   3   27.80    4.50
 -11  10   3   22.10    8.30
 -11   1  -3   28.80    5.20
 -11   1  -3   22.10    4.20
   1 -11   3   26.40   19.90
  10 -11  -3    9.30   16.20
   1  10  -3   25.60    4.80
  -1 -10   3   19.20   20.00
 -10  -1  -3   29.60    4.90
 -10  11   3   30.40    6.90
 -10  11   3   28.90    4.60
  11 -10  -3    8.80   13.80
 -10  -1  -3   23.50    4.70
  -1  11  -3   26.00    5.00
  -1 -10   3   25.80    7.40
 -10  -1  -3   29.80    7.80
 -11   9   3  119.39    7.70
 -11   2  -3  118.29    8.50
   2   9  -3  129.79    8.50
   2 -11   3  163.48   24.60
 -11   2  -3  125.09    8.20
 -11   9   3  115.59   12.80
   2 -11   3  125.69   12.90
   9 -11  -3  121.39   19.70
  -2  -9   3  161.88   24.30
  -9  -2  -3  112.09    8.00
  -9  -2  -3  123.79   12.50
  -2  -9   3  118.39   11.70
  -9  -2  -3  122.79    8.30
  -9  11   3  113.29    8.10
  11  -2   3  140.19    9.90
  11  -9  -3  104.89   19.70
  -2  11  -3  130.99    8.80
  -9  11   3  134.19   10.20
 -11   8   3   23.20   10.10
   3 -11   3   59.29   19.90
   3 -11   3   39.10    9.00
 -11   3  -3   26.20    4.50
   3   8  -3   32.90    4.50
 -11   3  -3   31.70    5.20
   8 -11  -3   14.30   15.80
 -11   8   3   32.50    4.40
  -3  -8   3   33.30    7.50
  -8  11   3   28.90    4.80
  -8  11   3   43.60    5.70
  11  -3   3   43.30    7.70
  -8  -3  -3   31.70    4.70
  -8  -3  -3   27.30    9.10
  11  -8  -3   22.40   13.10
  -3  11  -3   35.80    5.30
  -3  -8   3   14.80   18.50
  -8  -3  -3   36.70    5.40
 -11   4  -3  388.56   17.40
 -11   4  -3  417.76   17.70
   4 -11   3  377.46   22.00
   7 -11  -3  361.76   30.70
   4   7  -3  395.26   17.10
 -11   7   3  410.76   16.70
   4 -11   3  415.46   31.10
 -11   7   3  357.16   22.70
  -4  -7   3  395.16   19.50
  -7  11   3  383.56   17.40
  -4  11  -3  399.26   17.70
  -7  11   3  419.86   17.10
  -7  -4  -3  424.66   17.40
  11  -7  -3  398.06   25.00
  11  -4   3  413.46   19.10
  -7  -4  -3  383.66   17.60
  -7  -4  -3  408.36   22.80
  -4  -7   3  372.06   32.20
 -11   5  -3   75.89    6.90
   5 -11   3   78.09   12.80
   6 -11  -3   79.39   16.70
   5   6  -3   78.89    7.30
 -11   6   3   77.79   12.90
 -11   5  -3   73.99    6.90
   5 -11   3  106.59   18.90
  11  -5   3  100.99    8.70
  -6  -5  -3   76.79    6.90
  -5  -6   3   85.79   20.50
  -6  11   3   76.39    4.50
  -5  11  -3   72.89    7.50
  -6  -5  -3   90.89   13.40
  11  -6  -3   70.19   13.40
  -6  11   3   75.49    6.90
  -6  -5  -3   75.49    5.70
   6   5  -3   62.39    5.60
 -11   6  -3   73.99    6.90
   5 -11  -3   70.59   15.80
 -11   5   3   36.20   12.40
   6 -11   3   69.49   13.30
   6   5  -3   55.39    7.70
 -11   6  -3   62.99    6.40
   6 -11   3   81.69   17.80
  -6  -5   3   51.59   17.90
  -5  -6  -3   54.19    7.30
  -6  11  -3   77.19    7.30
  11  -6   3   41.40    7.10
  -5  -6  -3   67.09   13.30
  -5  -6  -3   64.89    5.40
  -5  11   3   60.39    6.60
  11  -5  -3   76.99   12.50
   7 -11   3  262.97   23.10
   7 -11   3  277.87   19.00
   4 -11  -3  240.78   26.40
 -11   7  -3  260.67   12.90
 -11   7  -3  263.17   12.70
 -11   4   3  242.58   21.30
   7   4  -3  264.67   14.90
   7   4  -3  274.97   12.00
  11  -4  -3  285.47   18.80
  -7  -4   3  231.88   26.50
  -4  11   3  245.78   12.70
  -4  -7  -3  270.77   22.20
  11  -4  -3  277.27   11.60
  -4  -7  -3  254.87   13.00
  -7  11  -3  275.27   13.20
  -4  -7  -3  271.97   11.80
  11  -7   3  230.28   14.40
   8   3  -3    5.30    2.70
   8 -11   3   -5.80   12.30
 -11   8  -3   10.70    4.20
   8 -11   3    2.00    9.40
 -11   3   3   -8.10   12.40
   8   3  -3   -0.40    6.30
 -11   8  -3    7.40    4.10
   3 -11  -3   -5.60   16.20
  11  -3  -3    3.70    2.50
  -8  -3   3  -22.60   16.00
  11  -3  -3    2.70    8.90
  -3  -8  -3    6.10    4.20
  -3  -8  -3    5.10    4.10
  -3  -8  -3    1.30   13.20
  -3  11   3    5.60    4.10
  11  -8   3   21.40    7.10
  -8  11  -3    7.20    4.70
   9 -11   3  668.73   32.00
   9 -11   3  607.64   32.80
   9   2  -3  669.93   25.60
 -11   9  -3  668.83   26.80
 -11   2   3  574.44   34.10
   9   2  -3  638.64   28.70
 -11   9  -3  630.94   26.50
   2 -11  -3  614.84   37.90
  11  -2  -3  638.44   30.30
  11  -9   3  697.13   31.20
  -9  -2   3  588.74   36.10
  -2  -9  -3  647.44   36.90
  -9  11  -3  633.44   26.60
  11  -2  -3  664.33   25.20
  -2  11   3  617.74   26.40
  -2  -9  -3  638.24   26.60
  10   1  -3   66.99   10.90
 -11  10  -3   80.09    6.90
 -11   1   3   42.50   15.10
   1 -11  -3   77.59   19.20
  10 -11   3   74.69   21.10
 -11  10  -3   82.59    7.70
  10   1  -3   84.89    5.40
  -1  11   3   66.89    7.30
 -10  11  -3   84.99    6.90
  11  -1  -3   84.89    5.10
  -1 -10  -3   82.69   16.90
 -10  11  -3   73.49    7.50
 -10  -1   3   57.79   15.80
  11  -1  -3   82.89   12.00
  11   0  -3  199.68   15.30
  11 -11   3  221.68   18.20
 -11  11  -3  188.38   10.90
  11   0  -3  199.98    8.70
   0 -11  -3  188.18   24.70
   0  11   3  181.78   10.50
 -11  11  -3  184.28   10.60
 -11   0   3  137.89   21.00
   0  12  -3  375.56   16.70
  12 -12  -3  315.67   27.40
 -12  12   3  354.66   16.30
 -12   0  -3  381.86   17.00
 -12   0  -3  358.16   16.40
   0 -12   3  313.77   32.70
 -12  12   3  407.46   23.80
   0 -12   3  353.66   20.50
 -12  11   3  273.07   16.30
  11 -12  -3  214.88   25.90
 -12  11   3  256.67   12.60
 -12   1  -3  260.67   13.30
 -12   1  -3  254.07   12.80
   1 -12   3  264.37   18.50
   1  11  -3  259.97   13.30
   1 -12   3  223.88   31.90
  -1  12  -3  262.67   13.20
  -1 -11   3  218.38   28.40
 -11  12   3  269.67   13.00
 -11  -1  -3  271.77   13.30
  12 -11  -3  221.88   20.50
 -11  12   3  279.77   14.40
  -1 -11   3  250.27   16.70
  12  -1   3  316.77   15.00
 -11  -1  -3  272.97   16.70
 -11  -1  -3  257.37   12.80
  10 -12  -3  136.49   20.10
   2 -12   3  160.78   24.20
   2 -12   3  148.29   14.60
 -12   2  -3  130.09    9.70
   2  10  -3  151.78    9.40
 -12  10   3  153.98   14.00
 -12   2  -3  148.39    9.10
 -12  10   3  152.08    8.40
 -10  -2  -3  144.19   13.00
  -2 -10   3  134.59   12.50
 -10  -2  -3  129.79    8.80
 -10  -2  -3  135.99    9.40
 -10  12   3  148.59    9.70
  12 -10  -3  114.49   20.30
 -10  12   3  139.19    9.10
  -2 -10   3  122.39   23.00
  -2  12  -3  144.39    9.40
 -12   3  -3  289.17   13.20
   3 -12   3  263.17   18.60
   9 -12  -3  281.77   27.10
   3   9  -3  269.37   12.80
 -12   3  -3  265.87   13.50
 -12   9   3  251.97   17.30
   3 -12   3  312.67   33.50
 -12   9   3  258.77   12.50
  -3  12  -3  271.47   13.50
  -9  -3  -3  267.57   18.30
  12  -3   3  309.57   15.30
  -3  -9   3  271.67   16.50
  12  -9  -3  229.08   23.40
  -9  12   3  251.57   13.30
  -3  -9   3  231.78   32.20
  -9  12   3  275.47   13.00
  -9  -3  -3  270.07   13.10
  -9  -3  -3  256.37   13.00
   4   8  -3   92.49    7.40
 -12   8   3   84.39   11.80
 -12   4  -3   98.99    7.80
   8 -12  -3   93.79   20.90
 -12   4  -3   88.39    7.70
   4 -12   3  113.99   14.10
 -12   8   3  106.79    6.80
   4 -12   3  100.49   21.40
  12  -8  -3   92.49   14.70
  -4  -8   3   60.09   20.70
  -8  12   3  103.89    6.00
  -8  -4  -3   84.49    7.60
  -8  -4  -3   93.59    7.10
  -8  -4  -3   89.39   14.00
  -4  -8   3  100.39   11.50
  -4  12  -3   99.29    8.30
  -8  12   3   90.69    7.70
   5   7  -3  985.00   38.60
 -12   7   3 1027.90   38.30
   7 -12  -3  991.30   51.19
 -12   7   3  966.10   44.10
 -12   5  -3  945.31   39.20
   5 -12   3 1046.90   49.80
 -12   5  -3 1005.00   39.00
   5 -12   3  995.90   43.70
  12  -5   3 1021.60   40.70
  -7  -5  -3  974.60   39.20
  -5  -7   3  952.00   50.69
  12  -7  -3  932.91   44.90
  -7  -5  -3  958.20   44.40
  -5  12  -3  967.00   39.20
  -7  -5  -3  990.40   38.90
  -5  -7   3  962.20   41.10
  -7  12   3  944.51   39.00
 -12   6  -3   37.20    5.10
   6 -12   3   24.40   11.00
 -12   6   3   31.30   12.00
   6 -12   3   38.80   18.30
 -12   6  -3   23.10    5.00
   6 -12  -3   -1.40   17.60
  -6  -6  -3   25.90    5.00
  -6  -6   3   19.50   17.80
  -6  -6  -3   35.50   12.00
  -6  12  -3   30.40    5.20
  -6  -6  -3   31.40    5.20
  12  -6  -3   40.30   12.40
  -6  12   3   25.30    5.00
   7 -12   3  659.23   36.40
 -12   5   3  579.24   32.50
 -12   7  -3  670.33   26.60
   7   5  -3  651.53   26.00
 -12   7  -3  660.13   26.90
   5 -12  -3  568.04   39.30
   7   5  -3  639.24   28.10
 -12   5   3  676.63   25.50
  12  -5  -3  688.63   32.20
  -5  -7  -3  661.03   27.00
  -5  -7  -3  637.24   34.10
  -5  12   3  635.14   26.80
  -7  12  -3  679.43   27.00
  -7  -5   3  609.04   38.70
  12  -7   3  584.94   28.50
  -5  -7  -3  673.33   26.30
 -12   4   3   53.49   13.90
   8   4  -3   71.49    5.90
 -12   4   3   86.89    4.70
 -12   8  -3   73.79    6.80
   8   4  -3   65.59    9.20
 -12   8  -3   66.39    6.80
   4 -12  -3   45.40   19.20
   8 -12   3   58.59   15.40
  -8  12  -3   65.89    7.70
  12  -8   3   43.30    9.00
  12  -4  -3   63.79   12.10
  -4  12   3   64.69    7.20
  -4  -8  -3   66.89   15.50
  -4  -8  -3   62.29    5.40
  -8  -4   3   58.69   18.40
  -4  -8  -3   73.29    7.90
 -12   9  -3 1165.38   46.80
   9   3  -3 1243.08   46.00
   9   3  -3 1141.09   48.50
 -12   3   3 1063.59   52.59
   9 -12   3 1145.59   52.69
   3 -12  -3 1147.49   57.89
   9 -12   3 1276.57   54.59
 -12   9  -3 1248.78   47.00
  -9  -3   3 1134.09   55.39
  12  -3  -3 1179.58   50.49
  -3  -9  -3 1180.68   55.49
  12  -9   3 1317.57   49.99
  -3  12   3 1127.29   46.70
  -9  12  -3 1198.28   47.00
  10 -12   3   99.19   15.70
   2 -12  -3   95.49   20.90
 -12   2   3  102.09   15.90
  10 -12   3  138.29   18.00
  10   2  -3  114.39    6.50
 -12  10  -3  115.59    9.10
 -12  10  -3  111.29    8.00
   2  10   3  110.09    8.10
  10   2  -3  114.49   11.60
  -2 -10  -3  113.09    6.20
 -10  12  -3  104.99    8.70
  -2 -10  -3  119.59   22.00
  -2  12   3   96.89    8.30
  12  -2  -3  111.59   13.50
 -10  -2   3   95.09   18.30
 -12  11  -3  306.07   14.50
   1 -12  -3  307.07   29.00
   1  11   3  297.67   14.50
 -12  11  -3  304.97   14.90
  11   1  -3  312.67   18.00
  11   1  -3  329.37   13.90
 -12   1   3  270.57   23.20
  11 -12   3  359.86   23.10
 -11  -1   3  273.47   24.50
  -1 -11  -3  314.47   27.60
  12 -11   3  380.26   22.10
  -1  12   3  287.17   14.50
 -11  12  -3  302.57   14.90
  12  -1  -3  321.47   18.80
 -11  12  -3  290.07   14.50
  12 -12   3  144.49   16.30
   0  12   3   89.99    7.60
 -12  12  -3   87.29    7.60
 -12  12  -3   86.69    7.90
  12   0  -3   94.89   12.90
 -12   0   3   87.29   15.10
   0 -12  -3   97.79   19.10
 -13   0  -3    3.50    4.20
 -13  13   3    6.20    3.60
 -13   0  -3    3.30    3.40
   0  13  -3    0.70    4.20
  13 -13  -3   -7.90   13.80
   0 -13   3    6.40    8.20
   0 -13   3  -34.60   14.80
   1 -13   3   -0.60   17.80
   1 -13   3   49.20   10.40
 -13   1  -3   46.90    6.20
 -13   1  -3   53.49    6.50
 -13  12   3   60.29    6.40
 -13  12   3   53.29    7.70
  12 -13  -3   38.60   16.50
   1  12  -3   48.10    5.80
 -12  13   3   56.59    6.70
  -1  13  -3   42.90    5.70
  -1 -12   3   -0.70   18.00
  13 -12  -3   25.80   14.50
 -12  -1  -3   47.50    6.50
  -1 -12   3   52.29    9.80
 -12  -1  -3   48.20    9.30
 -12  -1  -3   49.30    6.10
 -13  11   3    7.80    3.60
 -13  11   3    1.70    6.70
 -13   2  -3    7.40    3.80
   2 -13   3    1.20    8.60
  11 -13  -3   -7.70   15.70
 -13   2  -3    3.70    4.30
   2  11  -3    8.60    4.40
   2 -13   3  -37.90   18.40
 -11  -2  -3    6.80    4.60
  13 -11  -3  -12.60   13.00
  -2 -11   3    5.50    7.30
  -2  13  -3    0.20    4.40
  -2 -11   3  -16.90   16.30
 -11  -2  -3    1.80    3.80
 -11  13   3   14.30    4.30
 -11  -2  -3    5.30    7.40
 -13  10   3  -12.20    7.00
   3  10  -3   -1.60    4.10
   3 -13   3   -5.70   17.80
  10 -13  -3   -9.30   14.90
 -13   3  -3    0.80    3.70
 -13   3  -3    1.90    4.40
   3 -13   3    3.80    8.70
 -13  10   3    9.50    3.40
  13 -10  -3   -6.20   13.10
 -10  -3  -3    0.30    3.70
  -3  13  -3   -1.20    4.50
 -10  -3  -3    3.90    4.10
  -3 -10   3  -22.80   17.20
 -10  13   3    5.40    4.30
 -10  -3  -3    5.20    7.80
 -10  13   3    1.40    3.10
  -3 -10   3   -2.40    6.50
   4   9  -3   10.70    4.30
 -13   4  -3    9.00    4.00
   9 -13  -3  -13.80   17.10
 -13   9   3    9.80    8.30
 -13   9   3   17.90    3.50
 -13   4  -3   17.50    4.80
   4 -13   3   12.50   20.20
   4 -13   3   12.90    9.40
  13  -9  -3    3.50   10.60
  -9  13   3   12.10    2.70
  -9  13   3   12.70    4.40
  -4  13  -3    9.10    4.90
  -9  -4  -3    9.50    4.10
  -4  -9   3    9.60    6.80
  -9  -4  -3    5.80    8.90
  -9  -4  -3   14.80    4.80
  -4  -9   3    1.50   17.10
 -13   5  -3   21.20    4.60
   5 -13   3   17.60   10.40
   5 -13   3   20.70   19.00
 -13   5  -3   20.70    5.10
 -13   8   3    5.30    8.80
   8 -13  -3   -4.30   18.30
   5   8  -3   14.40    3.90
  13  -8  -3    8.30   12.60
  -5  13  -3   17.20    5.40
  -5  -8   3   -2.80   17.20
  -8  -5  -3   21.00   10.30
  -5  -8   3   15.40    7.00
  -8  -5  -3   17.90    4.60
  -8  -5  -3   15.20    4.30
  -8  13   3   11.90    4.50
   6 -13   3  216.18   28.80
 -13   7   3  178.58   16.60
   6 -13   3  207.68   19.30
 -13   7   3  223.18    9.80
 -13   6  -3  208.08   11.40
 -13   6  -3  215.38   11.20
   7 -13  -3  181.18   27.00
   6   7  -3  202.38   10.40
  13  -7  -3  205.08   20.30
  -7  -6  -3  211.88   11.40
  -7  -6  -3  200.48   18.90
  -7  13   3  212.18   11.20
  -6  -7   3  201.68   26.10
  -6  13  -3  206.98   11.60
  -7  -6  -3  196.38   10.40
 -13   6   3  154.48   16.70
   7 -13   3  180.48   19.30
   7   6  -3  179.58   10.00
 -13   7  -3  172.88   10.00
 -13   6   3  185.88    8.20
 -13   7  -3  168.88   10.20
   6 -13  -3  145.59   25.50
   7 -13   3  158.48   23.80
   7   6  -3  157.98   11.60
  -6  -7  -3  166.68    9.10
  -6  -7  -3  169.08   18.30
  -6  13   3  146.29    9.90
  -6  -7  -3  156.18   10.20
  -7  -6   3  162.38   25.10
  -7  13  -3  156.78   10.30
  13  -6  -3  166.98   18.60
 -13   5   3  124.09    5.90
 -13   5   3   96.19   14.10
   8   5  -3  106.69    7.10
   8   5  -3   99.69   10.80
   8 -13   3  103.49   17.60
 -13   8  -3  105.49    8.20
   5 -13  -3   90.69   21.60
   8 -13   3  112.69   18.00
 -13   8  -3  100.59    7.90
  -5  -8  -3  117.99   18.40
  -8  13  -3  104.99    8.60
  -8  -5   3   80.49   18.60
  -5  -8  -3   98.89    7.90
  13  -5  -3  104.19   15.80
  -5  13   3   93.59    8.10
 -13   9  -3  261.37   12.80
   9   4  -3  247.08   14.80
 -13   9  -3  242.78   12.50
 -13   4   3  273.67   10.50
   9 -13   3  235.08   22.10
   9 -13   3  248.98   22.30
   4 -13  -3  207.98   23.80
 -13   4   3  220.78   20.20
  -4  -9  -3  254.77   11.40
  -4  13   3  252.07   12.80
  13  -4  -3  249.97   19.00
  -9  -4   3  226.88   23.80
  -9  13  -3  237.58   13.30
  -4  -9  -3  250.07   23.20
 -13  10  -3   38.60    5.90
   3  10   3   33.10    5.00
  10 -13   3   40.70   13.00
  10 -13   3   35.00   13.30
   3 -13  -3   28.90   18.00
  10   3  -3   48.70    8.10
 -13   3   3   17.20   12.00
  10   3  -3   40.00    4.90
 -13  10  -3   50.29    7.20
  -3 -10  -3   34.40   14.90
 -10  -3   3   24.00   15.10
  -3 -10  -3   33.30    4.10
  -3  13   3   24.20    5.10
 -10  13  -3   29.10    5.40
  13  -3  -3   39.50   10.10
 -13  11  -3   91.09    7.20
 -13  11  -3   87.79    8.10
   2 -13  -3   91.39   19.30
  11 -13   3  101.79   14.70
 -13   2   3   69.69   13.40
   2  11   3   79.39    7.30
  11 -13   3  129.79   18.10
  11   2  -3   85.99   11.10
 -11  13  -3   84.59    8.00
  -2  13   3   73.89    7.50
  -2 -11  -3  102.59   17.60
  -2 -11  -3   89.79    5.40
 -11  -2   3   94.39   16.90
  13 -11   3  134.39   15.00
  13  -2  -3   73.39   12.90
  12   1  -3    4.10    7.40
   1 -13  -3   -6.60   15.40
 -13   1   3   -2.70   10.80
 -13  12  -3    5.90    4.20
   1  12   3   -3.30    4.10
 -13  12  -3   -1.70    4.40
  12 -13   3   16.50   12.10
  13  -1  -3   11.70    8.00
  13 -12   3   27.10   10.80
  -1  13   3    2.10    4.30
 -12  13  -3    3.40    3.90
  -1 -12  -3   -9.30   13.80
 -12  13  -3    8.30    4.30
 -12  -1   3   -1.40   11.60
   0 -13  -3   -5.20   14.20
 -13  13  -3    4.40    3.80
  13   0  -3   11.50    7.60
  13 -13   3   27.40   10.80
 -13  13  -3    4.60    4.20
   0  13   3    5.00    4.20
 -13   0   3    8.40   11.40
 -14   0  -3  214.38   11.10
 -14   0  -3  206.88   11.60
   0  14  -3  212.48   11.50
   0 -14   3  198.18   16.90
  14 -14  -3  145.59   22.70
  14   0   3  234.08   13.40
   0 -14   3  156.68   23.60
 -14  14   3  199.18   10.80
  13 -14  -3  186.68   19.90
   1 -14   3  171.78   24.20
 -14  13   3  228.58   13.50
 -14  13   3  233.48   11.30
   1 -14   3  215.48   18.00
 -14   1  -3  218.18   11.30
 -14   1  -3  214.98   12.00
   1  13  -3  208.48   11.50
 -13  -1  -3  211.48   11.70
  14  -1   3  247.18   13.50
  14 -13  -3  180.18   22.40
  -1 -13   3  217.68   16.20
 -13  14   3  237.58   11.70
  -1  14  -3  214.68   12.10
 -13  -1  -3  216.08   11.20
  -1 -13   3  160.28   26.40
 -14   2  -3  170.18    9.60
   2 -14   3  144.49   15.60
 -14  12   3  173.68    9.30
 -14   2  -3  177.98   10.10
 -14  12   3  163.78   12.30
   2  12  -3  168.38   10.00
   2 -14   3  113.59   21.20
  12 -14  -3  144.79   18.80
  14  -2   3  184.98   11.30
 -12  14   3  155.48    9.40
  14 -12  -3  127.09   20.40
 -12  -2  -3  164.78    9.80
  -2 -12   3  155.88   22.80
 -12  -2  -3  157.18   13.10
 -12  -2  -3  167.38    9.50
  -2 -12   3  162.78   14.40
  -2  14  -3  168.18   10.00
   3 -14   3  404.06   34.40
 -14  11   3  442.56   21.60
 -14  11   3  464.75   18.70
 -14   3  -3  429.96   19.00
 -14   3  -3  424.76   19.40
   3  11  -3  431.36   19.10
   3 -14   3  448.56   25.40
  11 -14  -3  434.86   30.80
  -3  14  -3  423.26   19.20
 -11  14   3  429.46   18.90
  -3 -11   3  413.46   32.60
 -11  -3  -3  435.26   19.30
  -3 -11   3  441.26   22.60
  14  -3   3  455.65   21.10
 -11  -3  -3  428.86   19.00
 -11  -3  -3  428.46   22.60
  14 -11  -3  391.06   27.80
 -14  10   3  324.77   19.20
   4 -14   3  292.97   31.90
 -14   4  -3  324.17   15.10
  10 -14  -3  292.37   28.80
 -14  10   3  337.97   14.40
   4  10  -3  317.47   14.80
   4 -14   3  339.27   21.50
 -14   4  -3  322.87   15.30
 -10  -4  -3  311.57   19.50
 -10  -4  -3  316.27   14.80
 -10  14   3  319.47   15.20
 -10  -4  -3  333.07   15.40
  -4  14  -3  320.67   15.30
  -4 -10   3  319.57   18.70
  14  -4   3  304.17   16.70
  -4 -10   3  334.77   30.20
  14 -10  -3  305.17   24.50
 -14   9   3  549.05   25.10
 -14   5  -3  570.14   23.20
 -14   9   3  543.75   27.40
 -14   5  -3  543.25   23.70
   5 -14   3  574.84   29.90
   9 -14  -3  525.05   37.10
   5 -14   3  520.75   36.70
   5   9  -3  565.34   22.90
  -9  -5  -3  550.54   23.20
  -9  -5  -3  559.44   23.30
  -5  -9   3  534.45   26.10
  -5  14  -3  553.94   23.70
  -9  14   3  546.25   23.20
  14  -5   3  513.95   25.20
  -9  -5  -3  578.84   29.10
  -5  -9   3  531.55   34.40
  14  -9  -3  531.75   30.70
 -14   6  -3  902.21   35.50
   6   8  -3  856.01   34.70
   6 -14   3  860.61   41.50
 -14   8   3  846.42   39.40
   6 -14   3  919.31   48.60
 -14   6  -3  884.81   35.20
   8 -14  -3  870.11   47.50
 -14   8   3  925.01   34.40
  -8  14   3  851.91   35.10
  -8  -6  -3  813.62   34.90
  14  -8  -3  869.81   41.70
  -8  -6  -3  856.81   40.40
  -6  -8   3  877.51   37.80
  -6  -8   3  854.21   45.80
  -6  14  -3  856.51   35.40
  14  -6   3  883.31   37.60
  -8  -6  -3  898.81   35.20
   7 -14   3  701.43   39.70
 -14   7  -3  696.93   27.70
 -14   7  -3  686.43   27.30
 -14   7   3  645.94   32.20
 -14   7   3  616.64   26.70
   7   7  -3  695.83   26.90
   7 -14  -3  608.24   39.50
  -7  14   3  623.44   27.10
  -7  -7   3  648.04   39.30
  -7  -7  -3  683.23   27.50
  14  -7  -3  672.53   33.70
  -7  -7  -3  643.74   27.10
  14  -7   3  659.83   29.80
  -7  -7  -3  672.53   34.00
  -7  14  -3  654.93   27.60
 -14   6   3   13.90    2.40
   6 -14  -3   -2.90   17.60
   8 -14   3   -2.60   14.40
   8   6  -3    6.80    3.30
   8 -14   3    5.30   11.60
 -14   8  -3    4.60    4.10
 -14   8  -3    8.00    4.50
 -14   6   3   -9.30    8.20
   8   6  -3    3.00    6.00
  14  -6  -3   18.40   11.30
  -6  14   3   -0.30    4.00
  -6  -8  -3   15.40   11.80
  -6  -8  -3    8.00    3.50
  -8  14  -3    3.70    4.60
  -8  -6   3    2.00   14.80
 -14   9  -3 1107.39   43.30
 -14   9  -3 1112.19   43.20
 -14   5   3 1045.40   47.90
   5   9   3 1086.49   42.90
   5 -14  -3  997.10   55.39
   9   5  -3 1073.69   44.90
   9 -14   3 1147.89   51.19
   9   5  -3 1150.78   42.40
   9 -14   3 1089.89   51.39
  14  -5  -3 1058.89   47.70
  14  -9   3 1165.58   46.80
  -5  14   3 1032.80   43.00
  -9  -5   3 1084.79   51.39
  -5  -9  -3 1100.39   50.69
  -9  14  -3 1060.29   43.20
  -5  -9  -3 1016.60   43.80
  10   4  -3   47.00    8.90
 -14  10  -3   47.50    6.90
 -14  10  -3   42.60    5.90
  10 -14   3   43.40   13.60
 -14   4   3   38.90   10.80
  10   4  -3   46.90    5.00
   4 -14  -3   22.50   16.90
   4  10   3   44.20    5.40
  -4  14   3   36.50    5.40
 -10  14  -3   45.70    5.80
  -4 -10  -3   41.80    4.60
 -10  -4   3   36.30   14.20
  -4 -10  -3   44.60   14.10
  14  -4  -3   60.39   11.50
  11 -14   3  420.06   27.30
   3  11   3  400.36   18.50
   3 -14  -3  405.76   29.20
 -14  11  -3  417.86   19.00
 -14   3   3  393.46   25.00
  11 -14   3  494.35   27.20
 -14  11  -3  452.75   18.80
  11   3  -3  427.56   21.70
  -3 -11  -3  401.16   29.00
 -11  14  -3  404.86   18.90
  -3 -11  -3  445.06   17.50
  14  -3  -3  426.96   23.70
 -11  -3   3  385.56   27.60
  -3  14   3  389.96   18.70
  14 -11   3  489.85   25.40
 -14  12  -3   11.60    4.30
   2 -14  -3   13.30   15.80
  12 -14   3   15.40   10.90
  12   2  -3   12.10    7.20
  12 -14   3   50.69   12.30
   2  12   3    7.90    4.40
 -14  12  -3   10.40    4.10
 -14   2   3   11.90   10.80
  14 -12   3   41.20   10.90
  -2 -12  -3   10.20   14.00
  14  -2  -3   14.30    8.70
 -12  -2   3   14.30   11.90
 -12  14  -3   11.00    4.60
  -2  14   3   15.50    4.40
 -14   1   3   49.80   12.80
 -14  13  -3   45.10    5.90
  13 -14   3   95.49   18.00
   1 -14  -3   29.70   16.60
   1  13   3   36.20    5.20
 -14  13  -3   37.60    5.70
  13   1  -3   47.30    9.00
 -13  -1   3   36.60   12.10
  14  -1  -3   45.10    9.40
  -1  14   3   46.80    6.40
  -1 -13  -3   53.19   16.50
 -13  14  -3   41.90    5.50
  14 -13   3   65.79   13.40
  14   0  -3   35.80    9.10
  14 -14   3   50.19   13.50
 -14   0   3   26.70   12.10
   0  14   3   33.30    5.00
 -14  14  -3   23.20    4.90
 -14  14  -3   32.30    5.10
   0  15  -3  121.89    9.30
 -15   0  -3  115.89    8.80
 -15  15   3  110.39    8.40
   0 -15   3  114.69   20.10
  15 -15  -3   84.49   19.30
 -15   0  -3  114.99    8.40
   0 -15   3  101.79   14.10
  15   0   3  112.19   10.30
   1 -15   3   15.90   17.40
   1  14  -3   10.70    5.00
 -15   1  -3   17.90    5.10
 -15   1  -3   19.10    4.40
  14 -15  -3   -1.00   11.40
 -15  14   3   13.20    4.10
   1 -15   3   18.10    9.40
  15  -1   3   11.70    5.40
 -14  15   3   15.40    4.20
  -1 -14   3   13.70    8.90
 -14  -1  -3   15.10    4.10
 -14  -1  -3   17.50    5.30
  15 -14  -3   -1.50   13.80
  -1  15  -3   15.60    4.90
  -1 -14   3  -14.20   15.40
   2  13  -3   73.59    7.10
 -15  13   3   71.19    9.80
 -15   2  -3   67.59    8.40
 -15  13   3   67.59    6.70
  13 -15  -3   49.20   17.20
   2 -15   3   37.60   18.80
   2 -15   3   78.29   14.60
 -15   2  -3   74.59    7.00
  -2  15  -3   72.49    7.40
 -13  15   3   73.69    6.80
  -2 -13   3   45.20   16.30
  15  -2   3   51.39    7.90
 -13  -2  -3   72.89    7.00
 -13  -2  -3   76.99    7.20
 -13  -2  -3   69.29   11.50
  15 -13  -3   58.09   15.90
  -2 -13   3   61.99   11.50
 -15  12   3    3.30    6.00
   3 -15   3   -7.60    9.10
   3  12  -3    1.20    4.10
 -15   3  -3    5.50    3.90
  12 -15  -3   -8.60   15.10
   3 -15   3  -35.90   16.60
 -15  12   3    2.10    3.40
 -15   3  -3   -1.40    4.10
 -12  -3  -3   -5.00    7.10
  15 -12  -3  -13.40   13.20
  -3 -12   3   -0.40    7.20
 -12  15   3    1.40    3.90
  -3  15  -3    6.40    4.70
 -12  -3  -3    0.40    4.10
  -3 -12   3  -21.10   12.90
  15  -3   3   -3.80    4.70
 -12  -3  -3    2.10    3.60
 -15  11   3   71.89   10.20
   4  11  -3   62.89    6.90
 -15  11   3   74.99    6.40
 -15   4  -3   86.39    7.80
   4 -15   3   71.59   12.80
   4 -15   3   33.30   19.60
  11 -15  -3   64.29   18.40
 -15   4  -3   66.79    6.70
 -11  -4  -3   59.79    6.80
  -4 -11   3   75.29   11.40
  15  -4   3   45.30    8.20
  15 -11  -3   78.79   16.30
 -11  15   3   80.69    7.10
 -11  -4  -3   67.09   11.40
 -11  -4  -3   73.69    7.30
  -4 -11   3   76.29   17.00
  -4  15  -3   72.09    7.40
 -15   5  -3    4.70    4.60
 -15  10   3   10.10    6.90
 -15   5  -3    6.00    3.90
   5 -15   3   10.70   10.50
 -15  10   3   10.30    3.10
   5 -15   3   -6.70   17.00
   5  10  -3    1.60    3.70
  10 -15  -3    2.60   16.70
  15 -10  -3    0.00   12.20
  15  -5   3  -13.10    5.30
  -5 -10   3    8.50   15.00
 -10  -5  -3    4.40    8.20
  -5  15  -3    5.20    4.50
 -10  15   3    9.80    4.10
  -5 -10   3    1.30    6.50
 -10  -5  -3    2.80    3.90
 -10  -5  -3   -1.10    3.80
   6 -15   3  134.09   17.50
   9 -15  -3  127.29   21.20
 -15   9   3  115.99   13.90
 -15   6  -3  148.79    9.20
 -15   6  -3  130.39    8.90
   6 -15   3  137.19   22.90
 -15   9   3  143.89    7.60
   6   9  -3  141.09    8.40
  -6  -9   3  125.59   19.60
  15  -9  -3  123.79   15.00
  -9  -6  -3  133.29    8.40
  15  -6   3  103.79   11.30
  -6  15  -3  137.09    9.20
  -9  -6  -3  130.29    8.70
  -9  15   3  149.49    9.50
  -9  -6  -3  146.89   15.20
  -6  -9   3  131.99   11.90
 -15   7  -3   49.10    6.40
   8 -15  -3   29.60   17.20
 -15   8   3   37.60    4.60
   7   8  -3   40.10    5.80
   7 -15   3   53.49   12.90
 -15   8   3   57.59   10.60
 -15   7  -3   39.00    6.00
   7 -15   3   46.90   18.90
  -8  -7  -3   54.19   11.30
  -8  15   3   41.90    5.70
  -7  15  -3   33.80    5.70
  -7  -8   3   50.69   16.00
  -8  -7  -3   51.39    5.90
  15  -8  -3   39.80   13.20
  15  -7   3   25.40    7.60
   8 -15   3   23.20   12.50
   8   7  -3   13.80    3.60
 -15   8  -3   18.00    4.60
 -15   7   3    4.20    9.00
   8   7  -3   13.80    6.20
   7 -15  -3    4.80   17.20
   8 -15   3   20.80   16.40
 -15   8  -3   19.50    4.60
  -8  -7   3  -11.40   13.10
  -7  -8  -3   11.20   10.30
  -7  -8  -3   13.30    3.80
  -7  15   3   12.20    4.50
  -8  15  -3   10.80    4.70
  15  -8   3   -7.30    6.90
  15  -7  -3   26.10   12.20
   9   6  -3   97.49   10.70
 -15   9  -3  116.99    8.20
 -15   6   3   93.79   13.90
   9   6  -3  124.89    7.60
   9 -15   3  135.89   19.10
   6 -15  -3   89.99   20.70
 -15   9  -3  112.79    8.60
   9 -15   3  125.39   19.60
   6   9   3  114.79    8.00
  -6  -9  -3  122.19    7.50
  -9  -6   3  127.49   19.50
  -9  15  -3  118.19    8.70
  -6  15   3  107.59    8.40
  15  -9   3  112.59   13.60
  15  -6  -3  151.28   16.40
  -6  -9  -3  133.49   17.10
   5  10   3  129.79    8.60
 -15   5   3  135.19   14.90
  10   5  -3  142.49   11.40
   5 -15  -3  110.49   21.40
  10 -15   3  163.08   19.60
 -15  10  -3  141.79    9.00
  10 -15   3  153.68   19.50
 -15  10  -3  156.58    9.40
  -5 -10  -3  168.08   19.40
  -5  15   3  143.39    9.40
  -5 -10  -3  158.18    8.20
 -10  -5   3  121.49   19.00
  15  -5  -3  155.38   16.50
 -10  15  -3  129.19    9.40
   4  11   3  107.89    8.30
  11 -15   3  146.19   20.10
 -15   4   3  107.39   14.30
 -15  11  -3  125.79    8.10
   4 -15  -3   89.59   20.20
  11 -15   3  120.49   19.90
 -15  11  -3  126.69    8.90
  11   4  -3  112.69   10.90
  15  -4  -3  126.29   15.10
 -11  15  -3  120.19    9.20
  -4 -11  -3  122.89    7.00
  -4 -11  -3  121.49   18.90
  -4  15   3  122.39    8.70
 -11  -4   3  115.49   18.40
   3 -15  -3   39.80   17.80
 -15   3   3   61.89   12.20
  12 -15   3   62.59   14.10
  12 -15   3   73.19   14.50
  12   3  -3   49.80    8.40
 -15  12  -3   41.70    5.60
 -15  12  -3   44.00    6.70
   3  12   3   45.70    5.80
  15  -3  -3   52.09   10.80
 -12  -3   3   28.60   12.70
 -12  15  -3   40.90    5.80
  -3  15   3   50.79    6.80
  -3 -12  -3   43.50   15.40
  15 -12   3   89.09   16.70
  13 -15   3   22.80   13.30
  13   2  -3    0.40    6.70
 -15  13  -3    0.40    4.10
   2  13   3   -0.20    4.00
 -15   2   3   -2.10    9.70
 -15  13  -3    2.00    4.20
  13 -15   3    5.10   11.00
   2 -15  -3   -9.90   15.90
 -13  15  -3   -4.00    4.20
  15 -13   3   35.50   11.90
 -13  -2   3   -0.60   10.40
  15  -2  -3    5.00    8.60
 -15  14  -3   -6.20    4.30
  14 -15   3   35.80   13.90
 -15   1   3    1.00    9.30
   1 -15  -3  -12.30   14.60
 -15  14  -3   -1.10    4.10
  15 -14   3   28.60   12.10
  -1 -14  -3    4.70   15.00
  15  -1  -3    9.80    8.50
  -1  15   3    0.90    4.40
 -14  15  -3   -8.60    3.90
 -14  -1   3   -3.60   10.60
   0  15   3   14.60    4.80
 -15  15  -3    8.90    4.60
   0 -15  -3   11.50   15.50
 -15  15  -3   10.00    4.50
  15   0  -3    7.50    8.20
  15 -15   3   20.10   12.50
 -15   0   3   15.50   10.50
  16   0   3  134.39   11.60
 -16  16   3  157.78   10.00
   0 -16   3  183.78   27.50
 -16   0  -3  148.29   10.00
   0 -16   3  147.29   17.20
   0  16  -3  155.18   10.60
  16 -16  -3  130.59   22.40
   1 -16   3   76.19   19.70
  15 -16  -3   55.29   16.40
  15   1   3   48.80    9.30
   1 -16   3   79.29   13.40
 -16   1  -3   64.49    7.50
 -16  15   3   73.09    7.50
 -15  16   3   77.79    7.60
 -15  -1  -3   70.69    7.60
  16  -1   3   62.59    8.30
  16 -15  -3   38.20   16.20
  -1 -15   3   88.39   19.60
  -1  16  -3   61.89    7.80
  -1 -15   3   64.79   11.80
 -16  14   3  515.45   22.10
   2  14  -3  513.65   22.50
 -16   2  -3  544.65   22.60
 -16   2  -3  489.35   22.70
   2 -16   3  554.34   37.60
   2 -16   3  497.25   28.80
  16  -2   3  502.35   24.10
  -2 -14   3  514.95   33.30
  -2  16  -3  502.85   22.50
 -14  -2  -3  529.85   22.20
  -2 -14   3  503.05   26.80
 -14  16   3  520.35   22.30
  16 -14  -3  460.05   31.80
   3 -16   3  381.16   33.00
 -16   3  -3  380.76   17.00
   3 -16   3  408.56   24.80
 -16  13   3  385.96   19.30
  13 -16  -3  333.97   29.00
 -16  13   3  373.46   16.90
 -16   3  -3  368.06   17.60
   3  13  -3  377.06   17.10
 -13  16   3  385.46   17.30
 -13  -3  -3  373.36   17.60
  16 -13  -3  328.77   26.70
  -3 -13   3  340.57   29.60
  16  -3   3  349.57   19.00
  -3 -13   3  377.36   21.70
 -13  -3  -3  398.06   21.10
 -13  -3  -3  366.96   16.90
  -3  16  -3  368.76   17.20
   4 -16   3  368.26   34.50
   4 -16   3  482.75   27.60
 -16   4  -3  430.96   20.30
 -16  12   3  452.55   19.60
 -16  12   3  476.75   22.90
 -16   4  -3  488.05   19.90
  12 -16  -3  400.16   32.70
   4  12  -3  438.36   19.80
  -4  16  -3  438.26   20.00
  16 -12  -3  388.46   28.80
 -12  -4  -3  450.75   20.20
 -12  16   3  463.85   20.20
 -12  -4  -3  465.65   19.90
 -12  -4  -3  487.05   24.40
  16  -4   3  447.26   22.50
  -4 -12   3  469.05   23.90
  -4 -12   3  444.66   31.20
 -16   5  -3  543.75   24.20
   5 -16   3  455.55   37.60
 -16   5  -3  605.54   24.10
 -16  11   3  575.54   26.80
   5  11  -3  574.74   23.90
   5 -16   3  593.74   31.60
  11 -16  -3  501.45   37.10
 -16  11   3  590.64   23.50
  16  -5   3  566.34   26.70
  -5 -11   3  579.04   35.00
  -5  16  -3  514.75   24.30
  16 -11  -3  519.45   32.20
 -11  -5  -3  592.04   24.40
 -11  16   3  551.74   23.90
 -11  -5  -3  581.94   28.80
  -5 -11   3  569.34   27.70
   6 -16   3  131.99   23.70
 -16   6  -3  158.78   10.10
   6  10  -3  165.68    9.50
   6 -16   3  183.28   19.50
 -16   6  -3  164.48    9.90
 -16  10   3  170.78    9.00
  10 -16  -3  121.29   22.60
 -16  10   3  156.18   14.20
  16  -6   3  153.98   12.80
  -6 -10   3  154.18   21.50
  -6  16  -3  162.58   11.60
 -10  16   3  183.28   10.00
 -10  -6  -3  161.08   15.60
 -10  -6  -3  176.48    9.80
  16 -10  -3  109.49   21.80
  -6 -10   3  154.08   13.40
 -16   7  -3  880.81   33.90
 -16   9   3  804.62   37.40
   7 -16   3  810.12   46.90
   7 -16   3  826.82   41.80
 -16   9   3  795.02   33.70
  -9  -7  -3  847.42   33.90
  16  -7   3  832.92   36.90
  -9  -7  -3  821.22   39.50
  -7  -9   3  816.72   42.80
  -7  -9   3  813.32   36.60
  -9  16   3  842.62   33.80
 -16   8   3  145.19   15.00
   8   8   3  173.08    9.30
 -16   8  -3  161.58    9.70
   8   8  -3  151.88    9.10
   8 -16   3  165.18   21.30
   8 -16   3  166.98   23.20
  -8  -8  -3  167.18   17.00
  -8  -8   3  178.28   21.00
  -8  16   3  170.88    9.90
  16  -8  -3  141.49   19.10
  -8  -8  -3  161.78    9.30
  16  -8   3  111.89   13.90
   9   7  -3  262.27   12.20
 -16   7   3  255.77   17.70
 -16   9  -3  265.87   13.30
   9 -16   3  254.37   27.10
   9 -16   3  247.88   23.90
   9   7  -3  237.78   14.80
 -16   9  -3  262.77   13.00
   7   9   3  248.18   12.40
  16  -9   3  235.08   18.20
  16  -7  -3  236.08   20.60
  -9  -7   3  238.38   23.10
  -7  -9  -3  251.07   20.40
  -7  -9  -3  267.57   12.40
  10 -16   3   42.30   15.70
   6 -16  -3   57.29   20.30
  10 -16   3   66.39   15.70
 -16  10  -3   48.50    5.80
  10   6  -3   54.59    9.00
 -16  10  -3   46.50    7.40
   6  10   3   42.60    6.20
 -16   6   3   56.29   11.50
 -10  -6   3   67.19   15.30
  -6  16   3   49.20    6.80
  -6 -10  -3   49.00    5.60
  -6 -10  -3   46.60   13.40
 -16  11  -3  284.87   16.30
  11 -16   3  380.96   27.50
   5 -16  -3  332.07   29.60
 -16  11  -3  359.86   15.70
   5  11   3  331.27   15.30
 -16   5   3  351.16   21.30
  11   5  -3  329.27   17.90
  11 -16   3  352.76   26.50
  -5 -11  -3  288.27   27.70
  16  -5  -3  306.77   24.70
  -5 -11  -3  329.37   17.50
  -5  16   3  344.77   16.10
 -16   4   3    0.50    8.90
  12 -16   3   13.90   13.70
   4 -16  -3   -4.10   15.90
  12   4  -3   -0.10    6.40
  12 -16   3    7.00   13.20
 -16  12  -3    1.10    6.50
   4  12   3   -2.70    3.80
 -16  12  -3   -1.20    4.20
  -4 -12  -3   -1.30   12.70
  16 -12   3   19.00   11.60
 -12  -4   3  -13.00   10.80
  16  -4  -3    6.80    9.40
  -4  16   3   -3.80    4.60
 -12  16  -3   -3.30    4.20
   3  13   3   91.69    7.50
  13 -16   3  120.89   21.20
 -16   3   3   65.79   12.20
   3 -16  -3   79.79   20.00
  13 -16   3   89.89   15.20
 -16  13  -3   88.49    8.20
  16  -3  -3   87.39   13.80
  -3 -13  -3   84.09   17.50
  -3  16   3   86.49    7.90
  16 -13   3  139.09   18.20
 -13  16  -3   62.49    7.50
 -13  -3   3   74.99   14.00
 -16   2   3   10.30    9.70
  14 -16   3   21.50   13.70
 -16  14  -3    2.30    4.30
   2 -16  -3    1.70   16.80
  14   2  -3    0.00    7.10
  14 -16   3   15.10   12.60
   2  14   3   -1.50    4.30
 -16  14  -3   -0.20    4.70
  16 -14   3   30.60   13.30
  -2 -14  -3    1.60   13.90
  16  -2  -3   -1.10    8.80
 -14  16  -3   -7.00    4.40
  -2  16   3    7.70    4.70
 -14  -2   3   -2.00    9.80
  15 -16   3   51.59   15.60
  15   1  -3   12.80    8.00
   1  15   3   11.70    4.70
 -16  15  -3   10.20    4.80
 -16   1   3   17.10   10.60
   1 -16  -3   -4.00   15.60
 -16  15  -3    8.20    4.90
 -15  -1   3    8.50   10.30
  -1  16   3   16.50    5.10
  16  -1  -3   15.10    8.40
  16 -15   3   46.70   13.80
  -1 -15  -3   20.00   15.30
 -15  16  -3   -3.80    4.30
   0  16   3   79.69    7.90
 -16  16  -3   70.39    7.20
   0 -16  -3   97.39   19.10
  16   0  -3   90.99   12.50
 -16  16  -3   68.49    7.30
 -16   0   3   71.59   12.70
 -17   0  -3   67.39    7.80
   0  17  -3   73.39    8.20
  17 -17  -3   59.79   16.80
  17   0   3   63.99    9.60
   0 -17   3   74.99   20.10
   1 -17   3   -4.80   10.10
   1 -17   3   24.10   18.90
  16 -17  -3  -10.70   14.30
   1  16  -3    1.90    5.10
  16   1   3   -5.20    5.40
 -17  16   3    9.40    4.80
 -17   1  -3   -1.40    4.50
 -16  -1  -3    1.70    5.00
  -1  17  -3    0.80    4.80
  17  -1   3    0.30    5.30
  -1 -16   3   27.10   17.30
 -16  17   3    3.50    7.80
  -1 -16   3   -3.00    9.50
  17 -16  -3  -20.50   14.50
 -17   2  -3  116.89    9.10
   2 -17   3  119.49   23.00
   2 -17   3  110.09   17.10
  15 -17  -3  105.69   19.70
 -17  15   3  128.69    9.10
   2  15  -3   90.79   10.60
 -15  -2  -3  115.19    9.00
 -15  17   3   99.79   10.60
  -2  17  -3  124.49    9.60
  17  -2   3  101.49   10.60
  -2 -15   3  156.48   24.20
  -2 -15   3  120.99   14.10
  17 -15  -3  106.09   20.70
  14 -17  -3   17.30   13.50
 -17   3  -3   42.10    6.80
   3  14  -3   32.50    5.60
   3 -17   3   26.50   11.80
   3 -17   3   46.60   25.80
 -17  14   3   48.40    7.00
  17  -3   3   28.20    7.30
 -14  -3  -3   34.40    8.90
  -3  17  -3   33.60    5.60
 -14  17   3   42.50    5.90
  -3 -14   3    1.70   14.40
 -14  -3  -3   29.40    5.90
  -3 -14   3   30.30   10.40
  17 -14  -3    8.50   14.20
 -17   4  -3   24.30    5.30
   4  13  -3   24.50    5.30
 -17  13   3   27.40    7.10
   4 -17   3   35.90   19.20
 -17  13   3   20.00    4.60
   4 -17   3   22.60   11.90
  13 -17  -3   14.50   16.80
 -13  -4  -3    9.40    8.50
  -4 -13   3   33.30    9.90
 -13  -4  -3   17.80    5.30
  17 -13  -3    3.30   14.20
  17  -4   3   14.70    6.50
  -4 -13   3    5.00   15.50
  -4  17  -3   18.80    5.20
 -13  17   3   30.20    5.10
 -17   5  -3   27.30    5.10
   5 -17   3  -13.90   17.90
 -17   5  -3   27.90    5.60
   5  12  -3   24.40    5.10
  12 -17  -3   24.60   18.30
 -17  12   3   25.20    4.60
 -17  12   3   25.20    7.80
   5 -17   3   38.60   12.90
 -12  -5  -3   30.60    5.60
  -5 -12   3   14.70   14.00
  17  -5   3   18.80    7.20
  -5  17  -3   25.40    5.40
  -5 -12   3   22.50    8.30
  17 -12  -3   23.60   14.30
 -12  17   3   26.20    5.20
 -12  -5  -3   32.20    9.60
 -17  11   3    1.50    6.90
  11   6   3   -1.30    3.10
 -17   6  -3   -0.80    4.40
   6 -17   3    7.90   12.30
 -17  11   3   -0.30    3.80
 -17   6  -3    1.20    4.70
   6  11  -3   -9.40    3.70
  11 -17  -3   -8.90   16.60
  17 -11  -3  -17.10   12.70
  -6 -11   3   -2.80    7.30
 -11  -6  -3    3.10   10.90
 -11  -6  -3    2.20    4.50
  -6 -11   3    1.40   13.60
  17  -6   3  -10.30    6.30
 -11  17   3   10.80    4.50
  -6  17  -3    0.70    4.60
 -17   7  -3   14.70    4.60
  10   7   3    5.20    3.60
 -17  10   3   10.00    7.30
 -17   7  -3   16.70    4.90
   7 -17   3  -50.09   17.00
   7  10  -3    8.40    4.20
   7 -17   3   20.20   12.90
  10 -17  -3    7.30   13.20
  17 -10  -3    2.40   12.10
 -10  -7  -3   17.10    5.10
  -7 -10   3   20.80   14.60
  17  -7   3    7.10    7.00
  -7 -10   3    9.50    7.60
 -10  17   3   14.10    4.70
  -7  17  -3    9.30    4.80
   9 -17  -3  235.98   28.00
   8 -17   3  203.78   27.50
 -17   9   3  244.88   16.60
 -17   8  -3  243.28   12.70
   8   9  -3  234.18   12.20
   8 -17   3  279.27   24.10
   9   8   3  230.38   11.90
  -9  -8  -3  249.48   19.60
  17  -8   3  202.68   16.80
  -9  -8  -3  256.27   12.70
  -8  -9   3  267.77   23.30
  -9  17   3  245.08   12.60
  -8  17  -3  238.48   12.90
  17  -9  -3  213.58   21.50
   9 -17   3    4.70   17.00
 -17   9  -3    5.30    4.60
 -17   8   3    9.30    8.40
   9   8  -3    6.50    3.80
   9   8  -3    5.10    6.10
   8   9   3    0.60    3.60
 -17   9  -3    0.20    4.30
   8 -17  -3    2.70   16.60
   9 -17   3    2.70   13.30
  17  -8  -3    7.10   11.50
  -9  17  -3    6.10    4.70
  17  -9   3   -7.00    8.20
  -8  -9  -3   13.70   11.10
  -8  -9  -3    9.60    4.20
  -8  17   3    3.90    4.50
 -17  10  -3   52.89    6.80
   7  10   3   42.90    6.40
  10 -17   3   52.79   15.30
  10   7  -3   46.20    8.80
  10 -17   3   37.40   18.60
 -17  10  -3   57.09    7.20
   7 -17  -3   24.00   19.10
 -10  -7   3   49.20   14.20
  -7 -10  -3   54.89   13.60
  -7 -10  -3   41.00    6.00
  -7  17   3   45.70    6.20
 -10  17  -3   35.40    5.70
  17  -7  -3   61.09   13.30
  11 -17   3    3.70   14.50
   6  11   3   -2.40    3.90
  11   6  -3    0.70    7.30
 -17   6   3    1.60    8.00
 -17  11  -3    2.90    4.40
  11 -17   3    2.20   14.00
   6 -17  -3   -1.70   13.20
 -17  11  -3    0.80    4.40
  -6 -11  -3    1.30    3.30
 -11  17  -3   -7.70    4.20
  -6 -11  -3   -4.60    8.90
 -11  -6   3   16.60   12.50
  17  -6  -3    8.90   10.60
  17 -11   3   28.80   10.80
  -6  17   3   -0.40    4.50
  12 -17   3   84.69   16.70
 -17   5   3   82.59   13.10
 -17  12  -3   76.99    7.30
 -17  12  -3   78.59    8.00
   5 -17  -3   67.29   19.90
  12 -17   3  106.89   19.10
   5  12   3   75.39    7.70
  12   5  -3   78.29   11.10
  17  -5  -3   98.19   15.50
  -5  17   3   79.29    8.00
 -12  17  -3   56.69    8.20
  -5 -12  -3   98.59   18.20
 -12  -5   3   88.89   14.80
  13 -17   3    0.20   12.40
 -17   4   3    4.00    9.40
 -17  13  -3    3.10    4.50
 -17  13  -3    8.80    4.70
  13   4  -3    8.80    7.40
  13 -17   3   24.40   15.10
   4 -17  -3   12.10   17.50
  -4  17   3   11.80    5.00
  -4 -13  -3    6.30   13.20
 -13  -4   3   23.10   12.00
  17  -4  -3   17.20    8.50
 -13  17  -3   -1.10    4.60
  17 -13   3   37.20   13.80
  14 -17   3  188.08   21.70
 -17  14  -3  183.88   11.30
 -17  14  -3  178.58   10.70
   3  14   3  181.88   10.90
  14   3  -3  179.98   14.20
 -17   3   3  196.18   17.20
   3 -17  -3  207.78   22.90
 -14  17  -3  179.78   11.10
  17  -3  -3  187.08   16.90
  17 -14   3  256.27   22.10
 -14  -3   3  175.98   18.80
  -3  17   3  195.58   11.20
  -3 -14  -3  199.58   22.10
   2 -17  -3   32.80   17.50
  15 -17   3   44.30   15.50
  15   2  -3   24.80    8.40
  15 -17   3   49.50   13.40
   2  15   3   23.40    5.10
 -17   2   3   30.30   10.40
 -17  15  -3   28.30    5.20
  -2  17   3   28.70    5.30
  17 -15   3   47.00   14.80
 -15  17  -3   12.30    5.20
  17  -2  -3   36.40    9.90
  -2 -15  -3   15.60   15.60
 -15  -2   3   29.50   10.90
 -17   1   3   19.30   10.20
   1  16   3   14.80    5.00
   1 -17  -3   19.40   16.40
  16   1  -3   26.50    8.90
 -17  16  -3   19.10    5.20
  16 -17   3   56.79   16.70
 -16  -1   3   21.30   10.20
 -16  17  -3    3.10    4.80
  -1  17   3   14.70    4.90
  17 -16   3   33.20   14.30
  -1 -16  -3   29.70   16.10
  17  -1  -3   21.30    9.70
  17 -17   3  300.07   26.60
 -17  17  -3  195.08   12.40
 -17   0   3  231.88   18.70
   0  17   3  233.88   12.60
 -17  17  -3  227.98   12.30
  17   0  -3  231.38   17.20
   0 -17  -3  249.58   26.40
   0 -18   3   63.79   14.00
   0  18  -3   97.19    9.70
  18   0   3   67.29   10.30
  18 -18  -3   61.99   18.10
 -18  18   3   69.19    8.90
   0 -18   3  110.59   22.50
 -18   0  -3   73.49    8.20
   1  17  -3   -1.80    5.10
   1 -18   3   -7.00   10.80
  17   1   3   -6.90    5.80
  17 -18  -3   -5.60   15.30
 -18   1  -3    1.40    5.20
   1 -18   3   36.00   18.60
 -18  17   3    1.20    6.50
 -17  18   3    6.30    5.20
  -1  18  -3    5.60    5.60
  -1 -17   3   27.40   17.70
 -17  -1  -3    0.20    4.90
  18  -1   3   -2.10    5.80
  18 -17  -3   -3.20   14.70
  -1 -17   3  -14.80    9.70
 -18   2  -3  132.49    9.70
   2 -18   3  170.28   25.60
 -18  16   3  115.99    9.70
  16 -18  -3   90.19   19.50
   2 -18   3  133.99   18.40
   2  16  -3  139.89   10.40
  16   2   3  111.09   10.80
  -2  18  -3  136.09    9.80
  -2 -16   3  125.49   20.80
 -16  18   3  126.89    9.10
  -2 -16   3  131.79   16.90
 -16  -2  -3  139.19    9.70
  18  -2   3  123.99   11.00
  18 -16  -3  113.69   19.60
  15 -18  -3   36.40   16.80
   3 -18   3   59.39   20.70
   3  15  -3   34.20    6.00
 -18   3  -3   43.60    6.40
   3 -18   3   40.20   12.20
 -18  15   3   22.80    5.20
  -3  18  -3   39.40    6.40
  -3 -15   3   45.00   11.00
 -15  -3  -3   36.20    6.20
  -3 -15   3   48.30   16.00
  18 -15  -3   15.40   15.20
 -15  18   3   33.40    5.50
  18  -3   3   42.50    8.10
 -18   4  -3   84.19    8.50
   4 -18   3   90.89   22.20
  14 -18  -3   66.49   19.90
   4  14  -3   79.49    8.40
 -18  14   3   84.49    8.10
   4 -18   3   91.89   15.70
  -4  18  -3   84.09    8.20
 -14  -4  -3   79.49    8.00
  18  -4   3   64.09   10.90
 -14  18   3   74.89    7.70
  -4 -14   3   81.59   14.40
  18 -14  -3   71.79   16.80
 -14  -4  -3   75.79   12.10
  -4 -14   3   45.50   15.70
  13   5   3  133.29    7.80
 -18  13   3  104.29    8.60
 -18  13   3  125.89   11.90
   5 -18   3  153.48   25.50
 -18   5  -3  135.49    9.70
   5 -18   3  118.79   18.50
  13 -18  -3  105.39   20.70
   5  13  -3  119.49    9.00
 -13  18   3  123.79    9.30
  -5  18  -3   99.39    8.80
  18 -13  -3   96.99   17.70
 -13  -5  -3   99.59   13.80
  18  -5   3  106.59   11.10
  12   6   3   49.20    5.80
   6 -18   3   42.00   21.80
   6  12  -3   48.40    6.20
   6 -18   3   50.09   14.50
  12 -18  -3   34.60   17.00
 -18   6  -3   48.80    7.00
 -18  12   3   59.09    9.30
 -12  18   3   54.69    7.10
 -12  -6  -3   48.60   10.70
  18  -6   3   46.80    8.70
 -12  -6  -3   55.69    7.50
  18 -12  -3   36.90   15.10
  -6 -12   3   35.90   18.30
  -6  18  -3   46.20    6.10
   7 -18   3  305.67   25.10
   7 -18   3  193.38   31.20
   7  11  -3  277.27   13.40
 -18   7  -3  245.48   13.70
 -18   7  -3  288.97   14.20
  11   7   3  256.17   12.70
  11 -18  -3  283.07   24.70
 -18  11   3  252.17   16.30
 -11  -7  -3  250.17   13.50
 -11  -7  -3  279.57   20.60
  18 -11  -3  255.27   20.10
  18  -7   3  249.58   17.00
 -11  18   3  282.47   13.90
  -7 -11   3  292.37   25.50
  -7  18  -3  254.27   13.60
 -18   8  -3  115.89    8.60
  10   8   3   99.59    7.80
   8 -18   3  136.99   21.40
 -18   8  -3  118.69    9.20
   8  10  -3  113.49    8.60
   8 -18   3   44.50   22.50
  10 -18  -3   88.59   21.00
  -8 -10   3   91.39   17.20
 -10  18   3  118.89    9.20
  -8 -10   3  156.58   19.70
  18  -8   3  104.59   13.40
 -10  -8  -3  114.39    8.70
  -8  18  -3  101.79    8.80
 -10  -8  -3   99.09   15.40
  18 -10  -3  125.99   18.80
 -18   9  -3  507.65   22.10
   9 -18  -3  453.15   36.10
   9 -18   3  524.85   33.00
   9   9  -3  519.85   22.30
 -18   9   3  465.05   24.90
   9   9   3  487.75   21.30
 -18   9  -3  491.35   21.90
   9 -18   3  461.75   51.39
  -9  18  -3  476.05   21.70
  18  -9   3  497.35   26.80
  -9  -9  -3  522.15   21.80
  -9  -9  -3  488.75   28.30
  -9  18   3  474.95   21.60
  -9  -9   3  475.05   30.60
   8  10   3    6.80    4.00
 -18  10  -3   -2.00    4.30
  10 -18   3  -17.60   17.10
  10 -18   3    3.00   14.70
 -18   8   3    7.90    8.30
 -18  10  -3   -7.40    4.30
  10   8  -3   -0.20    6.30
   8 -18  -3   -3.90   17.60
 -10  -8   3   10.00   12.00
  -8  18   3    6.60    4.60
 -10  18  -3   -5.00    4.50
  -8 -10  -3    2.40   10.50
  -8 -10  -3   -3.40    3.80
  18  -8  -3    3.30   12.30
   7  11   3  143.49    9.50
   7 -18  -3  138.29   25.70
 -18   7   3  157.28   14.60
  11   7  -3  148.79   12.30
 -18  11  -3  142.29    9.60
  11 -18   3  146.49   22.70
  11 -18   3  182.38   24.50
 -18  11  -3  164.58   10.50
  18  -7  -3  148.09   18.60
 -11  -7   3  165.38   20.80
  -7 -11  -3  152.88    9.30
 -11  18  -3  139.09   10.30
  -7  18   3  140.19    9.90
  -7 -11  -3  146.99   19.00
   6  12   3    9.10    4.20
  12   6  -3    5.30    6.90
  12 -18   3   -0.60   14.60
   6 -18  -3    7.50   16.90
 -18   6   3    5.90    8.60
  12 -18   3   10.80   14.90
 -18  12  -3    4.50    4.70
 -18  12  -3    9.60    4.90
  18 -12   3   44.10   13.50
  18  -6  -3   18.70   11.70
  -6  18   3   10.40    5.10
 -12  18  -3    1.20    4.60
 -12  -6   3   20.80   12.40
  -6 -12  -3    3.20   11.90
 -18   5   3   65.79   11.50
  13 -18   3   82.49   19.10
   5  13   3   53.69    7.00
 -18  13  -3   59.69    6.90
  13 -18   3   49.00   15.30
  13   5  -3   54.49   10.20
   5 -18  -3   65.39   20.00
 -18  13  -3   62.89    6.90
  -5 -13  -3   65.39   15.20
  18 -13   3  110.49   19.90
  -5  18   3   67.89    8.20
  18  -5  -3   64.79   13.30
 -13  18  -3   54.99    7.50
 -13  -5   3   68.69   13.60
  14 -18   3   25.30   16.40
 -18   4   3    4.40    9.00
  14   4  -3    3.50    7.20
  14 -18   3    3.40   14.10
 -18  14  -3   -1.10    4.10
   4  14   3    0.70    4.60
 -18  14  -3   -6.40    4.40
   4 -18  -3    0.50   17.10
  -4  18   3    1.80    4.90
  -4 -14  -3   -4.60   13.10
  18  -4  -3    3.40   10.10
 -14  -4   3    5.40   10.10
 -14  18  -3  -10.10    4.30
  18 -14   3   29.50   14.00
 -18  15  -3    6.90    4.90
  15   3  -3    7.30    7.60
 -18  15  -3   -0.30    4.50
   3  15   3    1.40    4.60
 -18   3   3    5.60    8.70
   3 -18  -3    1.50   15.80
  15 -18   3   51.99   16.50
  -3  18   3    4.00    4.70
 -15  18  -3   -2.50    4.50
  -3 -15  -3    2.30   13.00
  18 -15   3   39.70   14.70
  18  -3  -3    4.70    9.70
 -15  -3   3    7.50    9.60
   2 -18  -3   68.09   19.60
  16   2  -3   62.59   10.40
   2  16   3   52.29    7.50
  16 -18   3   70.19   14.50
 -18  16  -3   61.29    7.50
 -18   2   3   70.39   12.10
 -16  18  -3   56.29    7.40
  -2 -16  -3   74.09   17.00
  18 -16   3  123.99   21.40
  18  -2  -3   64.39   11.80
  -2  18   3   64.99    7.80
 -16  -2   3   49.90   11.80
   1  17   3    5.20    4.70
 -18   1   3    6.90    9.10
 -18  17  -3   -2.50    4.60
   1 -18  -3   15.10   15.70
  17 -18   3   30.90   16.70
  17   1  -3    4.00    8.50
 -17  18  -3   -7.60    4.60
 -17  -1   3    3.80    9.50
  18  -1  -3    2.20    9.10
  -1  18   3    0.20    4.80
  -1 -17  -3    5.70   14.70
 -18   0   3   21.40   10.50
   0  18   3   16.60    5.60
  18 -18   3   52.99   18.60
   0 -18  -3   15.40   16.20
  18   0  -3    3.90    9.20
 -18  18  -3   16.30    5.50
  19 -19  -3   68.59   19.00
 -19   0  -3   88.99    9.10
   0  19  -3  101.59   10.10
  19   0   3   73.69   10.80
   0 -19   3   82.59   15.20
 -19  19   3   82.79    9.50
  18 -19  -3   -9.30   15.30
   1  18  -3   -2.70    5.60
 -19  18   3   -6.80    5.20
 -19   1  -3    5.20    5.50
   1 -19   3   -2.60   12.10
  18   1   3   -6.70    5.60
   1 -19   3   37.30   20.60
  19 -18  -3  -13.60   14.90
  19  -1   3    0.80    5.80
  -1 -18   3   18.00   18.00
  -1 -18   3    4.60   11.00
 -18  19   3    0.20    5.30
  -1  19  -3   -0.80    5.30
 -18  -1  -3    4.90    5.40
 -19   2  -3  161.08   10.50
  17 -19  -3   99.19   20.80
   2 -19   3  245.58   31.70
   2 -19   3  167.88   20.20
  17   2   3  124.69   11.80
 -19  17   3  134.89   10.40
   2  17  -3  141.49   10.70
 -17  19   3  149.19   10.90
  -2 -17   3  188.98   26.70
  19 -17  -3  131.29   23.10
  -2  19  -3  150.08   10.70
  19  -2   3  156.38   13.30
 -17  -2  -3  157.28   11.00
  -2 -17   3  162.88   16.80
  16 -19  -3   42.60   18.10
 -19  16   3   38.10    6.30
 -19   3  -3   54.29    7.50
  16   3   3   42.60    8.10
   3 -19   3   53.39   15.00
   3 -19   3   80.19   21.90
   3  16  -3   53.19    7.80
  -3  19  -3   58.69    7.90
  -3 -16   3   84.69   18.90
 -16  19   3   62.29    7.60
  19  -3   3   46.50    8.50
  -3 -16   3   49.50   11.70
  19 -16  -3   17.80   15.50
 -16  -3  -3   63.39    8.20
   4  15  -3  106.09    9.70
 -19   4  -3  121.99    9.30
   4 -19   3  130.29   18.60
  15 -19  -3  100.29   21.00
   4 -19   3  142.09   25.50
 -15  -4  -3  125.19    9.30
  -4 -15   3  125.29   15.70
  19  -4   3   97.89   11.10
  19 -15  -3   92.29   18.10
  -4 -15   3  108.29   19.40
 -15  19   3  116.79    9.00
 -15  -4  -3  111.39   12.70
  -4  19  -3   96.09    9.70
   5 -19   3   38.20   14.10
 -19  14   3   39.60    8.00
   5 -19   3   63.79   21.70
   5  14  -3   30.00    5.60
 -19   5  -3   48.40    7.70
  14 -19  -3   24.20   17.80
  -5  19  -3   34.80    5.90
  19  -5   3   34.00    8.50
  -5 -14   3   11.60   14.60
  -5 -14   3   38.20   10.20
 -14  -5  -3   38.10    9.80
 -14  19   3   46.60    6.30
 -14  -5  -3   52.89    7.20
  19 -14  -3   25.60   15.10
  13 -19  -3   12.60   16.80
   6 -19   3   32.90   20.10
 -19   6  -3    6.50    5.20
   6 -19   3   13.20   12.80
   6  13  -3   -6.00    4.60
 -13  19   3    8.30    4.70
 -13  -6  -3    8.60    5.50
  19 -13  -3   -9.10   14.00
  -6 -13   3    5.50    8.80
  19  -6   3    1.20    7.30
  -6  19  -3   -2.30    4.40
 -13  -6  -3   -0.60    8.50
   7  12  -3   19.90    5.10
   7 -19   3   12.00   20.70
  12   7   3   24.80    4.40
 -19  12   3   24.30    8.10
  12 -19  -3   25.20   16.60
 -19   7  -3   23.10    5.60
   7 -19   3   26.90   15.00
  19  -7   3   16.50    8.20
 -12  19   3   29.80    5.60
  -7  19  -3   20.40    5.50
  -7 -12   3   20.90    9.00
 -12  -7  -3   23.60    5.50
  -7 -12   3   20.10   13.60
  19 -12  -3   15.60   13.80
 -12  -7  -3   25.00   10.20
 -19  11   3   47.30    9.10
   8 -19   3   31.60   20.90
   8 -19   3   57.29   16.30
  11 -19  -3   37.80   18.20
  11   8   3   32.10    4.80
 -19   8  -3   44.60    6.80
   8  11  -3   46.80    5.90
 -11  19   3   51.69    6.40
 -11  -8  -3   52.29    7.50
  19 -11  -3   41.00   12.00
  -8  19  -3   41.90    6.10
 -11  -8  -3   44.60   11.50
  19  -8   3   26.50   10.40
  -8 -11   3   39.70   13.90
  -8 -11   3   50.49    9.70
  10 -19  -3    6.60   17.00
  10   9   3    1.30    3.70
 -19   9  -3    5.80    4.60
 -19  10   3   -5.20    7.00
   9 -19   3    7.70   14.40
  -9 -10   3    8.30   12.70
  -9  19  -3    6.60    5.00
  19 -10  -3    1.60   12.20
 -10  -9  -3   -0.80    4.30
  19  -9   3   -4.80   10.10
 -10  19   3    8.10    4.90
 -10  -9  -3   10.00   10.20
  10 -19   3  177.58   23.30
 -19   9   3  127.59   13.60
 -19  10  -3  139.39    9.90
  10 -19   3   70.59   23.20
   9 -19  -3  113.89   23.00
   9  10   3  145.49    9.10
  10   9  -3  129.29   11.90
  19  -9  -3  150.48   19.40
  -9  19   3  127.49    9.50
  -9 -10  -3  141.99    9.40
 -10  -9   3  150.48   19.60
  -9 -10  -3  141.49   16.70
 -10  19  -3  131.89    9.60
  11 -19   3    5.80   18.00
  11 -19   3   16.50   15.80
 -19  11  -3   20.10    5.30
   8  11   3   15.40    4.70
 -19   8   3   17.70    8.50
  11   8  -3   13.30    7.00
 -19  11  -3   14.50    5.40
   8 -19  -3   12.50   18.00
 -11  19  -3    6.60    4.80
  -8 -11  -3   19.40    4.80
  19  -8  -3   15.50   12.40
 -11  -8   3   26.90   12.20
  -8 -11  -3   16.90   10.80
  -8  19   3   19.50    5.10
  12 -19   3   76.19   20.90
 -19   7   3   82.29   12.50
 -19  12  -3   97.99    8.40
  12 -19   3  137.99   23.70
   7 -19  -3   95.09   20.70
  12   7  -3   82.19   10.50
 -19  12  -3   92.49    9.20
   7  12   3   79.49    8.10
 -12  -7   3  110.09   16.90
  -7 -12  -3   84.99   15.00
 -12  19  -3   80.29    8.20
  -7  19   3   89.69    8.50
  19  -7  -3  101.09   17.00
  13 -19   3   24.90   17.30
 -19  13  -3    0.60    4.80
  13 -19   3   19.70   16.30
   6  13   3    5.00    4.80
   6 -19  -3   -0.30   17.20
 -19  13  -3    4.70    4.40
  13   6  -3   -1.40    7.10
 -19   6   3   13.90    8.30
 -13  -6   3    7.60   11.40
  19  -6  -3   12.80   11.40
  -6 -13  -3   -0.40   11.70
  19 -13   3   48.60   14.90
 -13  19  -3    1.60    4.70
  -6  19   3   12.00    5.00
 -19  14  -3  106.29    8.50
  14 -19   3  154.98   27.10
  14   5  -3  106.39   11.80
 -19   5   3  103.89   13.60
  14 -19   3  112.79   19.50
   5 -19  -3  105.79   21.80
 -19  14  -3  128.19    9.70
   5  14   3  109.69    8.60
 -14  19  -3  117.19    9.10
  -5 -14  -3  116.89   18.80
  -5  19   3  109.99    9.10
  19 -14   3  164.08   21.70
  19  -5  -3  101.39   16.40
 -14  -5   3  115.39   17.60
   4  15   3  172.88   11.00
  15 -19   3  166.98   21.30
 -19  15  -3  176.08   10.50
  15 -19   3  208.98   26.30
 -19   4   3  150.28   16.20
 -19  15  -3  148.79   11.10
   4 -19  -3  156.98   25.20
  15   4  -3  154.48   14.10
 -15  19  -3  171.08   11.20
 -15  -4   3  182.98   18.10
  -4 -15  -3  168.38   22.00
  -4  19   3  165.68   10.80
  19  -4  -3  169.58   17.80
  16 -19   3   72.29   19.50
  16   3  -3   12.90    8.50
   3 -19  -3   15.00   17.10
 -19   3   3   14.20    9.40
 -19  16  -3   -1.10    5.30
   3  16   3   15.10    5.40
 -19  16  -3   15.00    5.20
  16 -19   3   25.00   14.70
  19  -3  -3   33.00   11.20
  -3 -16  -3   15.10   14.60
  -3  19   3   15.80    5.30
  19 -16   3   60.59   17.20
 -16  19  -3   13.10    5.20
 -16  -3   3   24.20   10.90
 -19  17  -3  168.48   10.90
   2  17   3  187.38   11.20
   2 -19  -3  183.68   26.40
 -19   2   3  157.48   16.00
  17 -19   3  183.98   20.80
  17   2  -3  174.48   15.90
 -17  -2   3  159.48   16.70
  -2 -17  -3  165.58   22.90
  -2  19   3  181.08   11.20
  19  -2  -3  174.38   16.60
  18   1  -3   61.49   11.50
  18 -19   3   69.09   15.80
   1  18   3   68.09    7.60
 -19   1   3   74.49   12.50
 -19  18  -3   46.90    7.10
 -19  18  -3   60.59    7.60
   1 -19  -3   82.39   19.40
  -1  19   3   61.19    8.80
  19  -1  -3   80.09   13.80
  -1 -18  -3   80.59   18.80
 -18  19  -3   69.19    8.10
 -18  -1   3   85.29   13.80
 -19  19  -3  111.99   10.30
 -19   0   3   86.69   14.40
   0  19   3  105.09    9.80
  19   0  -3   97.69   14.20
   0 -19  -3  129.09   24.00
  20 -20  -3  -13.10   15.60
   0  20  -3   19.50    7.00
 -20   0  -3   32.20    6.70
  20   0   3   10.60    6.90
 -20  20   3    7.50    6.40
   0 -20   3   16.10   13.60
  19   1   3   11.50    7.00
 -20   1  -3   18.00    6.50
 -20  19   3   -0.30    6.00
  19 -20  -3    4.40   15.40
   1 -20   3   21.90   14.60
   1  19  -3   13.10    6.40
  20  -1   3    9.60    7.10
 -19  -1  -3   23.40    6.30
  -1 -19   3   29.90   12.60
  20 -19  -3   -8.10   15.30
  -1  20  -3   22.90    6.80
  -1 -19   3   67.79   32.90
 -19  20   3    9.00    5.90
  18   2   3   -5.40    6.20
   2 -20   3    6.30   12.80
 -20   2  -3   11.10    5.50
   2  18  -3    8.40    6.30
 -20  18   3   -2.90    5.70
  18 -20  -3   -1.90   16.20
  -2 -18   3   17.40   11.80
  -2  20  -3   -1.10    5.60
  20 -18  -3   -6.40   14.60
  -2 -18   3   55.29   19.00
  20  -2   3    3.20    6.60
 -18  -2  -3    9.20    5.80
 -18  20   3   11.70    6.00
 -20   3  -3    8.70    5.40
  17   3   3   -3.70    6.50
 -20  17   3   10.80    6.80
   3 -20   3   20.60   13.80
  17 -20  -3   12.00   17.30
   3  17  -3    4.50    6.10
  -3 -17   3   52.59   18.40
  20  -3   3   12.50    7.80
  -3  20  -3    4.60    5.60
  20 -17  -3   -5.10   14.90
 -17  20   3   16.60    5.60
 -17  -3  -3   12.60    5.80
  -3 -17   3   16.90   11.60
   4  16  -3    5.30    5.80
  16 -20  -3    8.50   15.90
 -20   4  -3    2.80    5.10
   4 -20   3    0.60   13.10
  20  -4   3   -5.60    6.50
  -4  20  -3   -3.10    5.10
  20 -16  -3  -17.40   14.00
  -4 -16   3    2.10    9.20
 -16  20   3    0.20    5.10
 -16  -4  -3    4.20    5.70
  -4 -16   3   38.60   17.20
   5  15  -3   -0.40    5.20
 -20  15   3  -10.40    6.60
 -20   5  -3    1.80    4.80
   5 -20   3   -5.40   13.50
  15 -20  -3   -1.00   16.10
 -15  20   3   -9.00    4.80
 -15  -5  -3    2.30    5.80
  20 -15  -3  -13.00   14.20
  20  -5   3   -4.30    6.50
  -5 -15   3  -10.50    8.80
 -15  -5  -3   -3.00    8.20
  -5 -15   3   -7.90   13.60
  -5  20  -3    1.40    5.20
 -20  14   3   11.70    6.80
   6 -20   3   -4.30   12.70
   6  14  -3   -9.50    4.80
  14 -20  -3   -1.70   16.20
   6 -20   3   34.90   22.10
 -20   6  -3    5.60    5.10
  -6  20  -3   -2.50    5.10
 -14  -6  -3    1.60    8.60
  20  -6   3  -10.80    6.90
 -14  -6  -3    6.90    5.60
 -14  20   3    5.00    4.80
  -6 -14   3    6.60    9.30
  20 -14  -3  -12.30   14.30
 -20  13   3   -0.30    6.80
 -20   7  -3    8.30    5.00
   7 -20   3   22.10   22.10
   7 -20   3   23.10   14.40
   7  13  -3    3.30    4.90
  13 -20  -3   -1.60   16.70
  -7 -13   3    1.70    8.10
 -13  -7  -3   10.00    5.30
  20  -7   3  -10.80    8.50
 -13  -7  -3   12.70    9.20
  20 -13  -3  -17.00   13.90
 -13  20   3   11.90    5.30
  -7 -13   3  -31.20   12.70
  -7  20  -3   12.00    5.20
   8 -20   3   -5.60   21.70
 -20   8  -3    8.90    5.00
 -20  12   3   -2.40    6.50
  12   8   3    1.20    3.80
   8 -20   3   21.80   14.40
  12 -20  -3    8.90   17.00
  -8 -12   3   -5.50    7.70
 -12  -8  -3    4.50    5.60
  -8 -12   3    2.10   12.70
  -8  20  -3    6.70    5.00
  20  -8   3  -18.60    9.30
  20 -12  -3   -5.40   13.60
 -12  -8  -3    6.20    9.40
 -12  20   3    3.60    4.70
 -20  11   3   91.59   12.10
   9 -20   3  110.49   19.90
 -20   9  -3   93.79    8.10
  11 -20  -3   96.59   21.10
   9 -20   3   69.09   23.70
  11   9   3   83.39    8.00
  20  -9   3  112.49   16.90
 -11  -9  -3   82.39   14.80
  -9 -11   3   82.19   15.90
  20 -11  -3   78.79   16.20
 -11  20   3  103.99    8.60
 -11  -9  -3   93.49    8.90
  -9  20  -3   88.99    9.10
  10 -20   3   12.80   16.10
 -20  10  -3    4.40    5.00
  10  10   3    4.90    4.30
  10  10  -3    4.50    6.90
  10 -20   3  -35.30   19.10
 -20  10   3    7.10    7.50
  10 -20  -3   28.60   18.20
  20 -10  -3   -1.00   12.80
 -10 -10  -3   -1.50    4.60
 -10  20   3    9.50    5.30
 -10 -10   3   26.50   13.00
 -10  20  -3    5.30    5.00
 -10 -10  -3   11.80   10.70
   9  11   3   85.79   12.40
  11 -20   3   45.40   23.30
 -20   9   3   81.19   11.50
 -20  11  -3   99.69    8.30
  11   9  -3   82.59   10.70
  11 -20   3  106.79   20.60
   9 -20  -3   93.09   21.50
  20  -9  -3   85.69   16.20
 -11  20  -3   94.99    8.60
  -9 -11  -3   89.79   16.50
  -9  20   3   94.49    8.70
 -11  -9   3  126.49   18.00
  12   8  -3   39.10    8.20
 -20   8   3   39.20    9.00
 -20  12  -3   41.60    6.60
  12 -20   3   49.30   18.00
  12 -20   3   -4.80   18.50
   8  12   3   30.90    5.60
   8 -20  -3   46.10   19.40
 -20  12  -3   48.30    7.00
  20 -12   3   72.59   16.20
  -8  20   3   44.30    6.40
 -12  -8   3   47.90   13.20
  -8 -12  -3   44.50   13.20
  20  -8  -3   38.20   14.00
 -12  20  -3   42.80    6.20
   7  13   3   41.20    6.20
   7 -20  -3   20.70   18.90
  13 -20   3    8.50   17.70
  13   7  -3   29.40    8.10
 -20  13  -3   41.60    6.60
  13 -20   3   65.69   19.40
 -20   7   3   50.69    9.50
 -20  13  -3   19.20    5.70
  -7  20   3   28.20    5.70
 -13  20  -3   31.90    6.00
  20 -13   3   61.99   16.90
 -13  -7   3   50.29   13.10
  20  -7  -3   43.70   13.10
  -7 -13  -3   32.30   14.40
 -20  14  -3    1.20    4.50
   6  14   3   -1.60    4.70
 -20  14  -3   -3.20    4.90
 -20   6   3   -3.80    7.70
  14   6  -3    2.40    7.50
   6 -20  -3    5.10   17.30
  14 -20   3   20.70   17.40
  20  -6  -3   -5.60   11.30
  20 -14   3   21.10   15.70
 -14  20  -3    5.50    4.90
  -6 -14  -3    3.50   11.90
  -6  20   3    1.80    5.00
 -14  -6   3   14.20   10.30
  15 -20   3   16.50   16.80
  15   5  -3   12.00    8.00
 -20  15  -3   21.00    5.90
 -20   5   3    8.40    8.20
 -20  15  -3   18.20    5.50
  15 -20   3   62.79   20.80
   5  15   3    7.50    5.20
   5 -20  -3    6.60   16.80
 -15  -5   3   20.80   10.60
 -15  20  -3    6.90    5.40
  20  -5  -3   26.40   11.70
  -5 -15  -3   18.80   13.50
  20 -15   3   44.70   16.60
  -5  20   3    8.80    5.10
   4 -20  -3   23.10   17.30
  16   4  -3   26.00    9.00
 -20   4   3   23.80    9.20
 -20  16  -3   15.30    5.30
  16 -20   3   25.80   15.80
   4  16   3   21.50    5.90
  16 -20   3   58.29   20.60
  -4 -16  -3   20.70   14.60
 -16  -4   3   23.60   11.00
  20 -16   3   66.09   18.30
 -16  20  -3   21.40    5.70
  -4  20   3   20.60    5.80
  20  -4  -3   22.10   11.50
  17 -20   3   -4.80   15.30
 -20   3   3    0.30    8.50
   3  17   3    2.70    4.90
   3 -20  -3    3.20   17.90
 -20  17  -3    1.40    4.70
  17   3  -3    6.30    8.80
  17 -20   3   38.60   25.30
 -17  -3   3    2.30    9.60
 -17  20  -3   13.50    5.40
  20  -3  -3    4.30   10.50
  20 -17   3    7.70   27.20
  -3 -17  -3   18.10   15.00
  -3  20   3   -0.50    5.00
   2 -20  -3   16.40   18.00
  18 -20   3   31.30   15.60
   2  18   3    1.60    5.40
 -20  18  -3   -1.00    5.20
 -20   2   3    3.70    9.30
  18   2  -3    7.00    8.80
 -20  18  -3   -2.40    4.90
  -2  20   3    8.00    5.70
 -18  20  -3    7.10    5.30
 -18  -2   3    6.10    9.50
  20  -2  -3   -2.30   10.10
  -2 -18  -3   16.70   14.40
 -20  19  -3    9.00    5.90
   1  19   3   22.50    6.10
   1 -20  -3   16.60   17.20
 -20   1   3   20.20    9.70
  19 -20   3   46.00   15.70
  19   1  -3   22.40   10.20
  -1  20   3   16.70    5.90
  20  -1  -3   16.30   11.00
 -19  20  -3   19.50    5.80
  -1 -19  -3   17.30   16.30
 -19  -1   3   12.90   10.40
  20   0  -3    1.80   10.30
 -20  20  -3    1.00    6.10
   0  20   3    8.70    5.70
   0 -20  -3    7.90   15.80
 -20   0   3    9.10    9.40
 -21   0  -3  114.99    9.90
   0 -21   3  115.49   18.70
  21 -21  -3   81.49   20.20
  21   0   3   92.59   11.80
   0  21  -3  118.09   11.40
 -21  21   3   97.79   11.60
 -21   1  -3   14.50    6.20
  20   1   3    5.70    7.10
 -21  20   3    4.50    6.70
  20 -21  -3    6.60   17.40
   1 -21   3   16.50   13.70
   1  20  -3   16.20    7.20
 -20  21   3   10.90    6.90
  21  -1   3    9.50    7.60
  -1 -20   3    5.60   12.50
  -1  21  -3   18.90    6.70
 -20  -1  -3   22.20    6.80
  21 -20  -3   -7.50   16.10
  19 -21  -3  155.28   25.50
 -21   2  -3  180.88   11.50
  19   2   3  147.89   13.10
  21  -2   3  159.68   13.80
  -2  21  -3  191.98   12.90
  -2 -19   3  192.48   21.00
  21 -19  -3  144.79   24.30
 -19  -2  -3  173.98   11.80
 -19  21   3  156.38   12.60
  18   3   3   30.60    8.20
 -21   3  -3   51.09    7.70
   3 -21   3   40.20   14.70
  18 -21  -3   44.50   18.80
   3  18  -3   30.30    7.10
  21 -18  -3   15.10   17.60
  -3  21  -3   46.40    7.10
  -3 -18   3   69.99   20.00
 -18  21   3   46.10    6.90
  21  -3   3   33.50    8.90
  -3 -18   3   52.19   13.70
 -18  -3  -3   64.29    9.40
  17   4   3  113.19   12.00
   4  17  -3  130.39   11.70
  17 -21  -3  127.49   22.60
 -21   4  -3  148.99   10.50
   4 -21   3  149.49   22.60
  21 -17  -3   91.89   20.00
  21  -4   3  129.59   14.00
  -4 -17   3  131.99   17.10
  -4  21  -3  157.78   11.50
 -17  21   3  145.79   11.10
 -17  -4  -3  150.78   10.80
  16 -21  -3   39.30   18.10
 -21   5  -3   38.10    6.70
   5  16  -3   38.80    7.20
   5 -21   3   35.00   15.20
  21  -5   3   24.40    9.10
 -16  -5  -3   39.50    6.90
  -5  21  -3   29.60    6.40
  21 -16  -3   17.70   16.10
  -5 -16   3   51.89   12.20
 -16  21   3   29.40    6.30
 -21   6  -3   36.00    6.40
  15 -21  -3   40.40   19.00
   6 -21   3   35.20   15.90
   6  15  -3   24.90    6.50
 -21  15   3   32.20    7.80
 -15  -6  -3   33.10   10.80
 -15  21   3   30.40    6.40
 -15  -6  -3   30.10    6.60
  -6 -15   3   33.50   11.40
  21 -15  -3   13.50   15.60
  21  -6   3   24.50    9.30
  -6  21  -3   28.90    6.10
  -6 -15   3   65.89   17.80
   7 -21   3   22.30   15.80
  14 -21  -3   47.40   17.50
 -21  14   3   24.40    7.60
   7  14  -3   47.50    7.80
 -21   7  -3   52.89    7.60
 -14  21   3   38.50    6.20
  21 -14  -3    7.60   15.30
  -7  21  -3   30.10    6.10
 -14  -7  -3   42.70   11.10
  -7 -14   3   53.69   11.50
 -14  -7  -3   42.70    7.40
  21  -7   3   16.20   10.20
 -21  13   3    6.10    7.50
  13 -21  -3   30.70   18.70
 -21   8  -3   -0.20    4.90
 -13  -8  -3    6.40    5.70
  -8 -13   3   -9.30    8.30
  -8  21  -3   -2.10    4.90
  21  -8   3  -11.70   10.60
 -13  21   3   12.60    5.30
  21 -13  -3  -12.30   14.30
 -13  -8  -3   -0.60    9.40
  12 -21  -3   38.30   19.30
 -21  12   3   31.70    8.30
 -21   9  -3   29.60    5.90
   9 -21   3   43.60   17.20
  -9  21  -3   42.60    6.80
  -9 -12   3    3.90   13.10
 -12  -9  -3   43.40   11.70
  21  -9   3   51.69   13.10
  21 -12  -3   11.50   14.40
 -12  21   3   35.50    6.00
 -12  -9  -3   49.10    7.20
  10  11  -3   76.19   11.00
  11 -21  -3   79.89   21.00
 -21  10  -3   75.49    7.90
 -21  11   3   65.89   10.80
  11  10   3   81.99    8.20
  10 -21   3   79.59   20.00
 -11  21   3   54.79    8.20
 -10 -11   3   60.59   15.30
 -10  21  -3   76.59    8.50
  21 -11  -3   49.80   15.30
 -11 -10  -3   73.69   13.50
  21 -10   3  136.59   19.60
 -11 -10  -3   75.59    8.40
 -21  10   3   13.70    8.20
  10  11   3   15.80    5.30
  11 -21   3  -13.10   21.70
  11 -21   3   24.40   17.50
  10 -21  -3   19.40   17.40
  11  10  -3   13.10    7.40
 -21  11  -3    7.00    5.10
 -11 -10   3   29.90   12.50
  21 -11   3   50.59   15.00
 -10  21   3   15.70    5.60
  21 -10  -3   13.10   13.70
 -10 -11  -3    0.20   10.80
 -11  21  -3   11.40    5.20
 -21  12  -3  116.19    9.40
  12 -21   3  164.48   27.00
 -21   9   3  126.19   13.20
  12 -21   3   70.69   24.90
   9 -21  -3  153.58   25.10
  12   9  -3  121.99   12.10
   9  12   3  127.69   10.00
  -9 -12  -3  133.19   18.10
  21  -9  -3  118.79   19.20
 -12  -9   3  132.39   18.00
 -12  21  -3  135.19   10.50
  -9  21   3  134.49    9.90
   8  13   3   -2.90    4.90
  13 -21   3   25.90   18.20
 -21  13  -3    3.10    4.80
   8 -21  -3   17.60   17.20
  13   8  -3    1.80    7.30
 -21   8   3   -4.10    7.40
  13 -21   3  -42.40   19.30
  21  -8  -3   -0.40   13.10
  -8 -13  -3   -4.40   10.40
 -13  -8   3   16.00   10.50
 -13  21  -3   12.80    5.40
  21 -13   3   29.80   16.10
  -8  21   3    4.10    5.30
  14 -21   3  171.78   28.50
 -21  14  -3  102.89    8.90
   7  14   3  126.09   10.10
 -21  14  -3  126.49   11.20
   7 -21  -3  153.58   26.40
 -21   7   3  107.69   12.70
  14 -21   3   80.89   23.10
  14   7  -3  109.19   12.50
 -14  -7   3  126.99   17.40
  -7 -14  -3  140.29   19.40
  -7  21   3  121.19    9.60
  21  -7  -3  123.89   18.00
  21 -14   3  164.38   26.00
 -14  21  -3  111.89    9.50
 -21  15  -3  211.58   12.40
 -21  15  -3  188.38   13.10
 -21   6   3  196.98   15.60
  15   6  -3  205.48   16.20
   6  15   3  196.58   12.00
  15 -21   3  189.48   26.20
  15 -21   3  268.17   44.80
   6 -21  -3  205.78   29.00
  21  -6  -3  205.48   20.00
  -6  21   3  203.58   12.20
  21 -15   3  265.57   28.50
 -15  21  -3  189.98   12.20
  -6 -15  -3  216.28   22.20
 -21  16  -3   95.69    8.60
  16   5  -3   82.89   12.70
   5 -21  -3   91.99   22.10
   5  16   3   78.09    9.20
 -21  16  -3   78.59    9.70
  16 -21   3   69.59   19.50
 -21   5   3   78.49   12.20
 -16  21  -3  116.59   10.10
  -5  21   3  103.79    9.90
 -16  -5   3   96.89   15.40
  -5 -16  -3   97.49   18.60
  21  -5  -3   68.59   14.70
  21 -16   3  180.78   28.00
 -21   4   3   92.09   12.70
   4  17   3  103.29    9.90
  17   4  -3   91.89   13.30
 -21  17  -3   93.29    9.10
   4 -21  -3   84.89   22.40
  17 -21   3   87.39   19.50
 -17  -4   3  101.29   15.00
 -17  21  -3  103.99    9.60
  -4  21   3  104.19    9.40
  -4 -17  -3  121.79   22.40
  21  -4  -3  106.29   17.20
 -21   3   3   74.29   11.60
   3 -21  -3   87.09   21.90
  18   3  -3   72.89   12.00
 -21  18  -3   61.09    8.60
   3  18   3   78.39    8.90
  -3  21   3   82.59    9.00
  21  -3  -3   82.39   16.10
 -18  -3   3   98.09   14.20
  -3 -18  -3   84.39   18.40
 -18  21  -3   84.39    9.10
  19 -21   3  205.18   27.00
  19   2  -3  189.98   17.00
   2  19   3  218.48   13.20
 -21  19  -3  149.39   12.80
 -21   2   3  208.48   16.30
   2 -21  -3  191.68   27.30
 -21  19  -3  197.48   12.70
 -19  21  -3  217.78   12.80
  -2 -19  -3  208.48   25.50
 -19  -2   3  219.58   19.40
  -2  21   3  205.28   12.50
  21  -2  -3  191.38   18.70
 -21  20  -3   42.50    7.40
  20   1  -3   51.99   12.10
   1  20   3   39.90    6.90
  20 -21   3   61.59   17.40
   1 -21  -3   50.39   19.10
 -21   1   3   59.99   11.20
  -1  21   3   51.69    7.60
  21  -1  -3   48.10   12.90
  -1 -20  -3   64.19   17.70
 -20  21  -3   49.80    7.50
 -20  -1   3   57.89   12.00
 -21   0   3  168.88   16.00
  21   0  -3  146.29   17.10
 -21  21  -3  171.18   12.90
   0  21   3  171.98   12.60
   0 -21  -3  205.78   25.10
  21 -22  -3   52.89   20.00
   1 -22   3   47.00   15.40
  21   1   3   49.60    9.40
  22 -21  -3   36.80   18.30
  22  -1   3   47.90    9.70
  -1 -21   3   52.69   14.90
 -22   2  -3    5.40    5.90
   2 -22   3  -13.00   14.40
  20 -22  -3   -0.90   17.80
   2  20  -3    6.20    6.70
  20   2   3   -4.10    7.10
 -20  22   3   -2.70    6.40
  -2 -20   3    1.10   13.00
  -2  22  -3   -2.60    6.30
  22 -20  -3   -2.40   16.70
 -20  -2  -3    6.40    6.40
  22  -2   3  -12.20    7.40
 -22   3  -3   52.19    8.10
   3  19  -3   46.10    8.10
   3 -22   3   44.00   15.40
  19 -22  -3   45.10   19.10
 -19  -3  -3   55.99    8.50
 -19  22   3   38.90    7.60
  22 -19  -3   19.00   17.70
  22  -3   3   39.90   10.10
  -3  22  -3   54.59    8.10
  -3 -19   3   42.00   12.80
   4 -22   3  -15.20   13.50
  18 -22  -3   -5.00   17.00
   4  18  -3   -7.00    6.20
 -22   4  -3    3.30    5.30
  18   4   3   -7.00    6.40
 -18  -4  -3   -1.30    6.00
 -18  22   3    2.60    5.70
  22  -4   3   -8.60    7.70
  22 -18  -3   -8.10   16.10
  -4  22  -3   -3.00    5.60
  -4 -18   3   -8.60    9.90
  -4 -18   3   47.90   19.50
 -22   5  -3   15.20    5.90
  17 -22  -3   20.90   17.20
   5  17  -3    5.40    6.40
   5 -22   3    9.10   14.40
 -17  -5  -3   20.30    7.00
 -17  22   3   20.60    6.20
  -5  22  -3   15.40    6.30
  22  -5   3    3.70    8.50
  -5 -17   3   18.50   11.00
  22 -17  -3    2.70   16.10
  -5 -17   3   52.19   19.20
   6  16  -3   -3.80    6.20
   6 -22   3   13.50   14.90
 -22   6  -3    5.50    5.60
  16 -22  -3   19.00   17.50
  22  -6   3   -4.40    8.60
 -16  22   3    7.00    6.00
  -6  22  -3   -3.00    5.80
 -16  -6  -3    8.30    6.70
  -6 -16   3   -1.10   10.00
  -6 -16   3   69.99   18.70
  22 -16  -3  -21.10   15.00
 -22   7  -3   19.20    6.20
  15 -22  -3   22.60   18.30
   7  15  -3   29.50    7.10
 -22  15   3    4.00    7.30
   7 -22   3   26.10   16.70
  22  -7   3   -1.20    9.80
  -7 -15   3   19.10   10.20
 -15  -7  -3   18.60    6.70
 -15  -7  -3   15.50   10.20
  22 -15  -3    4.00   15.60
 -15  22   3   11.10    5.80
  -7  22  -3   19.10    6.20
  -7 -15   3   37.60   16.10
  14 -22  -3   48.50   18.70
 -22  14   3   54.49    9.00
 -22   8  -3   43.20    6.80
   8 -22   3   52.09   17.90
  22  -8   3   38.70   12.70
  -8 -14   3   35.90   10.80
  -8 -14   3   -0.60   14.70
  -8  22  -3   60.39    7.50
 -14  22   3   44.20    6.90
  22 -14  -3   12.30   15.90
 -14  -8  -3   47.00    7.60
 -14  -8  -3   49.10   11.80
 -22  13   3   16.90    8.20
   9 -22   3    2.30   17.60
  13 -22  -3   11.00   18.60
 -22   9  -3    3.00    5.10
  -9  22  -3    7.20    5.50
 -13  -9  -3    1.80    5.60
 -13  -9  -3   -0.70    9.60
  22 -13  -3  -31.20   13.60
  22  -9   3   23.20   12.80
 -13  22   3   -1.80    5.30
  12 -22  -3   55.29   20.80
  10 -22   3   39.70   18.90
 -22  10  -3   50.49    7.20
 -22  12   3   46.80    9.60
 -12  22   3   49.10    6.80
 -10  22  -3   39.80    6.60
  22 -10   3   50.99   14.90
 -12 -10  -3   54.69   13.00
 -12 -10  -3   46.40    7.30
 -10 -12   3   12.60   13.40
  22 -12  -3   42.50   15.10
 -22  11  -3   33.10    6.50
  11 -22  -3   53.39   19.40
 -22  11   3   47.50   10.00
  11  11   3   48.40    7.00
  11  11  -3   42.70    9.20
  11 -22   3   53.19   21.00
 -11 -11   3   17.40   13.70
  22 -11  -3   21.40   14.80
 -11 -11  -3   34.70    7.70
 -11  22   3   42.70    6.50
 -11 -11  -3   39.20   12.60
 -11  22  -3   43.60    6.80
  22 -11   3   71.29   15.80
 -22  12  -3   32.20    6.50
  12 -22   3   55.89   20.90
  12  10  -3   26.30    8.60
  10 -22  -3   40.40   19.30
 -22  10   3   36.40    9.00
  10  12   3   25.70    5.90
 -12  22  -3   42.50    6.80
 -10 -12  -3   27.40   12.10
  22 -12   3   71.39   17.00
 -12 -10   3   22.70   12.30
 -10  22   3   26.80    6.10
  22 -10  -3    5.40   14.40
 -22  13  -3   15.70    5.90
 -22   9   3   17.10    8.70
   9 -22  -3   17.50   19.10
  13   9  -3   19.10    8.10
   9  13   3   13.50    5.50
  -9  22   3   13.40    5.60
  -9 -13  -3   17.40   12.50
  22 -13   3   41.40   17.30
 -13  -9   3   14.40   11.00
 -13  22  -3   15.80    5.80
  22  -9  -3   17.00   13.30
  14   8  -3   10.00    8.20
 -22   8   3   27.20    9.60
   8  14   3   22.90    5.90
   8 -22  -3   20.70   19.50
 -22  14  -3   21.50    6.00
 -14  22  -3   23.60    6.20
  22 -14   3   57.99   20.80
  -8  22   3   20.50    6.00
  -8 -14  -3   11.60   12.90
  22  -8  -3    5.10   13.70
 -14  -8   3   19.60   11.60
  15   7  -3   17.20    8.40
  15 -22   3  -59.89   31.70
   7 -22  -3   37.00   20.90
 -22  15  -3   14.40    5.70
   7  15   3   13.70    5.60
 -22   7   3   16.70    9.10
 -15  22  -3   16.60    6.00
  -7  22   3   18.10    6.20
  22 -15   3   54.29   20.10
  -7 -15  -3   22.20   13.60
 -15  -7   3   18.30   11.10
  22  -7  -3   15.20   13.70
  16 -22   3   31.80   21.50
   6 -22  -3   31.70   19.90
 -22  16  -3   23.60    6.00
  16   6  -3   30.30    9.90
 -22   6   3   20.30    9.00
   6  16   3   21.30    6.00
  -6 -16  -3   29.80   14.70
  22 -16   3   56.29   20.60
 -16  -6   3   29.80   11.00
  22  -6  -3   24.40   13.60
  -6  22   3   33.20    6.70
 -16  22  -3   33.70    6.40
  17 -22   3   20.50   19.90
  17   5  -3    7.90    8.90
   5  17   3   10.90    5.70
 -22  17  -3    0.60    5.50
 -22   5   3    8.60    8.30
   5 -22  -3   17.60   18.80
  22  -5  -3   15.70   12.10
  -5  22   3   14.20    5.80
  -5 -17  -3    8.80   13.60
 -17  -5   3   15.90   10.50
 -17  22  -3    9.60    6.40
  22 -17   3   63.79   20.80
   4 -22  -3   12.00   19.00
 -22  18  -3   -4.10    5.00
 -22  18  -3   -9.80    6.00
 -22   4   3   -4.20    8.10
  18 -22   3   10.90   18.10
   4  18   3   -8.60    5.80
  18   4  -3    0.00    9.10
 -18  -4   3    7.70    9.60
  22  -4  -3   -4.40   12.00
  -4  22   3    9.10    5.80
 -18  22  -3    4.30    5.70
  -4 -18  -3   -2.80   13.90
   3 -22  -3   15.40   18.40
  19   3  -3   26.40   10.30
 -22   3   3   27.00    9.20
 -22  19  -3   11.40    5.70
  19 -22   3   52.79   19.30
   3  19   3   20.80    6.40
 -22  19  -3    6.20    6.50
 -19  -3   3   24.40   11.00
  -3  22   3   29.00    6.60
  -3 -19  -3   27.90   15.90
 -19  22  -3   21.50    6.10
  22  -3  -3   17.90   12.20
  20 -22   3   48.30   18.80
  20   2  -3    6.00   10.10
 -22   2   3    4.40    8.30
   2 -22  -3   16.00   18.50
   2  20   3    9.60    6.00
 -22  20  -3   11.90    6.50
  -2  22   3   12.60    6.00
  -2 -20  -3   -0.50   14.80
  22  -2  -3    8.80   11.50
 -20  22  -3   12.60    6.20
 -20  -2   3   13.80   10.00
  21   1  -3   33.70   11.60
   1 -22  -3   13.40   17.20
  -1 -21  -3   42.10   17.80
  22  -1  -3   45.50   12.90
   4  19  -3   24.10    7.70
   4 -23   3   39.20   16.20
  19 -23  -3   31.70   18.30
  19   4   3   14.30    7.80
 -23   4  -3   26.20    6.50
  -4 -19   3   23.90   12.50
  -4  23  -3   27.70    7.00
 -19  23   3   19.90    6.70
  23 -19  -3   27.80   18.20
 -19  -4  -3   37.80    7.70
  23  -4   3   15.90    9.10
   5  18  -3  -10.50    6.70
  18 -23  -3  -10.10   17.10
  18   5   3  -13.90    6.40
   5 -23   3   -7.00   15.10
 -23   5  -3    4.40    5.70
 -18  23   3    4.20    5.80
 -18  -5  -3    5.90    6.50
  23 -18  -3  -29.00   15.40
  23  -5   3  -20.40    8.90
  -5 -18   3   -7.70   11.10
  -5  23  -3    1.20    6.10
   6  17  -3   21.70    7.30
  17   6   3   15.40    8.40
 -23   6  -3   34.40    6.80
  17 -23  -3   38.40   18.10
   6 -23   3   22.60   16.20
 -17  23   3   34.30    6.80
  -6 -17   3   33.40   11.80
  23 -17  -3    7.80   16.60
 -17  -6  -3   37.70    7.60
  23  -6   3   15.30   10.30
  -6 -17   3   68.19   19.90
  -6  23  -3   25.20    6.50
   7 -23   3   -4.70   15.80
  16 -23  -3   14.80   17.60
 -23  16   3    2.60    7.10
 -23   7  -3    1.90    5.40
  23  -7   3    9.70   11.70
 -16  -7  -3    5.60    6.50
  -7 -16   3   -9.20    9.60
 -16  23   3   12.30    6.00
  -7  23  -3    7.40    6.00
  -7 -16   3   32.30   18.10
  23 -16  -3  -16.20   15.30
 -23   8  -3   -3.60    5.30
 -23  15   3    3.50    7.40
  15 -23  -3   25.20   18.80
   8 -23   3    7.80   16.30
  -8  23  -3   -6.30    5.50
 -15  -8  -3    4.60    6.60
 -15  23   3    2.70    5.80
  -8 -15   3   -0.60    9.70
  23  -8   3   18.80   13.10
  -8 -15   3   12.70   15.40
  23 -15  -3  -28.60   14.10
 -15  -8  -3    0.30   10.20
  14 -23  -3   83.39   20.80
 -23   9  -3   47.60    7.70
 -23  14   3   44.10    8.90
   9 -23   3   57.09   19.30
 -14  -9  -3   48.10    7.80
 -14  -9  -3   67.69   13.40
  -9 -14   3   17.20   15.30
 -14  23   3   36.20    6.70
  -9  23  -3   61.39    8.70
  23 -14  -3   11.90   16.80
  13 -23  -3   20.70   19.80
 -23  10  -3    0.70    5.40
  10 -23   3   19.50   18.20
 -23  13   3   10.10    7.70
 -13 -10  -3    4.80    6.10
 -10  23  -3    9.70    6.20
 -13 -10  -3    2.30   10.10
  23 -10   3   23.30   15.10
 -13  23   3   -1.90    5.50
  23 -13  -3  -14.20   14.40
 -23  11  -3   22.40    6.10
  11  12  -3   19.90    9.10
  12 -23  -3   26.90   18.40
 -23  12   3   28.40    8.60
 -12  23   3   14.50    6.20
  23 -11   3   54.19   17.00
 -12 -11  -3   21.00   11.60
  23 -12  -3  -14.60   14.10
 -11 -12   3   -9.30   11.90
 -11  23  -3   19.90    6.10
 -23  12  -3   39.00    6.70
  12  11  -3   41.20    9.50
 -23  11   3   39.30    9.40
  11 -23  -3   54.79   19.90
 -11 -12  -3   36.50   12.60
  23 -11  -3   27.70   14.40
 -11  23   3   46.00    6.80
  23 -12   3   88.19   19.70
 -12 -11   3    2.90   12.30
 -12  23  -3   47.70    7.10
  10  13   3   13.00    6.00
  13  10  -3    9.90    8.20
  10 -23  -3    7.50   19.10
 -23  13  -3    7.50    5.40
 -23  10   3   11.30    8.70
 -13 -10   3   -1.10   11.90
  23 -10  -3   -7.10   14.30
 -10  23   3    5.30    5.50
 -10 -13  -3   -0.50   11.00
 -13  23  -3   15.50    5.90
  14   9  -3   19.40    9.20
   9  14   3   14.60    6.30
   9 -23  -3   26.40   20.10
 -23   9   3   13.20    8.30
 -23  14  -3   20.20    5.80
  23  -9  -3   16.80   14.00
  -9  23   3   20.80    6.00
 -14  -9   3    8.00   11.00
  -9 -14  -3   27.30   13.20
  23 -14   3   58.19   21.90
 -14  23  -3   17.90    5.90
  15   8  -3    1.80    8.30
 -23   8   3    6.80    8.10
 -23  15  -3    1.70    5.20
   8 -23  -3   -3.70   18.20
   8  15   3   -3.10    5.60
  -8 -15  -3   -0.20   12.90
 -15  23  -3   10.10    6.00
  23 -15   3   25.70   21.00
  23  -8  -3   10.50   13.80
  -8  23   3    9.10    5.50
 -15  -8   3    5.70   10.70
   7  16   3   72.89    9.70
 -23   7   3  108.39   13.70
 -23  16  -3   90.29    8.70
  16   7  -3   87.09   12.70
   7 -23  -3   92.39   23.20
  23  -7  -3   69.89   16.30
  23 -16   3  186.88   30.50
  -7 -16  -3   83.99   16.60
 -16  23  -3   99.99   10.30
  -7  23   3  107.99   10.20
 -16  -7   3   81.69   13.70
 -23   6   3   66.09   10.90
   6  17   3   36.40    6.90
  17   6  -3   55.99   11.10
   6 -23  -3   67.19   20.00
 -23  17  -3   51.89    8.50
  -6  23   3   63.99    8.70
  -6 -17  -3   55.09   15.70
  23  -6  -3   49.80   14.70
 -17  -6   3   58.59   12.70
 -17  23  -3   64.49    9.20
   5 -23  -3   77.59   21.90
 -23   5   3   71.49   11.00
  18   5  -3   58.59   11.60
   5  18   3   48.50    7.50
 -23  18  -3   64.59    8.10
 -18  23  -3   95.09   10.20
  -5  23   3   87.49    9.40
 -18  -5   3   63.99   13.30
  -5 -18  -3   59.39   16.80
  23  -5  -3   61.99   14.60
 -23  19  -3  159.18   11.10
   4 -23  -3  167.88   27.20
 -23   4   3  161.98   15.10
  19   4  -3  168.98   16.10
   4  19   3  173.48   12.40
 -23  19  -3  121.09   12.80
  -4 -19  -3  163.58   22.30
 -19  23  -3  188.08   12.90
 -19  -4   3  157.68   16.80
  23  -4  -3  183.78   20.00
  -4  23   3  196.08   12.60
   7 -24   3   48.10   19.50
 -24   7  -3   60.09    8.90
  17 -24  -3   45.40   19.30
  24  -7   3   97.49   18.70
 -17  24   3   63.69    8.20
 -17  -7  -3   45.70    7.80
  24 -17  -3   35.50   17.50
  -7  24  -3   68.89    8.50
  -7 -17   3   62.69   13.50
  -7 -17   3   56.39   18.00
  16 -24  -3   69.79   20.90
 -24   8  -3   62.79    8.90
 -24  16   3   62.89    9.70
  24 -16  -3   52.39   17.80
  -8 -16   3   65.69   13.50
 -16  -8  -3   56.69   11.90
  -8  24  -3   71.69   10.00
  -8 -16   3   89.69   18.70
  24  -8   3  119.19   20.10
 -16  24   3   43.00    7.10
 -16  -8  -3   66.29   10.10
 -24   9  -3   56.79    8.40
 -24  15   3   33.20    8.70
  15 -24  -3   50.39   20.50
  24  -9   3   74.69   16.90
 -15  -9  -3   45.10   11.80
  -9 -15   3   63.69   16.70
 -15  24   3   40.20    7.10
  -9  24  -3   47.60    7.50
 -15  -9  -3   49.90    8.20
  24 -15  -3    9.70   16.30
  14 -24  -3  148.79   27.40
 -24  10  -3   98.09   10.00
 -24  14   3  100.19   11.60
 -10  24  -3  116.29   10.40
 -10 -14   3   73.79   15.80
 -14  24   3  109.19   10.00
  24 -10   3  161.78   24.50
 -14 -10  -3  126.09   11.60
 -14 -10  -3  111.59   17.00
 -24  13   3    6.30    7.10
  11  13  -3    7.60    8.60
 -24  11  -3    2.00    5.40
  13 -24  -3   29.00   19.70
  24 -11   3   41.50   16.60
 -11  24  -3   12.20    5.80
  24 -13  -3  -28.30   13.60
 -13 -11  -3   -4.10   10.10
 -13  24   3    4.10    5.60
  12  12  -3   89.79   13.00
 -24  12  -3   70.79    8.50
 -24  12   3   71.89   10.90
  12 -24  -3   91.89   21.80
  24 -12  -3   57.49   16.80
  24 -12   3  134.79   25.40
 -12 -12  -3   63.39   13.40
 -12  24  -3   79.89    9.30
 -12  24   3   73.59    9.20
  11 -24  -3   10.90   19.50
  13  11  -3   14.30    8.30
 -24  13  -3    3.50    5.40
 -24  11   3    4.90    8.20
 -11  24   3    4.70    6.10
  24 -13   3   45.10   19.10
 -13 -11   3  -29.70   10.50
 -11 -13  -3    0.50   10.80
  24 -11  -3    2.10   13.90
 -13  24  -3    5.30    5.90
 -24  10   3   51.39    9.70
 -24  14  -3   58.09    8.40
  10 -24  -3   63.19   21.10
  14  10  -3   63.09   11.70
  24 -14   3   98.29   22.70
 -10  24   3   45.10    7.20
 -14 -10   3   15.00   12.30
 -14  24  -3   73.99    9.70
 -10 -14  -3   63.69   14.20
  24 -10  -3   39.80   16.10
 -24  15  -3    3.10    5.60
   9  15   3   -5.60    6.10
  15   9  -3    3.40    8.30
   9 -24  -3   18.00   18.80
 -24   9   3    0.60    7.90
  -9 -15  -3    2.40   12.50
  24  -9  -3    0.20   14.00
  24 -15   3   40.90   21.40
  -9  24   3    5.20    5.90
 -15  24  -3   13.10    6.30
 -15  -9   3   -7.10   10.30
   8 -24  -3   54.19   21.50
  16   8  -3   40.50   10.60
   8  16   3   22.10    7.10
 -24   8   3   39.50    9.30
 -24  16  -3   49.99    7.30
  -8 -16  -3   54.99   15.00
  24  -8  -3   22.40   14.50
  24 -16   3  105.99   24.00
  -8  24   3   42.90    7.00
 -16  -8   3    8.70   10.80
 -16  24  -3   51.09    7.70
 -24   7   3    2.10    8.30
  17   7  -3   -4.50    9.00
   7  17   3    0.90    6.30
 -24  17  -3   -4.40    5.20
   7 -24  -3    9.20   18.50
  -7 -17  -3   -2.80   12.90
 -17  -7   3   -5.00   10.10
 -17  24  -3    1.80    5.90
  24  -7  -3   -1.80   13.80
  -7  24   3    2.70    5.90
   0   0  -4   49.60    9.60
   0   0  -4   45.20    5.60
   0   0   4   46.40   13.30
   0   1  -4   20.60    5.90
   1  -1  -4   11.60    3.90
  -1   1   4    9.30   12.80
  -1   0  -4   13.90    6.00
  -1   0  -4   12.60    3.80
   0  -1   4   20.80   13.10
   1  -1  -4   20.10    8.00
   0   1  -4   10.20    3.80
   1   0   4   16.70   11.70
   0  -1  -4   76.29    6.60
  -1   1  -4   84.69    7.80
   1  -1   4   77.19   14.70
  -1   1  -4   83.29    6.70
   1   0  -4   76.39    6.30
   1   0  -4   87.99   10.60
  -1   0   4   87.59   16.60
   0  -1  -4   78.29   11.20
   0   1   4   63.29   13.70
   0  -2   4 1558.94   66.19
   0   2  -4 1593.34   59.39
   2   0   4 1413.16   63.29
   0   2  -4 1472.45   58.79
  -2   0  -4 1494.15   58.99
  -2   0  -4 1453.25   60.09
   2  -2  -4 1586.24   62.49
   2  -2  -4 1586.74   59.09
   1  -2   4   14.20   13.40
   1  -2  -4    4.90    3.60
   1   1   4    5.80   11.10
   1  -2  -4   12.10    8.20
  -2   1  -4    3.80    3.60
  -2   1   4    7.10   14.10
   1   1  -4    7.90    5.70
  -2   1  -4    3.20    3.80
   1   1  -4    6.80    3.60
  -1  -1  -4    3.10    6.90
   2  -1  -4    2.00    7.40
   2  -1  -4    4.20    3.60
  -1   2  -4    7.10    3.30
  -1   2  -4    5.50    3.50
  -1  -1   4   16.50   14.50
  -1   2   4   15.60   13.20
  -1  -1  -4    5.10    3.70
   2  -1   4    8.40   11.00
  -2   2  -4   48.60    6.00
   2   0  -4   49.20    8.20
   0  -2  -4   49.50    9.90
  -2   0   4   65.79   16.50
   2  -2   4   53.99   13.20
   0  -2  -4   53.49    6.10
   2   0  -4   53.79    5.60
   0   2   4   44.90   12.30
   0   3  -4 1347.47   52.69
   3  -3  -4 1365.96   56.79
  -3   3   4 1372.66   60.39
   3  -3  -4 1298.37   52.79
   0  -3   4 1313.77   60.99
  -3   0  -4 1356.36   52.89
   0   3  -4 1406.56   52.79
  -3   0  -4 1312.57   53.69
   3   0   4 1426.46   57.29
  -3   1  -4   -0.10    3.00
   2  -3  -4   -2.20    3.50
   1  -3   4   14.50   13.50
  -3   1  -4   -2.70    3.50
   2  -3  -4   -1.30   10.60
   1   2  -4    1.50    3.20
  -3   2   4    6.00   13.40
   2   1   4   -2.30    9.90
   1   2  -4    2.40    5.00
  -1   3  -4    8.90    3.70
   3  -1   4  -10.10    9.10
   3  -2  -4   -4.90    7.80
  -2   3   4   18.00   13.80
  -2  -1  -4    7.70    6.60
   3  -2  -4   -2.70    3.30
  -2  -1  -4    3.00    3.60
  -1  -2   4   16.70   15.60
   1  -3  -4  557.94   23.70
  -3   2  -4  554.34   23.70
   2   1  -4  562.44   25.40
   1  -3  -4  583.34   28.80
   2   1  -4  568.44   23.50
  -3   1   4  623.94   33.70
   2  -3   4  584.44   31.90
   1   2   4  574.24   29.60
   3  -1  -4  557.34   23.50
   3  -2   4  585.34   30.00
  -1   3   4  628.14   31.70
  -1  -2  -4  561.64   23.90
  -2   3  -4  576.24   23.60
  -1  -2  -4  571.24   27.70
  -2  -1   4  588.04   34.70
   3  -1  -4  536.75   26.80
   0  -3  -4  137.79    8.70
   3   0  -4  133.09    8.00
   3  -3   4  113.69   17.80
   0  -3  -4  148.99   15.90
   3   0  -4  131.19   12.00
  -3   0   4  175.38   23.20
  -3   3  -4  141.89    8.30
   0   3   4  158.58   18.30
   0   4  -4 1464.95   52.69
   0  -4   4 1388.66   62.39
   0   4  -4 1312.27   52.79
   4  -4  -4 1346.27   58.19
   4  -4  -4 1354.36   52.99
  -4   0  -4 1297.37   53.69
  -4   0  -4 1388.46   53.19
  -4   4   4 1313.27   59.69
  -4   1  -4   43.80    6.00
  -4   3   4   49.50   16.30
   3   1   4   35.10   10.60
   1   3  -4   37.20    7.10
   3  -4  -4   41.00   11.30
   1  -4   4   42.10   16.00
  -4   1  -4   36.40    5.40
   3  -4  -4   36.40    4.80
   1   3  -4   40.70    5.40
   4  -3  -4   36.30    4.70
  -3  -1  -4   32.90    4.90
  -1  -3   4   32.00   17.70
   4  -3  -4   39.60    9.60
  -1   4  -4   47.90    6.20
  -3  -1  -4   49.10    7.80
   4  -1   4   35.80   11.10
  -3   4   4   35.10   13.70
   2   2  -4  303.57   15.50
   2  -4  -4  294.77   14.00
  -4   2  -4  298.17   13.90
   2  -4   4  304.27   25.30
   2   2   4  323.37   19.80
   2  -4  -4  312.77   21.50
  -4   2   4  310.97   26.10
   2   2  -4  306.47   13.60
  -2   4   4  313.97   24.00
   4  -2  -4  294.97   13.90
  -2  -2   4  305.57   27.90
  -2  -2  -4  296.77   14.20
   4  -2   4  289.27   20.50
  -2  -2  -4  283.37   18.30
   4  -2  -4  293.67   18.60
  -2   4  -4  291.37   13.80
   1  -4  -4   -0.50    3.80
   1  -4  -4   -2.90   10.10
  -4   3  -4    1.90    3.70
   3  -4   4    5.20   12.10
   1   3   4  -14.00    8.90
   3   1  -4   -5.80    5.90
   3   1  -4    1.60    3.50
  -4   1   4    9.90   15.60
  -1   4   4    1.00   10.60
  -1  -3  -4   -2.30    3.80
   4  -3   4   -7.30   10.70
  -3   4  -4    0.10    3.80
  -3  -1   4   -0.70   15.70
   4  -1  -4    1.00    3.30
  -1  -3  -4   11.70   10.10
   4   0  -4  164.18   13.20
   4   0  -4  168.68    9.40
   0   4   4  170.98   18.00
   0  -4  -4  182.38   18.10
   4  -4   4  170.88   18.90
  -4   0   4  174.68   25.20
  -4   4  -4  174.28    9.70
   0  -4  -4  182.38    9.90
  -5   0  -4 2647.14  104.39
  -5   0  -4 2677.83  104.69
  -5   0  -4 2610.74  105.29
  -5   5   4 2827.82  110.79
   0   5  -4 2748.82  104.39
   5  -5  -4 2725.83  104.59
   5  -5  -4 2820.22  110.09
   0   5  -4 2683.23  104.09
   0  -5   4 2900.31  112.79
   4  -5  -4    0.80   12.60
   1  -5   4    2.20   16.90
  -5   4   4   19.30   14.50
   4  -5  -4    4.90    3.90
  -5   1  -4   -0.20    3.90
   1   4  -4    8.60    3.70
  -5   1  -4    4.30    3.70
   1   4  -4   -2.90    4.10
  -5   1  -4   11.20    3.60
   5  -4  -4   -0.80    3.50
  -4  -1  -4   -0.60    3.90
  -4   5   4   28.60   14.40
  -1  -4   4   21.30   18.40
  -1   5  -4    5.30    3.90
   5  -4  -4   -0.50    9.40
  -4  -1  -4    7.30    6.20
  -5   2  -4 1300.17   51.79
   3   2   4 1262.47   55.29
   2   3  -4 1295.17   51.59
   3  -5  -4 1345.07   57.99
  -5   3   4 1377.26   60.59
   2  -5   4 1402.06   60.19
   2   3  -4 1330.67   52.39
   3  -5  -4 1296.97   51.89
  -3  -2  -4 1319.67   54.99
  -2   5  -4 1302.97   51.69
  -3   5   4 1375.76   58.29
  -2  -3   4 1368.36   61.79
   5  -3  -4 1317.17   55.59
  -3  -2  -4 1280.57   51.89
   5  -3  -4 1357.46   51.79
   3  -5   4   27.80   15.30
   2   3   4    6.40   10.90
   3   2  -4    2.30    5.40
   2  -5  -4    7.60   11.80
  -5   3  -4   10.60    4.20
  -5   2   4   20.90   15.50
   3   2  -4    8.90    3.50
   2  -5  -4    7.60    4.20
  -3   5  -4    9.90    3.90
   5  -2  -4   -0.90    7.70
  -2  -3  -4   23.50   10.10
   5  -3   4    9.30   11.00
  -2  -3  -4   10.70    4.10
   5  -2  -4   13.00    4.00
   5  -3   4    9.50    1.60
  -2   5   4    8.70   12.40
  -3  -2   4    9.40   17.40
   4   1  -4  475.15   23.60
   1  -5  -4  476.55   21.60
   1  -5  -4  481.25   28.40
   4  -5   4  505.15   29.50
  -5   4  -4  539.95   21.60
   4   1  -4  506.55   21.00
   1   4   4  500.85   26.70
  -5   1   4  494.65   33.40
   5  -1  -4  494.45   20.90
  -4   5  -4  520.65   21.30
  -1  -4  -4  517.95   21.60
  -1  -4  -4  495.15   27.90
   5  -1  -4  522.45   24.90
   5  -4   4  482.75   27.90
  -4  -1   4  521.25   34.90
  -1   5   4  518.45   28.20
   5   0  -4  192.08   14.60
   5  -5   4  188.78   19.70
   0  -5  -4  223.08   20.60
   5   0  -4  219.28   10.90
  -5   0   4  235.78   26.90
   0   5   4  229.38   18.80
  -5   5  -4  217.18   11.20
   0  -5  -4  234.28   11.70
   0   6  -4  267.27   11.90
  -6   6   4  264.47   24.40
   6  -6  -4  256.87   23.40
   0   6  -4  252.07   12.20
   6  -6  -4  245.68   12.60
   0  -6   4  273.57   30.30
  -6   0  -4  247.28   12.00
  -6   0  -4  265.57   12.80
  -6   0  -4  243.68   13.70
   1  -6   4  227.28   27.70
  -6   1  -4  184.68    9.90
  -6   1  -4  184.28   10.50
  -6   5   4  218.38   24.50
   1   5  -4  193.28   10.30
   5  -6  -4  193.58   10.70
  -6   1  -4  193.48   10.90
   1   5  -4  190.38   10.20
   5  -6  -4  195.38   20.20
  -1   6  -4  198.68   10.30
  -5  -1  -4  192.38    9.70
  -1   6  -4  196.88    9.10
  -5  -1  -4  186.78   13.20
  -5  -1  -4  208.28   11.30
   6  -5  -4  193.58   19.30
  -5   6   4  213.98   21.80
   6  -5  -4  198.68   10.50
  -1  -5   4  182.28   28.40
   2   4  -4  849.72   34.20
   4  -6  -4  847.32   42.30
   4  -6  -4  840.02   34.00
  -6   4   4  815.32   43.90
  -6   2  -4  894.11   34.20
  -6   2  -4  852.61   33.70
   2   4  -4  864.71   33.70
   2  -6   4  783.32   43.70
  -2   6  -4  802.12   33.50
  -2  -4   4  879.11   46.30
  -4  -2  -4  835.42   33.40
   6  -4  -4  801.02   33.60
   6  -4  -4  820.32   38.60
  -4  -2  -4  839.62   36.90
  -4   6   4  895.41   41.60
  -4  -2  -4  849.72   34.10
  -6   3  -4  349.07   15.20
   3  -6  -4  318.07   15.50
   3  -6   4  350.36   27.60
  -6   3   4  352.06   28.00
  -6   3  -4  331.57   15.40
   3  -6  -4  328.07   24.30
   3   3  -4  335.77   16.50
   3   3  -4  338.37   15.20
  -3   6  -4  347.57   15.40
   6  -3   4  347.87   14.00
  -3  -3  -4  337.17   20.20
  -3  -3  -4  322.27   15.60
   6  -3  -4  315.87   14.90
  -3   6   4  369.26   24.40
  -3  -3   4  337.77   31.40
  -6   2   4   66.19   18.90
   2  -6  -4   72.19    7.30
   4   2  -4   62.69    6.00
   4  -6   4   70.19   15.40
   2   4   4   71.19   11.60
  -6   4  -4   65.79    6.70
   2  -6  -4   71.39   14.50
  -2   6   4  117.39   18.00
   6  -2  -4   73.99    6.40
   6  -2  -4   70.79   11.20
  -4   6  -4   78.39    6.80
  -2  -4  -4   80.59   13.00
  -2  -4  -4   76.89    7.40
  -4  -2   4   60.79   20.70
  -6   1   4    8.40   17.60
   1  -6  -4   -1.30   12.20
   5  -6   4    9.60   12.10
   1  -6  -4    9.30    4.60
   5   1  -4    8.10    6.90
  -6   5  -4   13.80    4.40
   5   1  -4   15.90    4.00
   1   5   4   16.60    9.50
  -5  -1   4   27.30   18.50
   6  -1  -4   19.00    8.70
   6  -5   4    5.90   12.00
   6  -1  -4   12.10    3.70
  -5   6  -4   13.40    4.30
  -1   6   4   38.40   11.60
  -1  -5  -4   10.20    4.70
   6  -6   4   -6.70   12.20
  -6   6  -4    5.90    4.30
   6   0  -4    0.80    7.30
   0  -6  -4    2.40    4.40
   6   0  -4    3.20    3.60
  -6   0   4   -5.30   17.20
   0  -6  -4    0.40   12.80
   0  -7   4 2808.42  113.99
  -7   0  -4 2737.73  103.89
   0   7  -4 2746.53  103.69
  -7   7   4 2682.13  110.79
  -7   0  -4 2722.73  104.09
   7  -7  -4 2765.82  110.49
  -7   0  -4 2671.93  105.19
   7  -7  -4 2716.53  104.09
   0   7  -4 2611.54  103.79
   1   6  -4  205.28   10.60
   1   6  -4  205.68   10.20
  -7   6   4  198.18   20.70
  -7   1  -4  187.98   11.40
  -7   1  -4  198.38   10.90
   6  -7  -4  190.58   21.50
  -7   1  -4  204.48   10.20
   6  -7  -4  207.48   10.70
   1  -7   4  187.58   29.20
   7  -6  -4  196.48   19.20
  -6  -1  -4  173.08   13.20
  -1  -6   4  213.88   29.20
  -6  -1  -4  199.08    9.90
  -1   7  -4  198.38    9.40
  -6  -1  -4  175.98   10.70
  -6   7   4  190.18   21.30
   7  -6  -4  187.78   10.90
  -1   7  -4  189.68   10.50
   2   5  -4 1574.84   60.19
   2  -7   4 1596.34   69.59
   5  -7  -4 1538.85   59.99
  -7   2  -4 1574.14   59.99
   2   5  -4 1550.34   59.69
  -7   2  -4 1506.15   59.69
  -7   5   4 1575.74   67.79
   5  -7  -4 1592.74   67.09
  -2  -5   4 1518.75   71.09
  -5   7   4 1581.64   65.89
  -2   7  -4 1513.85   59.69
   7  -5  -4 1520.55   65.39
   7  -5  -4 1499.65   59.69
  -5  -2  -4 1527.95   59.49
  -2   7  -4 1515.05   58.49
  -5  -2  -4 1522.05   60.09
  -5  -2  -4 1488.15   62.59
   3  -7   4   22.60   16.30
   4  -7  -4    9.70    4.40
  -7   3  -4   14.60    4.00
   4  -7  -4    1.50   15.10
   3   4  -4   12.50    3.80
  -7   3  -4    5.10    4.20
   3   4  -4   11.10    4.90
  -7   4   4   16.60   16.40
   7  -4  -4    8.30    4.00
  -3   7  -4   11.70    4.40
  -4  -3  -4   13.10    3.70
   7  -3   4   12.70    3.40
  -4  -3  -4    6.50    4.50
  -3  -4   4   14.90   19.70
   7  -4  -4    0.30   10.10
  -4  -3  -4    0.30    8.70
  -4   7   4   43.80   13.10
  -7   3   4  934.21   48.70
   3  -7  -4 1027.40   39.90
   4  -7   4  997.80   48.50
   3  -7  -4  974.90   47.80
   4   3  -4 1005.90   39.30
  -7   4  -4 1061.39   39.70
  -7   4  -4  968.40   39.60
  -3  -4  -4 1002.70   39.90
   7  -3  -4 1003.90   39.40
  -3  -4  -4 1000.10   45.40
  -4  -3   4  969.10   51.39
   7  -3  -4  992.80   43.60
   7  -4   4 1002.70   38.70
  -4   7  -4  984.20   39.60
  -7   5  -4   51.49    6.70
   5   2  -4   50.89    9.30
   5   2  -4   49.10    6.20
  -7   2   4   50.89   18.30
   2  -7  -4   53.79    7.00
   5  -7   4   51.69   15.10
   2   5   4   21.40   10.10
   2  -7  -4   51.79   15.60
  -2  -5  -4   50.59    7.00
   7  -2  -4   55.79   10.20
  -2   7   4   65.69   13.50
  -2  -5  -4   55.29   13.10
   7  -2  -4   49.10    5.90
  -5  -2   4   35.80   20.10
  -5   7  -4   60.19    6.70
   1  -7  -4   87.49   16.60
   6   1  -4   97.69    6.70
  -7   1   4   85.79   20.30
   1  -7  -4  110.19    8.40
   1   6   4   81.59   12.00
  -7   6  -4  108.09    7.90
   6  -7   4  107.39   16.00
  -1  -6  -4  106.19    8.50
  -6   7  -4  103.49    7.80
  -1  -6  -4   92.49   16.10
   7  -1  -4   91.09   13.20
  -1   7   4  124.49   20.30
   7  -6   4  100.49   14.00
  -6  -1   4   85.59   22.20
   0  -7  -4  119.59   18.90
  -7   0   4   84.39   21.40
   7   0  -4  118.19    8.70
   0   7   4  173.18   15.80
   7   0  -4  132.29   13.40
  -7   7  -4  123.59    8.50
   0  -7  -4  114.49    9.00
   7  -7   4  111.59   15.90
   0   8  -4   91.19    7.60
   0   8  -4  102.49    7.20
  -8   0  -4   95.19    9.70
   8  -8  -4   81.59    7.70
   0  -8   4  131.49   24.20
   8  -8  -4   83.29   17.30
  -8   0  -4   93.69    7.50
  -8   0  -4   85.49    8.00
  -8   8   4   75.99   17.80
   7  -8  -4  582.84   23.90
   1   7  -4  573.44   23.60
  -8   1  -4  538.25   23.70
   1   7  -4  561.94   23.40
  -8   7   4  542.75   31.80
  -8   1  -4  556.74   23.50
   1  -8   4  634.84   39.90
  -8   1  -4  552.24   24.60
   7  -8  -4  541.25   33.00
  -1   8  -4  554.54   23.60
  -1  -7   4  577.04   40.00
  -7  -1  -4  566.64   23.70
   8  -7  -4  593.34   31.60
  -1   8  -4  574.84   22.90
  -7  -1  -4  573.84   23.40
  -7   8   4  534.75   30.20
  -7  -1  -4  542.85   25.90
   8  -7  -4  547.45   23.60
  -8   2  -4  279.67   13.70
   6  -8  -4  259.97   26.00
   2   6  -4  260.77   12.80
   6  -8  -4  267.77   13.50
   2   6  -4  278.77   13.60
  -8   2  -4  274.97   13.00
   2  -8   4  284.57   30.30
  -8   6   4  274.37   24.40
  -6   8   4  307.47   21.90
   8  -6  -4  275.17   13.30
   8  -6  -4  241.38   21.80
  -2   8  -4  290.67   11.80
  -6  -2  -4  266.57   12.60
  -2  -6   4  264.57   31.80
  -6  -2  -4  267.47   13.50
  -2   8  -4  265.87   13.20
  -6  -2  -4  271.97   17.20
   5  -8  -4  214.58   24.60
   3   5  -4  237.48   11.60
   3   5  -4  232.58   12.70
  -8   3  -4  243.08   11.80
  -8   5   4  252.77   22.70
   5  -8  -4  228.58   12.80
  -8   3  -4  235.48   12.10
   3  -8   4  250.67   27.70
  -3  -5   4  254.97   30.90
  -5  -3  -4  220.28   20.60
   8  -5  -4  223.18   11.80
  -5  -3  -4  236.58   12.60
  -3   8  -4  240.08   12.10
   8  -3   4  257.97   11.80
   8  -5  -4  225.08   20.20
  -5  -3  -4  229.68   11.20
   4  -8  -4  289.47   25.50
   4  -8   4  283.27   27.70
  -8   4   4  255.87   24.50
  -8   4  -4  275.37   13.10
   4   4  -4  280.27   14.70
   4   4  -4  264.87   12.80
  -8   4  -4  273.97   13.40
   4  -8  -4  268.37   13.80
  -4  -4  -4  281.27   12.60
  -4  -4   4  272.57   31.40
  -4   8  -4  280.57   13.80
   8  -4   4  287.77   12.80
   8  -4  -4  270.57   13.00
  -4  -4  -4  270.07   20.70
  -4  -4  -4  266.27   13.70
   8  -4  -4  260.87   19.60
  -4   8   4  303.47   22.40
  -8   3   4   91.69   18.30
   5   3  -4  106.19    7.60
   5  -8   4   99.09   18.10
  -8   5  -4  117.19    7.80
   3  -8  -4  116.19    8.70
   3  -8  -4  109.39   21.40
   5   3  -4  109.99    9.50
  -8   5  -4  108.99    8.30
  -5   8  -4  120.09    8.40
  -3   8   4  149.79   18.80
  -5  -3   4  101.79   23.00
  -3  -5  -4   99.89    8.40
   8  -3  -4  100.09    7.40
  -3  -5  -4  103.09   18.10
   8  -3  -4  113.19   14.90
   6   2  -4    3.30    3.50
   6   2  -4    0.00    6.40
   2  -8  -4   -2.00    4.40
   6  -8   4   -5.30   12.90
   2  -8  -4   -6.60   14.90
  -8   6  -4    2.50    4.60
  -8   2   4  -12.00   15.90
  -8   6  -4    3.40    3.90
  -2  -6  -4    5.50    4.60
  -6  -2   4   12.80   20.00
   8  -2  -4   -0.30    8.80
  -6   8  -4    4.40    4.30
  -2   8   4   15.10   11.60
   8  -2  -4    0.80    3.70
  -2  -6  -4    6.40   11.60
   7  -8   4   -9.40   13.10
   7   1  -4    8.30    7.20
   1  -8  -4   -4.80   13.60
  -8   1   4    1.40   17.10
   1  -8  -4    4.20    4.80
  -8   7  -4    7.30    4.40
  -7   8  -4   12.30    4.70
  -1  -7  -4    3.70    4.90
  -1  -7  -4   -3.90   14.60
  -1   8   4   38.80   11.20
   8  -1  -4    9.00    3.70
   8  -1  -4    2.40    8.20
  -7  -1   4   25.10   19.00
  -8   0   4  136.69   21.30
   8   0  -4  147.19   13.60
  -8   8  -4  141.39    9.10
   0  -8  -4  134.29   21.60
   8   0  -4  131.89    8.30
   0  -8  -4  137.59    9.80
   8  -8   4  114.09   16.90
  -9   9   4  170.68   17.40
  -9   0  -4  187.48   13.10
   9  -9  -4  184.88   10.60
   0  -9   4  205.68   31.80
   9  -9  -4  193.88   23.30
  -9   0  -4  178.38   10.90
  -9   0  -4  183.98   10.10
   0   9  -4  186.28   10.80
   1   8  -4  157.38   11.70
   8  -9  -4  156.98   22.40
  -9   1  -4  166.68   11.10
  -9   1  -4  163.18   10.30
   1   8  -4  169.48   10.00
  -9   8   4  151.78   18.10
   1  -9   4  196.88   31.00
   8  -9  -4  153.78   10.20
  -9   1  -4  161.18    9.40
  -8  -1  -4  160.68   10.60
   9  -8  -4  161.78   10.10
   9  -8  -4  135.39   20.80
  -1  -8   4  179.68   26.70
  -8  -1  -4  154.98   12.50
  -8   9   4  146.69   16.90
  -1   9  -4  158.68   10.20
  -8  -1  -4  165.08    9.20
   7  -9  -4 1527.95   68.39
   2   7  -4 1548.15   60.19
  -9   2  -4 1528.05   59.99
   2   7  -4 1512.65   59.69
  -9   2  -4 1500.95   59.89
  -9   7   4 1561.54   66.09
   7  -9  -4 1530.95   60.09
   2  -9   4 1563.74   71.99
  -7   9   4 1576.94   64.19
  -7  -2  -4 1485.45   59.59
  -7  -2  -4 1513.15   59.99
   9  -7  -4 1491.65   59.69
   9  -7  -4 1569.44   66.39
  -2   9  -4 1547.25   59.89
  -7  -2  -4 1551.54   62.89
  -2  -7   4 1623.74   72.69
   6  -9  -4   74.69    7.90
   3   6  -4   83.79    8.40
  -9   3  -4   86.09    7.20
   6  -9  -4   79.39   19.50
  -9   6   4   73.79   15.30
   3  -9   4   73.19   21.60
  -9   3  -4   66.09    8.20
   3   6  -4   86.59    7.30
  -6  -3  -4   84.69    6.30
  -6   9   4   67.09   17.10
  -3   9  -4   87.49    7.70
  -6  -3  -4   76.09    7.70
   9  -6  -4   63.49   14.60
  -6  -3  -4   86.29   13.30
   9  -3   4   70.79    7.50
  -3  -6   4   56.39   22.60
   9  -6  -4   82.79    7.40
  -9   4  -4  641.24   25.60
  -9   4  -4  614.84   25.60
   4   5  -4  622.44   26.80
  -9   5   4  546.85   35.40
   4  -9   4  600.14   37.90
   4   5  -4  592.14   25.10
   5  -9  -4  593.84   25.80
   5  -9  -4  611.74   36.40
   9  -5  -4  611.84   25.30
  -5   9   4  620.54   31.40
  -4   9  -4  629.14   25.70
  -5  -4  -4  619.04   31.40
  -5  -4  -4  612.34   25.90
   9  -4   4  633.14   25.70
   9  -5  -4  606.54   31.60
  -5  -4  -4  607.04   24.90
  -4  -5   4  631.54   41.20
   5  -9   4   31.90   17.20
  -9   5  -4    1.10    4.20
  -9   4   4   -5.50   15.70
  -9   5  -4    8.20    4.50
   4  -9  -4    7.00   15.50
   5   4  -4    4.30    3.90
   4  -9  -4    1.70    4.70
  -4  -5  -4    9.50   10.90
  -5  -4   4  -11.40   19.30
  -5   9  -4    7.30    4.50
  -4  -5  -4    3.90    3.20
   9  -4  -4   -7.80   10.90
   9  -4  -4    0.90    3.50
  -4   9   4   14.70   11.00
   9  -5   4   -0.90    4.00
  -4  -5  -4    5.50    4.50
   3  -9  -4  177.28   24.80
   6  -9   4  205.78   23.10
  -9   6  -4  200.38   11.70
   3  -9  -4  209.68   11.70
  -9   3   4  182.88   24.40
   6   3  -4  211.28   10.60
   6   3  -4  210.08   13.40
  -9   6  -4  210.18   11.00
  -3   9   4  246.08   19.70
  -6   9  -4  209.88   11.90
  -3  -6  -4  212.68   11.70
  -6  -3   4  197.48   30.40
  -3  -6  -4  193.68   20.50
   9  -3  -4  193.78   17.50
   2  -9  -4   16.70   16.20
   2  -9  -4   22.40    5.30
   7   2  -4   21.40    4.30
   7   2  -4   27.90    8.00
  -9   7  -4   24.70    4.90
  -9   7  -4   26.00    4.90
  -9   2   4   15.80   17.60
   7  -9   4   19.50   14.70
  -2   9   4   36.00   11.10
  -7  -2   4   27.90   19.90
   9  -2  -4    5.90    9.40
   9  -2  -4   17.60    4.00
  -2  -7  -4   23.00    5.20
  -7   9  -4   19.10    5.10
  -2  -7  -4   17.90   13.10
  -9   1   4    8.90   17.20
   8   1  -4   32.20    8.90
   1  -9  -4   22.20   16.30
   8  -9   4    8.30   14.00
  -9   8  -4   28.80    5.10
   1   8   4    4.40    9.00
   8   1  -4   23.60    4.30
   1  -9  -4   24.90    5.60
  -1   9   4   49.10   11.60
   9  -1  -4   28.40    4.30
  -1  -8  -4    4.80   15.10
  -1  -8  -4   31.20    5.80
  -8   9  -4   34.00    5.40
  -8  -1   4   12.50   18.90
   9  -1  -4   30.80   10.10
   9  -9   4  143.39   20.10
  -9   9  -4  139.49    9.80
   9   0  -4  144.99    8.80
   0  -9  -4  134.99   23.00
   0  -9  -4  159.18   10.30
  -9   0   4  136.19   21.40
   9   0  -4  165.28   14.10
   0   9   4  176.18   16.70
 -10   0  -4    5.80    4.00
   0  10  -4    9.20    4.60
 -10   0  -4    6.10    4.40
 -10   0  -4    2.60    6.20
  10 -10  -4    2.10   14.70
   0 -10   4    9.40   20.80
 -10  10   4   14.80    8.50
   0 -10   4    1.60    5.30
   1 -10   4   93.09   24.00
   1   9  -4  111.99    8.20
   9 -10  -4  113.99   21.80
 -10   1  -4  115.19    9.00
 -10   1  -4  115.79    8.10
 -10   9   4  105.29   16.40
  -1  10  -4  107.29    8.80
  -9  10   4  116.19   14.30
  10  -9  -4  123.09    8.20
  10  -9  -4  102.49   17.40
  -9  -1  -4  107.89    8.50
  -9  -1  -4  102.09   11.80
  -9  -1  -4  122.19    7.90
  -1  -9   4  105.39   24.60
   2   8  -4  169.38   10.50
 -10   2  -4  152.08    9.20
 -10   8   4  136.29   18.20
   2 -10   4  148.69   25.80
   2 -10   4  159.98   10.20
   8 -10  -4  152.88   10.40
   8 -10  -4  134.59   23.00
   2   8  -4  147.29    9.30
 -10   2  -4  165.18   10.40
  -8  -2  -4  162.48   13.30
  10  -8  -4  154.08    9.30
  10  -2   4  172.38   10.50
  -8  10   4  176.68   15.70
  -8  -2  -4  140.59    9.80
  -8  -2  -4  151.08    8.90
  -2  -8   4  177.48   25.70
  -2  10  -4  164.18   10.20
  10  -8  -4  120.79   20.10
 -10   3  -4  526.55   22.50
   3   7  -4  523.15   22.30
   3   7  -4  519.75   23.20
   7 -10  -4  502.55   34.60
 -10   3  -4  532.85   22.50
   7 -10  -4  533.35   22.90
   3 -10   4  483.25   38.60
 -10   7   4  511.15   30.40
   3 -10   4  559.14   22.40
  10  -7  -4  534.55   22.40
  -7  -3  -4  544.35   27.00
  -3  10  -4  526.15   22.50
  -7  -3  -4  529.75   22.70
  -7  -3  -4  530.95   22.00
  10  -3   4  541.15   23.20
  -3  -7   4  441.66   38.90
  10  -7  -4  492.75   30.50
  -7  10   4  506.35   26.70
 -10   6   4  154.08   21.50
   6 -10  -4  177.38   11.10
   4 -10   4  186.68   28.00
 -10   4  -4  186.38   10.30
   6 -10  -4  158.38   25.30
   4   6  -4  167.08   12.40
   4   6  -4  170.58    9.80
   4 -10   4  167.58    9.10
 -10   4  -4  176.28   10.00
  -6  -4  -4  163.68    9.30
  -6  10   4  178.78   16.30
  10  -6  -4  135.89   18.90
  -4  10  -4  166.78   10.40
  -4  -6   4  157.88   26.20
  -6  -4  -4  168.88   15.90
  10  -6  -4  168.18    9.70
  -6  -4  -4  173.38   10.80
 -10   5  -4  352.56   16.40
   5   5  -4  333.77   17.20
 -10   5   4  310.37   25.30
   5 -10  -4  327.07   29.70
   5 -10  -4  344.97   16.60
   5   5  -4  351.86   15.90
   5 -10   4  356.36   14.90
 -10   5  -4  337.97   16.00
   5 -10   4  411.86   31.40
  -5  -5  -4  352.66   15.50
  -5  -5  -4  350.66   24.20
  10  -5  -4  325.07   23.30
  10  -5   4  388.26   16.90
  -5  10   4  408.96   20.70
  10  -5  -4  347.87   15.70
  -5  10  -4  348.77   16.50
  -5  -5  -4  350.06   16.50
  -5  -5   4  304.57   34.40
   6   4  -4   -3.20    6.30
 -10   4   4  -15.50   13.90
   6   4  -4   -0.20    3.70
 -10   6  -4    4.20    4.50
   4 -10  -4   -0.60    5.00
   4 -10  -4   -5.70   16.60
 -10   6  -4   -0.30    4.40
   6 -10   4   -0.70   17.30
  -6  -4   4  -28.40   20.40
  -6  10  -4    1.20    4.60
  10  -4  -4   -3.30   10.40
  -4  -6  -4    0.40    3.30
  -4  -6  -4    1.90    4.70
  -4  10   4   12.70    9.50
  10  -4  -4    0.30    4.00
  -4  -6  -4  -17.00   11.20
   7 -10   4  152.18   22.30
   7   3  -4  147.69    8.90
 -10   3   4  145.39   19.80
   3 -10  -4  156.68   10.20
 -10   7  -4  154.28    9.20
   3 -10  -4  134.49   22.10
 -10   7  -4  154.08   10.30
   7   3  -4  140.69   12.00
  -3  -7  -4  136.29   10.50
  10  -3  -4  161.58    8.80
  -3  -7  -4  140.49   19.70
  10  -7   4  152.78   10.90
  10  -3  -4  164.08   16.60
  -7  10  -4  154.68   10.00
  -7  -3   4  136.79   23.80
  -3  10   4  176.48   16.40
   8 -10   4   91.89   17.20
   2 -10  -4  125.29    9.40
   2   8   4  108.79   12.10
 -10   8  -4  120.59    8.50
 -10   2   4  112.89   19.20
 -10   8  -4  118.59    9.40
   2 -10  -4  118.39   20.50
   8   2  -4  147.29   12.10
  -2  -8  -4  123.59   20.80
  -2  10   4  152.58   16.80
  -2  -8  -4  111.49    9.20
  10  -2  -4  124.99    7.90
  -8  -2   4  122.89   20.80
  -8  10  -4  122.59    9.00
  10  -2  -4  108.89   14.60
 -10   1   4   21.10   16.50
   1 -10  -4   31.80    5.70
   9   1  -4   33.90    8.90
   9   1  -4   30.80    4.40
 -10   9  -4   27.00    5.30
   1 -10  -4   47.00   17.70
   9 -10   4   25.10   14.20
  -9  -1   4   15.40   17.70
  -1  -9  -4   44.60   16.10
  10  -1  -4   39.60   10.40
  -1  -9  -4   35.60    5.90
  -9  10  -4   36.70    5.70
  -1  10   4   94.59   15.10
  10  -1  -4   34.90    4.40
   0 -10  -4  399.36   18.30
   0  10   4  432.96   22.60
  10   0  -4  375.26   21.70
   0 -10  -4  364.86   30.10
 -10   0   4  359.36   29.00
 -10  10  -4  414.26   18.30
  10   0  -4  400.06   17.10
 -11  11   4  440.16   19.00
   0 -11   4  403.46   35.10
 -11   0  -4  453.65   19.50
 -11  11   4  459.55   23.10
  11 -11  -4  419.56   30.30
   0  11  -4  433.96   19.30
   0 -11   4  443.46   21.30
 -11   0  -4  448.56   19.70
 -11   0  -4  436.46   21.30
   1  10  -4   27.40    4.90
 -11   1  -4   31.80    5.10
 -11   1  -4   27.20    5.00
  10 -11  -4   21.10   14.60
   1 -11   4   33.80    6.60
 -11  10   4   34.20    9.80
   1 -11   4    7.00   21.70
 -11  10   4   32.00    4.50
 -10  -1  -4   33.90    5.50
 -10  -1  -4   40.30    5.60
  -1 -10   4   29.10    6.60
 -10  11   4   31.80    4.50
  -1 -10   4   29.90   20.20
 -10  -1  -4   44.80    8.20
  -1  11  -4   38.40    5.40
 -10  11   4   47.80    9.20
  11 -10  -4   17.70   14.40
 -11   2  -4  389.46   17.90
 -11   2  -4  405.76   18.30
   9 -11  -4  411.86   30.20
 -11   9   4  410.16   24.50
   2   9  -4  394.56   17.90
   2 -11   4  367.46   35.10
   2 -11   4  380.66   20.70
  -2  -9   4  410.96   35.50
  -9  11   4  398.46   17.80
  -9  -2  -4  414.56   18.40
  11  -2   4  430.16   19.20
  -9  -2  -4  392.46   17.60
  -9  11   4  417.16   21.60
  -2  11  -4  403.66   18.20
  -9  -2  -4  403.26   21.80
  11  -9  -4  361.76   27.20
   3 -11   4  163.18   26.30
 -11   3  -4  194.98   10.80
 -11   3  -4  190.58   10.90
   3 -11   4  202.18   12.10
 -11   8   4  194.88   18.00
   8 -11  -4  168.58   25.30
   3   8  -4  196.88   10.90
   3   8  -4  194.48   11.70
  -3  11  -4  193.38   11.00
  11  -3   4  212.78   12.60
  -3  -8   4  202.18   30.40
  11  -8  -4  200.88   10.90
  -8  -3  -4  213.98   16.70
  -8  11   4  214.08   15.10
  -8  -3  -4  210.68   10.40
  11  -8  -4  149.39   20.50
  -8  -3  -4  191.28   11.50
   4   7  -4  190.78   10.50
   7 -11  -4  181.58   26.30
   4   7  -4  192.28   11.90
 -11   4  -4  203.38   10.70
 -11   4  -4  182.58   11.30
   4 -11   4  185.58   11.20
   4 -11   4  189.08   29.30
 -11   7   4  185.48   18.40
  -7  11   4  220.88   14.50
  -7  -4  -4  180.58   11.30
  11  -7  -4  149.09   20.10
  -4  -7   4  195.08   27.10
  -4  11  -4  177.78   10.90
  11  -4   4  186.58   12.00
  -7  -4  -4  188.58    9.80
  -7  -4  -4  191.18   17.30
  11  -7  -4  187.98   10.50
   5 -11   4   14.30    4.80
   5   6  -4   15.20    5.70
 -11   5  -4   19.30    4.80
 -11   6   4   13.80   12.40
   6 -11  -4   12.60   17.60
 -11   5  -4    8.30    4.80
   5 -11   4   11.30   18.00
   5   6  -4   20.60    4.40
  -6  -5  -4   17.80    5.30
  -5  -6   4   16.40   20.00
  -5  11  -4   13.40    5.00
  -6  -5  -4   27.50   10.60
  11  -6  -4   10.90   12.00
  -6  11   4   28.30    7.00
  -6  -5  -4   16.90    4.20
  11  -6  -4   15.90    4.30
 -11   5   4  388.36   26.90
   5 -11  -4  411.86   31.80
 -11   6  -4  403.26   18.30
 -11   6  -4  434.46   18.60
   6   5  -4  407.36   18.00
   5 -11  -4  430.66   18.70
   6   5  -4  421.16   20.30
   6 -11   4  361.16   31.20
  -6  -5   4  377.56   34.20
  -5  -6  -4  423.26   18.90
  11  -5  -4  391.06   17.80
  -5  -6  -4  402.96   25.70
  -5  -6  -4  392.06   17.50
  -5  11   4  439.36   20.30
  11  -5  -4  417.66   25.40
  -6  11  -4  399.96   18.70
   7   4  -4   23.90    4.30
 -11   7  -4   31.60    5.30
   7   4  -4   25.90    7.20
   4 -11  -4   11.60   17.80
 -11   4   4   15.40   13.70
   7 -11   4   23.20   16.10
 -11   7  -4   29.50    5.20
   4 -11  -4   26.50    5.60
  -4  -7  -4   27.10    4.10
  -4  -7  -4   34.50   13.40
  -4  -7  -4   22.00    5.30
  -7  -4   4   43.90   19.50
  -4  11   4   38.60    7.80
  11  -4  -4   32.20    4.40
  -7  11  -4   31.10    5.80
  11  -4  -4   28.20   12.20
 -11   8  -4    3.10    4.50
   3 -11  -4    7.30   17.10
 -11   3   4   -0.80   13.10
   3 -11  -4    7.00    4.90
   8   3  -4   -0.60    3.50
   8   3  -4    1.40    7.00
 -11   8  -4    6.40    4.40
   8 -11   4   -7.30   14.20
  -8  11  -4    6.20    4.70
  -8  -3   4  -18.20   16.40
  -3  -8  -4    0.00    4.50
  11  -3  -4    2.40    9.70
  11  -3  -4   -1.30    3.30
  -3  -8  -4   -2.40   12.70
 -11   9  -4   88.79    7.90
   9 -11   4   81.29   16.10
   2 -11  -4   92.69    8.50
   2 -11  -4  104.89   19.00
   9   2  -4   89.29    6.90
   9   2  -4  107.29   12.50
 -11   2   4   60.49   16.40
   2   9   4   72.29   11.60
 -11   9  -4   82.69    7.40
  -2  -9  -4   96.49    8.50
  11  -2  -4   83.49    6.60
  -9  11  -4   91.19    8.20
  -2  -9  -4   82.99   17.00
  11  -2  -4  113.19   15.90
  -9  -2   4   96.69   19.60
  10   1  -4   35.80    4.40
   1 -11  -4   42.50    5.80
  10   1  -4   40.20    9.40
 -11  10  -4   39.10    5.90
 -11   1   4   22.50   14.40
 -11  10  -4   39.60    6.20
   1 -11  -4   32.10   16.80
  10 -11   4   31.30   13.10
  -1 -10  -4   35.80    5.70
 -10  11  -4   46.50    5.90
  11  -1  -4   40.90    5.40
  11  -1  -4   39.60   10.10
  -1 -10  -4   13.80   14.30
 -10  -1   4   39.90   16.10
  11   0  -4   72.19   11.90
 -11   0   4   45.90   15.20
 -11  11  -4   72.29    8.00
   0 -11  -4   74.29   17.80
  11   0  -4   70.29    6.00
   0  12  -4   14.50    4.60
   0 -12   4   14.60    6.70
 -12  12   4   17.30    4.30
 -12   0  -4   17.50    4.50
   0 -12   4    1.20   19.10
 -12   0  -4   25.40    5.00
  12 -12  -4    1.20   14.50
 -12  11   4   19.20    4.20
   1 -12   4  -15.40   19.50
   1 -12   4    4.30    5.90
   1  11  -4    7.80    4.40
 -12   1  -4   16.20    4.60
 -12  11   4   19.60    8.00
  11 -12  -4    7.00   14.70
 -12   1  -4   16.90    4.80
  -1 -11   4    8.80    6.00
  -1  12  -4   14.60    4.30
  12 -11  -4   -4.80   13.50
 -11  12   4   21.80    4.40
 -11  -1  -4   16.40    4.80
  12  -1   4   36.50    6.50
 -11  -1  -4   10.40    6.90
  -1 -11   4   20.10   19.40
 -11  -1  -4   13.10    4.40
 -12  10   4  127.29    8.00
 -12   2  -4  117.89    8.90
   2  10  -4  114.39    8.50
   2 -12   4  125.49   23.80
 -12   2  -4  125.59    8.30
   2 -12   4  110.29   10.80
  10 -12  -4  100.49   18.90
 -12  10   4  121.89   14.20
  -2  12  -4  124.69    8.40
  -2 -10   4  120.79   10.40
  -2 -10   4  145.09   24.10
 -10  -2  -4  114.89    8.30
 -10  12   4  117.69    8.00
  12  -2   4  143.59   10.30
 -10  -2  -4  120.09    7.90
  12 -10  -4  102.09   17.40
 -10  -2  -4  114.69   11.40
 -12   3  -4  338.47   15.90
   3   9  -4  346.37   15.90
 -12   3  -4  333.77   16.10
   3 -12   4  344.67   33.60
 -12   9   4  310.87   21.50
   3 -12   4  370.76   17.90
   9 -12  -4  310.67   28.60
 -12   9   4  346.67   15.30
  -3  -9   4  273.87   31.90
  -9  12   4  341.17   15.50
  12  -9  -4  320.57   24.80
  -9  -3  -4  352.56   20.10
  -3  12  -4  316.67   15.70
  12  -3   4  390.56   17.70
  -9  -3  -4  343.27   16.10
  -9  -3  -4  351.46   15.60
   4   8  -4   72.39    6.90
   4   8  -4   82.49    8.50
 -12   8   4   74.19   12.70
   8 -12  -4   72.89   19.50
   4 -12   4  101.99   22.10
 -12   4  -4   79.09    6.90
   4 -12   4   66.19    9.10
 -12   4  -4   76.19    7.80
  -4  12  -4   82.49    7.40
  -8  -4  -4   78.29   12.50
  12  -4   4   66.59    9.00
  -8  -4  -4   72.49    8.00
  -8  12   4   67.99    6.80
  -8  -4  -4   68.69    6.60
  12  -8  -4   70.89   14.90
  -4  -8   4   54.79   22.70
   5   7  -4  101.19    7.30
 -12   5  -4   93.79    7.70
 -12   5  -4  109.89    8.10
   7 -12  -4   74.19   19.30
   5 -12   4  101.29    9.50
   5 -12   4  112.29   22.90
 -12   7   4   96.49   15.80
   5   7  -4   95.19    9.70
  -5  -7   4   82.69   22.50
  -7  12   4   78.89    7.50
  -7  -5  -4   97.99    7.00
  -7  -5  -4   98.39   15.70
  -7  -5  -4   82.29    8.40
  12  -5   4  132.29   10.10
  12  -7  -4  102.29   16.60
  -5  12  -4   97.39    8.10
   6   6  -4   13.50    4.10
 -12   6  -4   11.50    4.50
 -12   6   4    8.30   11.60
   6   6  -4    5.80    6.00
 -12   6  -4   12.40    4.60
   6 -12   4   16.70   17.80
   6 -12  -4   -1.10   16.70
  -6  -6   4   -4.00   17.90
  12  -6  -4   -4.80   11.60
  -6  -6  -4    8.50    3.60
  -6  -6  -4    4.20    4.60
  -6  -6  -4   12.80   11.10
  -6  12  -4   13.60    4.90
  12  -6  -4    8.20    3.60
  -6  12   4    6.40    4.30
   7   5  -4  346.27   14.90
   5 -12  -4  343.47   29.40
 -12   5   4  311.17   23.50
   7   5  -4  333.47   17.60
   7 -12   4  321.37   30.40
 -12   7  -4  340.07   15.80
 -12   7  -4  332.27   15.30
  -5  -7  -4  318.37   14.30
  -5  -7  -4  313.57   23.10
  -7  -5   4  325.77   30.10
  12  -7   4  264.47   16.90
  -7  12  -4  334.87   15.50
  12  -5  -4  332.77   22.10
  -5  12   4  326.57   15.30
  -5  -7  -4  312.17   15.50
   4 -12  -4  122.99   21.90
   8 -12   4  129.89   18.90
   8   4  -4  139.29    8.20
 -12   8  -4  135.59    9.00
 -12   4   4  113.79   17.90
 -12   8  -4  137.99    8.70
   8   4  -4  138.39   11.40
  -4  -8  -4  130.29    7.60
  12  -4  -4  124.99    7.70
  -8  12  -4  122.09    9.50
  -4  -8  -4  121.49    9.10
  -4  -8  -4  122.09   18.70
  12  -4  -4  141.39   16.40
  12  -8   4   95.79   13.40
  -8  -4   4  121.09   20.60
 -12   9  -4  147.59    9.40
   9   3  -4  142.39   12.20
 -12   9  -4  154.98    9.20
   3 -12  -4  134.79   23.20
 -12   3   4  151.08   18.80
   9 -12   4  125.39   18.10
  -3  -9  -4  147.49    9.80
  12  -3  -4  147.49   15.70
  -3  -9  -4  149.79   20.20
  -9  12  -4  160.08    9.80
  12  -3  -4  149.09    8.30
  -9  -3   4  126.29   20.50
 -12   2   4  336.07   25.30
  10   2  -4  384.26   16.20
  10   2  -4  363.26   19.90
 -12  10  -4  374.96   16.90
 -12  10  -4  391.36   17.00
  10 -12   4  352.46   26.50
   2 -12  -4  359.26   29.90
  12  -2  -4  373.86   22.00
  -2 -10  -4  376.86   27.70
 -10  -2   4  333.97   28.00
 -10  12  -4  365.66   17.00
  -2 -10  -4  365.26   17.10
  12  -2  -4  371.16   15.90
 -12  11  -4   98.89    7.80
  11 -12   4   98.99   15.40
 -12   1   4   77.99   15.60
  11   1  -4  113.39    6.90
 -12  11  -4  109.49    8.80
   1 -12  -4   82.19   18.40
  11   1  -4   99.09   11.80
 -11  -1   4   81.39   16.20
  -1 -11  -4  107.69   20.20
 -11  12  -4   91.49    8.20
  -1  12   4  100.19    8.10
  12  -1  -4  102.49   13.30
   0  12   4  711.53   28.10
 -12   0   4  597.34   35.60
 -12  12  -4  674.63   28.30
  12   0  -4  709.13   31.90
   0 -12  -4  663.33   38.80
   0 -13   4  -25.40   17.70
   0 -13   4    1.90    6.40
 -13  13   4    4.80    3.60
  13 -13  -4    0.60   14.30
   0  13  -4   -0.20    4.30
 -13   0  -4    0.40    4.30
 -13   0  -4    1.90    4.30
  12 -13  -4    3.90   11.80
   1  12  -4    9.30    4.20
   1 -13   4    7.80    6.90
 -13   1  -4   10.10    4.60
   1 -13   4  -23.00   17.20
 -13   1  -4    5.30    4.20
 -13  12   4    5.20    3.50
 -12  -1  -4    6.80    4.10
 -12  13   4    6.20    4.00
 -12  -1  -4    0.70    6.50
  -1  13  -4    2.70    4.20
  13 -12  -4  -10.30   13.60
  -1 -12   4    3.50    6.50
  -1 -12   4  -21.70   18.20
  13  -1   4   16.90    5.30
 -12  -1  -4    5.10    4.30
 -13  11   4   67.29    6.30
 -13  11   4   62.69   10.50
  11 -13  -4   40.80   15.50
   2 -13   4   35.30   20.40
 -13   2  -4   44.20    5.70
 -13   2  -4   50.99    6.40
   2 -13   4   51.29    8.20
   2  11  -4   50.19    6.70
 -11  -2  -4   58.59    6.80
 -11  -2  -4   54.89    6.50
  -2  13  -4   51.09    6.70
  -2 -11   4   40.30   19.60
  -2 -11   4   50.19    8.10
  13  -2   4   69.19    8.40
 -11  -2  -4   47.60    8.70
 -11  13   4   52.79    6.20
  13 -11  -4   45.20   14.20
   3  10  -4    0.40    3.80
 -13   3  -4    6.10    4.20
 -13  10   4    7.00    3.50
 -13  10   4    0.70    7.80
  10 -13  -4   -1.20   15.20
   3 -13   4    2.10   18.70
 -13   3  -4    3.30    4.00
   3 -13   4   -0.10    6.10
  13 -10  -4  -20.20   11.90
  -3 -10   4  -13.50   17.90
  13  -3   4    9.00    5.70
 -10  -3  -4    4.40    3.90
 -10  -3  -4    8.30    4.40
 -10  -3  -4    1.00    7.30
 -10  13   4    2.60    3.70
  -3  13  -4    4.50    4.20
 -13   4  -4  535.85   23.20
 -13   9   4  551.14   28.40
   4 -13   4  559.14   25.60
 -13   4  -4  549.65   23.10
   4 -13   4  574.04   40.90
   9 -13  -4  525.65   35.60
 -13   9   4  560.14   22.40
   4   9  -4  561.94   22.90
   4   9  -4  562.54   24.40
  -4  13  -4  484.45   22.80
  13  -9  -4  453.45   30.80
  -4  -9   4  529.45   39.70
  13  -4   4  573.34   25.10
  -9  -4  -4  497.55   22.90
  -9  -4  -4  552.14   27.90
  -9  13   4  511.15   22.70
  -9  -4  -4  561.24   22.90
 -13   5  -4   -1.40    4.10
   5   8  -4    6.90    4.90
   5   8  -4   -1.30    3.80
 -13   5  -4    0.20    4.00
 -13   8   4   -2.20   10.00
   8 -13  -4  -10.90   15.50
   5 -13   4    0.30   18.60
 -13   8   4    4.50    3.00
  -8  -5  -4   -3.50    4.20
  -8  -5  -4    3.10    3.50
  -5  13  -4    1.60    4.10
  -5  -8   4  -25.90   16.80
  -8  13   4    0.90    3.70
  13  -8  -4  -17.10   11.70
  13  -5   4    4.60    5.60
  -8  -5  -4   12.60    9.30
 -13   6  -4   23.20    4.60
   6 -13   4   31.90   17.90
 -13   6  -4   25.40    5.00
   7 -13  -4    9.60   16.40
 -13   7   4   28.30   10.60
   6   7  -4   27.20    4.50
 -13   7   4   43.10    4.80
   6   7  -4   23.60    6.40
  -7  13   4   20.30    4.50
  -6  13  -4   13.80    4.60
  13  -7  -4   15.70   11.80
  -7  -6  -4   24.60    4.30
  -7  -6  -4   26.20    4.90
  -7  -6  -4   24.50   10.20
  -6  -7   4   35.70   18.90
 -13   7  -4    3.50    4.40
 -13   7  -4   -0.50    4.00
   7   6  -4    4.80    5.90
   7   6  -4    5.00    3.80
 -13   6   4    5.50   10.30
   7 -13   4    2.40   16.10
   6 -13  -4   -9.70   15.70
  -7  13  -4    0.10    4.10
  -6  -7  -4    7.80    9.90
  -6  -7  -4    2.50    3.40
  13  -6  -4  -12.10   10.10
  -6  13   4    3.70    3.80
  -7  -6   4    5.40   16.50
  -6  -7  -4    2.00    4.00
   5 -13  -4    4.50   16.10
 -13   8  -4   19.70    5.00
   8 -13   4   19.20   16.60
   8   5  -4   15.10    6.40
   8   5  -4   14.10    3.90
 -13   8  -4   16.60    4.50
 -13   5   4   12.90   11.40
  -5  13   4   13.30    4.30
  -5  -8  -4   18.10    4.90
  -8  13  -4   14.70    4.60
  13  -5  -4    7.60   11.00
  -8  -5   4   10.80   15.80
  -5  -8  -4   17.00    3.70
  -5  -8  -4    4.00   11.20
   9   4  -4   -0.60    3.30
   9   4  -4    1.00    6.40
 -13   9  -4   -0.20    4.30
 -13   9  -4    3.10    3.90
 -13   4   4   -0.40   11.40
   9 -13   4    9.50   14.40
   4 -13  -4   -6.30   14.50
  -4  -9  -4   -6.50    2.80
  -9  13  -4    4.30    4.40
  -4  13   4   -2.10    3.90
  13  -4  -4   -3.00    2.90
  -4  -9  -4   -1.50   11.60
  -4  -9  -4   -0.30    4.10
  13  -4  -4    3.50   10.10
  -9  -4   4   -1.30   16.10
  10   3  -4   10.50    3.60
 -13  10  -4   15.20    4.50
  10   3  -4    9.20    6.90
 -13   3   4  -12.90   11.40
  10 -13   4   13.30   13.20
 -13  10  -4   10.40    4.40
   3 -13  -4    5.90   15.80
 -10  13  -4    6.50    4.60
  -3 -10  -4   29.80   13.70
 -10  -3   4    3.80   14.30
  -3 -10  -4   15.30    4.60
  -3  13   4    6.10    4.10
  13  -3  -4   13.30    9.90
  11   2  -4    5.40    7.30
   2 -13  -4    2.90   16.00
 -13  11  -4    4.40    4.20
 -13   2   4   -7.70   11.60
  11 -13   4   -2.40   12.10
 -13  11  -4    6.30    4.10
  13  -2  -4    9.20    9.80
  -2  13   4    8.80    4.30
  -2 -11  -4    6.70   13.20
 -11  -2   4   11.20   12.80
 -11  13  -4    5.00    4.50
 -13  12  -4    9.20    4.70
   1  12   4    9.70    4.30
   1 -13  -4    7.20   16.10
  12 -13   4   -4.80   11.60
  12   1  -4   14.00    8.00
 -13  12  -4   18.20    4.90
  -1 -12  -4    1.60   14.50
 -12  -1   4   12.00   12.00
  13  -1  -4   17.00    9.00
 -12  13  -4   11.80    4.70
 -13   0   4  116.59   19.10
   0  13   4  123.49    8.70
 -13  13  -4  129.09    9.00
  13   0  -4  121.99   14.50
 -14   0  -4   50.59    7.30
 -14  14   4   60.79    6.60
   0  14  -4   57.89    7.10
   0 -14   4   46.70   21.50
   0 -14   4   55.69   10.00
  14 -14  -4   46.50   15.90
 -14   0  -4   64.29    7.60
  13 -14  -4   -9.60   14.40
   1 -14   4   -6.10    7.20
   1 -14   4  -36.60   17.10
 -14  13   4    9.70    4.20
 -14   1  -4    3.10    4.40
 -14   1  -4    1.60    4.40
   1  13  -4    0.50    4.20
 -13  -1  -4    6.70    4.30
  -1 -13   4   -4.60   17.90
  14  -1   4   14.70    5.60
  -1 -13   4   -6.70    7.00
 -13  -1  -4    1.60    4.60
  14 -13  -4   -3.00   14.10
 -13  14   4    7.50    4.20
   2 -14   4   50.89   21.40
   2  12  -4   83.09    7.50
   2 -14   4   78.59   12.20
 -14  12   4  105.29    7.60
 -14   2  -4   80.89    7.60
 -14   2  -4   96.49    8.40
  12 -14  -4   82.69   18.40
  14 -12  -4   66.39   16.10
 -12  -2  -4   87.99   11.00
  14  -2   4  111.79   10.50
 -12  -2  -4   91.59    7.40
 -12  14   4   85.09    7.10
 -12  -2  -4   85.59    8.20
  -2 -12   4   62.39   20.70
  -2 -12   4   88.99   11.30
 -14  11   4   77.99    6.60
   3 -14   4   47.20   20.90
   3 -14   4   72.89   11.40
 -14  11   4   78.69   12.70
   3  11  -4   69.69    7.40
  11 -14  -4   38.90   20.90
 -14   3  -4   70.09    7.90
 -11  14   4   73.69    6.90
  -3 -11   4   69.39    9.50
 -11  -3  -4   61.59   10.70
 -11  -3  -4   68.69    6.60
  -3  14  -4   66.19    8.10
 -11  -3  -4   52.79    7.20
  14  -3   4   91.29    9.70
  -3 -11   4   80.39   22.50
 -14  10   4    0.50    8.40
  10 -14  -4  -10.80   15.20
 -14  10   4    5.80    3.40
   4 -14   4   -1.40   19.50
 -14   4  -4   -1.90    4.00
   4  10  -4   -0.90    3.60
 -10  14   4   -1.30    4.00
  14 -10  -4  -17.90   11.40
 -10  -4  -4    3.30    7.80
  -4  14  -4   -1.00    4.20
  14  -4   4    5.00    5.90
 -10  -4  -4    2.50    3.70
  -4 -10   4  -22.90   17.90
 -10  -4  -4    0.30    4.20
   5 -14   4  421.66   22.30
 -14   9   4  449.86   18.00
   5 -14   4  399.06   34.40
   5   9  -4  406.76   18.40
 -14   5  -4  428.56   18.90
   5   9  -4  423.46   20.40
 -14   9   4  394.66   22.70
 -14   5  -4  395.56   18.80
   9 -14  -4  398.26   31.40
  14  -5   4  427.96   21.00
  -9  14   4  416.76   18.60
  -5  -9   4  449.26   35.10
  14  -9  -4  392.16   27.20
  -5  14  -4  412.36   18.70
  -9  -5  -4  401.86   18.70
  -9  -5  -4  423.26   18.40
  -9  -5  -4  413.46   23.60
   6   8  -4    5.90    3.80
 -14   6  -4    7.10    4.50
 -14   8   4   13.50    9.80
 -14   6  -4   11.90    4.60
   6   8  -4   14.00    5.60
   8 -14  -4    8.90   15.60
   6 -14   4    3.30   19.70
 -14   8   4   14.80    3.40
  -6  14  -4    6.60    4.40
  -8  -6  -4   13.80    3.90
  -8  -6  -4   13.40    9.10
  -8  14   4   11.70    4.40
  -6  -8   4   -5.30   16.80
  -8  -6  -4    7.60    4.40
  14  -8  -4    4.90   11.70
   7   7  -4  168.08    9.70
 -14   7  -4  173.38    9.90
 -14   7   4  175.28   18.10
   7 -14  -4  151.88   24.60
   7 -14   4  165.18   25.30
 -14   7  -4  171.38   10.50
   7   7  -4  163.88   11.50
 -14   7   4  192.68    9.30
  -7  14   4  165.18    9.80
  -7  -7   4  153.28   24.50
  14  -7   4  146.69   12.90
  -7  14  -4  167.48   10.00
  14  -7  -4  164.98   17.70
  -7  -7  -4  151.98   16.80
  -7  -7  -4  161.98    9.10
  -7  -7  -4  143.29   10.10
   8   6  -4  422.26   20.90
   8 -14   4  434.36   31.50
 -14   6   4  458.15   17.60
 -14   6   4  393.66   25.10
   6 -14  -4  417.76   32.80
   8   6  -4  436.66   18.50
 -14   8  -4  427.46   18.90
 -14   8  -4  401.56   18.70
  -6  -8  -4  414.26   25.90
  -6  -8  -4  425.96   18.80
  14  -6  -4  385.56   25.70
  -6  14   4  414.16   18.60
  -6  -8  -4  416.56   18.10
  -8  -6   4  454.55   31.60
  -8  14  -4  416.76   18.70
  14  -8   4  369.86   21.80
 -14   9  -4  366.56   17.00
 -14   5   4  318.17   23.20
   9   5  -4  361.46   19.20
 -14   9  -4  369.36   16.60
   5 -14  -4  382.86   31.80
   9   5  -4  377.36   16.00
   9 -14   4  316.57   27.60
  -9  -5   4  313.87   28.20
  14  -5  -4  334.47   22.60
  -5  -9  -4  358.66   15.70
  -9  14  -4  340.57   16.60
  -5  -9  -4  349.96   16.50
  -5  -9  -4  360.16   26.10
   4 -14  -4  522.65   34.60
  10   4  -4  485.25   23.60
  10 -14   4  468.95   30.40
 -14  10  -4  453.65   23.40
 -14  10  -4  490.05   21.40
 -14   4   4  447.26   27.70
  14  -4  -4  515.85   27.30
  -4 -10  -4  471.55   30.00
  -4  14   4  475.55   21.10
 -14  11  -4  285.77   14.60
  11   3  -4  291.37   17.50
   3 -14  -4  300.37   29.50
  11 -14   4  291.77   25.40
 -11  -3   4  282.17   24.90
  14 -11   4  360.46   21.00
  -3 -11  -4  278.17   25.10
  -3  14   4  283.07   14.30
  14  -3  -4  301.57   20.90
 -14   2   4  420.26   28.40
   2 -14  -4  463.25   33.70
  12   2  -4  444.56   23.10
  12 -14   4  440.96   28.10
 -14  12  -4  438.16   19.70
 -14  12  -4  468.85   19.80
 -12  14  -4  419.46   20.00
  14  -2  -4  449.26   25.10
 -12  -2   4  461.75   29.20
  -2 -12  -4  388.16   33.30
  -2  14   4  435.06   19.60
   1  13   4  174.38   10.70
   1 -14  -4  183.58   25.10
 -14  13  -4  160.38   10.90
  13   1  -4  170.78   14.40
 -14   1   4  131.39   18.60
  -1  14   4  164.38   10.10
 -13  14  -4  168.38   10.60
  -1 -13  -4  177.88   23.70
 -13  -1   4  154.18   20.10
 -14  14  -4  487.25   22.00
   0  14   4  486.45   21.70
 -14   0   4  496.95   29.70
  14   0  -4  515.35   26.70
 -15   0  -4   86.19    8.50
   0  15  -4   59.59    7.50
  15 -15  -4   53.89   16.70
 -15  15   4   93.99    7.70
 -15   0  -4   64.09    7.20
   0 -15   4   63.79   23.20
   0 -15   4   65.29   10.90
  14 -15  -4   82.19   19.00
 -15  14   4  121.19    8.60
   1 -15   4   83.69   22.00
   1 -15   4  130.99   14.10
 -15   1  -4  109.09    9.40
   1  14  -4  108.49    9.30
 -15   1  -4  115.69    8.50
  15 -14  -4   84.89   18.40
 -14  -1  -4  118.69    9.10
 -14  -1  -4  108.29    8.30
  -1 -14   4  113.59   12.90
  -1  15  -4  107.79    9.40
 -14  15   4  120.79    8.90
 -15   2  -4    3.90    4.60
   2 -15   4   -8.70    7.50
 -15   2  -4    3.70    4.60
   2 -15   4  -30.30   17.50
   2  13  -4    3.10    4.20
  13 -15  -4   -2.30   13.80
 -15  13   4    6.60    4.20
  15 -13  -4  -23.00   13.20
 -13  -2  -4    4.60    5.70
  -2  15  -4    1.20    4.70
 -13  -2  -4   10.90    4.70
 -13  15   4    8.10    4.40
 -13  -2  -4    2.20    7.50
  15  -2   4   14.80    6.00
  -2 -13   4   -3.20    6.90
  -2 -13   4   -6.80   18.70
 -15   3  -4  210.18   11.70
   3 -15   4  224.88   17.20
 -15  12   4  215.68   17.10
 -15   3  -4  222.68   12.20
 -15  12   4  226.88   11.40
   3  12  -4  203.48   11.70
   3 -15   4  225.58   29.60
  12 -15  -4  222.28   25.40
  -3  15  -4  192.58   11.90
 -12  -3  -4  196.28   11.80
  -3 -12   4  216.78   15.40
 -12  -3  -4  205.18   15.50
  15  -3   4  250.27   14.50
  15 -12  -4  152.38   21.50
 -12  -3  -4  215.08   11.50
  -3 -12   4  190.48   26.90
 -12  15   4  223.38   11.50
   4 -15   4   30.80    9.10
   4 -15   4  -18.00   19.10
 -15   4  -4   28.20    5.50
 -15  11   4   32.50    9.60
  11 -15  -4   21.80   16.80
 -15  11   4   42.30    6.10
 -15   4  -4   21.20    5.20
   4  11  -4   36.80    5.40
 -11  -4  -4   21.40    5.20
  15 -11  -4    0.20   13.10
 -11  -4  -4   23.50    8.80
 -11  -4  -4   26.60    5.10
 -11  15   4   19.50    4.70
  15  -4   4   31.30    7.20
  -4 -11   4   27.60   18.50
  -4  15  -4   21.30    5.20
 -15   5  -4   40.70    5.80
   5 -15   4   36.70    9.50
 -15   5  -4   40.10    6.30
   5  10  -4   46.70    5.60
   5 -15   4   33.10   22.30
 -15  10   4   43.50   10.50
  10 -15  -4   47.10   17.20
 -15  10   4   53.19    6.10
  -5 -10   4   11.20   19.10
  15  -5   4   17.60    7.30
  15 -10  -4   22.00   13.20
 -10  -5  -4   45.50   10.00
 -10  -5  -4   35.50    5.60
 -10  -5  -4   45.60    5.80
  -5  15  -4   27.90    5.40
 -15   6  -4   88.19    8.40
   9 -15  -4   81.69   20.10
 -15   9   4   93.99   14.60
 -15   6  -4   95.19    7.80
   6   9  -4  101.59    9.30
   6   9  -4   97.59    7.90
   6 -15   4  105.49   23.10
  -9  15   4   99.39    8.90
  -9  -6  -4   91.09   13.90
  -6  -9   4   91.59   29.50
  15  -9  -4   66.69   15.40
  -6  15  -4   83.99    8.60
  -9  -6  -4   92.89    7.30
  -9  -6  -4   83.19    8.20
   7   8  -4    8.00    5.70
 -15   7  -4    6.60    4.40
 -15   8   4   14.70    3.20
   7   8  -4    2.80    3.80
   8 -15  -4    5.30   13.10
 -15   8   4   10.40    9.40
   7 -15   4   -6.80   18.60
 -15   7  -4    2.60    4.70
  -8  -7  -4    4.30    4.40
  -8  -7  -4    8.10    3.90
  -8  -7  -4    2.40    9.40
  15  -8  -4   -8.30   16.30
  -8  15   4    3.70    4.30
  -7  15  -4    5.80    4.60
 -15   7   4   -0.30    9.20
   7 -15  -4   -3.30   16.40
 -15   8  -4    4.20    4.60
   8   7  -4    2.10    5.80
   8   7  -4    1.70    4.00
 -15   8  -4   -1.10    3.90
   8 -15   4   -3.00   17.70
  -8  15  -4    2.90    4.40
  -7  15   4    3.30    4.20
  -7  -8  -4    2.20    3.40
  -7  -8  -4    1.50    4.20
  -8  -7   4   -1.40   15.60
  -7  -8  -4   -3.30   10.20
 -15   6   4    9.90   10.40
 -15   9  -4   -2.20    4.00
   9   6  -4    1.50    6.30
 -15   9  -4    3.30    4.80
   9   6  -4   -0.30    3.70
   9 -15   4   -7.40   15.20
   6 -15  -4   13.70   17.80
  15  -9   4  -11.00    8.10
  -6  -9  -4   -5.20    3.40
  -6  15   4   -2.40    4.10
  -9  -6   4   -8.30   14.40
  -9  15  -4    0.10    4.20
  -6  -9  -4    7.80   11.20
 -15  10  -4    5.80    4.40
   5 -15  -4   11.00   17.10
  10   5  -4    3.00    6.90
  10 -15   4    9.00   15.90
 -15  10  -4   13.60    5.10
 -10  -5   4   -6.50   13.00
  -5  15   4    5.90    4.30
  -5 -10  -4    1.00   12.10
 -10  15  -4    7.30    4.50
  15  -5  -4    1.50   12.30
  -5 -10  -4    0.90    3.50
 -15   4   4   11.60   11.60
 -15  11  -4    6.00    4.60
   4 -15  -4   18.90   16.30
 -15  11  -4   15.00    4.80
  11   4  -4    9.20    7.10
  11 -15   4   19.30   14.00
   4  11   4    3.90    4.60
 -11  -4   4   13.90   14.30
  15  -4  -4   16.50   10.20
  -4  15   4    6.00    4.60
 -11  15  -4    1.50    4.50
  12   3  -4   38.70    9.30
   3 -15  -4   35.00   17.90
 -15   3   4   39.60   12.30
  12 -15   4   56.59   14.90
 -15  12  -4   34.10    5.60
 -15  12  -4   39.80    6.10
   3  12   4   20.80    4.90
  15  -3  -4   47.50   12.20
  -3 -12  -4   29.40   15.60
  -3  15   4   34.60    5.50
 -12  -3   4   38.80   13.20
 -12  15  -4   34.60    5.80
   2 -15  -4   22.80   17.30
  13 -15   4   26.90   13.60
 -15   2   4   36.50   12.70
  13   2  -4   30.00    9.30
 -15  13  -4   29.20    5.50
   2  13   4   28.80    5.20
  15  -2  -4   30.40   10.90
  -2 -13  -4   22.70   15.00
 -13  15  -4   24.40    5.50
  -2  15   4   21.90    5.10
 -13  -2   4   25.50   13.70
  14   1  -4   -2.60    8.30
  14 -15   4    5.40   12.00
   1 -15  -4   13.50   16.30
 -15  14  -4   -0.10    4.60
 -15   1   4    1.80   11.50
   1  14   4    2.30    4.20
  15  -1  -4   12.90    9.80
 -14  -1   4   -5.80   11.10
  -1 -14  -4    4.60   15.00
 -14  15  -4    2.20    4.70
  -1  15   4    1.30    4.60
 -15  15  -4    8.00    4.80
   0 -15  -4   10.50   15.80
 -15   0   4   -0.50   11.30
   0  15   4    4.70    4.50
  15   0  -4   11.90    9.30
 -16   0  -4   28.90    5.50
  16 -16  -4   -6.20   14.00
   0  16  -4   23.20    5.50
 -16  16   4   22.00    5.10
   0 -16   4   75.69   22.80
  16   0   4   52.79    8.60
   0 -16   4   28.20    9.90
   1 -16   4    4.40    9.10
   1 -16   4   -6.60   19.90
  15 -16  -4  -17.60   13.90
 -16   1  -4    4.80    4.70
 -16  15   4    1.40    4.20
 -16   1  -4    6.60    4.80
   1  15  -4   -1.00    4.40
 -15  16   4    9.00    4.80
 -15  -1  -4   -3.90    4.40
 -15  -1  -4    2.80    4.60
  -1  16  -4    2.00    4.60
  -1 -15   4   14.20   20.70
  16 -15  -4  -19.40   12.70
  -1 -15   4    6.30    8.30
   2  14  -4   95.69    8.80
   2 -16   4   71.79   13.90
 -16  14   4  107.89    8.10
  14 -16  -4   89.39   18.70
 -16   2  -4   82.29    7.90
 -16   2  -4   97.19    9.10
   2 -16   4  163.48   37.90
 -14  16   4   89.39    8.20
  -2 -14   4   68.49   12.20
  -2  16  -4   86.19    8.40
 -14  -2  -4   93.19    7.70
  16  -2   4  117.69   11.00
  -2 -14   4   87.89   21.40
  16 -14  -4   46.20   16.60
 -14  -2  -4   92.39    8.80
 -16  13   4   16.60    4.40
  13 -16  -4   25.60   16.80
 -16   3  -4   22.40    5.40
 -16   3  -4   10.80    4.70
   3  13  -4    2.80    4.70
   3 -16   4   -2.10   19.60
   3 -16   4   17.70    9.60
 -13  -3  -4   19.70    8.70
 -13  -3  -4   10.10    4.60
 -13  -3  -4   15.20    4.80
 -13  16   4   17.60    5.00
  -3  16  -4   15.20    5.50
  -3 -13   4  -11.40   16.10
  16 -13  -4   -4.80   13.20
  16  -3   4   12.50    6.50
  -3 -13   4   17.50    8.10
   4  12  -4   42.70    6.00
   4 -16   4   34.80   10.10
 -16  12   4   26.10    8.30
 -16  12   4   34.50    4.80
  12 -16  -4   41.70   18.10
   4 -16   4  -17.10   20.50
 -16   4  -4   32.40    5.80
 -16   4  -4   27.20    5.40
  -4 -12   4   22.30   17.40
  -4 -12   4   34.60    8.70
 -12  -4  -4   31.90    9.20
 -12  -4  -4   43.70    6.10
  16 -12  -4    4.20   12.60
  -4  16  -4   27.10    5.70
 -12  -4  -4   36.60    5.60
 -12  16   4   34.30    5.20
  16  -4   4   17.90    6.90
   5  11  -4  271.17   14.10
   5 -16   4  319.17   21.20
 -16   5  -4  287.77   14.30
 -16   5  -4  292.27   14.90
 -16  11   4  294.47   19.00
   5 -16   4  213.88   30.70
  11 -16  -4  282.07   28.00
 -16  11   4  312.27   13.70
 -11  -5  -4  263.87   18.90
 -11  -5  -4  285.47   14.10
 -11  16   4  277.67   14.30
  -5 -11   4  289.67   30.10
  16  -5   4  242.68   17.00
 -11  -5  -4  305.17   14.50
  16 -11  -4  230.58   23.40
  -5  16  -4  292.57   14.80
  10 -16  -4   62.89   18.80
 -16   6  -4   53.59    6.90
   6  10  -4   68.19    9.60
 -16  10   4   63.19   11.20
 -16  10   4   66.49    6.70
   6  10  -4   58.69    6.20
 -16   6  -4   67.59    8.00
   6 -16   4   58.39   23.50
  16 -10  -4   26.90   14.40
 -10  -6  -4   61.29    6.30
 -10  -6  -4   56.19    7.40
  -6 -10   4   42.10   17.20
  -6  16  -4   49.50    6.50
  16  -6   4   49.80    9.70
 -10  16   4   63.49    7.10
 -10  -6  -4   65.99   11.70
 -16   7  -4  479.65   21.00
   7   9  -4  470.55   20.30
   7 -16   4  475.35   36.60
 -16   9   4  444.66   26.00
 -16   7  -4  481.65   20.80
   7   9  -4  475.95   22.80
  -9  16   4  439.46   20.30
  -9  -7  -4  501.35   27.30
  -7  -9   4  424.16   32.50
  -7  16  -4  449.86   20.70
  -9  -7  -4  482.45   20.50
  16  -7   4  448.36   24.50
  16  -9  -4  446.56   28.20
  -9  -7  -4  460.45   20.70
 -16   8   4  140.89   15.10
   8 -16  -4  153.08   21.20
   8 -16   4  135.39   23.10
 -16   8  -4  144.49    9.30
 -16   8  -4  146.59    9.90
   8   8  -4  141.69    9.40
   8   8  -4  145.09   11.50
  16  -8  -4  119.59   18.50
  -8  -8  -4  137.19    8.70
  -8  16  -4  137.79    9.60
  -8  -8   4  118.29   19.30
  -8  -8  -4  142.49   25.40
  -8  16   4  127.39    9.50
 -16   9  -4  311.77   15.50
   7 -16  -4  304.87   31.50
 -16   7   4  292.97   21.60
 -16   9  -4  343.67   16.10
   9   7  -4  307.57   17.60
   9 -16   4  330.07   29.70
   9   7  -4  350.06   15.60
  16  -7  -4  325.47   24.10
  -7  16   4  308.07   15.20
  -9  -7   4  325.67   27.10
  -7  -9  -4  352.06   15.10
  16  -9   4  300.97   20.60
  -9  16  -4  314.37   15.80
  -7  -9  -4  298.87   23.70
  10 -16   4  195.68   26.20
 -16  10  -4  259.07   13.90
 -16  10  -4  246.48   13.10
   6 -16  -4  253.97   28.80
  10   6  -4  254.27   15.70
 -16   6   4  212.48   18.20
   6  10   4  253.07   12.80
 -10  16  -4  250.17   13.40
 -10  -6   4  281.47   24.30
  -6 -10  -4  273.37   12.50
  16  -6  -4  226.08   21.00
  -6  16   4  248.28   13.30
  -6 -10  -4  277.67   22.20
 -16   5   4  108.29   16.90
  11 -16   4  154.48   22.50
  11   5  -4  120.49   12.00
 -16  11  -4  117.19    8.60
 -16  11  -4  130.69    9.70
   5 -16  -4  101.39   21.00
   5  11   4  110.39    8.30
  -5  16   4  121.39    8.70
 -11  -5   4  107.89   17.50
 -11  16  -4  117.29    8.70
  16  -5  -4  110.39   17.10
  -5 -11  -4  133.69   19.50
 -16  12  -4  291.57   14.40
   4  12   4  277.97   14.20
 -16  12  -4  295.67   14.80
  12 -16   4  240.58   38.80
  12   4  -4  270.27   18.30
 -16   4   4  260.27   20.50
   4 -16  -4  285.17   30.00
 -12  16  -4  269.27   14.20
  -4  16   4  278.17   14.00
 -12  -4   4  290.17   24.40
  16  -4  -4  274.97   20.60
  -4 -12  -4  294.57   24.40
 -16  13  -4   86.39    8.20
  13 -16   4  100.69   18.10
 -16  13  -4   86.49    7.70
   3  13   4   90.09    8.30
  13   3  -4   75.49   11.80
   3 -16  -4  110.99   21.00
 -16   3   4   83.49   13.80
  -3  16   4   86.59    8.40
  16  -3  -4   92.29   15.30
 -13  -3   4   99.89   16.00
 -13  16  -4   77.89    8.60
  -3 -13  -4   72.09   17.40
 -16  14  -4  325.67   16.40
  14   2  -4  309.67   19.50
   2 -16  -4  331.37   29.90
   2  14   4  328.37   15.50
  14 -16   4  347.87   26.50
 -16   2   4  283.67   22.30
 -16  14  -4  322.17   15.60
  16  -2  -4  332.07   21.50
  -2  16   4  325.17   15.50
  -2 -14  -4  344.47   27.30
 -14  16  -4  318.77   15.80
 -14  -2   4  288.17   23.70
 -16   1   4   63.19   13.20
   1  15   4   60.19    7.40
 -16  15  -4   54.19    7.50
  15   1  -4   77.59   12.20
  15 -16   4   71.69   15.00
   1 -16  -4   71.49   19.20
  -1  16   4   60.49    7.70
 -15  -1   4   68.49   13.50
  16  -1  -4   62.69   11.60
 -15  16  -4   62.79    7.70
  -1 -15  -4   84.59   18.40
  16   0  -4  138.39   15.10
   0  16   4  126.89    9.40
 -16   0   4  130.99   17.40
   0 -16  -4  146.99   23.40
 -16  16  -4  129.49    9.60
  16 -16   4  133.99   18.50
   0  17  -4   63.09    8.20
 -17  17   4   45.00    6.40
   0 -17   4   95.39   24.20
 -17   0  -4   54.69    7.80
  17 -17  -4   44.00   17.40
  17   0   4   64.89    9.40
   0 -17   4   41.30   11.00
   1  16  -4  134.79    9.70
 -17   1  -4  138.99    9.40
 -17  16   4  128.49    9.70
  16 -17  -4  116.89   22.00
  16   1   4  138.19   11.10
   1 -17   4  144.79   26.60
   1 -17   4  111.69   15.90
  -1  17  -4  127.09    9.80
  17 -16  -4   92.99   18.90
  -1 -16   4  127.49   15.00
 -16  -1  -4  135.09    9.70
  17  -1   4  126.79   12.20
  -1 -16   4  166.08   25.80
   2 -17   4   20.80   10.50
 -17  15   4   32.50    5.40
  15 -17  -4   42.60   17.00
   2 -17   4   39.50   21.60
   2  15  -4   27.10    5.40
 -17   2  -4   37.60    6.10
  17 -15  -4    6.70   13.60
 -15  17   4   25.10    5.00
  -2  17  -4   21.50    5.90
  17  -2   4   20.80    7.30
  -2 -15   4   68.79   21.10
  -2 -15   4   30.90    9.90
 -15  -2  -4   24.60    8.00
 -15  -2  -4   28.10    5.80
   3 -17   4  191.58   17.70
 -17   3  -4  175.58   10.70
   3  14  -4  192.18   11.30
   3 -17   4  128.99   25.00
  14 -17  -4  178.58   23.90
 -17  14   4  189.98   10.70
 -14  -3  -4  187.58   10.90
 -14  -3  -4  169.18   14.20
 -14  -3  -4  168.78   11.10
  -3 -14   4  171.88   15.20
  17 -14  -4  124.09   21.00
  -3 -14   4  234.48   28.20
 -14  17   4  174.88   10.50
  -3  17  -4  168.48   10.90
  17  -3   4  143.09   13.20
   4 -17   4  -17.70   21.00
 -17   4  -4   14.80    5.10
   4  13  -4    2.30    4.70
  13 -17  -4   25.80   17.50
   4 -17   4    9.40    9.80
 -17  13   4   10.20    4.30
 -17   4  -4   13.70    5.30
 -13  -4  -4   14.50    5.10
  17 -13  -4  -12.50   13.50
  -4 -13   4    0.50   15.30
 -13  -4  -4    3.90    8.20
 -13  -4  -4    3.30    4.50
  -4 -13   4    0.80    7.50
 -13  17   4    9.80    4.50
  17  -4   4  -11.80    5.50
  -4  17  -4    3.60    4.80
   5 -17   4  175.38   18.00
  12 -17  -4  178.28   25.40
 -17  12   4  190.68   10.30
   5 -17   4  183.98   29.30
   5  12  -4  186.68   10.70
 -17   5  -4  178.58   10.70
 -17  12   4  156.18   14.70
 -17   5  -4  186.28   11.80
  17  -5   4  137.49   12.90
  -5 -12   4  163.48   26.30
  -5  17  -4  154.58   10.60
 -12  17   4  180.18   10.80
 -12  -5  -4  179.58   10.90
  17 -12  -4  116.69   20.30
 -12  -5  -4  176.88   15.40
 -17  11   4    1.60    7.50
 -17   6  -4    5.30    5.00
  11 -17  -4   19.20   16.70
 -17   6  -4    6.00    4.60
   6  11  -4    6.60    4.50
   6  11  -4   13.10    6.40
  17  -6   4   -7.40    7.00
 -11  -6  -4    5.40    4.20
  -6  17  -4    3.30    4.60
  17 -11  -4   -9.90   12.30
 -11  -6  -4    4.70    4.60
  -6 -11   4   10.90   15.50
 -11  -6  -4   -1.40    8.80
 -11  17   4    3.60    4.60
  10 -17  -4  161.18   24.60
 -17   7  -4  154.88    9.50
   7 -17   4   66.49   22.90
 -17   7  -4  145.89   10.30
   7  10  -4  146.69   11.30
   7  10  -4  134.99    9.50
  17 -10  -4   99.29   18.70
  -7  17  -4  133.89   10.20
  -7 -10   4  111.29   19.80
 -10  -7  -4  140.09   15.70
 -10  17   4  123.29    9.60
 -10  -7  -4  126.39    9.00
   8   9  -4    3.40    6.50
 -17   8  -4    7.20    4.80
 -17   9   4    3.00    9.10
   8 -17   4  -11.40   20.00
   8   9  -4    5.30    4.30
   9 -17  -4   23.70   17.80
 -17   8  -4    7.80    5.10
  -8  17  -4   -1.10    4.60
  -9  -8  -4   -0.20    3.80
  -9  17   4    6.50    4.80
  -9  -8  -4    0.40   10.20
  17  -9  -4   -9.30   12.00
  -8  -9   4   -0.90   14.20
   9 -17   4  222.88   31.20
 -17   8   4  216.58   17.70
 -17   9  -4  238.08   12.30
   8 -17  -4  261.57   28.60
   9   8  -4  235.68   15.30
  17  -9   4  162.68   18.50
  -8  -9  -4  244.88   12.00
  -9  -8   4  216.68   23.70
  17  -8  -4  200.58   20.70
  -8  17   4  225.78   12.30
  -9  17  -4  219.08   12.40
  -8  -9  -4  255.17   20.30
   7  10   4   87.49    7.80
 -17  10  -4   86.79    7.60
   7 -17  -4   83.59   20.70
  10 -17   4   62.39   21.20
 -17  10  -4   90.39    8.80
 -17   7   4   81.89   12.60
  17  -7  -4   67.49   15.10
 -10  -7   4   70.59   16.30
  -7 -10  -4  101.99   16.90
 -10  17  -4   68.89    8.30
  -7  17   4   92.29    8.40
  -7 -10  -4   81.69    7.20
  11 -17   4    4.80   23.90
 -17  11  -4   20.10    5.10
   6 -17  -4   34.20   17.60
 -17   6   4   19.50   10.10
  11   6  -4   18.60    7.70
   6  11   4   21.20    4.80
 -17  11  -4   14.70    5.40
 -11  17  -4   10.00    4.90
  -6  17   4   16.00    4.90
  17  -6  -4   11.50   12.00
 -11  -6   4   12.70   13.10
  -6 -11  -4   20.60   12.60
  12   5  -4   29.20    9.00
 -17  12  -4   24.90    5.20
 -17   5   4   27.50   10.50
 -17  12  -4   19.30    5.80
   5 -17  -4   23.20   18.20
   5  12   4   11.40    4.60
  12 -17   4   26.30   16.10
 -12  17  -4   15.60    4.90
  -5  17   4   16.20    5.00
  17  -5  -4   23.70   12.10
  -5 -12  -4   36.80   14.10
 -12  -5   4   31.80   13.70
   4 -17  -4    7.80   17.30
   4  13   4    6.50    4.30
 -17  13  -4    5.00    4.90
 -17   4   4   -0.40    9.40
  13 -17   4   12.90   14.10
  13   4  -4   10.60    7.80
 -17  13  -4    8.00    4.70
  17  -4  -4   15.10   10.90
 -13  -4   4    5.20   11.80
  -4  17   4    7.30    4.70
  -4 -13  -4   23.50   13.60
 -13  17  -4   -9.30    4.30
  14   3  -4    7.50    8.10
 -17  14  -4    1.40    4.70
   3 -17  -4   12.60   17.40
   3  14   4    2.20    4.30
 -17   3   4   -5.70    9.20
  14 -17   4   11.80   14.20
 -17  14  -4    6.10    4.60
  -3  17   4    2.70    4.50
  -3 -14  -4    1.60   13.60
  17  -3  -4    3.20   10.80
 -14  -3   4    1.40   10.80
 -14  17  -4   -2.60    4.80
 -17  15  -4   49.70    6.80
  15   2  -4   55.29   11.10
   2  15   4   36.10    5.70
 -17   2   4   48.40   11.50
   2 -17  -4   40.90   17.50
 -17  15  -4   46.30    7.40
  15 -17   4   49.30   14.60
  -2  17   4   49.20    7.20
  17  -2  -4   60.89   12.50
 -15  17  -4   29.00    6.00
 -15  -2   4   31.00   12.60
  -2 -15  -4   29.00   16.30
   1  16   4    3.10    4.70
 -17  16  -4   -0.50    4.80
   1 -17  -4   20.80   24.90
 -17   1   4    9.20    9.30
  16   1  -4    3.70    9.20
  16 -17   4   21.80   14.30
 -16  -1   4    3.10   10.50
  17  -1  -4    4.60   10.30
  -1 -16  -4    4.30   15.20
  -1  17   4    2.60    4.60
 -17   0   4   49.60   11.70
  17   0  -4   51.59   12.00
 -17  17  -4   32.50    6.60
   0 -17  -4   49.60   18.20
   0  17   4   38.10    6.10
  17 -17   4   30.70   13.60
  18   0   4    9.40    6.50
   0 -18   4    8.80   11.10
   0  18  -4    6.10    5.60
 -18  18   4   10.80    5.90
   0 -18   4   59.69   23.00
 -18   0  -4   14.20    5.80
  18 -18  -4  -17.60   15.40
 -18   1  -4    6.10    5.00
   1 -18   4   25.10   22.30
  17   1   4    2.00    5.90
   1  17  -4    2.70    5.40
 -18  17   4    8.20    5.40
  17 -18  -4   -7.80   14.90
  -1  18  -4   -3.10    5.30
 -17  18   4    3.40    4.90
  -1 -17   4    3.60   10.30
 -17  -1  -4    1.60    4.80
  -1 -17   4    7.00   19.90
  18  -1   4    3.20    6.80
  18 -17  -4  -17.50   14.40
  16 -18  -4  -11.50   15.40
 -18   2  -4    5.50    4.90
  16   2   4    9.80    5.80
   2 -18   4  -13.40    9.80
 -18  16   4    6.00    5.20
   2  16  -4    1.30    5.00
   2 -18   4    7.30   22.00
  18 -16  -4  -15.10   14.50
 -16  -2  -4    1.70    4.70
 -16  18   4   -5.90    4.80
  -2  18  -4    1.50    5.60
  18  -2   4   -9.90    6.40
  -2 -16   4   -3.50    9.50
  -2 -16   4   34.30   19.50
  15 -18  -4    1.10   16.00
 -18   3  -4    4.70    4.90
 -18  15   4    6.90    4.70
   3 -18   4   35.90   23.60
   3 -18   4   -4.60   10.00
   3  15  -4   -0.90    5.10
 -15  18   4    5.70    4.80
  -3 -15   4   19.70   18.70
 -15  -3  -4    2.10    4.90
  -3 -15   4  -11.80    8.30
  -3  18  -4   -5.60    4.90
  18 -15  -4  -26.50   13.40
   4  14  -4   21.40    5.50
   4 -18   4   29.50   23.20
  14 -18  -4   20.70   16.90
 -18  14   4   44.50    5.90
 -18   4  -4   36.70    5.80
 -14  -4  -4   18.90    9.00
 -14  -4  -4   30.40    6.00
  18 -14  -4    9.90   13.70
 -14  -4  -4   32.40    5.80
  -4 -14   4   52.79   20.00
  -4 -14   4   22.40   10.40
 -14  18   4   31.00    5.70
  -4  18  -4   22.80    5.60
  18  -4   4   10.90    7.60
   5 -18   4   39.70   21.80
 -18  13   4   56.59    9.40
 -18   5  -4   52.59    7.70
  13 -18  -4   77.79   19.20
   5  13  -4   58.19    7.70
  18  -5   4   47.70    9.80
  -5 -13   4   66.19   18.20
 -13  18   4   56.39    7.30
  18 -13  -4   54.09   15.20
 -13  -5  -4   57.39   11.00
 -13  -5  -4   53.69    7.30
  -5  18  -4   57.29    7.60
  12 -18  -4    5.00   16.60
   6  12  -4   -1.80    4.50
 -18   6  -4   -5.40    5.00
   6 -18   4  -21.60   23.50
 -18  12   4    9.20    7.60
 -18   6  -4    9.80    4.90
  -6 -12   4    8.00   14.20
  -6  18  -4    2.40    4.80
 -12  -6  -4    2.30    8.70
  18 -12  -4  -22.70   12.00
 -12  18   4   10.70    4.90
 -12  -6  -4    2.90    4.50
   7  11  -4  185.98   11.40
 -18  11   4  202.78   16.70
 -18   7  -4  203.28   11.40
  11 -18  -4  215.38   26.20
 -18   7  -4  209.48   12.60
  18  -7   4  164.58   16.00
  -7  18  -4  178.98   11.40
 -11  18   4  196.18   11.70
  18 -11  -4  148.79   21.40
 -11  -7  -4  208.08   17.50
 -11  -7  -4  193.68   11.20
  -7 -11   4  193.58   23.60
 -18  10   4   -1.30    9.00
 -18   8  -4    0.50    4.40
   8  10  -4    3.30    6.80
   8  10  -4    6.10    4.60
  10   8   4    3.40    4.00
 -18   8  -4    6.70    5.20
  10 -18  -4    8.20   17.30
 -10  -8  -4    4.70    9.40
 -10  18   4   -4.80    4.40
  18 -10  -4  -21.30   12.00
 -10  -8  -4   -1.20    4.20
  -8 -10   4    0.40   13.70
  -8  18  -4   -6.40    4.60
   9 -18  -4  210.78   27.70
 -18   9  -4  208.88   11.40
   9   9   4  186.78   10.90
   9   9  -4  197.38   13.80
 -18   9   4  190.28   16.10
   9 -18   4  135.29   30.70
 -18   9  -4  216.28   12.70
  18  -9  -4  173.48   20.40
  -9  -9  -4  198.88   11.10
  -9  18  -4  172.88   11.30
  -9  18   4  195.88   11.30
  -9  -9  -4  196.48   18.80
  -9  -9   4  208.58   22.60
   8  10   4   30.20    5.20
   8 -18  -4   25.50   18.70
 -18   8   4   23.30    9.50
 -18  10  -4   42.30    6.20
  10   8  -4   36.30    8.50
 -18  10  -4   24.20    6.00
  10 -18   4   29.30   19.60
 -10  -8   4   11.60   13.20
  -8  18   4   27.20    5.40
  18  -8  -4   15.30   13.00
  -8 -10  -4   26.10   12.10
 -10  18  -4   27.80    5.60
  -8 -10  -4   33.90    5.40
 -18   7   4  120.29   14.80
  11   7  -4  122.79   12.00
   7  11   4  122.29    9.00
   7 -18  -4  167.58   25.30
  11 -18   4   97.59   22.40
 -18  11  -4  125.19    8.90
 -11  18  -4   98.59    8.70
  -7  18   4  124.49    9.10
  -7 -11  -4  123.49   18.30
 -11  -7   4   88.09   16.60
  18  -7  -4  110.49   17.70
 -18  12  -4  135.89    9.60
  12 -18   4  121.09   22.10
   6 -18  -4  143.99   25.50
  12   6  -4  122.29   12.60
   6  12   4  133.59    9.40
 -18   6   4  114.89   15.10
  -6  18   4  132.49    9.30
 -12  -6   4  103.69   17.10
  -6 -12  -4  166.28   19.50
  18  -6  -4  127.89   17.70
 -12  18  -4  118.39    9.20
 -18  13  -4   26.40    6.00
   5 -18  -4   30.40   18.80
 -18   5   4   30.00   10.50
  13   5  -4   23.80    9.10
   5  13   4   23.50    5.10
  13 -18   4   19.00   17.10
 -18  13  -4   32.60    5.60
  18  -5  -4   19.30   12.60
 -13  18  -4   20.50    5.30
  -5  18   4   32.70    5.80
  -5 -13  -4   32.20   14.10
 -13  -5   4   21.10   12.80
 -18  14  -4  112.89    8.80
  14 -18   4   97.19   18.00
   4 -18  -4  143.79   25.10
  14   4  -4  124.09   13.30
   4  14   4  114.69    8.80
 -18   4   4  134.99   15.80
 -18  14  -4  110.29    9.90
 -14  -4   4  135.49   17.90
  -4 -14  -4  131.09   20.50
  -4  18   4  119.79    9.10
  18  -4  -4  130.39   17.80
 -14  18  -4   97.89    9.50
  15   3  -4   42.40    9.80
 -18  15  -4   27.40    5.70
 -18   3   4   34.00   11.50
 -18  15  -4   29.10    6.00
   3  15   4   28.20    5.30
  15 -18   4   38.90   15.60
   3 -18  -4   28.10   18.20
  -3  18   4   27.00    5.60
  18  -3  -4   26.10   12.00
 -15  -3   4   33.90   12.20
 -15  18  -4   18.40    5.60
  -3 -15  -4   37.10   15.30
 -18  16  -4  144.49    9.80
   2  16   4  140.29    9.90
 -18  16  -4  104.89   10.30
  16   2  -4  154.08   14.90
   2 -18  -4  149.79   25.60
 -18   2   4  131.99   16.30
  16 -18   4  179.48   23.80
  18  -2  -4  157.08   17.30
  -2 -16  -4  164.98   23.00
  -2  18   4  142.69   10.60
 -16  -2   4  160.48   17.80
 -16  18  -4  112.49   10.30
 -18   1   4    2.60    9.50
  17 -18   4   15.60   14.50
   1 -18  -4   -9.00   15.20
  17   1  -4    3.30    9.50
   1  17   4   -5.20    4.60
  -1  18   4    4.70    5.10
 -17  -1   4    7.30   10.20
  -1 -17  -4   -3.60   15.90
  18  -1  -4   10.90   10.90
   0 -18  -4   64.39   19.10
 -18   0   4   68.19   13.00
  18 -18   4   50.49   15.50
  18   0  -4   48.70   12.20
 -18  18  -4   38.90    6.70
   0  18   4   55.19    7.90
 -19  19   4   27.20    6.70
 -19   0  -4   45.90    7.50
   0 -19   4   23.50   11.80
   0 -19   4   70.39   23.60
  19 -19  -4   25.10   17.20
  19   0   4   31.90    8.20
   0  19  -4   34.70    6.90
 -19   1  -4   59.89    7.70
   1 -19   4   87.09   15.30
  18   1   4   57.39    9.50
   1 -19   4   68.79   23.80
  18 -19  -4   27.40   17.60
   1  18  -4   45.50    7.20
 -19  18   4   60.39    7.90
  19 -18  -4   34.60   17.50
  -1 -18   4   80.19   24.80
  19  -1   4   53.79   10.00
 -18  -1  -4   57.69    8.50
  -1  19  -4   50.89    7.50
 -18  19   4   76.59    9.30
  -1 -18   4   60.39   12.90
   2 -19   4  131.89   27.30
 -19   2  -4  100.19    8.80
  17 -19  -4   56.09   19.40
   2 -19   4  115.39   17.80
 -19  17   4   77.29   10.20
   2  17  -4   83.19    9.10
  17   2   4   97.99   10.30
 -17  -2  -4   95.59    8.50
  19  -2   4   87.79   12.10
  -2  19  -4  103.19   10.30
  19 -17  -4   86.49   19.20
 -17  19   4  102.59    9.40
  -2 -17   4   84.79   22.70
  -2 -17   4   86.59   14.10
   3  16  -4   73.59    9.30
  16   3   4   88.39   10.20
   3 -19   4   72.19   25.00
  16 -19  -4   63.09   19.40
 -19   3  -4   76.59    8.10
  19 -16  -4   62.79   17.90
  -3 -16   4   67.49   12.50
  -3  19  -4   60.79    8.60
 -16  -3  -4   81.99    8.50
  -3 -16   4   83.29   21.40
 -16  19   4   67.99    8.70
  19  -3   4   56.49   10.90
   4  15  -4   34.60    6.30
 -19   4  -4   51.69    7.20
  15 -19  -4   48.10   18.80
   4 -19   4   30.70   22.80
  19 -15  -4   38.00   16.10
 -15  -4  -4   47.10    6.80
  -4  19  -4   41.40    6.50
  -4 -15   4   41.80   10.40
  19  -4   4   17.60    8.30
 -15  19   4   48.60    6.20
  -4 -15   4   52.29   18.90
  14 -19  -4  255.37   27.20
   5 -19   4  288.67   36.50
 -19   5  -4  224.48   12.90
   5  14  -4  231.18   13.80
  19 -14  -4  202.88   23.90
  19  -5   4  220.88   17.20
  -5 -14   4  274.37   27.40
 -14  -5  -4  237.98   12.90
  -5  19  -4  253.27   13.70
 -14  -5  -4  245.68   17.80
 -14  19   4  236.48   12.80
   6 -19   4   27.20   24.50
 -19   6  -4   18.90    5.50
 -19  13   4   17.00    8.00
  13 -19  -4   30.20   17.20
  13   6   4   25.40    4.80
  -6  19  -4   22.00    5.90
 -13  19   4   27.80    5.40
  19 -13  -4   17.10   14.50
 -13  -6  -4   18.40    9.90
  19  -6   4   17.10    9.30
 -13  -6  -4   27.70    5.90
  -6 -13   4   27.30   16.70
   7 -19   4  295.07   37.50
  12 -19  -4  301.27   29.20
 -19  12   4  278.87   18.40
  12   7   4  269.17   13.80
   7  12  -4  279.67   14.60
 -19   7  -4  279.17   14.40
   7  12  -4  288.57   16.90
  19  -7   4  267.47   20.10
 -12  -7  -4  290.37   14.70
  19 -12  -4  221.58   23.90
  -7  19  -4  261.77   14.40
 -12  19   4  302.27   14.80
  -7 -12   4  267.17   25.60
 -12  -7  -4  295.27   20.00
   8  11  -4    7.90    7.10
 -19   8  -4    5.80    4.60
 -19   8  -4   -3.20    5.50
  11 -19  -4   28.00   17.80
  11   8   4    2.50    4.70
 -19  11   4    6.10    8.20
   8 -19   4  -48.00   19.90
  -8  19  -4    3.30    4.90
  -8 -11   4    6.00   14.10
  19 -11  -4  -18.40   12.90
 -11  -8  -4    5.00    4.60
 -11  19   4   15.10    5.30
 -11  -8  -4    2.70   10.00
  10 -19  -4  305.17   29.70
 -19   9  -4  257.17   13.80
 -19  10   4  242.78   18.60
 -19   9  -4  285.77   15.20
   9  10  -4  265.87   16.20
  10   9   4  279.87   13.90
 -10  -9  -4  266.97   13.80
  19 -10  -4  215.78   22.50
  -9  19  -4  264.87   14.40
 -10  -9  -4  274.07   21.80
 -10  19   4  266.97   13.60
  -9 -10   4  271.77   24.60
  19  -9   4  203.78   21.80
 -19  10  -4   37.70    5.90
   9  10   4   45.00    6.40
 -19  10  -4   28.80    6.50
   9 -19  -4   63.79   19.80
  10 -19   4  -21.40   18.30
 -19   9   4   35.20    9.60
  10   9  -4   35.00    8.60
  19  -9  -4   13.10   18.20
 -10  -9   4   34.50   14.20
  -9  19   4   23.00    5.40
 -10  19  -4   28.80    5.60
  -9 -10  -4   23.60    5.60
  -9 -10  -4   45.40   12.60
  11 -19   4   61.99   21.50
   8 -19  -4  160.38   26.40
 -19  11  -4  155.18   11.10
 -19  11  -4  139.99    9.40
   8  11   4  140.89    9.70
  11   8  -4  128.79   12.50
 -19   8   4  116.49   15.40
  -8 -11  -4  133.09   17.50
  19  -8  -4  127.19   19.10
  -8  19   4  138.79   10.20
 -11  19  -4  122.39    9.60
 -11  -8   4  133.99   21.90
 -19  12  -4   45.40    7.10
  12   7  -4   43.10    9.50
 -19  12  -4   41.10    6.20
   7  12   4   40.50    5.70
 -19   7   4   34.90   10.40
   7 -19  -4   49.10   19.50
  12 -19   4   42.60   20.90
  -7  19   4   31.10    5.70
 -12  -7   4   21.10   13.30
  -7 -12  -4   68.29   14.90
 -12  19  -4   23.60    5.50
  19  -7  -4   22.50   13.30
  13   6  -4    0.30    7.90
 -19  13  -4    5.00    4.70
   6 -19  -4   21.50   18.40
   6  13   4    1.60    4.30
 -19  13  -4   -2.40    5.30
 -19   6   4    0.90    9.40
  13 -19   4   -8.40   17.00
  19  -6  -4   -0.50   11.90
  -6  19   4    9.30    5.00
 -13  -6   4    5.40   12.00
  -6 -13  -4   -1.50   11.60
 -13  19  -4    0.30    4.70
  14 -19   4   34.90   18.50
   5  14   4   24.20    5.50
 -19  14  -4   14.20    5.90
 -19  14  -4   23.50    5.80
   5 -19  -4   36.90   18.30
  14   5  -4   22.60    9.40
 -19   5   4   23.60   10.00
  -5 -14  -4   23.20   14.20
  -5  19   4   17.30    5.40
 -14  19  -4   24.60    5.70
  19  -5  -4   20.30   12.90
 -14  -5   4   25.30   12.50
   4 -19  -4    7.20   17.50
 -19  15  -4    1.20    4.90
 -19   4   4   13.70    9.70
   4  15   4    3.20    4.90
 -19  15  -4    7.10    5.50
  15 -19   4   -5.50   15.60
  15   4  -4    9.80    8.90
  19  -4  -4    2.70   10.90
  -4 -15  -4    3.40   14.30
 -15  -4   4    1.00   10.80
 -15  19  -4   -0.80    4.70
  -4  19   4    5.40    5.00
 -19  16  -4    7.60    5.60
 -19   3   4    0.10    9.40
  16   3  -4   -1.20    9.30
   3  16   4   -0.50    4.80
  16 -19   4   -2.20   14.50
   3 -19  -4    9.10   17.80
 -19  16  -4   -1.00    5.40
 -16  19  -4   -6.50    5.20
 -16  -3   4   -1.10   10.30
  19  -3  -4   -0.80   10.50
  -3 -16  -4   -7.30   14.00
  -3  19   4   -2.20    4.60
 -19   2   4   77.49   13.00
   2 -19  -4   62.69   20.40
  17 -19   4   51.99   17.40
  17   2  -4   52.99   11.50
   2  17   4   62.29    8.20
 -17  19  -4   56.99    8.00
  -2  19   4   64.59    8.20
 -17  -2   4   71.79   13.20
  -2 -17  -4   75.29   18.20
  19  -2  -4   66.29   13.20
   1  18   4    4.10    5.00
  18 -19   4   -3.10   14.80
   1 -19  -4    5.70   16.60
  18   1  -4   -4.20    9.20
 -19   1   4    7.30    9.80
 -18  19  -4    7.20    5.60
  19 -18   4   30.00   14.40
 -18  -1   4    0.40    9.80
  -1  19   4   -1.40    5.10
  -1 -18  -4   10.00   17.10
  19  -1  -4   -6.60   10.90
  19 -19   4   95.39   18.10
  19   0  -4   81.49   15.20
   0 -19  -4   81.69   20.50
   0  19   4   82.99    9.60
 -19  19  -4   66.59    9.70
 -19   0   4   60.89   13.00
 -20   0  -4   36.50    6.80
   0  20  -4   43.20    7.80
 -20  20   4   26.00    7.00
   0 -20   4   38.50   22.40
  20   0   4   31.40    8.30
  20 -20  -4   21.10   16.90
   0 -20   4   54.79   17.90
  19   1   4    2.70    6.60
   1 -20   4   53.29   25.40
   1  19  -4   -2.90    6.00
  19 -20  -4    4.30   17.10
 -20  19   4   -3.40    6.20
 -20   1  -4   17.30    5.90
  -1  20  -4    5.80    6.10
  20 -19  -4  -13.80   15.60
  -1 -19   4   20.60   21.80
  -1 -19   4   11.50   12.80
 -19  20   4    8.80    6.10
 -19  -1  -4   14.70    6.00
  20  -1   4   10.40    7.50
 -20   2  -4    3.80    5.60
   2 -20   4   22.80   23.40
  18 -20  -4  -15.30   16.90
   2  18  -4   -0.40    5.80
  18   2   4   -0.40    6.30
 -18  20   4    4.70    5.80
  -2 -18   4  -14.00   10.30
  -2 -18   4   18.80   19.70
  -2  20  -4   -9.20    5.50
  20  -2   4   -3.00    6.90
 -18  -2  -4    1.60    5.60
  20 -18  -4   -6.30   15.80
 -20   3  -4    5.30    5.30
  17   3   4   -1.00    5.60
   3  17  -4   -2.90    6.10
   3 -20   4    6.40   24.90
  17 -20  -4  -10.60   17.30
  -3 -17   4   34.00   19.70
  20 -17  -4  -15.20   15.90
  -3  20  -4    2.60    5.80
  -3 -17   4   -3.50   10.40
  20  -3   4  -17.50    7.20
 -17  -3  -4    0.60    5.40
 -17  20   4    2.10    5.20
   4  16  -4    3.40    5.70
 -20   4  -4    1.30    5.10
   4 -20   4   43.70   26.00
  16 -20  -4    9.90   18.10
  20  -4   4   -9.10    8.20
  20 -16  -4  -12.30   15.50
  -4 -16   4   -7.30    9.00
 -16  -4  -4    4.10    5.50
  -4 -16   4   17.60   18.90
 -16  20   4   -4.10    4.80
  -4  20  -4   -5.20    5.30
 -20   5  -4    5.70    5.20
   5  15  -4   -4.50    5.70
  15 -20  -4   10.00   17.00
   5 -20   4    4.30   24.60
  -5  20  -4   -9.60    5.10
  20  -5   4  -19.50    7.70
  20 -15  -4  -22.10   14.00
  -5 -15   4   -9.40    8.40
 -15  -5  -4    2.40    4.90
 -15  20   4    5.90    5.30
 -15  -5  -4   -2.60    8.90
  -5 -15   4   25.00   18.50
 -20   6  -4   59.79    7.60
   6  14  -4   36.30    6.50
   6 -20   4   47.40   25.70
 -20  14   4   47.70    9.30
  14 -20  -4   49.20   18.40
  20  -6   4   41.50   10.60
  -6 -14   4   60.79   18.60
  -6  20  -4   44.90    7.00
 -14  -6  -4   51.99   11.50
  20 -14  -4   20.90   15.70
 -14  20   4   66.29    7.80
 -14  -6  -4   49.60    8.20
   7  13  -4   21.40    7.80
   7  13  -4   40.70    9.20
  13 -20  -4   50.59   18.70
  13   7   4   23.20    7.90
   7 -20   4   17.80   24.50
 -20   7  -4   33.90    6.40
 -20  13   4   36.60    9.60
  -7 -13   4   21.70   15.80
 -13  -7  -4   25.00   10.40
  -7  20  -4   27.50    6.10
 -13  -7  -4   29.70    6.10
 -13  20   4   29.10    6.00
  20  -7   4   -3.10   10.40
  20 -13  -4   13.70   15.20
 -20  12   4   48.50    9.70
   8  12  -4   43.20    8.80
 -20   8  -4   33.00    6.00
  12   8   4   21.30    5.10
  12 -20  -4   41.40   19.00
   8 -20   4   39.50   24.90
  20 -12  -4   21.60   15.40
 -12  -8  -4   40.40    6.60
 -12  20   4   42.40    6.30
  -8  20  -4   28.00    5.90
 -12  -8  -4   34.90   11.80
  -8 -12   4   12.40   14.00
 -20  11   4   73.49   11.80
   9  11  -4   61.39   10.40
  11 -20  -4   70.59   19.80
 -20   9  -4   58.09    8.00
  11   9   4   67.09    7.60
   9 -20   4  -11.50   22.20
 -11  -9  -4   65.09    8.70
 -11  20   4   58.49    8.40
  -9 -11   4   78.19   17.10
  -9  20  -4   53.69    7.80
  20 -11  -4   23.00   14.70
 -11  -9  -4   63.69   13.10
  10 -20   4  -45.10   20.60
  10  10  -4    8.60    8.00
  10 -20  -4   20.80   17.50
  10  10   4    7.40    4.90
 -20  10  -4    3.00    6.10
 -20  10  -4    8.50    5.00
 -20  10   4   15.90    8.60
  20 -10  -4  -20.00   11.60
 -10 -10   4   14.10   13.60
 -10  20   4   11.50    5.10
 -10 -10  -4   14.90   11.80
  20 -10   4   22.60   13.80
 -10  20  -4    6.60    5.10
 -20   9   4   27.50   10.10
   9  11   4   26.80    5.40
   9 -20  -4   58.39   19.50
  11 -20   4  -16.60   20.40
 -20  11  -4   32.30    6.00
  11   9  -4   25.00    8.40
 -11  -9   4   37.50   14.30
  -9  20   4   21.00    5.50
 -11  20  -4   26.90    6.20
  20  -9  -4   -0.60   13.10
  -9 -11  -4   44.50   13.80
  12 -20   4  -53.69   18.90
   8  12   4    4.60    4.80
  12   8  -4   -6.30    7.20
 -20  12  -4   -8.70    5.70
 -20   8   4   -4.20    8.70
 -20  12  -4   -1.70    4.70
   8 -20  -4    7.10   16.90
  -8 -12  -4   -6.90   11.20
 -12  -8   4   -4.00   12.40
 -12  20  -4    1.60    4.70
  20  -8  -4  -18.80   12.40
  -8  20   4    2.80    4.90
   7  13   4   -5.10    4.60
 -20  13  -4   -8.20    5.70
   7 -20  -4    0.10   16.30
 -20  13  -4    1.80    5.00
  13 -20   4  -18.10   18.20
 -20   7   4    0.10    9.40
  13   7  -4    4.50    7.90
  20  -7  -4  -16.20   11.90
  -7 -13  -4    2.40   12.90
  -7  20   4    6.20    5.20
 -13  20  -4    0.10    4.90
 -13  -7   4   -7.30   11.10
   6 -20  -4    9.70   17.60
 -20  14  -4    8.20    5.30
  14   6  -4    1.30    8.40
 -20   6   4    2.50    9.20
   6  14   4    5.80    5.10
  14 -20   4    7.10   20.30
 -20  14  -4   -2.20    5.70
  20  -6  -4   -1.20   12.20
  -6 -14  -4    5.00   13.40
  -6  20   4    8.40    5.40
 -14  20  -4    2.80    5.10
 -14  -6   4   -6.30   11.50
 -20   5   4   11.30    9.90
 -20  15  -4    0.00    4.80
  15 -20   4   -8.60   18.20
 -20  15  -4    6.80    5.80
   5  15   4    4.10    5.00
   5 -20  -4   15.90   18.80
  15   5  -4   -5.90    8.50
  -5  20   4    2.20    5.20
 -15  -5   4   -4.70   11.20
  -5 -15  -4   -0.30   13.30
  20  -5  -4    0.30   12.50
 -15  20  -4   -2.90    4.80
 -20  16  -4   19.40    6.30
 -20  16  -4   36.50    6.30
  16 -20   4   32.00   19.10
  16   4  -4   48.40   10.80
 -20   4   4   50.69   11.50
   4  16   4   44.80    6.90
   4 -20  -4   52.39   20.30
 -16  -4   4   28.70   11.60
  -4 -16  -4   50.99   16.50
  -4  20   4   47.70    6.60
  20  -4  -4   35.50   13.20
 -16  20  -4   52.79    7.00
   3 -20  -4    0.90   18.30
 -20  17  -4   -1.40    5.30
  17 -20   4   11.20   16.70
   3  17   4   -0.80    5.20
 -20   3   4    7.10    9.70
  17   3  -4    0.30    9.90
  -3 -17  -4   -8.10   14.90
  -3  20   4   11.10    5.50
  20  -3  -4    6.80   12.10
 -17  -3   4  -15.20    9.50
 -17  20  -4    9.40    5.60
 -20  18  -4   35.00    7.40
 -20   2   4   22.30   10.40
  18 -20   4   58.19   18.10
   2  18   4   37.60    6.40
   2 -20  -4   53.69   20.10
  18   2  -4   48.20   11.90
  20  -2  -4   35.90   13.00
  -2  20   4   49.99    6.70
 -18  -2   4   15.70   10.80
 -18  20  -4   35.00    6.60
  -2 -18  -4   40.50   17.00
  19   1  -4    1.10   10.20
  19 -20   4   -8.80   15.10
 -20   1   4    9.20    9.80
   1  19   4    5.40    5.60
   1 -20  -4    8.40   17.20
 -20  19  -4   -5.80    5.70
 -19  -1   4   -1.30    9.90
  20  -1  -4    4.20   10.90
  -1  20   4   10.50    5.90
  -1 -19  -4   15.70   16.10
  20 -19   4   27.40   14.90
 -19  20  -4    6.10    5.70
   0 -20  -4    7.80   16.80
   0  20   4   16.10    6.20
 -20   0   4   13.60   10.20
  20   0  -4   24.70   11.70
  20 -20   4   25.00   16.00
 -20  20  -4   21.70    6.60
 -21   1  -4   37.40    7.30
  20   1   4   34.90    8.70
  20 -21  -4   24.80   19.40
   1  20  -4   22.40    7.00
  -1  21  -4   14.50    6.30
  21 -20  -4   15.10   17.60
  -1 -20   4   74.49   22.10
 -20  -1  -4   29.40    6.40
  -1 -20   4   18.50   13.00
 -20  21   4   16.10    6.80
  21  -1   4   22.50    8.40
  19 -21  -4   11.70   18.50
   2  19  -4   34.30    7.50
 -21   2  -4   37.20    6.70
  19   2   4   19.50    7.20
  -2 -19   4   12.10   12.50
  21  -2   4   25.20    8.70
  21 -19  -4   23.60   17.50
 -19  -2  -4   29.30    6.50
  -2  21  -4   16.00    6.60
 -19  21   4   27.70    7.00
  -2 -19   4   49.00   21.30
  18 -21  -4   17.20   18.90
 -21   3  -4   74.69    8.40
  18   3   4   68.69    9.70
   3  18  -4   79.09    9.10
 -18  21   4   84.69   10.20
  21  -3   4   62.19   11.40
 -18  -3  -4   74.09    9.00
  -3  21  -4   69.39   10.10
  21 -18  -4   91.09   20.00
  -3 -18   4  109.09   23.30
  -3 -18   4   83.69   15.20
  17   4   4   82.59   10.50
   4  17  -4   42.40    7.50
  17 -21  -4   38.50   18.80
   4 -21   4   88.79   29.70
 -21   4  -4   76.39    9.00
  -4  21  -4   51.69    7.40
  21 -17  -4   62.59   19.30
  21  -4   4   62.29   11.50
  -4 -17   4   64.89   21.90
 -17  -4  -4   68.09    8.70
  -4 -17   4   47.60   12.60
 -17  21   4   63.69    9.40
   5 -21   4  142.09   30.90
   5  16  -4  115.29   11.30
 -21   5  -4  116.19    9.30
  16 -21  -4   60.59   20.20
  -5  21  -4  123.59   10.00
 -16  -5  -4  118.89    9.50
  -5 -16   4   85.59   20.60
  21  -5   4   88.09   14.60
 -16  21   4   96.99   10.20
  21 -16  -4  105.79   20.20
   6  15  -4  129.89   11.50
  15 -21  -4  112.29   22.00
 -21   6  -4  125.29    9.70
   6 -21   4  157.88   30.60
  21 -15  -4  104.49   20.00
 -15  -6  -4  113.89   16.10
  -6  21  -4  132.89   10.10
  21  -6   4  101.79   15.70
  -6 -15   4  171.68   24.90
 -15  21   4  112.49    9.80
 -15  -6  -4  137.29   10.70
 -21   7  -4  249.28   13.50
 -21  14   4  232.18   17.20
   7  14  -4  258.27   14.80
  14 -21  -4  276.47   28.80
  -7 -14   4  266.87   26.30
 -14  21   4  236.68   13.80
 -14  -7  -4  239.28   19.10
  -7  21  -4  240.88   13.60
  21  -7   4  184.18   20.20
  21 -14  -4  208.28   25.00
   8 -21   4    3.90   25.10
  13 -21  -4   35.90   19.20
  13   8   4   14.10    5.60
   8  13  -4   18.20    8.10
 -21  13   4   12.80    8.40
 -21   8  -4   16.60    5.70
 -13  -8  -4   19.40   10.50
  -8  21  -4   15.20    5.70
  -8 -13   4    5.60   14.70
 -13  -8  -4   14.50    5.80
 -13  21   4   19.80    5.60
  21 -13  -4   -3.70   15.10
 -21  12   4  190.78   16.50
  12 -21  -4  248.28   29.10
 -21   9  -4  185.88   11.80
   9  12  -4  217.98   16.00
  -9 -12   4  155.68   24.50
 -12  -9  -4  209.98   12.60
  -9  21  -4  198.48   12.20
 -12  -9  -4  210.78   18.60
 -12  21   4  210.28   12.40
  21 -12  -4  157.68   23.30
  21  -9   4  134.79   23.10
  10 -21   4   -6.70   23.70
 -21  11   4    3.70    8.80
  11 -21  -4   30.10   19.10
 -21  10  -4   14.40    5.70
  10  11  -4   12.60    8.20
  11  10   4   15.70    5.10
  21 -10   4   37.70   15.60
 -11 -10  -4   16.40   11.00
 -10 -11   4   -2.00   13.70
 -10  21  -4   18.40    6.00
  21 -11  -4   -8.30   13.90
 -11  21   4   17.70    5.70
  10 -21  -4  184.28   28.30
  11 -21   4   76.69   25.90
 -21  10   4  154.18   14.30
  10  11   4  158.78   10.50
 -21  11  -4  146.79   10.30
  11  10  -4  126.59   13.30
 -10  21   4  167.38   10.60
  21 -10  -4  101.79   20.20
 -11 -10   4  158.18   22.50
 -10 -11  -4  160.28   18.40
 -11  21  -4  164.18   10.80
 -21  12  -4   32.00    6.00
   9 -21  -4   43.70   20.00
 -21   9   4   48.80   10.30
 -21  12  -4   29.50    7.80
  12   9  -4   33.80    9.70
  12 -21   4  -44.00   22.30
   9  12   4   29.60    6.20
 -12  21  -4   18.90    5.80
  -9 -12  -4   29.50   13.60
 -12  -9   4   28.80   13.40
  -9  21   4   27.50    6.10
  21  -9  -4    9.10   13.20
 -21  13  -4   59.99    8.30
 -21   8   4   70.19   12.00
 -21  13  -4   64.59    8.40
   8 -21  -4   48.50   21.10
  13 -21   4   24.50   23.60
   8  13   4   65.19    8.60
  13   8  -4   54.49   10.20
  21  -8  -4   26.20   15.30
  -8 -13  -4   61.89   14.90
  -8  21   4   65.39    8.40
 -13  -8   4   60.09   15.60
 -13  21  -4   56.29    8.10
   7 -21  -4   18.10   19.80
  14 -21   4  -34.10   20.10
 -21  14  -4    5.30    6.50
  14   7  -4    7.60    8.90
 -21  14  -4   10.30    5.60
   7  14   4    1.00    5.00
 -21   7   4    6.40    9.40
  -7 -14  -4   -3.30   12.50
 -14  -7   4    5.30   11.70
  -7  21   4    7.70    5.40
  21  -7  -4  -11.30   12.70
 -14  21  -4   10.90    5.40
  15   6  -4   -4.00    9.20
   6  15   4   -2.20    5.40
 -21  15  -4    4.60    5.50
 -21  15  -4   -6.20    6.20
  15 -21   4  -27.80   18.80
   6 -21  -4    8.00   19.40
 -21   6   4    8.60    8.90
  -6 -15  -4    3.30   13.90
  -6  21   4   -2.50    5.10
 -15  21  -4    0.30    5.00
  21  -6  -4  -17.20   12.30
 -15  -6   4    7.40   11.40
 -21  16  -4   14.80    5.70
  16   5  -4   11.20    9.60
   5 -21  -4   26.30   19.20
 -21   5   4   14.10    9.50
   5  16   4   11.90    5.60
  16 -21   4   18.30   19.60
 -21  16  -4   21.50    6.90
  -5  21   4   17.50    5.80
  -5 -16  -4   26.60   14.90
 -16  -5   4   15.50   10.90
  21  -5  -4   13.20   13.30
 -16  21  -4   23.80    6.40
  17 -21   4   38.70   19.70
 -21  17  -4   51.59    7.80
   4  17   4   65.79    7.80
  17   4  -4   57.69   11.70
   4 -21  -4   48.20   20.80
 -21   4   4   52.99   11.60
 -17  21  -4   73.49    8.90
  -4 -17  -4   79.49   17.90
 -17  -4   4   39.40   12.20
  21  -4  -4   56.69   14.20
  -4  21   4   57.79    7.40
   3  18   4    5.50    5.40
  18   3  -4    7.30   10.30
 -21   3   4    7.70    9.10
  18 -21   4   17.90   17.30
   3 -21  -4   14.30   19.20
  21  -3  -4   -2.70   11.70
  -3 -18  -4   16.60   16.10
  -3  21   4    3.50    5.40
 -18  -3   4   -9.20    9.60
 -18  21  -4    1.00    5.50
  19   2  -4   78.89   15.00
   2 -21  -4   88.59   21.50
 -21   2   4   83.89   12.90
  19 -21   4   82.09   20.20
   2  19   4   87.49    9.60
 -21  19  -4   60.79    8.40
 -19  21  -4  102.69   10.40
  -2 -19  -4   88.79   19.60
 -19  -2   4   66.79   13.00
  -2  21   4   90.19    9.90
  21  -2  -4   84.89   15.00
  20   1  -4   12.70   11.00
 -21   1   4   -6.10    9.10
   1 -21  -4   -3.00   17.70
 -21  20  -4   -0.40    6.20
   1  20   4    4.20    5.70
  20 -21   4   17.20   17.70
  -1  21   4    4.90    5.60
  21 -20   4   29.10   16.30
 -20  -1   4   10.80    9.90
  -1 -20  -4    0.10   15.50
 -20  21  -4    4.60    6.00
  21  -1  -4    0.40   11.80
  18   4   4   32.40    7.90
 -22   4  -4   35.10    6.80
  18 -22  -4   18.00   18.30
   4  18  -4   33.00    7.90
  22  -4   4   33.10    9.90
  -4  22  -4   56.39    8.10
  -4 -18   4   69.19   21.00
  -4 -18   4   18.20   12.30
 -18  -4  -4   38.80    6.80
 -18  22   4   54.29    7.70
  22 -18  -4   55.19   19.30
 -22   5  -4    4.20    5.30
  17   5   4    3.70    6.50
  17 -22  -4  -18.10   16.60
   5  17  -4   -0.90    6.60
  22 -17  -4   15.10   16.80
  22  -5   4    3.50    9.70
 -17  22   4    1.20    6.00
  -5  22  -4    1.40    5.70
  -5 -17   4   33.70   19.70
 -17  -5  -4    2.90    5.80
  16 -22  -4   13.70   17.60
 -22   6  -4   25.80    6.20
   6  16  -4   18.10    6.90
 -16  -6  -4   27.30    6.80
  -6 -16   4   62.19   21.10
  22  -6   4   18.60   11.40
  22 -16  -4   10.40   15.90
  -6  22  -4   22.80    6.30
 -16  22   4   19.70    5.90
  15 -22  -4   10.60   17.90
 -22   7  -4    1.20    5.20
   7  15  -4   11.00    8.20
 -22  15   4    1.60    9.00
  -7 -15   4   28.20   17.90
  22 -15  -4   -9.40   15.70
  -7  22  -4    2.70    5.60
 -15  22   4    0.80    5.70
 -15  -7  -4   -4.70    5.60
 -15  -7  -4    0.00    9.90
   8  14  -4   15.30    8.30
 -22   8  -4   12.00    5.40
 -22  14   4    3.20    8.40
  14 -22  -4   22.60   18.80
 -14  22   4   -0.10    5.20
  -8  22  -4   10.90    5.80
  22 -14  -4   -9.90   15.40
 -14  -8  -4   -0.40    5.70
  -8 -14   4   18.60   16.80
 -14  -8  -4   -1.10    9.90
 -22  13   4   16.80    8.50
   9  13  -4   25.50    8.60
  13 -22  -4   31.10   19.30
   9 -22   4    6.20   32.50
 -22   9  -4   24.40    6.00
 -13  22   4   22.50    5.80
 -13  -9  -4   17.60   11.30
  22  -9   4  -12.30   15.00
  -9 -13   4   20.30   16.60
  -9  22  -4   20.90    6.10
  22 -13  -4    9.20   15.40
 -13  -9  -4   22.00    6.40
 -22  10  -4   33.50    6.30
  12 -22  -4   65.79   21.80
  10 -22   4   30.30   28.00
  10  12  -4   38.80    9.20
 -22  12   4   19.20    8.80
 -12  22   4   33.50    6.10
 -10  22  -4   42.10    7.00
  22 -12  -4   21.00   16.40
  22 -10   4   60.59   17.40
 -10 -12   4   14.90   14.60
 -12 -10  -4   45.70   12.60
  11  11   4   14.20    5.80
 -22  11  -4   15.40    5.80
  11 -22  -4   32.10   19.90
  11 -22   4   -5.50   26.60
 -22  11   4    8.60    8.90
  11  11  -4   17.10    9.20
 -11 -11   4  -11.50   12.60
 -11  22   4   22.10    6.10
 -11  22  -4   15.90    5.80
 -11 -11  -4   12.10   11.60
  22 -11  -4  -14.90   14.10
  12  10  -4   19.30    9.60
  10 -22  -4   64.59   20.60
 -22  12  -4   16.20    5.70
  12 -22   4    3.40   26.00
  10  12   4   17.70    5.90
 -22  10   4   22.70    9.40
 -10 -12  -4   18.40   12.50
 -12 -10   4   11.00   14.20
  22 -10  -4   -0.70   13.90
 -12  22  -4   19.60    5.80
 -10  22   4   19.80    5.70
   9 -22  -4   11.30   18.50
  13   9  -4   -0.80    8.20
   9  13   4   -1.90    5.30
 -22   9   4    3.60    8.90
  13 -22   4  -48.50   22.30
 -22  13  -4   -0.50    5.00
 -13  22  -4    3.30    5.40
  -9 -13  -4    7.70   12.30
 -13  -9   4   -1.50   12.20
  -9  22   4    8.60    5.60
  22  -9  -4  -28.40   12.50
  14   8  -4   20.10    9.70
  14 -22   4  -14.10   23.30
 -22  14  -4   24.20    6.30
 -22   8   4   45.20   10.30
   8  14   4   17.00    5.80
   8 -22  -4   27.20   19.00
  -8  22   4   26.40    5.90
  22  -8  -4    1.70   14.60
  -8 -14  -4   42.90   14.40
 -14  -8   4   36.80   14.00
 -14  22  -4   34.00    6.60
  15 -22   4  -46.20   21.10
 -22  15  -4   20.40    6.10
  15   7  -4   22.00   10.50
   7 -22  -4   29.90   20.50
   7  15   4   23.30    6.40
 -22  15  -4    6.60    6.90
 -22   7   4   20.60    9.10
 -15  -7   4   18.50   11.00
 -15  22  -4   26.20    6.20
  22  -7  -4   -0.90   13.30
  -7  22   4   20.10    5.80
  -7 -15  -4   20.40   13.40
   6 -22  -4   44.70   20.30
 -22  16  -4   12.70    7.00
   6  16   4   16.90    6.00
 -22   6   4   16.00    9.30
 -22  16  -4   16.00    5.60
  16 -22   4  -32.40   19.40
  16   6  -4   24.70   10.00
 -16  22  -4    9.30    5.70
  22  -6  -4   -0.80   13.10
  -6 -16  -4   22.60   15.10
  -6  22   4   12.80    5.70
 -16  -6   4   21.50   11.10
 -22  17  -4    2.20    6.70
   5  17   4    8.40    5.80
 -22   5   4   47.50   10.90
  17   5  -4   35.20   10.70
  17 -22   4   17.20   20.00
 -22  17  -4   15.20    5.90
   5 -22  -4   38.10   19.90
 -17  22  -4   37.00    6.80
  22  -5  -4   17.30   13.40
  -5 -17  -4   48.40   16.40
  -5  22   4   29.00    6.60
 -17  -5   4   21.90   11.60
   4  18   4    6.00    5.90
  18   4  -4    9.70   10.10
   4 -22  -4    8.90   19.00
 -22  18  -4   -5.10    5.70
  18 -22   4  -17.90   19.20
 -22   4   4    4.10    9.10
  -4 -18  -4   -2.90   13.60
  -4  22   4    6.60    5.50
 -18  -4   4   12.00   10.90
  22  -4  -4  -13.00   11.80
 -18  22  -4   10.30    6.00
 -23   7  -4   51.59    7.90
   7  16  -4   74.29   11.90
  16 -23  -4   39.20   19.50
  -7  23  -4   30.50    6.80
  23 -16  -4   40.40   17.70
 -16  -7  -4   38.30    7.70
 -16  23   4   32.70    7.00
  -7 -16   4   53.39   19.70
  15 -23  -4  -18.40   17.40
 -23  15   4   10.50    8.30
   8  15  -4   27.40    8.90
 -23   8  -4    4.30    5.30
 -15  -8  -4    0.40    5.90
  23 -15  -4   -1.00   16.50
 -15  -8  -4    5.00   10.60
 -15  23   4    2.10    5.50
  -8  23  -4   13.20    6.00
  -8 -15   4   24.50   18.30
  14 -23  -4   55.19   20.40
 -23  14   4   33.50    9.60
   9  14  -4   35.90    9.30
 -23   9  -4   38.90    6.70
  -9 -14   4   43.00   18.60
  23 -14  -4   31.60   16.40
 -14  -9  -4   22.00    6.80
 -14  23   4   24.50    6.20
  -9  23  -4   29.60    6.80
 -14  -9  -4   30.90   12.10
  23  -9   4   41.10   18.50
 -23  10  -4    5.80    5.30
 -23  13   4    8.20    8.70
  13 -23  -4   15.90   18.50
  10  13  -4    3.40    7.90
 -10 -13   4   19.20   15.60
  23 -13  -4   -2.10   15.60
 -13 -10  -4   -0.90   10.50
 -13  23   4   -4.00    5.20
 -10  23  -4    0.70    5.70
 -23  12   4  102.59   13.40
 -23  11  -4   76.99    8.30
  11  12  -4   85.39   12.30
  12 -23  -4   92.79   22.20
 -12  23   4   78.89    9.10
  23 -12  -4   62.89   17.70
 -12 -11  -4   98.39   16.10
 -11  23  -4   86.89    9.30
 -11 -12   4   95.59   18.60
  11 -23  -4   12.60   18.20
  12  11  -4   -2.30    8.40
 -23  11   4    9.60    8.50
  11  12   4   -1.30    5.60
 -23  12  -4    4.80    5.10
 -11  23   4    4.10    5.70
 -12 -11   4  -21.10   12.20
  23 -11  -4  -14.40   14.30
 -12  23  -4    5.90    5.70
 -11 -12  -4    3.60   11.30
 -23  13  -4   64.39    8.10
  13  10  -4   54.39   10.90
 -23  10   4   82.59   11.80
  10  13   4   72.59    9.60
  10 -23  -4   85.39   21.80
 -10  23   4   60.69    8.70
 -13  23  -4   56.39    7.60
 -13 -10   4   26.60   14.90
  23 -10  -4   37.10   16.40
 -10 -13  -4   59.79   14.80
   9  14   4   17.10    6.40
  14   9  -4   17.30   10.10
 -23   9   4   10.70    9.50
  14 -23   4  -40.60   41.70
 -23  14  -4   14.00    5.90
   9 -23  -4   31.20   20.40
 -14  23  -4   13.50    5.70
  23  -9  -4   -1.30   13.80
  -9  23   4   16.00    5.70
  -9 -14  -4    9.20   13.00
 -14  -9   4   14.80   11.60
 -23   8   4   -1.90    8.80
   8  15   4    5.20    6.30
 -23  15  -4    7.70    5.50
   8 -23  -4   28.30   20.10
  15 -23   4  -52.19   23.70
  15   8  -4   -1.40    9.60
 -15  23  -4   11.50    5.50
  -8  23   4    4.70    5.80
  -8 -15  -4   -0.10   13.00
 -15  -8   4    5.70   10.60
  23  -8  -4  -10.60   14.40
   7  16   4   34.70    6.90
 -23  16  -4   22.60    6.20
   7 -23  -4   52.29   20.90
  16   7  -4   10.50    9.70
  16 -23   4  -25.30   22.80
 -23   7   4   19.80    8.90
 -16  -7   4   34.60   11.90
  -7  23   4   36.90    6.80
 -16  23  -4   30.30    6.70
  23  -7  -4    0.50   14.10
  -7 -16  -4   20.30   14.20
   0   0   5  569.24   35.50
   0   0  -5  524.75   23.60
   0   0  -5  575.24   27.00
  -1   0  -5   10.40    7.40
   0  -1   5   12.40   18.40
  -1   1   5   25.80   19.60
   0   1  -5   11.30    4.70
   0   1  -5   13.70    7.00
  -1   0  -5    9.40    4.80
   1  -1  -5    1.10    4.60
   1  -1  -5   20.60    9.90
   1   0   5   10.20   15.60
  -1   1  -5  233.08   12.60
   1  -1   5  278.67   26.70
  -1   0   5  270.77   29.50
   1   0  -5  219.18   12.40
  -1   1  -5  231.28   13.60
   0  -1  -5  243.38   18.10
   1   0  -5  270.87   17.50
   0  -1  -5  220.18   12.50
   0   1   5  257.97   26.10
   2   0   5  219.58   24.10
  -2   0  -5  241.98   13.30
   2  -2  -5  277.37   20.50
   0  -2   5  285.17   30.80
  -2   0  -5  242.18   14.70
   0   2  -5  269.47   13.90
  -2   2   5  308.57   29.60
   2  -2  -5  240.68   13.20
   0   2  -5  254.27   13.10
   1  -2  -5    8.60    4.90
   1   1  -5   29.90    8.30
  -2   1   5   41.20   19.30
  -2   1  -5    3.00    3.90
   1   1  -5    7.40    5.00
   1  -2   5   26.50   18.10
   1  -2  -5   24.70   11.20
   1   1   5   15.00   15.70
  -2   1  -5    5.20    4.50
   2  -1  -5    4.60    4.50
  -1   2  -5    6.70    4.80
   2  -1   5   21.40   16.20
  -1  -1  -5    1.50    4.60
  -1  -1  -5   10.30    8.80
  -1   2   5   17.50   17.80
  -1  -1   5   22.80   19.60
   2  -1  -5   30.50   10.50
   0   2   5  157.68   25.60
   0  -2  -5  144.49   17.00
  -2   2  -5  119.69    9.40
   2  -2   5  144.29   20.90
   0  -2  -5  128.69    9.80
   2   0  -5  174.98   15.10
  -2   0   5  203.88   31.60
   2   0  -5  125.49    9.30
  -3   0  -5   76.39    8.20
  -3   3   5  120.39   20.90
   0   3  -5   73.29    7.70
   3  -3  -5   72.29    7.80
   3   0   5   77.69   16.00
   3  -3  -5   98.09   17.90
  -3   0  -5   68.09    9.00
   0  -3   5   84.69   22.00
   2  -3  -5  156.48   10.50
   2  -3  -5  181.28   19.40
  -3   2   5  208.08   27.80
   2   1   5  169.48   22.00
  -3   1  -5  157.98    8.90
  -3   1  -5  176.18   10.30
   1   2  -5  171.48   10.30
   1  -3   5  218.78   27.80
  -2   3   5  201.68   29.60
  -2  -1  -5  163.78   10.80
  -1   3  -5  165.38   10.30
   3  -2  -5  183.58   18.70
  -1  -2   5  166.58   25.50
   3  -2  -5  158.08   10.40
   3  -1   5  141.99   21.90
  -2  -1  -5  172.08   14.50
   1  -3  -5  118.89   18.50
   2  -3   5   90.19   20.60
  -3   2  -5   94.99    8.70
   2   1  -5   96.29    8.20
   2   1  -5  141.89   13.40
   1  -3  -5   93.19    8.70
  -3   1   5   98.19   21.60
   1   2   5   90.79   17.80
  -1  -2  -5  105.99    8.90
  -1  -2  -5  116.29   16.00
  -2  -1   5  130.09   24.30
   3  -1  -5  123.89   16.30
  -2   3  -5   83.59    8.40
   3  -2   5  112.79   18.70
  -1   3   5   86.99   19.50
   3  -1  -5   86.49    8.10
   3   0  -5  412.66   18.30
   3   0  -5  399.06   22.40
  -3   3  -5  381.76   18.10
   3  -3   5  410.66   30.00
   0   3   5  389.56   30.40
   0  -3  -5  403.26   25.00
  -3   0   5  392.36   34.50
   0  -3  -5  395.26   18.40
   0  -4   5   20.20   21.10
  -4   0  -5    1.30    5.20
   4   0   5   -5.50   12.20
  -4   4   5    2.30   18.10
   0   4  -5    2.80    4.30
  -4   0  -5   -0.70    4.90
   4  -4  -5   12.70   12.20
   4  -4  -5    2.70    4.70
  -4   3   5   45.70   20.10
   1  -4   5   18.30   19.30
   3  -4  -5   14.90    5.00
  -4   1  -5   15.30    3.80
   1   3  -5   21.00    5.30
   3   1   5   24.20   14.70
  -4   1  -5   16.40    5.00
  -3  -1  -5    5.90    4.80
   4  -3  -5   15.40    5.00
  -3  -1  -5   24.00    7.70
  -3   4   5   38.40   18.00
  -1  -3   5   36.30   21.50
  -1   4  -5   13.10    4.80
   4  -1   5   18.70   14.10
   4  -3  -5   26.90   12.40
  -4   2  -5   28.00    5.60
   2  -4   5   38.90   19.90
  -4   2   5   25.90   20.00
   2  -4  -5   38.70   13.00
   2  -4  -5   30.70    5.60
   2   2  -5   32.60    5.60
   2   2   5   39.10   14.70
   4  -2  -5   49.99   12.30
  -2  -2   5   53.69   21.70
  -2  -2  -5   20.60   10.40
   4  -2  -5   31.60    5.70
  -2  -2  -5   25.30    5.70
   4  -2   5   36.50   14.80
  -2   4   5   39.40   19.00
  -2   4  -5   23.10    5.20
   1   3   5  203.18   24.70
  -4   3  -5  170.08   10.70
   1  -4  -5  176.88   20.90
   3   1  -5  173.18   10.40
   3  -4   5  181.08   25.60
   1  -4  -5  180.18   11.60
  -4   1   5  189.18   29.70
   4  -1  -5  225.18   17.50
  -3  -1   5  172.08   26.60
  -1   4   5  199.08   24.70
   4  -1  -5  168.08   10.20
  -1  -3  -5  177.58   18.70
  -1  -3  -5  177.08   11.10
   4  -3   5  163.68   23.10
  -3   4  -5  158.88   10.40
  -4   4  -5    1.30    4.70
   4   0  -5    4.70    4.60
   0  -4  -5   -0.90    4.90
   0   4   5    5.80   15.40
   0  -4  -5   -3.50   11.20
   4  -4   5   13.50   16.40
   4   0  -5   15.40    8.70
  -4   0   5    7.90   21.00
  -5   0  -5  566.94   25.40
  -5   5   5  642.14   39.10
   0  -5   5  621.54   42.20
   5   0   5  522.85   31.20
   5  -5  -5  565.14   32.50
   5  -5  -5  565.34   24.60
   0   5  -5  574.74   24.30
  -5   0  -5  579.94   24.70
   4   1   5   55.79   14.40
   1   4  -5   56.29    8.00
  -5   4   5   81.39   20.50
   1   4  -5   53.59    6.90
  -5   1  -5   46.40    6.30
   4  -5  -5   49.70    6.40
   4  -5  -5   73.69   15.80
   1  -5   5   64.89   21.80
  -5   1  -5   49.50    6.50
   5  -4  -5   82.09   15.90
  -4  -1  -5   57.59   10.40
  -1  -4   5   75.79   23.90
  -1   5  -5   61.09    7.30
   5  -4  -5   42.20    5.90
  -4   5   5   62.09   20.80
   5  -1   5   67.99   14.80
  -4  -1  -5   58.59    7.80
  -5   2  -5  309.17   16.10
   3  -5  -5  355.06   26.50
   2   3  -5  358.06   15.90
   3   2   5  347.97   26.20
   2   3  -5  305.27   17.60
   3  -5  -5  333.47   16.30
  -5   3   5  320.37   32.30
   2  -5   5  365.16   32.40
   5  -2   5  270.37   24.50
  -3  -2  -5  331.87   20.70
   5  -3  -5  354.96   23.80
  -2  -3   5  356.96   34.90
   5  -3  -5  330.97   16.20
  -3  -2  -5  348.17   16.30
  -2   5  -5  342.67   16.30
  -3   5   5  354.86   28.70
   5  -2   5  360.66   13.70
  -5   2   5  731.53   45.10
  -5   3  -5  794.62   31.70
   2  -5  -5  810.02   31.90
   2   3   5  760.52   40.00
   2  -5  -5  761.62   38.90
   3   2  -5  727.73   33.60
   3   2  -5  765.82   31.50
   3  -5   5  778.72   43.30
  -3   5  -5  742.33   31.50
  -2  -3  -5  756.12   36.80
  -2  -3  -5  786.22   31.90
   5  -2  -5  805.72   31.70
  -3  -2   5  788.42   47.60
   5  -3   5  682.13   39.00
  -2   5   5  807.32   43.80
   4   1  -5  379.56   17.50
   1   4   5  439.66   27.80
   4   1  -5  327.27   20.80
   4  -5   5  343.07   30.70
   1  -5  -5  394.86   26.70
   1  -5  -5  395.56   18.20
  -5   1   5  419.66   35.30
  -5   4  -5  374.56   17.80
  -4  -1   5  384.66   36.50
   5  -1  -5  446.06   23.40
  -1  -4  -5  389.56   18.00
   5  -4   5  338.77   28.10
   5  -1  -5  363.96   17.40
  -4   5  -5  383.46   17.80
  -1  -4  -5  429.96   26.90
  -1   5   5  447.56   31.10
  -5   0   5 1625.44   74.99
   0  -5  -5 1611.84   69.69
   0  -5  -5 1613.04   63.09
   5   0  -5 1608.84   62.69
   0   5   5 1723.03   70.49
   5   0  -5 1450.45   65.49
  -5   5  -5 1612.84   62.69
   5  -5   5 1630.44   70.49
   0   6  -5  449.56   20.20
  -6   0  -5  454.55   21.30
   0  -6   5  423.06   38.90
  -6   6   5  507.35   35.10
   6  -6  -5  453.15   20.70
  -6   0  -5  470.15   20.90
   6  -6  -5  483.95   31.70
   1   5  -5   43.80    7.60
   5  -6  -5   75.09   16.60
  -6   1  -5   66.09    7.50
   5   1   5   62.39   14.50
   5  -6  -5   70.19    7.80
   1   5  -5   72.49    7.50
  -6   5   5   95.69   21.50
   1  -6   5  114.99   23.70
  -6   1  -5   64.19    8.30
  -1   6  -5   79.89    7.70
   6  -5  -5   64.29    7.70
  -5  -1  -5   70.99   12.60
  -1  -5   5   83.89   23.80
  -5   6   5   80.99   20.00
  -5  -1  -5   74.69    8.40
   6  -5  -5  134.49   21.00
   6  -1   5   56.29   14.90
  -6   4   5   19.60   19.40
   2   4  -5   -2.30    4.20
   4   2   5   -0.20   12.20
   4  -6  -5   -4.80    4.60
   4  -6  -5   14.20   15.80
  -6   2  -5   -4.40    5.00
   2  -6   5   11.20   20.40
  -2  -4   5   19.40   18.20
  -2   6  -5    2.80    4.80
   6  -2   5    6.70    2.70
  -4  -2  -5    4.60    5.10
  -4  -2  -5    4.60    8.00
   6  -4  -5   25.90   11.60
   6  -2   5  -27.60   11.80
   6  -4  -5   -3.70    4.30
  -4   6   5   17.30   18.10
   3  -6   5   39.90   19.00
   3   3  -5   20.80    5.10
   3  -6  -5   20.00    5.40
  -6   3  -5   19.90    5.60
  -6   3   5    7.00   19.20
   3  -6  -5   42.30   16.20
   3   3   5   28.90   14.50
  -3   6  -5   23.50    5.30
   6  -3  -5   18.90    5.10
  -3   6   5   47.00   17.70
   6  -3   5    6.90   14.30
  -3  -3   5   27.50   22.90
  -3  -3  -5   26.20    5.90
   6  -3  -5   44.10   12.30
  -3  -3  -5   31.30   10.90
   2  -6  -5   18.20    5.30
  -6   2   5   25.70   20.10
  -6   4  -5   22.10    5.50
   4   2  -5    9.50    4.80
   4  -6   5   27.60   18.60
   2   4   5   18.50   13.80
   2  -6  -5   14.60   14.30
  -4   6  -5   14.20    5.10
   6  -2  -5  -16.30    9.80
  -2   6   5   11.00   16.50
  -4  -2   5   24.90   22.90
   6  -4   5    1.10   14.10
  -2  -4  -5    9.20    5.40
   6  -2  -5   11.50    4.90
  -2  -4  -5   17.40   11.50
   1  -6  -5  154.68   21.00
   1  -6  -5  130.99   10.00
  -6   1   5  152.88   25.50
   5  -6   5  150.98   24.60
  -6   5  -5  141.49    9.70
   5   1  -5  138.19    9.10
   1   5   5  188.28   22.50
  -5  -1   5  151.78   25.70
   6  -1  -5  144.59   10.00
  -1  -5  -5  137.59   21.00
  -5   6  -5  132.09    9.70
  -1  -5  -5  148.19   10.40
  -1   6   5  172.68   24.60
   6  -5   5  103.29   18.50
   6   0  -5   44.60    6.00
   0  -6  -5   59.79    7.90
   0   6   5   78.49   16.50
   6  -6   5   55.39   17.30
  -6   0   5   37.40   21.90
   0  -6  -5   59.69   16.60
  -6   6  -5   45.20    6.20
  -7   0  -5  750.02   30.80
   0  -7   5  685.33   46.50
  -7   0  -5  787.82   31.50
   7  -7  -5  789.52   40.00
   7  -7  -5  767.82   31.30
  -7   7   5  732.83   41.50
   0   7  -5  729.43   30.90
  -7   0  -5  760.52   32.30
  -7   1  -5  204.48   12.40
  -7   1  -5  207.98   11.90
   6  -7  -5  212.48   11.90
   1   6  -5  207.58   11.50
   1  -7   5  206.58   31.70
   6  -7  -5  246.18   25.00
  -7   6   5  185.48   27.10
  -1  -6   5  219.58   31.60
  -6  -1  -5  205.88   12.00
   7  -6  -5  233.08   23.60
   7  -6  -5  202.98   11.60
  -6   7   5  249.78   26.10
  -1   7  -5  194.88   11.50
  -6  -1  -5  210.98   14.10
   2  -7   5 1218.88   64.39
   2   5  -5 1201.68   52.89
  -7   5   5 1349.77   62.19
  -7   2  -5 1319.57   52.29
   5  -7  -5 1381.46   62.49
   5   2   5 1358.46   57.69
   5  -7  -5 1339.17   52.49
   2   5  -5 1369.86   52.19
  -5  -2  -5 1314.77   54.99
   7  -5  -5 1317.97   59.09
  -2  -5   5 1250.97   66.09
   7  -2   5 1430.26   51.59
  -5  -2  -5 1302.67   52.49
   7  -5  -5 1278.77   52.09
  -5   7   5 1378.86   61.79
  -2   7  -5 1325.87   52.09
   3   4  -5  779.12   36.20
   4   3   5  837.52   40.50
   3   4  -5  879.01   34.70
   3  -7   5  942.21   48.10
   4  -7  -5  839.72   35.00
  -7   4   5  861.71   48.60
  -7   3  -5  875.71   35.00
   4  -7  -5  858.41   44.20
  -3  -4   5  833.12   50.69
   7  -4  -5  849.61   34.70
   7  -4  -5  852.61   40.90
  -4  -3  -5  838.42   35.20
  -3   7  -5  851.51   34.80
   7  -3   5  873.51   42.00
  -4   7   5  863.41   45.30
   3   4   5  554.04   30.10
  -7   4  -5  586.54   23.70
   3  -7  -5  542.05   23.80
  -7   3   5  487.65   37.10
   4   3  -5  475.85   25.50
   4   3  -5  556.44   23.20
   4  -7   5  539.95   36.60
   3  -7  -5  591.14   35.50
  -3   7   5  569.84   35.70
   7  -4   5  508.25   31.00
  -3  -4  -5  558.14   23.90
  -4   7  -5  562.24   23.50
   7  -3  -5  549.25   23.30
  -4  -3   5  592.04   41.40
  -3  -4  -5  560.44   30.40
   7  -3  -5  479.25   29.50
  -7   5  -5 1247.08   49.10
   2  -7  -5 1281.37   59.39
   2  -7  -5 1282.47   49.40
   5  -7   5 1230.28   58.79
  -7   2   5 1172.88   60.59
   5   2  -5 1157.88   51.29
   2   5   5 1298.17   55.69
   5   2  -5 1251.67   48.90
   7  -2  -5 1237.08   48.90
  -2   7   5 1290.17   58.09
  -2  -5  -5 1261.47   56.19
   7  -5   5 1187.28   55.49
  -5   7  -5 1182.08   48.90
   7  -2  -5 1197.28   53.79
  -5  -2   5 1282.97   63.89
  -2  -5  -5 1252.27   49.40
   1  -7  -5  233.18   13.30
   1  -7  -5  236.78   25.10
   6  -7   5  236.48   25.20
  -7   1   5  204.98   30.20
   6   1  -5  256.17   12.60
  -7   6  -5  256.87   12.90
  -1  -6  -5  243.48   24.80
  -6  -1   5  222.88   32.00
   7  -1  -5  184.98   17.40
   7  -1  -5  242.78   12.40
  -1   7   5  312.97   26.80
   7  -6   5  203.38   22.60
  -6   7  -5  240.98   12.80
  -1  -6  -5  229.88   13.00
   0  -7  -5 1229.98   57.79
   7   0  -5 1245.78   49.10
   7  -7   5 1216.08   56.49
  -7   0   5 1317.77   62.29
   0   7   5 1292.27   56.69
   7   0  -5 1205.68   52.59
   0  -7  -5 1245.68   49.70
  -7   7  -5 1240.58   49.40
   8  -8  -5  187.98   11.20
  -8   0  -5  198.98   10.50
   8  -8  -5  203.18   21.80
   0   8  -5  192.48   10.90
  -8   0  -5  202.28   12.50
   0  -8   5  204.58   31.80
  -8   8   5  222.58   22.80
  -8   0  -5  184.98   11.50
  -8   1  -5  224.58   12.50
  -8   1  -5  206.68   12.40
  -8   1  -5  234.48   11.90
   7  -8  -5  248.58   25.10
   1  -8   5  230.28   32.60
  -8   7   5  238.68   22.50
   1   7  -5  221.58   11.70
   7  -8  -5  208.08   12.00
  -7  -1  -5  220.18   11.40
  -1   8  -5  211.78   11.70
  -7  -1  -5  224.88   14.50
  -7  -1  -5  214.58   12.10
  -7   8   5  208.28   23.70
   8  -7  -5  216.68   12.20
   8  -7  -5  231.98   24.10
  -1  -7   5  218.98   32.30
   2   6  -5   81.19    8.40
  -8   2  -5   80.79    7.40
  -8   6   5   77.19   19.20
  -8   2  -5   88.79    8.30
   6  -8  -5  100.09    8.40
   2  -8   5  107.29   23.90
   6  -8  -5  112.09   21.50
   8  -6  -5   89.29    7.80
  -2   8  -5   84.09    7.90
  -2  -6   5   59.49   24.80
  -6  -2  -5   79.39   11.70
   8  -2   5  102.19    7.40
   8  -6  -5   90.39   15.40
  -6   8   5   97.49   18.00
  -6  -2  -5   81.59    8.40
   3   5  -5   61.09    7.60
   5   3   5   57.79   13.10
   3  -8   5   72.49   21.70
   5  -8  -5   65.29    7.80
   5  -8  -5   76.29   17.50
   3   5  -5   32.00   11.90
  -8   5   5   82.89   20.10
  -8   3  -5   71.79    7.90
  -5  -3  -5   69.49    8.10
  -3  -5   5   80.99   23.70
  -3   8  -5   62.59    7.60
  -5  -3  -5   87.29   13.10
   8  -5  -5   66.49    7.70
   8  -5  -5   49.60   13.30
  -5   8   5   91.59   17.20
   8  -3   5   73.39    7.20
  -8   4  -5   19.00    5.40
   4   4   5   27.00   12.50
   4   4  -5   23.60    5.10
   4  -8  -5   18.70    5.50
   4   4  -5    2.30    7.10
   4  -8  -5   34.80   15.70
   4  -8   5   28.40   18.60
  -8   4   5   12.70   17.50
  -4  -4  -5   25.60   11.00
  -4  -4   5   18.20   21.30
   8  -4  -5   -6.10   10.30
  -4  -4  -5   21.30    5.70
  -4   8  -5   17.80    5.20
  -4   8   5   39.20   16.20
   8  -4  -5   21.00    5.00
   3  -8  -5   88.69   19.20
  -8   3   5   76.19   21.50
   5  -8   5   90.49   19.50
   3  -8  -5   79.39    8.30
   3   5   5   90.59   14.60
   5   3  -5   75.69    7.70
  -8   5  -5   67.39    8.10
  -5  -3   5   86.89   22.40
   8  -3  -5   46.20   12.60
  -3  -5  -5   76.99    8.30
  -5   8  -5   72.09    8.00
  -3  -5  -5   94.19   15.10
   8  -3  -5   72.89    7.50
   8  -5   5   64.69   15.60
  -8   6  -5    6.50    4.80
   6  -8   5   29.30   16.10
  -8   2   5   20.30   19.00
   2  -8  -5   26.30   15.40
   2  -8  -5    9.30    5.00
   2   6   5   53.29   13.10
   6   2  -5   13.10    4.80
   6   2  -5  -13.60    7.60
   8  -6   5   -2.00   13.40
  -6  -2   5   16.90   20.80
   8  -2  -5   -7.90    8.80
  -2  -6  -5   14.20    5.30
  -6   8  -5   17.60    5.10
  -2  -6  -5    3.90   11.60
  -2   8   5   26.00   18.10
   8  -2  -5   10.80    4.30
   7   1  -5  154.88   15.80
  -8   1   5  202.18   27.70
  -8   7  -5  214.08   11.80
   7  -8   5  142.19   22.80
   1  -8  -5  183.88   11.50
   7   1  -5  201.68   10.90
   1  -8  -5  204.78   22.70
   8  -1  -5  206.78   11.00
  -7  -1   5  205.08   29.80
   8  -1  -5  154.28   17.10
  -1  -7  -5  212.58   11.80
  -7   8  -5  186.98   11.20
  -1  -7  -5  202.48   23.80
   8  -7   5  159.48   21.20
  -8   8  -5   55.09    7.20
   8  -8   5   40.20   14.70
   0  -8  -5   44.70    6.20
  -8   0   5   30.70   19.60
   8   0  -5   52.39    6.90
   0  -8  -5   46.30   16.70
   8   0  -5   22.60    9.30
   0   8   5   68.29   14.50
   9  -9  -5 1348.57   53.09
   9  -9  -5 1309.37   61.19
  -9   0  -5 1325.57   52.79
  -9   0  -5 1399.56   54.59
   0   9  -5 1343.07   52.69
   0  -9   5 1324.07   66.69
  -9   9   5 1309.47   59.09
  -9   0  -5 1365.96   53.19
  -9   1  -5  350.66   16.70
  -9   8   5  353.16   26.00
   8  -9  -5  359.76   26.90
   8  -9  -5  346.67   16.50
  -9   1  -5  340.97   15.90
   1  -9   5  333.67   34.10
   1   8  -5  353.36   16.30
  -1  -8   5  327.67   34.60
  -8  -1  -5  339.97   18.50
  -8   9   5  371.36   25.30
  -8  -1  -5  351.06   16.90
  -8  -1  -5  340.47   15.70
   9  -8  -5  361.26   16.60
   9  -8  -5  351.16   26.00
  -1   9  -5  330.27   15.90
  -9   7   5   95.19   16.50
   2   7  -5   86.59    7.60
   2  -9   5   92.99   24.30
  -9   2  -5   99.29    8.40
   7  -9  -5   97.29   18.70
   7  -9  -5   95.39    8.20
  -9   2  -5  101.89    7.60
  -2  -7   5   94.29   24.00
  -7   9   5  116.49   17.80
   9  -7  -5   95.69    8.30
   9  -7  -5  101.99   16.70
  -7  -2  -5   90.29   11.70
  -7  -2  -5  101.29    7.30
   9  -2   5  111.69    8.20
  -7  -2  -5   90.69    9.00
  -2   9  -5   96.69    7.80
  -9   3  -5   98.09    7.90
   6  -9  -5   81.59    8.80
   3  -9   5  109.29   23.10
   3   6  -5   85.89    8.00
  -9   6   5   83.09   18.00
  -9   3  -5   82.69    7.90
   6  -9  -5  106.69   20.10
   3   6  -5   81.39    9.60
  -6   9   5  101.29   16.10
   9  -3   5   99.59    7.70
   9  -6  -5   83.39    7.40
  -3   9  -5   82.09    7.60
  -6  -3  -5   76.79   12.80
   9  -6  -5   70.29   15.40
  -3  -6   5  102.29   24.90
  -6  -3  -5   79.59    8.10
   5  -9  -5   56.69    7.80
   4  -9   5   75.99   21.00
   5  -9  -5   78.29   17.50
   4   5  -5   52.09    6.90
  -9   5   5   71.09   18.00
   4   5  -5   60.79    9.80
  -9   4  -5   66.69    7.70
  -9   4  -5   66.19    6.90
  -4  -5   5   52.29   23.30
   9  -5  -5   42.40   13.60
  -5  -4  -5   70.79   12.60
  -5   9   5   84.99   16.50
  -4   9  -5   66.79    7.80
   9  -5  -5   55.19    7.30
  -5  -4  -5   61.49    7.70
   4  -9  -5  201.38   12.20
  -9   4   5  182.48   23.90
   5   4  -5  205.68   11.10
  -9   5  -5  205.98   11.40
   4  -9  -5  201.18   23.90
   5  -9   5  193.98   27.10
   4   5   5  150.28   18.00
   5   4  -5  190.18   14.20
   9  -4  -5  194.28   10.90
  -4  -5  -5  215.78   12.00
  -5  -4   5  184.28   26.40
  -4   9   5  222.18   23.40
  -4  -5  -5  214.08   19.40
   9  -4  -5  141.29   17.50
  -5   9  -5  203.38   11.10
   3  -9  -5  171.68   11.00
   6   3  -5  153.78   14.10
   6   3  -5  189.88   10.60
   3   6   5  166.68   18.10
   6  -9   5  197.78   25.70
  -9   3   5  187.58   24.10
   3  -9  -5  196.88   23.90
  -9   6  -5  165.28   10.40
  -6  -3   5  173.78   26.60
  -3  -6  -5  185.18   11.50
   9  -6   5  152.58   20.20
  -6   9  -5  168.78   10.60
  -3  -6  -5  206.18   20.90
   9  -3  -5  175.08   10.20
   7   2  -5  388.86   16.90
  -9   2   5  375.66   29.90
   7  -9   5  351.46   28.30
   2   7   5  437.46   25.10
   2  -9  -5  384.66   17.70
   2  -9  -5  378.66   28.50
  -9   7  -5  362.96   17.30
   7   2  -5  371.86   21.30
  -2  -7  -5  388.26   26.20
  -2  -7  -5  380.26   17.60
   9  -2  -5  327.07   22.10
  -7  -2   5  322.97   33.40
   9  -2  -5  377.46   17.00
  -7   9  -5  363.66   17.20
   9  -7   5  308.47   25.20
   1  -9  -5  128.99    9.50
  -9   8  -5  116.09    8.90
  -9   1   5  113.99   20.40
   8  -9   5  118.39   18.60
   8   1  -5  112.39    8.30
   1  -9  -5  133.89   21.40
   8   1  -5   90.89   13.30
   9  -8   5  106.39   17.00
  -1  -8  -5  130.89   19.20
   9  -1  -5  139.99    8.80
  -8   9  -5  118.59    8.80
  -8  -1   5  112.79   22.10
  -1  -8  -5  117.79    9.20
   9  -1  -5  108.59   14.00
   0  -9  -5  885.71   45.60
   9   0  -5  914.81   35.50
   9  -9   5  802.52   42.40
   9   0  -5  862.21   39.90
  -9   9  -5  889.81   35.70
  -9   0   5  905.31   47.90
   0  -9  -5  852.61   35.90
   0 -10   5  185.58   30.30
 -10   0  -5  168.18   10.00
 -10  10   5  180.28   17.40
 -10   0  -5  142.09   11.70
 -10   0  -5  172.88   10.50
  10 -10  -5  144.69   10.20
   0  10  -5  174.78    9.90
  10 -10  -5  184.58   21.30
 -10   9   5   24.30   11.50
   9 -10  -5   22.00    5.10
 -10   1  -5   27.20    5.20
 -10   1  -5   22.00    5.50
   9 -10  -5   41.20   15.00
   1   9  -5   30.70    5.10
   1 -10   5   25.80   20.50
  -9  -1  -5   21.70    5.30
  10  -9  -5   20.40   14.30
  -9  -1  -5   18.70    4.50
  -1  -9   5   29.50   21.10
  10  -9  -5   25.20    5.10
  -9  -1  -5   23.40    7.00
  -1  10  -5   19.90    4.80
  -9  10   5   39.10   11.40
   8 -10  -5  115.19    9.50
   8 -10  -5  154.88   23.90
 -10   2  -5  112.89    8.90
   2   8  -5  109.09    8.60
 -10   8   5  123.99   16.90
   2 -10   5   90.09   24.80
   2   8  -5  117.29    9.70
 -10   2  -5  127.19    8.20
  -8  -2  -5  119.89    9.30
  10  -2   5  143.49    9.60
  -8  -2  -5  120.89   12.20
  -2  10  -5  114.29    8.50
  -2  -8   5  113.59   23.40
  10  -8  -5  113.49    8.80
  10  -8  -5  101.89   16.50
  -8  -2  -5  118.09    8.30
 -10   3  -5   12.80    4.60
   3 -10   5   12.00   19.90
 -10   3  -5   16.20    4.70
 -10   7   5   18.10   13.60
   3   7  -5   17.80    4.80
   3   7  -5   10.10    5.60
   7 -10  -5   24.20   16.90
   7 -10  -5   14.90    5.20
  -3  10  -5   11.90    4.70
  -7  -3  -5   15.30    5.00
  10  -7  -5   16.70    4.60
  10  -3   5   16.70    5.00
  10  -7  -5   -7.40   11.40
  -7  -3  -5   15.30    4.40
  -7  -3  -5    4.00    8.10
  -3  -7   5   10.20   21.10
   6 -10  -5   23.40    5.20
 -10   4  -5   22.80    4.90
 -10   4  -5   18.20    5.00
   6 -10  -5   28.10   15.80
   4 -10   5   19.70   19.70
 -10   6   5   20.30   14.30
   4   6  -5   14.90    4.60
  -6  -4  -5   13.80    4.90
  10  -6  -5   17.50    4.30
  10  -6  -5   -2.70   11.00
  -6  -4  -5   27.30   10.00
  -4  -6   5   24.90   20.30
  -4  10  -5   24.30    5.10
 -10   5   5   -9.60   13.60
   5 -10  -5    8.50    4.80
 -10   5  -5   11.80    4.60
   5 -10  -5   14.10   14.50
   5   5  -5    1.20    6.10
 -10   5  -5   -0.40    4.50
   5   5  -5    0.80    4.10
   5 -10   5   11.50   16.60
  -5  10  -5    9.10    4.50
  -5  -5  -5    5.70    9.60
  -5  -5   5  -22.10   20.60
  10  -5  -5    2.80    4.00
  10  -5  -5  -22.40    9.60
  -5  -5  -5    7.30    4.60
 -10   4   5   52.99   17.60
   6   4  -5   59.89   10.40
   4 -10  -5   38.30    6.10
   6 -10   5   66.99   19.10
   6   4  -5   64.49    7.00
 -10   6  -5   54.59    7.10
   4 -10  -5   44.80   16.60
  -4  -6  -5   63.49   13.30
  10  -4  -5   32.50   11.20
  -6  -4   5   47.90   21.10
  10  -4  -5   61.99    6.60
  -4  -6  -5   42.40    6.10
  -6  10  -5   48.30    6.10
   7   3  -5    3.00    4.10
 -10   3   5   -4.00   15.30
 -10   7  -5    1.40    4.30
   3 -10  -5    5.50   14.90
   3 -10  -5    3.30    4.80
   7 -10   5    3.70   15.50
   7   3  -5   -5.50    7.30
  -3  -7  -5    1.20    4.40
  10  -3  -5    4.40    3.90
  -3  -7  -5   -4.60   10.80
  -7  -3   5  -19.50   19.10
  -7  10  -5    3.00    4.20
 -10   2   5   34.20   17.40
 -10   8  -5   30.60    5.60
   8   2  -5   28.30    5.00
   2 -10  -5   25.80   16.00
   8 -10   5   29.20   14.80
   8   2  -5   21.40    8.80
   2 -10  -5   26.30    5.60
  10  -2  -5   24.80    4.70
  -8  10  -5   34.50    5.70
  -2  -8  -5   26.30    5.50
  -8  -2   5   24.80   18.50
  10  -8   5   16.00   13.80
  -2  -8  -5   30.90   14.00
  10  -2  -5    0.40    9.90
   1 -10  -5    5.20    4.70
   9   1  -5    2.10    3.90
   9   1  -5  -10.30    8.10
 -10   1   5  -20.90   15.30
   9 -10   5    9.40   14.10
 -10   9  -5    1.10    4.50
   1 -10  -5    9.00   14.80
  -1  -9  -5   -2.30   12.50
  -9  10  -5    2.90    4.50
  10  -1  -5  -13.60    9.50
  -1  -9  -5    0.80    4.60
  10  -9   5   -9.70   11.60
  10  -1  -5   -1.40    3.80
  -9  -1   5   -8.00   16.70
  10   0  -5  217.58   11.30
   0 -10  -5  218.18   23.90
 -10   0   5  180.28   25.00
  10   0  -5  189.68   15.80
 -10  10  -5  195.38   11.40
  10 -10   5  184.08   20.80
   0 -10  -5  202.88   11.80
   0  11  -5  237.38   12.80
 -11   0  -5  248.58   13.50
 -11   0  -5  244.68   12.70
  11 -11  -5  219.58   23.10
 -11  10   5   17.80   10.60
 -11   1  -5   -1.80    4.30
   1  10  -5    5.30    5.30
   1 -11   5   -6.80   21.90
   1  10  -5    7.10    4.60
  10 -11  -5   12.30   13.60
 -11   1  -5    2.10    4.30
 -10  -1  -5   -5.50    6.40
  -1 -10   5    6.90   19.20
 -10  -1  -5    2.50    3.80
  11 -10  -5   -9.70   12.90
  11 -10  -5   -1.50    4.00
  11  -1   5    9.60    5.30
  -1  11  -5    2.20    4.30
 -10  -1  -5    8.90    4.70
   2   9  -5  223.38   12.30
   9 -11  -5  258.97   13.30
   2 -11   5  234.68   31.00
   2   9  -5  261.97   14.20
 -11   9   5  273.77   19.80
   9 -11  -5  248.18   25.30
 -11   2  -5  258.27   12.80
 -11   2  -5  242.38   12.90
  -2  11  -5  213.08   12.50
  -9  -2  -5  238.68   12.20
  -9  -2  -5  235.48   13.40
  -2  -9   5  252.67   32.10
  11  -9  -5  248.18   12.90
  11  -2   5  279.27   14.10
  -9  -2  -5  240.18   16.30
  11  -9  -5  215.48   21.90
 -11   3  -5   15.90    5.30
   3 -11   5   24.50   20.40
   3   8  -5   24.60    4.80
   3   8  -5   21.80    6.20
   8 -11  -5   37.10   16.30
   8 -11  -5   26.30    5.50
 -11   8   5   22.30   12.10
 -11   3  -5   28.50    5.20
  -3  11  -5   18.30    4.90
  11  -8  -5   20.40    4.80
  11  -3   5   22.00    5.80
  -8  -3  -5   20.40    8.10
  -8  -3  -5   21.40    5.20
  -3  -8   5    1.50   19.80
  11  -8  -5    0.80   11.30
  -8  -3  -5   21.80    4.50
   4   7  -5   68.09    9.20
 -11   4  -5   66.99    6.70
   7 -11  -5   61.59    7.90
   4   7  -5   59.39    7.20
   4 -11   5   60.99   22.20
   7 -11  -5   69.09   17.30
 -11   7   5   64.79   13.90
 -11   4  -5   70.09    7.30
  -7  -4  -5   58.09   10.30
  11  -7  -5   39.80   13.30
  -7  -4  -5   58.39    5.90
  -7  -4  -5   64.09    7.90
  -4  -7   5   57.59   22.40
  -4  11  -5   61.09    7.20
  11  -7  -5   67.59    7.00
 -11   5  -5   90.39    7.40
   6 -11  -5  125.29   21.70
 -11   5  -5   94.09    8.30
 -11   6   5   88.39   15.80
   5   6  -5   89.09    7.90
   6 -11  -5   89.09    8.30
   5   6  -5   90.89   10.20
   5 -11   5   98.69   21.60
  -5  -6   5   85.79   22.30
  -6  -5  -5   88.69   14.80
  -6  -5  -5   86.49    8.10
  -5  11  -5   99.29    7.90
  11  -6  -5   67.39   14.00
  11  -6  -5   90.39    7.80
  -6  -5  -5   86.59    6.80
   5 -11  -5    1.00    4.80
   5 -11  -5   23.60   15.90
   6   5  -5   -3.10    6.30
 -11   6  -5    1.10    4.30
   6 -11   5    0.10   17.00
 -11   6  -5    7.00    4.20
   6   5  -5   -6.20    3.60
 -11   5   5   -0.90   12.70
  -5  -6  -5    0.10    4.40
  -6  -5   5  -10.70   19.90
  11  -5  -5   -6.60    3.70
  -5  -6  -5   -2.90   10.10
  -6  11  -5    5.60    4.30
  11  -5  -5  -26.40   10.20
 -11   4   5  104.79   17.80
   7   4  -5  124.89    8.60
   7   4  -5  130.49   12.40
 -11   7  -5  115.29    8.70
   4   7   5  108.39   14.30
   7 -11   5  118.39   19.80
 -11   7  -5  133.79    8.70
   4 -11  -5  107.49    9.00
   4 -11  -5  145.59   23.20
  11  -4  -5   74.79   14.80
  -7  11  -5  118.89    8.90
  -4  -7  -5  142.69   19.00
  -7  -4   5  130.89   23.60
  -4  -7  -5  119.29    9.10
  11  -4  -5  121.69    8.40
   8 -11   5   -0.70   15.00
 -11   8  -5    7.40    4.70
   3 -11  -5    5.60    4.80
   8   3  -5   -4.00    6.80
   8   3  -5    3.60    4.10
 -11   3   5    8.60   13.60
   3 -11  -5   14.70   15.90
  -8  11  -5    1.20    4.50
  -3  -8  -5    5.80    4.80
  -8  -3   5    2.40   17.20
  -3  -8  -5   -1.40   12.20
  11  -3  -5   10.40    3.90
   9   2  -5  237.58   17.20
 -11   2   5  223.18   24.40
   2 -11  -5  261.47   28.00
   9   2  -5  262.47   12.80
 -11   9  -5  237.88   13.00
   9 -11   5  264.27   23.60
  11  -2  -5  182.28   19.10
  -2  -9  -5  239.78   24.70
  -9  11  -5  238.38   12.80
  -2  -9  -5  262.77   13.50
  11  -2  -5  256.37   12.60
  10   1  -5   58.89   11.20
   1 -11  -5   47.50    6.40
 -11  10  -5   39.40    6.00
  10   1  -5   59.89    7.30
   1 -11  -5   67.49   17.80
  11  -1  -5   50.49    6.80
  11 -10   5   42.70   14.50
  11  -1  -5   27.30   10.70
  -1 -10  -5   59.89   15.60
 -10  -1   5   40.60   18.40
   0 -11  -5  223.08   24.40
  11   0  -5  193.18   18.20
  11   0  -5  231.08   11.70
 -11  11  -5  217.98   12.20
 -11   0   5  185.68   24.40
   0 -11  -5  225.48   12.40
  11 -11   5  188.48   21.30
  12 -12  -5  816.32   43.40
   0  12  -5  784.12   33.00
 -12   0  -5  839.52   33.60
   0 -12   5  734.63   48.90
 -12   0  -5  820.62   33.20
 -12  12   5  795.22   32.70
  11 -12  -5   38.50   15.70
 -12   1  -5   32.10    6.20
   1  11  -5   32.10    5.30
 -12   1  -5   39.10    6.30
 -12  11   5   36.90    5.10
   1 -12   5   42.60   23.20
 -11  12   5   29.70    4.70
  12  -1   5   51.99    8.60
 -11  -1  -5   38.90    6.10
 -11  -1  -5   28.50    8.10
 -11  -1  -5   30.70    5.30
  12 -11  -5    4.30   14.70
  -1 -11   5   15.50   21.20
  -1  12  -5   30.80    5.80
 -12   2  -5  310.37   15.30
  10 -12  -5  354.26   28.20
   2  10  -5  328.77   15.40
   2  10  -5  349.37   16.80
 -12  10   5  375.66   23.40
 -12   2  -5  337.97   16.30
  12 -10  -5  258.17   24.60
  -2 -10   5  267.67   35.90
  12  -2   5  357.56   17.60
 -10  -2  -5  311.37   15.00
 -10  -2  -5  291.37   18.40
 -10  -2  -5  328.07   16.30
 -10  12   5  320.27   15.00
  -2  12  -5  280.47   15.40
   3   9  -5    4.20    4.20
 -12   3  -5   -0.30    4.50
   3   9  -5    0.70    5.50
   9 -12  -5   11.60   15.50
 -12   9   5    7.40   10.40
   3 -12   5   -3.60   20.40
 -12   3  -5   -2.70    4.30
  12  -9  -5    0.20    4.10
  -3  -9   5   -9.70   23.30
  -9  -3  -5   -3.40    7.60
  12  -3   5   -3.00    5.40
  -9  -3  -5    7.20    4.60
  -9  -3  -5    2.80    4.10
  -3  12  -5    0.80    5.10
  12  -9  -5  -23.00   11.40
 -12   8   5   74.59   13.60
 -12   4  -5   70.59    8.30
   4   8  -5   72.09    7.50
   4   8  -5   66.99    9.50
   8 -12  -5   81.09   18.90
   4 -12   5   73.59   23.00
 -12   4  -5   54.99    8.30
  -8  -4  -5   67.69    6.80
  -4  12  -5   58.79    7.40
  -4  -8   5   36.40   25.80
  12  -8  -5   57.89   14.20
  12  -8  -5   59.79    7.10
  -8  -4  -5   73.59    8.30
  12  -4   5   77.19    9.90
  -8  -4  -5   72.99   12.10
   5   7  -5  124.69    8.50
   5 -12   5  140.59   24.10
 -12   7   5  103.09   15.80
 -12   5  -5  137.09    9.30
 -12   5  -5  110.99    8.80
   7 -12  -5  178.28   23.70
   5   7  -5  132.29   11.70
  -7  -5  -5  138.59   15.80
  12  -7  -5   87.59   16.60
  -7  -5  -5  125.49    9.30
  12  -7  -5  129.39    8.80
  -5  12  -5  114.09    9.00
  -7  -5  -5  126.49    7.90
   6   6  -5   11.00    4.40
 -12   6  -5    9.80    4.80
   6   6  -5    3.80    6.60
   6 -12  -5   33.00   16.40
   6 -12   5   16.60   18.20
 -12   6   5    4.10   12.20
 -12   6  -5    4.90    4.50
  -6  -6  -5    7.50   10.30
  -6  -6  -5   10.90    5.10
  -6  12  -5   12.20    4.80
  -6  -6  -5    7.50    4.00
  -6  -6   5    9.40   21.90
  12  -6  -5   -7.00   10.80
  12  -6  -5    7.50    4.10
   7   5  -5   31.40    7.80
 -12   5   5   36.50   13.80
   5 -12  -5   49.10   17.90
   7 -12   5   43.60   18.60
   7   5  -5   28.80    5.10
 -12   7  -5   30.60    5.60
 -12   7  -5   26.30    5.40
   5 -12  -5   31.80    5.80
  -5  -7  -5   44.30   12.50
  -5  -7  -5   40.70    5.90
  -7  -5   5   21.00   20.30
  12  -5  -5    9.10   11.00
  12  -5  -5   38.50    5.10
  -7  12  -5   25.90    5.40
   8   4  -5   29.10    8.80
   8 -12   5   19.20   16.10
 -12   8  -5   22.30    5.40
   8   4  -5   30.10    5.30
   4 -12  -5   39.00   17.30
 -12   8  -5   20.90    5.20
 -12   4   5   21.80   14.70
   4 -12  -5   21.40    5.60
  -8  -4   5   -4.10   18.20
  -4  -8  -5   20.50   12.10
  -4  -8  -5   19.90    5.30
  12  -4  -5   23.70    4.60
  -8  12  -5   23.30    5.30
  12  -4  -5   -8.20   10.80
 -12   3   5  -12.50   13.40
   9   3  -5   11.40    7.80
   3 -12  -5   11.40    5.20
   9   3  -5   10.90    4.40
   3 -12  -5   11.20   15.10
 -12   9  -5    7.10    4.80
  12  -3  -5  -10.60    9.80
  12  -3  -5    7.60    4.20
  -3  -9  -5    7.70   12.60
  -9  -3   5   10.30   17.00
  -9  12  -5    9.40    4.90
   2 -12  -5  176.38   11.40
   2 -12  -5  217.18   27.70
  10   2  -5  183.18   15.20
 -12   2   5  154.38   21.90
  10 -12   5  192.68   22.60
  10   2  -5  211.08   11.00
  -2 -10  -5  214.68   22.50
  12  -2  -5  159.88   17.10
 -10  12  -5  173.38   10.90
  12 -10   5  183.68   20.70
  -2 -10  -5  189.08   11.60
  12  -2  -5  214.58   10.90
 -10  -2   5  152.18   25.00
  11 -12   5   19.80   13.80
   1 -12  -5   29.50   16.70
 -12  11  -5    8.40    5.00
  11   1  -5    5.50    9.60
  11   1  -5   15.60    4.50
   1 -12  -5    7.90    5.10
 -12   1   5    9.40   13.60
  -1 -11  -5    6.30    5.10
  12  -1  -5   -7.80   10.10
 -11  -1   5   14.90   16.10
  -1 -11  -5   17.10   14.80
  12  -1  -5   20.70    7.10
 -11  12  -5   10.30    4.80
  12 -11   5    1.80   11.50
  12 -12   5  185.98   21.20
 -12  12  -5  206.38   11.70
  12   0  -5  205.28   18.70
 -12   0   5  169.58   22.90
   0 -13   5   24.60   23.20
 -13   0  -5   52.69    7.60
  13 -13  -5   43.10   15.80
 -13  13   5   52.79    6.40
 -13   0  -5   51.79    6.50
   0  13  -5   50.39    7.10
   1 -13   5   29.60   23.20
 -13   1  -5   67.59    7.00
  12 -13  -5   57.59   17.00
   1  12  -5   79.69    8.30
 -13  12   5   65.79    7.00
 -13   1  -5   67.09    8.40
  13 -12  -5   46.00   15.70
  -1  13  -5   62.19    7.40
  -1 -12   5  -10.80   20.60
  13  -1   5   89.49   10.10
 -12  13   5   64.09    6.80
 -12  -1  -5   63.59    7.40
 -12  -1  -5   51.59    7.70
 -12  -1  -5   50.19    8.70
   2 -13   5  206.88   30.10
 -13  11   5  191.98   10.60
   2  11  -5  197.58   12.80
   2  11  -5  193.48   11.30
  11 -13  -5  208.98   24.90
 -13   2  -5  178.88   10.80
 -13   2  -5  191.78   11.90
 -11  -2  -5  186.78   11.20
 -11  -2  -5  188.98   11.00
 -11  -2  -5  177.78   14.70
  13  -2   5  206.58   13.40
  -2  13  -5  179.58   11.10
  -2 -11   5  184.88   27.20
  13 -11  -5  117.79   20.70
 -13   3  -5    6.50    5.00
 -13  10   5   19.50    4.30
   3  10  -5   21.40    4.80
   3  10  -5   12.50    6.30
 -13   3  -5   12.30    4.70
  10 -13  -5   50.79   17.70
 -13  10   5   23.70   10.40
   3 -13   5  -10.40   21.90
  13  -3   5   13.70    7.10
  -3  13  -5   12.30    5.10
  -3 -10   5  -16.50   20.60
 -10  13   5   16.10    5.00
 -10  -3  -5    8.70    5.00
 -10  -3  -5    9.90    7.50
  13 -10  -5   -4.70   11.80
 -10  -3  -5   14.50    4.70
   4 -13   5   22.80   35.10
   9 -13  -5   60.19   18.80
 -13   9   5   25.40   11.90
   4   9  -5   26.10    5.20
 -13   4  -5   31.60    5.70
 -13   4  -5   30.00    5.40
   4   9  -5   27.10    6.90
  -9  13   5   22.30    4.90
  -9  -4  -5   25.50    9.40
  13  -4   5   25.50    7.20
  -4  -9   5   16.70   19.60
  -9  -4  -5   25.20    5.00
  -9  -4  -5   26.90    5.90
  -4  13  -5   25.10    5.40
 -13   5  -5    1.20    4.70
 -13   5  -5   -1.60    4.30
   5   8  -5    2.70    4.50
 -13   8   5   10.60   11.10
   5   8  -5    0.60    6.20
  -8  -5  -5    1.20    4.00
  -5  -8   5  -17.60   20.40
  -8  -5  -5    4.90    4.60
  13  -8  -5   -1.70   12.60
  -8  13   5    1.50    4.10
  -8  -5  -5    4.70    9.60
  -5  13  -5    1.70    4.50
 -13   6  -5   13.90    5.60
 -13   7   5    6.50   12.60
 -13   6  -5   14.20    4.80
   6   7  -5   11.50    4.70
   7 -13  -5   41.90   17.50
   6   7  -5   11.10    6.70
  -6  13  -5   18.80    5.10
  13  -7  -5    9.40    4.40
  -6  -7   5   -6.30   19.40
  -7  -6  -5   11.40    4.20
  -7  -6  -5   10.50    9.80
  -7  -6  -5   18.50    5.10
  13  -7  -5   -5.60   11.80
  -7  13   5   11.80    4.50
 -13   7  -5   12.50    5.20
   7   6  -5   13.50    7.20
 -13   6   5    9.90   12.40
   6 -13  -5   30.50   16.60
 -13   7  -5   18.70    5.10
   7   6  -5   11.50    4.50
  13  -6  -5   10.60    4.40
  -7  13  -5   16.40    5.00
  13  -6  -5    3.20   11.00
  -6  -7  -5   19.80   11.50
  -6  -7  -5   15.00    5.10
  -7  -6   5   23.50   19.10
   8   5  -5    8.00    4.50
 -13   5   5    9.00   12.10
 -13   8  -5    2.10    4.50
   8   5  -5    5.10    7.60
   8 -13   5   -6.60   17.30
   5 -13  -5   34.20   19.00
 -13   8  -5   11.90    5.30
  13  -5  -5  -11.60   10.40
  -8  -5   5  -19.70   16.40
  13  -5  -5    2.30    4.10
  -8  13  -5    6.50    4.80
  -5  -8  -5    4.60   11.30
 -13   9  -5   61.69    7.60
 -13   9  -5   60.69    7.10
   9   4  -5   61.49   11.60
 -13   4   5   51.19   15.10
   9   4  -5   68.79    7.50
   9 -13   5   64.39   18.10
  -9  -4   5   34.10   18.20
  -4  -9  -5   59.59    7.90
  13  -4  -5   22.70   12.30
  -4  -9  -5   75.89   15.70
  -9  13  -5   54.19    7.50
  13  -4  -5   66.19    7.20
  10   3  -5   -0.10    4.30
  10 -13   5    8.50   14.20
 -13   3   5  -19.70   12.30
  10   3  -5    1.70    7.60
 -13  10  -5    4.30    4.90
   3 -13  -5   12.60   20.00
 -10  13  -5    3.80    4.70
 -10  -3   5   11.00   16.10
  -3 -10  -5    1.10   13.10
  13  -3  -5  -17.20   10.00
  -3 -10  -5    0.90    4.70
  11 -13   5  152.18   21.60
   2 -13  -5  199.88   25.90
  11   2  -5  177.68   16.10
 -13   2   5  148.59   21.10
 -13  11  -5  161.78   10.70
  13  -2  -5  112.89   17.80
  -2 -11  -5  137.09   24.50
 -11  -2   5  172.58   25.20
 -11  13  -5  169.98   11.10
  -2 -11  -5  170.18   10.80
  13 -11   5  175.08   20.30
  12   1  -5   -3.40    9.40
 -13  12  -5   -3.30    4.80
   1 -13  -5    2.60   14.80
  12 -13   5    2.70   12.60
 -13   1   5    0.80   13.20
 -12  -1   5   -5.30   13.40
  13  -1  -5  -11.60    9.10
  13 -12   5    3.20   12.20
  -1 -12  -5   -1.80   15.00
 -12  13  -5    2.00    4.70
  13   0  -5   98.59   14.90
  13 -13   5   83.39   16.20
 -13  13  -5  123.19    9.10
   0 -13  -5  139.59   25.00
   0  13   5  102.89    8.50
 -13   0   5   86.09   16.80
 -14   0  -5  573.04   25.00
   0  14  -5  526.75   24.60
 -14   0  -5  578.34   25.50
  14   0   5  635.64   27.50
   0 -14   5  532.85   41.10
  13 -14  -5   49.50   16.00
 -14   1  -5   65.39    7.10
   1 -14   5   54.49   22.50
 -14  13   5   85.89    7.60
   1  13  -5   58.09    7.00
 -14   1  -5   66.39    8.70
 -13  14   5   68.89    7.10
  -1  14  -5   57.89    7.50
  14 -13  -5   30.80   15.80
  -1 -13   5   54.79   21.40
 -13  -1  -5   74.89    8.40
 -13  -1  -5   58.39    6.90
  14  -1   5   94.59   10.60
 -14   2  -5  514.15   22.70
 -14   2  -5  484.15   21.80
   2 -14   5  457.35   39.30
 -14  12   5  523.95   21.70
   2  12  -5  514.25   22.10
  12 -14  -5  498.85   34.20
 -12  14   5  467.75   21.40
 -12  -2  -5  477.35   21.70
  14  -2   5  520.65   24.50
 -12  -2  -5  536.45   22.70
  -2  14  -5  451.95   21.70
 -12  -2  -5  502.35   25.40
  -2 -12   5  456.25   38.20
  14 -12  -5  470.15   31.90
  11 -14  -5   29.70   17.00
   3  11  -5    1.80    4.20
 -14   3  -5    9.20    5.50
   3 -14   5  -31.20   19.50
 -14   3  -5    9.00    4.70
 -14  11   5   16.50    4.40
   3  11  -5    9.40    6.20
  -3 -11   5  -15.90   20.50
 -11  -3  -5    8.10    6.70
 -11  -3  -5    5.30    7.40
 -11  14   5   14.40    4.70
  14  -3   5    5.50    6.90
  14 -11  -5  -10.60   12.00
 -11  -3  -5   14.90    5.40
  -3  14  -5    7.40    4.80
 -14  10   5  308.17   21.20
   4  10  -5  253.07   13.50
   4 -14   5  228.48   32.10
  10 -14  -5  302.27   28.20
 -14   4  -5  259.67   13.40
 -14  10   5  278.87   13.10
 -14   4  -5  265.67   13.80
   4  10  -5  262.47   15.40
 -10  14   5  239.08   12.80
 -10  -4  -5  261.37   14.10
  -4  14  -5  244.78   13.40
 -10  -4  -5  250.17   17.70
  14 -10  -5  210.88   22.80
  -4 -10   5  234.98   30.60
 -10  -4  -5  267.57   13.30
 -14   5  -5   28.40    5.50
 -14   9   5   49.10   12.90
   9 -14  -5   65.49   17.60
 -14   5  -5   39.40    6.60
   5 -14   5   42.00   21.60
   5   9  -5   34.20    5.60
   5   9  -5   25.60    7.20
 -14   9   5   49.80    6.20
  14  -9  -5   -5.10   12.50
  -9  -5  -5   35.70   10.60
  -5  -9   5    5.30   18.80
  -5  14  -5   26.00    5.50
  -9  -5  -5   29.90    5.10
  14  -5   5   42.10   13.10
  -9  14   5   24.90    4.90
  -9  -5  -5   25.60    5.40
 -14   8   5   80.69   14.90
   6 -14   5   66.09   23.90
   8 -14  -5  122.29   23.40
 -14   6  -5   75.49    8.20
   6   8  -5   75.59    8.20
 -14   6  -5   85.69    7.70
 -14   8   5  106.09    7.30
   6   8  -5   74.39   10.90
  -6  14  -5   77.49    8.00
  -8  14   5   86.49    7.40
  -8  -6  -5   85.49   13.70
  -6  -8   5   52.59   20.70
  14  -8  -5   64.59   15.90
  -8  -6  -5   80.69    7.40
  -8  -6  -5   73.89    8.00
   7   7  -5   46.10    6.00
   7 -14   5   33.70   20.00
 -14   7   5   37.50   12.70
 -14   7  -5   42.40    6.70
 -14   7  -5   35.80    6.10
   7 -14  -5   75.99   19.00
   7   7  -5   50.29    8.70
  -7  -7   5   39.30   20.20
  -7  -7  -5   60.19   13.40
  -7  14  -5   43.60    6.10
  -7  14   5   55.69    6.60
  -7  -7  -5   46.10    6.40
  14  -7  -5   25.50   13.10
   8 -14   5  -14.10   17.70
 -14   6   5    0.70   12.00
   8   6  -5    5.40    4.70
 -14   8  -5    1.70    4.40
   6 -14  -5   21.20   17.30
   8   6  -5    0.10    7.30
 -14   8  -5   -2.80    4.60
  -6  -8  -5   -2.20   10.60
  14  -6  -5   -5.50   11.40
  -6  -8  -5    1.60    4.70
  -8  -6   5  -24.10   15.90
  -6  14   5    3.00    4.10
  -8  14  -5   -0.30    4.90
   9   5  -5   79.19    8.10
   5 -14  -5   67.99   19.60
   9 -14   5   54.59   20.40
 -14   5   5   60.29   14.60
   9   5  -5   44.30    9.20
 -14   9  -5   59.79    7.00
  14  -5  -5   51.49   13.30
  -5  -9  -5   44.10    6.50
  -5  14   5   51.09    6.80
  -9  14  -5   58.49    7.40
  -9  -5   5   48.90   18.40
  -5  -9  -5   66.79   16.00
   4 -14  -5   57.99   19.10
 -14  10  -5   43.40    6.40
 -14  10  -5   49.20    6.90
  10   4  -5   56.19    7.40
  10 -14   5   49.80   18.00
 -14   4   5   62.89   16.10
  10   4  -5   65.59   10.70
  -4  14   5   49.10    6.80
 -10  -4   5   49.40   17.00
  14  -4  -5   26.90   12.20
  -4 -10  -5   49.00    6.70
 -10  14  -5   55.29    8.10
 -14  11  -5    0.50    4.90
  11 -14   5   -7.80   14.40
 -14   3   5   17.00   13.10
   3 -14  -5   18.20   17.20
  11   3  -5    8.20    8.70
  -3  14   5    5.60    4.40
 -11  14  -5    4.20    4.70
  -3 -11  -5    1.30   13.70
  14  -3  -5  -15.10   10.20
  -3 -11  -5    4.00    4.90
 -11  -3   5   -9.70   14.40
 -14   2   5  304.47   25.70
 -14  12  -5  351.36   16.90
  12   2  -5  346.27   21.00
  12 -14   5  343.67   27.00
   2 -14  -5  372.56   32.90
  -2 -12  -5  364.06   28.40
 -12  -2   5  335.17   27.00
 -12  14  -5  359.66   16.80
  14  -2  -5  327.47   22.90
  -2  14   5  338.87   16.20
  14 -12   5  320.77   25.00
   1 -14  -5   35.10   16.50
 -14  13  -5   27.60    6.00
  13   1  -5   20.50    9.90
 -14   1   5   13.90   13.80
   1  13   5   29.50    5.20
  13 -14   5   13.80   13.30
  -1 -13  -5   56.99   16.50
  14 -13   5   28.30   13.10
  14  -1  -5   10.40   10.60
 -13  14  -5   33.70    5.90
 -13  -1   5   33.50   14.00
  -1  14   5   27.40    5.40
  14 -14   5  417.46   28.80
   0 -14  -5  452.55   33.30
  14   0  -5  493.95   27.10
 -14   0   5  447.56   29.70
   0  14   5  442.56   20.10
 -14  14  -5  445.76   20.50
   0 -15   5   -9.40   21.70
 -15  15   5   17.50    4.80
 -15   0  -5   14.10    5.60
  15   0   5   23.20    8.60
 -15   0  -5    9.40    4.90
  15 -15  -5   -6.90   14.90
   0  15  -5   20.20    5.50
 -15   1  -5   83.89    9.60
   1 -15   5   75.89   23.30
 -15   1  -5   81.39    7.70
 -15  14   5   93.19    8.30
  14 -15  -5   44.90   16.60
  14   1   5  119.49   10.40
   1  14  -5   76.19    8.70
 -14  15   5   86.49    7.60
 -14  -1  -5   70.29    8.90
  15  -1   5  106.79   11.30
  -1 -14   5   64.69   22.80
  15 -14  -5   56.89   17.10
 -14  -1  -5   85.39    7.70
  -1  15  -5   77.99    8.90
  13 -15  -5   37.30   17.10
   2  13  -5   61.29    7.00
 -15   2  -5   67.79    9.10
   2 -15   5   16.20   21.30
 -15  13   5   77.29    7.30
 -15   2  -5   60.89    7.10
  15 -13  -5   56.29   16.80
 -13  -2  -5   53.09    6.80
  -2  15  -5   62.09    7.60
  15  -2   5   83.79   11.00
  -2 -13   5   42.70   21.00
 -13  15   5   67.09    7.00
 -13  -2  -5   58.49    8.60
 -13  -2  -5   65.69   11.20
  12 -15  -5   73.19   19.10
 -15   3  -5   84.29    7.70
   3  12  -5  114.69   10.50
   3 -15   5   -3.80   21.50
 -15   3  -5   88.29    9.40
 -15  12   5   97.49    7.90
   3  12  -5   74.19    8.60
 -12  -3  -5   75.09   11.70
  -3  15  -5   75.79    8.00
  15 -12  -5   65.99   17.20
  -3 -12   5   75.19   22.40
  15  -3   5   82.39   11.20
 -12  15   5   93.09    8.10
 -12  -3  -5   89.79    9.00
 -12  -3  -5   80.99    7.30
 -15   4  -5   31.20    5.60
   4 -15   5   -1.90   20.70
   4  11  -5   33.60    7.40
   4  11  -5   27.30    5.30
  11 -15  -5   50.39   17.70
 -15  11   5   46.60    6.50
 -15  11   5   41.80   10.90
 -15   4  -5   30.40    6.00
  15  -4   5   47.20    9.00
  -4 -11   5   19.70   19.50
 -11  15   5   20.50    4.80
  -4  15  -5   32.10    5.60
 -11  -4  -5   30.60    9.50
 -11  -4  -5   18.30    5.30
 -11  -4  -5   32.80    5.90
  15 -11  -5   14.60   13.60
   5  10  -5   52.89    7.60
   5  10  -5   66.39   10.10
 -15  10   5   87.39    7.40
 -15   5  -5   63.29    7.30
  10 -15  -5   73.09   18.80
 -15   5  -5   62.19    8.80
 -15  10   5   63.89   11.60
   5 -15   5   44.10   22.00
  15  -5   5   63.99   10.90
  -5 -10   5   39.40   20.20
 -10  -5  -5   63.29    7.20
  15 -10  -5   42.00   15.10
 -10  -5  -5   69.39   11.90
  -5  15  -5   57.79    7.50
 -10  15   5   68.19    7.00
   9 -15  -5   27.50   17.10
 -15   9   5    5.90    3.60
 -15   9   5   -0.10    9.60
 -15   6  -5   -0.20    4.40
 -15   6  -5   -3.90    4.80
   6   9  -5    6.50    6.60
   6 -15   5  -43.40   19.90
   6   9  -5   -0.80    4.70
  15  -9  -5  -15.60   12.30
  -6  15  -5   -5.70    4.40
  -9  -6  -5   -1.20    9.70
  -9  -6  -5    3.80    4.40
  -9  -6  -5   -4.10    4.90
  -9  15   5   -3.50    3.90
  -6  -9   5    5.20   17.70
   7 -15   5   24.70   21.90
 -15   8   5   42.10   12.10
   8 -15  -5   68.39   19.30
   7   8  -5   47.60    6.40
 -15   8   5   73.29    6.70
 -15   7  -5   48.10    6.70
 -15   7  -5   42.60    6.60
   7   8  -5   50.99    9.00
  -8  -7  -5   42.80    6.60
  -8  -7  -5   48.50    6.50
  15  -8  -5   33.80   14.30
  -8  -7  -5   46.40   11.70
  -8  15   5   48.50    6.80
  -7  15  -5   55.49    6.70
  -7  -8   5   27.60   18.60
   8   7  -5  102.69    8.70
   8   7  -5   84.59   11.50
   8 -15   5   83.19   21.70
 -15   7   5  103.49   15.30
   7 -15  -5  148.89   24.90
 -15   8  -5   96.09    8.00
  15  -7  -5   84.49   15.10
  -7  -8  -5   98.59    9.30
  -7  -8  -5   74.79    7.80
  -8  -7   5   51.99   18.80
  -7  15   5   88.39    7.60
  -8  15  -5   74.39    8.20
   6 -15  -5   23.90   18.40
   9   6  -5    5.40    8.10
   9 -15   5  -10.10   18.20
 -15   9  -5   10.60    5.20
 -15   9  -5   10.30    4.90
   9   6  -5   17.40    5.10
 -15   6   5   15.40   12.00
  -6  -9  -5    4.20   11.30
  15  -6  -5   -0.40   12.30
  -6  -9  -5    7.80    5.10
  -9  15  -5    2.60    4.80
  -6  15   5    5.50    4.40
  -9  -6   5   -0.50   15.60
 -15  10  -5   40.80    6.50
  10   5  -5   24.90    8.70
 -15   5   5   28.20   12.80
   5 -15  -5   53.69   19.10
 -15  10  -5   43.30    6.10
  10 -15   5   28.90   17.70
  -5 -10  -5   30.90    5.80
  15  -5  -5   22.70   13.20
 -10  -5   5   36.40   16.40
 -10  15  -5   39.90    6.00
  -5  15   5   36.10    5.60
  -5 -10  -5   35.80   14.50
  11 -15   5   39.70   17.20
 -15   4   5   36.20   13.90
 -15  11  -5   37.90    6.00
   4 -15  -5   45.80   18.90
  11   4  -5   56.49   10.40
 -15  11  -5   24.30    5.80
  15  -4  -5   18.20   11.90
  -4 -11  -5   48.00   14.60
 -11  -4   5   27.50   15.70
 -11  15  -5   37.00    5.90
  -4  15   5   44.80    5.80
 -15   3   5    6.70   12.50
  12   3  -5    5.60    9.10
 -15  12  -5    6.00    5.10
  12 -15   5    6.90   14.20
   3 -15  -5    2.80   16.80
 -12  15  -5    2.00    4.80
  15  -3  -5  -17.60   10.70
  -3 -12  -5   -3.40   13.80
 -12  -3   5  -11.00   13.20
  -3  15   5    3.40    4.50
   2  13   5   97.89    8.80
 -15  13  -5   97.29    9.70
  13 -15   5   85.99   16.90
 -15   2   5   84.89   15.80
  13   2  -5   91.59   13.70
   2 -15  -5  127.69   22.70
  15  -2  -5   79.39   14.30
 -13  -2   5  112.59   17.90
  -2  15   5  105.19    8.40
  15 -13   5  119.09   18.60
  -2 -13  -5  111.79   21.00
 -13  15  -5  111.59    8.90
   1  14   5   37.30    5.80
 -15  14  -5   38.30    6.20
  14   1  -5   40.80   11.20
   1 -15  -5   23.00   17.00
  14 -15   5   60.89   16.30
 -15   1   5   34.00   13.90
  -1  15   5   58.39    7.20
 -14  15  -5   48.50    7.10
  15  -1  -5   40.70   12.10
  -1 -14  -5   47.70   17.00
  15 -14   5   51.09   15.20
 -14  -1   5   50.79   15.20
   0 -15  -5    9.50   16.30
   0  15   5   11.60    4.70
  15   0  -5   -6.80   10.60
 -15  15  -5    3.60    5.00
  15 -15   5    0.20   13.20
 -15   0   5    2.70   12.70
   0 -16   5   31.10   23.10
 -16  16   5   23.80    5.20
 -16   0  -5   32.90    5.80
  16 -16  -5   18.80   16.40
   0  16  -5   26.40    6.20
  15   1   5   27.70    7.60
 -16   1  -5   17.20    5.30
   1 -16   5    8.80   23.10
 -16   1  -5    8.80    5.60
 -16  15   5   15.00    5.10
  15 -16  -5   -7.40   15.30
   1  15  -5    5.30    5.20
  -1  16  -5    4.80    5.20
  16 -15  -5    1.70   15.50
  -1 -15   5    7.90   21.40
  16  -1   5   23.90    8.40
 -15  -1  -5   13.80    5.50
 -15  16   5   17.70    5.10
  14 -16  -5  253.47   27.90
 -16  14   5  283.37   14.70
   2 -16   5  288.57   36.80
 -16   2  -5  316.47   16.30
   2  14  -5  273.27   15.10
  -2  16  -5  278.77   15.20
 -14  -2  -5  282.27   14.60
  16  -2   5  308.07   18.50
 -14  16   5  292.97   14.70
  16 -14  -5  260.87   26.50
  -2 -14   5  401.16   36.80
 -16  13   5    6.40    4.30
   3  13  -5   -1.40    4.90
   3 -16   5  -36.30   19.30
   3  13  -5   10.50    6.60
 -16   3  -5    1.70    4.60
 -16   3  -5    4.60    5.50
  13 -16  -5  -13.30   15.20
  16  -3   5    0.80    7.00
  -3 -13   5   -5.50   18.80
 -13  -3  -5    1.90    6.10
 -13  16   5    4.60    4.30
  -3  16  -5   -0.10    4.90
 -13  -3  -5   -2.20    4.30
 -13  -3  -5   -3.20    7.70
  16 -13  -5   -5.60   13.80
   4  12  -5  226.58   14.90
   4  12  -5  216.58   12.50
  12 -16  -5  233.38   26.70
 -16  12   5  244.88   12.30
 -16   4  -5  252.67   13.70
 -16   4  -5  231.38   12.40
   4 -16   5  125.59   26.90
  -4  16  -5  197.38   12.40
  -4 -12   5  239.98   29.00
  16 -12  -5  225.38   23.10
 -12  16   5  209.48   12.20
 -12  -4  -5  226.08   17.90
 -12  -4  -5  225.38   13.20
 -12  -4  -5  228.28   12.40
 -16   5  -5    8.10    5.50
 -16   5  -5    1.80    4.50
   5  11  -5    3.30    5.40
  11 -16  -5   24.50   16.90
   5 -16   5  -52.59   18.30
 -16  11   5   19.80   10.90
 -16  11   5   14.60    4.20
   5  11  -5    4.20    6.30
 -11  16   5    3.00    4.30
  16 -11  -5  -11.00   13.50
 -11  -5  -5    2.20    8.50
 -11  -5  -5    2.30    5.10
 -11  -5  -5    2.50    4.40
  -5  16  -5   -2.30    4.70
  -5 -11   5  -23.50   17.00
   6 -16   5   89.09   25.30
 -16   6  -5  108.59    8.70
   6  10  -5  120.49    9.30
  10 -16  -5  155.18   24.10
 -16  10   5  135.79   16.10
   6  10  -5  110.89   11.60
 -16   6  -5  104.29    9.80
 -10  -6  -5  120.29    9.80
 -10  -6  -5  113.09    8.60
  16 -10  -5   95.99   18.90
 -10  -6  -5  113.19   15.60
  -6  16  -5  105.79    8.90
  -6 -10   5  140.09   22.70
 -10  16   5  111.09    8.60
 -16   9   5   20.90   10.30
   7   9  -5    9.80    7.70
   7 -16   5   -0.70   20.90
 -16   7  -5   19.10    5.30
   9 -16  -5   46.70   17.70
   7   9  -5   15.90    5.30
  -7  16  -5   11.10    5.10
  -9  -7  -5    5.90    4.40
  -9  -7  -5   13.10   10.90
  -9  -7  -5   19.70    5.60
  16  -9  -5   11.20   13.50
  -7  -9   5   -0.20   17.70
  -9  16   5   16.00    4.60
   8   8  -5    0.90    4.70
   8 -16   5  -15.80   19.90
 -16   8  -5    4.10    5.60
   8   8  -5    4.40    7.00
   8 -16  -5   48.80   17.90
 -16   8   5   -6.10    9.50
 -16   8  -5    4.00    4.70
  -8  -8  -5    1.10    5.00
  -8  16   5   -1.00    4.50
  -8  -8   5   -5.60   16.90
  -8  16  -5   -2.40    4.60
  -8  -8  -5   -6.50    4.00
  -8  -8  -5   -3.20    9.90
  16  -8  -5  -12.70   12.00
 -16   9  -5   20.80    5.30
   9   7  -5   18.00    8.30
 -16   9  -5   18.40    6.00
   7 -16  -5   35.80   18.70
   9 -16   5   26.80   20.50
 -16   7   5   17.70   12.00
  -9  16  -5   16.20    5.20
  -7  -9  -5   27.00    6.00
  -7  -9  -5   10.10    5.00
  -7  -9  -5   12.50   12.00
  -7  16   5   19.40    4.90
  -9  -7   5    8.10   15.80
  16  -7  -5    2.30   12.10
 -16  10  -5   33.50    6.10
  10   6  -5   44.20    9.40
 -16  10  -5   41.90    6.80
 -16   6   5   45.80   13.30
   6 -16  -5   81.89   19.80
  10 -16   5   29.10   18.20
 -10  16  -5   48.20    6.70
 -10  -6   5   39.30   16.30
  -6  16   5   50.79    6.90
  16  -6  -5   42.90   14.10
  -6 -10  -5   60.79   14.80
 -16   5   5   -7.30   10.50
 -16  11  -5    0.40    4.70
 -16  11  -5    2.40    5.20
  11 -16   5   17.10   17.10
   5 -16  -5   24.60   18.00
  11   5  -5    9.20    8.20
  -5  16   5   -3.70    4.40
 -11  -5   5   -8.40   13.60
  16  -5  -5  -16.60   11.20
 -11  16  -5   -4.20    4.80
  -5 -11  -5    0.50   13.20
  12 -16   5  121.89   20.90
   4 -16  -5  174.08   26.30
 -16   4   5  148.19   18.30
   4  12   5  161.48   10.50
 -16  12  -5  154.48   11.30
  12   4  -5  164.38   16.00
 -16  12  -5  151.98   10.20
 -12  -4   5  134.69   20.80
 -12  16  -5  160.48   10.40
  -4  16   5  155.78   10.30
  -4 -12  -5  163.88   22.70
  16  -4  -5  113.09   18.00
  13   3  -5    1.90    9.00
   3  13   5   -2.00    4.50
  13 -16   5   -5.50   14.60
 -16   3   5    9.70   11.70
   3 -16  -5    3.20   17.30
 -16  13  -5   -2.10    5.00
  16  -3  -5  -16.80   10.90
  -3  16   5    2.60    4.50
 -13  16  -5   -0.70    4.90
 -13  -3   5   10.30   13.50
  -3 -13  -5   18.10   14.70
  14 -16   5  195.58   23.10
   2  14   5  203.48   11.70
   2 -16  -5  252.97   27.00
 -16   2   5  176.58   19.90
  14   2  -5  196.38   17.20
 -16  14  -5  189.38   12.50
  -2  16   5  200.48   11.70
  -2 -14  -5  207.68   26.40
 -14  16  -5  207.08   12.50
  16 -14   5  218.18   23.20
 -14  -2   5  224.18   22.40
  16  -2  -5  166.98   18.30
  15 -16   5   27.70   14.70
 -16   1   5   25.00   12.50
   1  15   5   18.90    5.10
  15   1  -5    2.60   10.00
   1 -16  -5    3.90   17.10
 -16  15  -5   16.30    5.50
  -1  16   5   22.90    5.20
 -15  -1   5   28.80   13.00
  16 -15   5    7.20   13.50
  -1 -15  -5   29.20   16.40
 -15  16  -5   17.80    5.40
  16  -1  -5    3.70   11.70
  16 -16   5  148.89   22.70
 -16  16  -5  109.79    9.40
   0  16   5  125.69    9.30
 -16   0   5  109.89   18.30
  16   0  -5  101.99   15.50
   0 -16  -5  132.89   23.90
 -17   0  -5    3.70    5.10
   0  17  -5    0.30    5.60
 -17  17   5    2.60    5.10
   0 -17   5   19.20   23.00
  17 -17  -5  -20.30   15.60
  17   0   5   22.50    8.10
 -17   1  -5    9.60    5.20
   1 -17   5   32.00   24.80
   1  16  -5   12.90    6.10
  16 -17  -5   -4.30   16.00
 -17  16   5   19.50    5.60
 -16  -1  -5   13.90    6.40
  -1  17  -5   17.50    6.20
 -16  -1  -5   15.20    5.50
  17  -1   5   35.00    8.90
 -16  17   5   14.20    5.40
  -1 -16   5   48.80   22.90
  17 -16  -5    7.60   16.60
   2  15  -5    7.30    5.30
 -17  15   5    7.40    5.10
   2 -17   5    0.60   22.90
 -17   2  -5   -2.90    4.90
  15 -17  -5  -24.90   15.60
  17  -2   5   14.40    8.40
  -2  17  -5    0.90    5.20
  17 -15  -5   -2.70   15.30
 -15  -2  -5   -0.20    5.00
 -15  -2  -5   -2.50    5.60
 -15  17   5    0.80    4.70
  -2 -15   5   30.10   21.80
   3  14  -5  124.79   10.20
 -17   3  -5  134.19    9.50
   3 -17   5   91.79   25.40
  14 -17  -5   80.39   20.70
 -17  14   5  109.69   10.70
 -17   3  -5  136.59   13.60
  17  -3   5  135.39   13.90
 -14  -3  -5  147.19   11.10
 -14  17   5  134.29    9.90
  17 -14  -5  133.29   22.90
  -3 -14   5  136.99   24.40
 -14  -3  -5  131.59    9.30
  -3  17  -5  127.79   10.60
 -17   4  -5   25.80    8.80
 -17  13   5   23.60    5.10
   4 -17   5   28.30   22.50
   4  13  -5   10.20    5.20
  13 -17  -5   24.20   16.60
 -17   4  -5    9.20    5.20
   4  13  -5   22.40    7.60
  -4 -13   5    7.60   19.50
  17 -13  -5    9.40   15.20
 -13  17   5    9.90    4.80
 -13  -4  -5    7.80    4.70
  -4  17  -5   11.00    5.40
 -13  -4  -5    4.50    8.90
 -13  -4  -5    8.50    5.20
  17  -4   5  -11.50    7.60
 -17   5  -5  146.79    9.70
 -17  12   5  152.18   16.20
  12 -17  -5  154.38   25.00
   5  12  -5  146.49   12.90
   5  12  -5  142.49   10.40
   5 -17   5  101.19   26.80
  17  -5   5  101.89   20.00
 -12  17   5  145.79   10.10
  17 -12  -5  117.99   21.10
  -5 -12   5  130.09   23.00
  -5  17  -5  126.59    9.80
 -12  -5  -5  148.49   11.00
 -12  -5  -5  127.69    9.20
 -12  -5  -5  138.79   14.70
 -17   6  -5   -2.80    5.90
   6 -17   5  -48.20   21.60
   6  11  -5   -0.70    6.90
  11 -17  -5    9.10   16.50
 -17   6  -5    2.90    4.80
 -17  11   5    4.60   10.10
 -11  17   5    4.00    4.40
  -6 -11   5   -7.80   17.30
 -11  -6  -5   -7.50    4.50
  -6  17  -5   -6.40    4.70
  17 -11  -5   -3.20   14.00
 -11  -6  -5    5.10    4.90
 -11  -6  -5    2.40    8.90
 -17  10   5   50.69   12.00
   7  10  -5   44.50    8.80
 -17   7  -5   51.79    7.30
  10 -17  -5   70.69   19.80
 -17   7  -5   52.19    7.10
   7  10  -5   43.10    6.40
   7 -17   5    4.60   22.00
  -7 -10   5   51.89   18.50
 -10  -7  -5   44.40   11.50
 -10  -7  -5   52.89    6.80
  17 -10  -5   56.59   15.90
 -10  17   5   52.99    7.50
  -7  17  -5   50.59    7.50
 -10  -7  -5   64.69    7.10
   8   9  -5   82.89    9.00
 -17   8  -5   81.29    8.20
   8   9  -5   71.39   11.70
 -17   9   5   71.89   13.30
   8 -17   5   40.40   21.60
 -17   8  -5   74.59    9.50
  -8  17  -5   70.49    7.90
  -9  17   5   73.49    8.20
  -8  -9   5   61.09   19.00
  17  -9  -5   56.19   16.10
  -9  -8  -5   72.59    7.70
  -9  -8  -5   86.79   15.10
  -9  -8  -5   65.89    8.80
   9 -17   5   65.69   23.60
 -17   9  -5   35.20    6.00
 -17   8   5   43.90   11.30
 -17   9  -5   55.69    7.70
   8 -17  -5   65.59   20.20
  -8  17   5   31.80    5.40
  -9  -8   5   36.10   17.00
  -8  -9  -5   39.80    6.20
  -8  -9  -5   46.10   13.40
  17  -8  -5   32.30   14.30
  -9  17  -5   39.50    6.00
 -17  10  -5  110.09   10.30
 -17  10  -5  122.69    8.90
  10 -17   5   95.89   22.00
  10   7  -5  118.59   12.60
   7 -17  -5  120.89   23.00
 -17   7   5  110.69   15.70
 -10  17  -5  100.69    9.50
  -7  17   5  114.19    9.40
  17  -7  -5   99.99   18.20
 -10  -7   5  116.39   19.80
  -7 -10  -5  133.09   18.20
   6  11   5   11.60    4.80
 -17  11  -5    7.10    5.60
 -17   6   5   13.90   10.90
  11 -17   5    2.70   17.60
 -17  11  -5    7.30    5.00
   6 -17  -5   31.30   18.80
  11   6  -5    5.60    8.10
 -11  -6   5   -5.60   13.50
  -6  17   5   11.30    4.70
  17  -6  -5   -4.30   12.70
 -11  17  -5    4.80    4.90
  -6 -11  -5    7.10   12.40
   5  12   5  210.18   11.30
   5 -17  -5  237.38   28.70
 -17  12  -5  186.88   11.90
  12 -17   5  174.98   26.10
  12   5  -5  211.48   17.10
 -17   5   5  197.58   20.30
 -12  -5   5  187.38   22.60
  17  -5  -5  157.88   19.80
  -5 -12  -5  189.78   21.80
  -5  17   5  195.68   11.40
 -12  17  -5  180.28   11.90
   4  13   5    1.20    4.50
  13   4  -5  -10.50    8.70
   4 -17  -5   17.40   18.40
  13 -17   5   11.60   17.00
 -17   4   5    9.00   10.90
 -17  13  -5    3.20    5.50
  17  -4  -5   -7.70   11.40
  -4 -13  -5   14.20   14.90
  -4  17   5    3.90    4.60
 -13  17  -5   -8.00    4.80
 -13  -4   5   -5.20   12.80
  14 -17   5  104.69   19.20
 -17  14  -5  133.99   11.10
   3  14   5  150.78    9.90
  14   3  -5  147.39   15.40
   3 -17  -5  183.08   27.00
 -17   3   5  152.48   19.30
  -3 -14  -5  169.68   22.20
 -14  -3   5  153.28   21.80
  17  -3  -5   97.59   16.30
 -14  17  -5  107.69    9.70
  -3  17   5  157.28   10.50
   2  15   5    7.00    5.00
  15 -17   5   -6.70   15.40
 -17   2   5   -0.80   11.60
  15   2  -5    8.80   10.00
   2 -17  -5    2.30   17.00
 -17  15  -5    0.60    5.30
  17  -2  -5   -4.30   11.40
 -15  17  -5  -11.90    5.20
  17 -15   5    0.50   13.50
  -2 -15  -5   13.60   16.00
  -2  17   5    2.60    4.90
 -15  -2   5   -0.10   12.00
  16 -17   5   48.70   16.20
 -17   1   5   53.59   14.10
 -17  16  -5   28.40    6.20
   1  16   5   55.09    7.60
   1 -17  -5   57.79   20.10
  16   1  -5   34.40   12.80
 -16  17  -5   46.20    6.60
  17 -16   5   54.99   16.90
  17  -1  -5   19.40   13.00
  -1 -16  -5   51.79   18.30
  -1  17   5   51.49    6.70
 -16  -1   5   40.00   13.60
   0  17   5    6.30    4.90
  17   0  -5  -15.20   11.40
  17 -17   5   12.10   15.20
   0 -17  -5   33.40   17.90
 -17   0   5   -2.50   10.60
 -18  18   5   68.69    9.20
   0 -18   5   63.39   24.20
  18 -18  -5   49.90   19.50
 -18   0  -5   56.49    8.50
  18   0   5   65.49   11.80
   0  18  -5   48.80    7.40
 -18  17   5    4.90    5.60
  17   1   5   28.50    8.60
   1  17  -5    3.50    6.00
   1 -18   5   31.70   25.20
  17 -18  -5    6.70   17.30
 -18   1  -5    3.60    5.30
  18 -17  -5  -13.60   17.00
  -1  18  -5    7.50    6.00
 -17  18   5    9.60    5.30
 -17  -1  -5    6.20    5.40
  -1 -17   5   36.00   23.60
  18  -1   5   -1.90    8.30
  16 -18  -5   34.40   19.20
   2  16  -5   43.60    7.20
   2 -18   5   87.69   26.90
 -18  16   5   51.09    6.80
 -18   2  -5   59.29    7.40
  18 -16  -5   32.40   18.10
 -16  18   5   34.60    6.00
  18  -2   5   30.40    9.50
  -2  18  -5   55.09    7.50
 -16  -2  -5   67.09    7.60
  -2 -16   5   95.19   25.30
  15 -18  -5  -13.60   16.90
 -18   3  -5   13.40    5.30
   3 -18   5   32.10   23.80
 -18  15   5    6.50    5.20
   3  15  -5    2.60    5.90
  18  -3   5  -13.90    8.40
  18 -15  -5   11.90   16.70
  -3  18  -5   14.50    5.70
  -3 -15   5   30.20   21.40
 -15  -3  -5    4.70    5.90
 -15  -3  -5   14.60    5.60
 -15  18   5   13.40    5.00
  14 -18  -5   67.09   19.90
 -18   4  -5   90.99    8.30
   4  14  -5   91.49    9.60
   4 -18   5  107.69   26.50
  -4 -14   5  131.69   23.60
  18  -4   5   60.89   13.40
 -14  18   5   98.89    8.90
  -4  18  -5   76.69    8.70
  18 -14  -5   85.99   19.30
 -14  -4  -5   87.59   10.20
 -14  -4  -5   72.59   12.80
   5  13  -5   -1.60    5.30
   5  13  -5    0.10    7.50
  13 -18  -5  -10.00   16.50
   5 -18   5    6.00   24.50
 -18   5  -5    8.20    6.60
 -18   5  -5    8.40    5.10
  -5 -13   5  -15.60   17.70
  -5  18  -5    7.10    5.10
  18 -13  -5   -1.00   14.70
 -13  -5  -5    4.00    5.60
 -13  18   5    9.90    4.80
 -13  -5  -5    3.10    4.80
 -13  -5  -5    2.50    9.20
   6 -18   5   36.00   25.20
   6  12  -5   81.19    9.50
 -18  12   5   99.69   14.70
  12 -18  -5  134.49   24.40
 -18   6  -5   89.29    8.30
 -18   6  -5   95.89   11.10
 -12  -6  -5   93.09    8.70
  -6 -12   5   97.29   22.10
 -12  -6  -5   69.99    9.40
  -6  18  -5   74.89    8.30
 -12  18   5   95.49    9.00
 -12  -6  -5   81.79   13.90
  18 -12  -5   72.99   17.40
 -18   7  -5   -3.50    5.90
   7  11  -5    0.80    7.90
  11 -18  -5   11.30   17.70
 -18  11   5   11.90   10.40
   7 -18   5  -52.49   20.20
 -18   7  -5    2.30    5.10
 -11  -7  -5    1.70    9.70
 -11  -7  -5   -4.10    4.60
 -11  18   5   -1.80    4.60
  18 -11  -5   -5.80   13.50
  -7 -11   5   -4.70   16.60
 -11  -7  -5   -0.60    5.20
  -7  18  -5   -8.70    4.60
 -18   8  -5   -3.60    5.70
 -18  10   5    6.00   10.50
 -18   8  -5    2.30    4.90
   8 -18   5  -62.49   20.90
   8  10  -5   -4.90    7.30
  10 -18  -5   28.60   17.90
 -10  18   5    3.00    4.70
  18 -10  -5    7.20   14.50
 -10  -8  -5    0.20   10.50
  -8 -10   5  -18.90   15.20
  -8  18  -5   -3.80    4.60
 -18   9   5   -6.80    9.20
 -18   9  -5    3.10    5.90
   9 -18   5  -39.30   19.40
   9   9  -5   -5.30    7.50
 -18   9  -5    1.20    4.80
   9 -18  -5   22.10   18.40
  -9  -9  -5   -8.90   10.70
  -9  -9   5    7.70   14.90
  -9  18   5    6.10    4.70
  18  -9  -5   -6.00   13.60
  -9  -9  -5  -13.00    7.80
  -9  18  -5   -2.20    4.70
  10   8  -5   -3.50    7.90
  10 -18   5    9.20   21.30
 -18   8   5   10.30   11.10
 -18  10  -5   -0.30    5.00
   8 -18  -5   22.90   18.40
 -18  10  -5   -6.90    5.70
  -8 -10  -5   12.00   11.40
 -10  18  -5   -9.20    4.80
  18  -8  -5   -4.20   12.90
  -8  18   5   -3.70    4.70
 -10  -8   5    8.80   14.20
 -18  11  -5    8.60    5.00
  11   7  -5    8.70    9.00
   7 -18  -5   26.40   18.70
   7  11   5    7.20    5.00
 -18   7   5    3.80   10.60
 -18  11  -5   -0.40    5.50
  11 -18   5   31.50   19.90
  -7  18   5    6.60    4.80
 -11  18  -5    6.80    5.00
  -7 -11  -5   15.90   13.60
  18  -7  -5   -4.10   13.50
 -11  -7   5   21.90   14.80
 -18   6   5   63.59   12.90
 -18  12  -5   54.19    7.60
  12   6  -5   62.09   11.30
  12 -18   5   56.29   20.30
 -18  12  -5   48.40    7.40
   6 -18  -5   60.39   20.70
   6  12   5   53.39    6.50
 -12  -6   5   28.00   14.70
  -6 -12  -5   70.69   15.40
 -12  18  -5   44.90    6.60
  -6  18   5   61.39    7.60
  18  -6  -5   33.20   14.60
 -18  13  -5    7.50    5.40
 -18  13  -5    3.60    6.10
   5 -18  -5   36.40   19.40
  13 -18   5   18.20   18.50
  13   5  -5    0.60    8.90
 -18   5   5    7.70   10.50
   5  13   5    4.60    4.90
  -5  18   5    2.20    4.80
 -13  -5   5    3.30   13.30
  -5 -13  -5    4.70   14.00
 -13  18  -5   -3.80    5.10
  18  -5  -5  -20.70   12.40
   4  14   5  102.99    8.70
  14   4  -5   91.09   14.00
  14 -18   5   67.39   19.60
 -18   4   5  103.09   14.90
 -18  14  -5   99.29    9.70
   4 -18  -5  139.29   26.80
  -4  18   5   99.19    8.80
  18  -4  -5   69.49   15.40
  -4 -14  -5  146.19   23.50
 -14  18  -5   75.79    8.60
 -14  -4   5   88.89   16.30
  15   3  -5   13.70   10.80
   3  15   5   11.60    5.10
  15 -18   5   15.60   17.50
 -18   3   5   18.30   10.90
   3 -18  -5   19.00   18.20
 -18  15  -5   12.70    6.30
  18  -3  -5  -12.00   12.20
 -15  -3   5    7.90   12.90
  -3 -15  -5   15.90   15.00
 -15  18  -5   -7.40    5.10
  -3  18   5   13.90    5.50
 -18   2   5   98.19   15.90
 -18  16  -5   90.29    9.90
   2  16   5  102.39    9.00
  16   2  -5  104.79   15.20
  16 -18   5   80.89   18.20
   2 -18  -5  150.08   26.50
 -16  18  -5   67.49    8.90
 -16  -2   5  120.79   18.30
  -2  18   5  119.79    9.30
  18 -16   5  122.39   18.60
  -2 -16  -5  104.69   20.10
  18  -2  -5  102.49   15.80
   1  17   5   12.60    5.40
  17 -18   5   13.50   15.90
 -18   1   5   -4.60   10.10
   1 -18  -5   35.60   19.70
  17   1  -5    6.70   11.20
  -1  18   5   22.00    6.00
  18 -17   5   13.20   14.60
  -1 -17  -5   20.80   17.40
 -17  -1   5   12.30   12.00
  18  -1  -5   -4.20   11.50
  18 -18   5   16.00   16.00
 -18  18  -5    5.80    6.40
   0 -18  -5   31.50   17.80
   0  18   5   22.80    5.80
 -18   0   5    9.40   10.40
  18   0  -5   -1.60   12.20
   0 -19   5   20.70   22.60
  19 -19  -5   12.10   18.90
   0  19  -5    0.60    6.10
 -19   0  -5    4.00    5.70
 -19  19   5   -2.10    6.10
   1  18  -5   16.50    6.60
  18   1   5   18.30    8.20
  18 -19  -5    8.50   18.10
 -19   1  -5   23.90    6.10
   1 -19   5   26.30   25.50
 -19  18   5   27.70    6.80
 -18  -1  -5   27.50    6.60
  19  -1   5    0.70    8.80
  -1 -18   5   65.89   25.50
  -1  19  -5   15.90    6.60
  19 -18  -5   11.40   18.00
 -18  19   5   23.60    6.10
 -19   2  -5   15.80    5.70
 -19  17   5    8.60    5.90
   2 -19   5   16.50   25.40
  17 -19  -5   -8.30   17.10
   2  17  -5    9.20    6.50
 -17  -2  -5   19.20    6.20
  19  -2   5  -11.60    8.20
  -2  19  -5    9.80    6.10
  -2 -17   5   13.10   22.00
  19 -17  -5   12.50   17.80
 -17  19   5   19.50    6.20
 -19   3  -5   61.49    8.30
  16 -19  -5   31.90   19.20
   3  16  -5   41.70    7.20
   3 -19   5   18.20   24.80
  -3  19  -5   43.30    6.90
  -3 -16   5   81.59   23.30
  19  -3   5   35.50   11.30
 -16  19   5   60.19    7.30
  19 -16  -5   49.30   19.30
   4  15  -5   22.00    6.40
  15 -19  -5  -13.40   16.50
   4 -19   5   33.90   26.00
 -19   4  -5   10.80    5.60
 -15  -4  -5   17.50    5.90
 -15  19   5   21.00    5.70
  -4 -15   5   40.90   21.00
  19 -15  -5   13.60   17.10
  -4  19  -5   16.50    5.80
  19  -4   5   -4.80    9.10
  14 -19  -5   34.10   19.70
   5  14  -5  114.59   12.80
   5 -19   5   81.19   27.80
   5  14  -5   47.20    7.30
 -19   5  -5   79.99    8.30
 -14  -5  -5   75.79   10.00
 -14  -5  -5   74.99    8.90
 -14  19   5   85.99    8.30
  -5 -14   5   69.49   21.30
 -14  -5  -5   66.89   12.10
  19 -14  -5   74.09   19.10
  -5  19  -5   64.49    9.20
   6  13  -5   20.50    6.40
   6  13  -5   18.60    8.80
 -19   6  -5   15.70    5.60
 -19   6  -5   18.10    7.90
  13 -19  -5   20.50   17.70
 -19  13   5   33.10   10.80
   6 -19   5    1.30   23.40
  -6  19  -5   11.10    5.80
  -6 -13   5   42.20   20.20
 -13  -6  -5   13.50    5.80
 -13  -6  -5   20.30   10.10
 -13  19   5   18.50    5.20
  19 -13  -5   10.90   15.90
  12 -19  -5  139.99   26.40
   7  12  -5  120.49   13.70
   7 -19   5   40.00   25.70
   7  12  -5  100.49   10.80
 -19   7  -5  113.79    8.90
 -19  12   5   91.59   15.10
 -19   7  -5  116.09   12.00
  19 -12  -5   90.89   19.30
  -7 -12   5   88.59   20.10
 -12  -7  -5   87.19    9.20
  -7  19  -5   79.09    9.40
 -12  -7  -5   98.69   15.60
 -12  19   5  112.69    9.50
 -19   8  -5   48.10    6.90
 -19  11   5   39.10   11.10
 -19   8  -5   60.49    8.50
   8 -19   5    0.50   24.20
   8  11  -5   51.29   10.60
  11 -19  -5   67.29   20.40
  -8 -11   5   34.20   16.40
 -11  -8  -5   40.70    6.70
 -11  19   5   42.90    6.30
  -8  19  -5   31.50    6.10
 -11  -8  -5   50.59   13.20
  19 -11  -5   62.59   16.50
   9  10  -5  104.89   14.00
  10   9   5  119.69    9.40
  10 -19  -5  176.88   29.60
 -19   9  -5  101.59    9.00
 -19  10   5  113.19   16.20
  -9  19  -5  104.19    9.10
 -10  19   5   97.49    8.90
  -9 -10   5  105.49   19.50
  19 -10  -5  104.49   18.90
 -10  -9  -5  102.99   16.10
 -19  10  -5  152.58   10.60
  10   9  -5  140.89   14.90
  10 -19   5   84.09   26.90
 -19   9   5  149.09   16.30
   9  10   5  147.89   10.50
   9 -19  -5  205.08   28.20
  -9 -10  -5  141.09   18.60
 -10  19  -5  140.69   10.40
 -10  -9   5  175.38   24.50
  -9  19   5  150.68   10.30
  19  -9  -5  147.69   22.10
   8 -19  -5  134.89   26.00
 -19  11  -5   85.69    8.40
 -19   8   5   91.69   15.00
 -19  11  -5   93.49   11.10
   8  11   5   91.29    8.90
  11   8  -5   75.99   12.50
  11 -19   5   57.79   24.10
  -8  19   5   99.19    8.80
 -11  19  -5   75.79    9.30
  19  -8  -5   90.19   16.90
  -8 -11  -5   86.79   15.60
 -11  -8   5   88.59   17.20
  12   7  -5  191.78   17.00
   7 -19  -5  225.88   29.50
 -19   7   5  214.08   18.60
   7  12   5  192.08   11.80
 -19  12  -5  202.68   12.10
 -19  12  -5  228.78   14.10
  19  -7  -5  191.38   22.00
  -7  19   5  208.78   12.60
 -12  19  -5  197.58   12.50
 -12  -7   5  183.88   23.00
  13   6  -5   38.00   11.00
 -19  13  -5   30.70    6.20
   6  13   5   37.30    6.00
   6 -19  -5   51.49   21.20
  13 -19   5   29.70   19.70
 -19   6   5   42.70   12.10
 -19  13  -5   29.00    7.30
  -6  19   5   36.50    6.40
  -6 -13  -5   37.20   14.50
 -13  -6   5   25.60   14.10
 -13  19  -5   24.10    6.30
  19  -6  -5   14.70   14.90
   5  14   5  214.58   12.50
  14   5  -5  193.38   17.70
   5 -19  -5  238.68   29.70
 -19  14  -5  195.18   12.00
 -19  14  -5  180.08   13.60
 -19   5   5  182.48   19.70
  14 -19   5  125.29   23.30
  19  -5  -5  167.38   20.90
  -5  19   5  214.38   12.60
  -5 -14  -5  207.08   22.80
 -14  -5   5  196.98   22.10
 -14  19  -5  182.48   12.40
   4  15   5   26.50    6.00
   4 -19  -5   46.40   20.30
  15   4  -5   18.00   10.30
 -19  15  -5   29.00    6.60
  15 -19   5   10.60   19.70
 -19   4   5   15.80   11.30
  -4  19   5   32.50    6.00
  19  -4  -5   -5.30   13.00
 -15  19  -5   14.50    5.70
 -15  -4   5   14.20   13.00
  -4 -15  -5   35.10   17.30
  16   3  -5   93.99   15.40
 -19   3   5  128.49   16.30
   3  16   5  125.69    9.80
  16 -19   5   77.19   19.70
 -19  16  -5  138.49   11.20
   3 -19  -5  162.48   27.30
 -16  19  -5   87.89   10.10
  -3 -16  -5  111.79   21.20
  19  -3  -5   62.09   15.60
 -16  -3   5  101.39   16.40
  17   2  -5   -4.80   10.60
  17 -19   5    5.60   16.30
 -19   2   5    8.70   10.30
   2  17   5   19.50    5.60
   2 -19  -5   13.20   19.10
  19  -2  -5   -4.60   12.40
 -17  -2   5   18.50   12.20
 -17  19  -5    4.80    5.70
  -2  19   5   17.70    5.90
  19 -17   5   32.10   15.90
  -2 -17  -5   13.20   16.70
  18   1  -5   32.60   12.90
   1  18   5   67.49    8.30
 -19   1   5   46.10   12.50
   1 -19  -5   37.00   18.70
 -19  18  -5   19.90    7.40
  18 -19   5   67.79   19.20
 -18  -1   5   49.60   12.20
 -18  19  -5   34.30    6.60
  19  -1  -5   31.10   13.50
  -1 -18  -5   68.49   18.90
  -1  19   5   64.79    8.20
  19 -18   5   58.69   17.10
 -19   0   5   14.30   11.20
   0  19   5   17.20    5.90
  19 -19   5   30.50   17.30
  19   0  -5  -11.40   12.70
   0 -19  -5   11.90   18.10
 -19  19  -5    6.10    5.80
   2  18  -5   50.89    8.20
  18 -20  -5   31.50   20.30
   2 -20   5   49.80   25.10
  18   2   5   57.39   10.70
 -20   2  -5   37.90    6.80
  20 -18  -5   57.19   19.80
 -18  -2  -5   50.69    7.40
 -18  20   5   36.90    6.60
  -2  20  -5   33.20    7.30
  -2 -18   5   61.79   23.80
  20  -2   5   28.10   11.10
  17 -20  -5  -23.50   16.90
 -20   3  -5    5.10    5.40
   3 -20   5   61.99   27.60
  17   3   5   13.70    7.30
   3  17  -5    1.60    6.10
  20 -17  -5   -0.80   17.20
 -17  20   5    4.00    5.40
  -3  20  -5   -0.10    5.70
  20  -3   5  -20.30    9.00
  -3 -17   5   38.70   22.90
 -17  -3  -5   -2.80    5.20
   4 -20   5  154.08   31.30
   4  16  -5  111.19   10.90
 -20   4  -5  108.89    9.00
  16 -20  -5   62.59   21.10
  -4 -16   5  129.99   25.90
 -16  20   5   82.19    8.90
  20 -16  -5   95.39   21.20
 -16  -4  -5   94.89    9.60
  -4  20  -5  101.19   10.10
  15 -20  -5  -25.80   16.00
 -20   5  -5    5.10    5.50
   5 -20   5    7.40   24.40
   5  15  -5   -9.10    5.70
  -5 -15   5   15.00   21.00
  20 -15  -5    7.00   16.90
 -15  20   5    2.80    5.20
  -5  20  -5   -0.30    5.60
 -15  -5  -5    2.80    5.20
   6  14  -5   39.40    9.90
  14 -20  -5   -4.80   17.30
   6 -20   5   17.60   26.10
   6  14  -5   10.40    7.20
 -20   6  -5   12.50    5.60
 -14  -6  -5   -1.50    9.40
 -14  -6  -5    6.20    5.40
  20 -14  -5    6.10   15.70
 -14  20   5   17.20    5.40
  -6 -14   5   19.50   19.00
  -6  20  -5    9.20    5.30
   7  13  -5    1.30    8.40
 -20  13   5    6.60    9.10
   7 -20   5    4.60   25.50
   7  13  -5   -0.20    8.60
 -20   7  -5    1.10    5.20
  13 -20  -5    0.20   18.40
  20 -13  -5   12.70   16.40
 -13  20   5    0.70    5.00
  -7 -13   5    4.40   16.60
 -13  -7  -5   -6.40    5.00
  -7  20  -5   -1.00    5.00
 -13  -7  -5   -7.90    9.30
  12 -20  -5   19.20   18.60
   8  12  -5    0.80    9.10
 -20   8  -5    4.80    5.40
   8 -20   5  -17.20   23.00
 -20  12   5   12.90    8.90
  12   8   5    6.40    5.10
  -8  20  -5   10.00    5.70
  20 -12  -5    0.80   15.70
 -12  -8  -5    0.50    5.50
  -8 -12   5   13.80   15.90
 -12  20   5   12.00    5.40
 -12  -8  -5   -6.30    9.60
  11 -20  -5   29.10   19.40
   9  11  -5    2.10    8.50
   9 -20   5  -32.00   24.10
 -20  11   5    4.80    9.60
  11   9   5    9.00    5.40
 -20   9  -5    5.00    6.80
 -20   9  -5   -2.90    5.10
 -11  -9  -5   -1.50   11.60
 -11  20   5   -4.90    4.60
  -9  20  -5   -0.50    5.20
  -9 -11   5   -4.40   14.80
  20 -11  -5    0.20   15.60
  10  10  -5   -2.40    8.80
  10  10   5    0.90    4.80
  10 -20  -5   23.90   19.80
 -20  10  -5   -0.20    4.90
 -20  10  -5    3.00    6.70
 -20  10   5   -0.20    9.30
  20 -10  -5   -1.40   15.20
 -10 -10  -5    8.50   11.50
 -10  20   5    2.60    5.10
 -10  20  -5   -4.90    4.90
 -10 -10   5  -11.50   13.80
   9 -20  -5   32.10   19.20
 -20  11  -5   12.90    7.00
 -20  11  -5   16.20    5.70
  11 -20   5  -42.90   22.40
 -20   9   5   11.10    9.70
  11   9  -5    5.50    9.20
   9  11   5   21.70    5.70
 -11  -9   5    5.60   14.20
  -9 -11  -5   11.80   12.70
  -9  20   5   28.30    5.90
 -11  20  -5    9.70    5.50
  20  -9  -5   24.00   15.20
 -20  12  -5   -1.70    5.20
 -20   8   5   -3.30    9.60
   8 -20  -5   21.20   19.70
   8  12   5   -2.20    4.80
 -20  12  -5   -4.70    6.60
  12   8  -5    0.00    8.60
  12 -20   5  -50.49   22.00
 -12  -8   5   17.80   15.20
  -8  20   5    0.60    4.90
 -12  20  -5    3.80    5.10
  -8 -12  -5    2.20   12.90
  20  -8  -5    7.40   14.60
 -20   7   5   -1.40    9.70
 -20  13  -5    1.00    5.00
  13   7  -5   -9.20    8.70
  13 -20   5  -20.00   20.40
   7  13   5    1.00    5.40
   7 -20  -5   26.30   20.00
 -20  13  -5   -5.50    6.70
  20  -7  -5   -5.00   14.10
 -13  -7   5   -5.00   12.60
  -7  20   5    2.70    5.10
  -7 -13  -5   -3.10   12.80
 -13  20  -5    0.90    5.30
   6 -20  -5   46.80   21.20
  14   6  -5   22.30   10.30
 -20  14  -5   25.60    6.50
  14 -20   5   12.90   21.20
 -20  14  -5   27.20    7.70
   6  14   5   21.20    5.70
 -20   6   5   20.10   11.20
  -6 -14  -5   32.70   14.90
  -6  20   5   15.70    5.60
  20  -6  -5   28.20   15.10
 -14  20  -5   21.20    5.90
 -14  -6   5   21.10   13.40
  15   5  -5   -9.90    9.80
 -20   5   5   15.30   10.10
   5  15   5    3.80    5.00
 -20  15  -5    6.20    6.40
  15 -20   5  -28.70   19.20
   5 -20  -5   16.80   19.50
 -15  20  -5   -7.70    5.10
  -5  20   5   -0.60    5.10
  -5 -15  -5   -0.30   14.10
  20  -5  -5  -11.60   13.50
 -15  -5   5   11.00   13.00
  16 -20   5   29.40   19.20
 -20  16  -5   30.70    7.10
 -20   4   5   34.60   12.00
   4 -20  -5   66.89   20.80
   4  16   5   42.20    6.90
  16   4  -5   35.10   12.10
 -16  -4   5   30.60   13.20
 -16  20  -5   41.20    6.90
  -4 -16  -5   51.09   16.90
  20  -4  -5   24.90   14.50
  -4  20   5   42.10    6.70
  17   3  -5  -15.50   10.40
   3 -20  -5   20.50   19.30
  17 -20   5    3.00   17.80
 -20   3   5   -2.60   10.20
 -20  17  -5  -10.00    5.80
   3  17   5    5.90    5.60
 -17  -3   5    4.80   11.00
 -17  20  -5    2.10    5.60
  20 -17   5   12.30   14.40
  -3 -17  -5   10.00   16.00
  -3  20   5    6.10    5.30
  20  -3  -5  -17.40   12.80
  18   2  -5   -7.30   10.80
   2 -20  -5    9.80   18.70
 -20   2   5   -3.00   10.20
  18 -20   5    4.90   17.80
   2  18   5   10.40    5.60
  -2 -18  -5   16.70   16.60
 -18  20  -5   14.10    6.40
  20  -2  -5   -8.50   12.00
  -2  20   5   10.70    5.70
 -18  -2   5    9.20   10.70
  20 -18   5    7.80   15.30
  17   4   5    9.90    6.50
  17 -21  -5  -11.80   18.20
 -17  21   5    8.60    5.90
  21 -17  -5  -12.50   17.40
   5 -21   5   70.59   29.80
   5  16  -5   69.29    8.90
 -21   5  -5   53.29    7.70
 -16  21   5   55.29    7.40
 -16  -5  -5   54.39    7.70
  21 -16  -5   61.09   20.20
  -5 -16   5   64.99   20.70
  -5  21  -5   68.29    8.10
  15 -21  -5  -39.40   16.30
   6 -21   5   11.00   25.80
 -21   6  -5    2.10    5.40
   6  15  -5    1.90    6.70
 -15  21   5    4.90    5.10
 -15  -6  -5    2.20    5.70
  -6  21  -5    1.10    5.40
  -6 -15   5   11.10   17.40
  21 -15  -5    5.60   17.00
 -15  -6  -5  -10.70    9.50
   7  14  -5   62.59   11.20
   7 -21   5   23.20   26.70
 -21   7  -5   62.39    7.90
  14 -21  -5   14.40   19.80
  21 -14  -5   69.69   19.60
  -7 -14   5   91.29   20.70
 -14  -7  -5   53.99   12.10
 -14  -7  -5   51.99    7.80
  -7  21  -5   60.19    8.20
 -14  21   5   55.49    7.10
   8  13  -5   78.39   13.50
   8 -21   5  100.79   30.70
 -21  13   5   53.69   11.10
 -21   8  -5   69.49    8.20
  13 -21  -5   44.80   21.00
 -13  21   5   74.89    8.90
  -8  21  -5   60.79    8.20
  21 -13  -5   70.39   19.00
 -13  -8  -5   67.89   13.20
  -8 -13   5   62.99   18.60
 -21   9  -5  150.68   10.50
  12 -21  -5  165.38   28.10
   9  12  -5  130.69   15.10
 -21  12   5  152.08   14.70
   9 -21   5   55.29   27.70
  -9 -12   5  191.68   26.50
  -9  21  -5  146.39   11.30
  21 -12  -5  158.18   23.50
 -12  -9  -5  154.88   19.10
 -12  21   5  140.59   10.90
  10 -21   5  128.19   31.00
 -21  11   5  138.89   15.40
  11  10   5  163.58   11.00
  10  11  -5  122.19   15.50
  11 -21  -5  172.38   28.90
 -10  21  -5  131.49   10.40
 -11 -10  -5  134.89   18.90
  21 -11  -5  147.09   23.40
 -10 -11   5  129.89   20.30
 -11  21   5  132.99   10.10
  11  10  -5   81.79   14.20
 -21  10   5   87.49   13.40
  10 -21  -5  156.48   26.90
  11 -21   5   17.20   25.50
 -21  11  -5   74.49    9.00
  10  11   5   88.19    9.40
 -21  11  -5   82.59   11.90
 -10 -11  -5   97.39   18.40
 -11  21  -5   88.39    9.70
  21 -10  -5   85.39   18.70
 -10  21   5   81.09    8.70
 -11 -10   5   62.69   16.90
 -21   9   5  132.99   16.10
 -21  12  -5  168.78   14.00
  12 -21   5   67.29   26.70
 -21  12  -5  159.38   10.80
   9 -21  -5  207.78   28.60
  12   9  -5  153.98   15.30
   9  12   5  146.29   10.90
 -12  -9   5  134.99   21.50
  -9 -12  -5  171.98   21.30
  21  -9  -5  147.79   22.30
  -9  21   5  159.98   10.70
 -12  21  -5  150.68   10.80
 -21  13  -5   30.40    6.40
 -21  13  -5   26.90    8.10
 -21   8   5   16.90    9.80
  13 -21   5  -27.20   22.40
   8 -21  -5   44.70   20.80
   8  13   5   38.50    6.70
  13   8  -5   19.40   10.10
  -8 -13  -5   42.20   14.90
  21  -8  -5   30.30   15.90
  -8  21   5   32.40    6.30
 -13  -8   5   11.90   14.20
 -13  21  -5   12.80    5.70
  14   7  -5   89.49   14.10
   7  14   5   96.09    9.00
  14 -21   5   24.20   22.90
 -21  14  -5  105.59   12.30
 -21  14  -5   99.19    9.70
 -21   7   5   98.99   15.80
 -14  21  -5   98.69    9.40
  21  -7  -5   85.79   17.40
  -7 -14  -5  121.29   18.90
  -7  21   5  104.79    9.80
 -14  -7   5   91.99   16.30
 -21  15  -5   38.50    8.20
  15 -21   5  -16.10   19.50
 -21  15  -5   41.40    7.30
 -21   6   5   25.50   10.20
  15   6  -5   17.70   10.50
   6 -21  -5   49.60   21.40
   6  15   5   40.90    6.90
 -15  -6   5   36.30   13.60
  -6 -15  -5   30.00   15.20
  21  -6  -5   26.30   15.20
 -15  21  -5   26.80    6.30
  -6  21   5   32.40    6.50
  16 -21   5   82.09   23.70
   5  16   5  120.49   10.00
   5 -21  -5  144.59   27.30
  16   5  -5  111.19   15.40
 -16  -5   5  146.59   18.90
  21  -5  -5  111.09   20.10
  -5 -16  -5  122.89   21.20
  -5  21   5  134.39   10.70
 -16  21  -5  140.19   11.10
  17   4  -5   -6.20   10.50
   4 -21  -5   21.90   19.70
  21  -4  -5    0.60   13.70
  -4 -17  -5   11.30   15.00
   8  14  -5   47.60   12.10
   8 -22   5   55.39   29.10
  14 -22  -5  -11.00   18.40
 -14  -8  -5   42.60   12.60
  -8  22  -5   49.40    6.90
  22 -14  -5   50.89   18.50
 -14  22   5   30.50    6.50
  -8 -14   5   33.10   17.30
 -22  13   5   11.80    9.40
  13 -22  -5    6.80   18.80
 -22   9  -5   11.90    6.00
   9 -22   5   14.10   28.60
   9  13  -5    9.50    9.70
  13   9   5    9.40    7.80
  -9  22  -5    5.30    5.70
 -13  -9  -5   -4.90   11.10
 -13  22   5   13.30    5.70
  -9 -13   5    3.80   16.50
  22 -13  -5    6.30   17.00
 -22  10  -5   -3.50    5.00
  12  10   5   12.00    5.60
  10  12  -5    3.50    9.50
  10 -22   5    2.10   27.50
 -22  12   5    1.20    9.00
  12 -22  -5   11.30   19.30
 -10 -12   5    1.20   16.50
 -12  22   5    7.40    5.30
 -10  22  -5    1.80    5.40
 -12 -10  -5   -6.50   11.40
  22 -12  -5    0.60   15.80
  11 -22   5  -17.30   24.80
 -22  11   5    0.00    8.20
 -22  11  -5    0.50    5.40
  11 -22  -5   27.10   19.00
  11  11   5   16.50    5.80
  11  11  -5   -2.10    9.00
 -11  22  -5    4.40    5.40
  22 -11  -5   15.40   16.50
 -11 -11   5   10.70   15.00
 -11 -11  -5    1.10   12.10
 -11  22   5    3.70    5.40
 -22  10   5   15.10    9.40
  10 -22  -5   33.30   20.00
  12  10  -5   -0.90    9.10
 -22  12  -5    5.50    5.80
  10  12   5   14.30    5.90
  12 -22   5    4.20   26.80
  22 -10  -5   30.10   16.50
 -10  22   5   12.00    5.80
 -12 -10   5   -5.10   13.30
 -10 -12  -5    7.90   11.70
 -12  22  -5    7.60    5.60
   9 -22  -5   47.40   21.40
   9  13   5    5.60    5.70
 -22  13  -5    0.30    5.40
  13   9  -5   -2.80    9.40
  13 -22   5  -38.80   24.30
 -22   9   5   -4.50    9.10
  -9 -13  -5   -3.00   12.30
  -9  22   5   11.70    5.50
  22  -9  -5    9.60   15.40
 -13  22  -5   11.90    6.00
 -13  -9   5   -3.80   12.50
   8  14   5   24.00    6.10
   8 -22  -5   56.19   21.30
 -22  14  -5   11.90    7.90
  14 -22   5  -68.59   23.50
  14   8  -5   12.10   10.00
 -14  -8   5   19.70   14.10
  -8  22   5   11.60    5.60
 -14  22  -5   23.20    6.50
  -8 -14  -5   30.00   14.80
  22  -8  -5   40.80   15.80
   0   0  -6  626.24   27.10
   0   0   6  636.74   41.00
   0   1  -6   91.39    8.50
  -1   0  -6   84.99    8.60
  -1   1   6  120.19   23.80
   1  -1  -6   88.29    8.60
   1   0   6  101.49   20.80
   0  -1   6   93.09   23.30
   1  -1   6   59.49   20.70
   1   0  -6   59.99    8.40
   0  -1  -6   59.59    7.90
  -1   1  -6   47.40    6.70
   0  -1  -6   82.99   14.50
  -1   0   6   70.29   21.80
   0   1   6   72.49   20.40
   2  -2  -6  395.86   19.60
  -2   0  -6  435.56   19.90
   0  -2   6  425.76   36.10
   2  -2  -6  478.95   27.20
  -2   2   6  472.85   37.90
   2   0   6  430.86   32.10
   0   2  -6  445.66   19.90
   1  -2   6    5.10   19.50
   1   1  -6   28.60    5.60
  -2   1  -6   28.30    6.00
   1   1   6   29.40   18.10
   1  -2  -6   48.80   12.40
  -2   1   6   33.20   20.80
   1  -2  -6   31.60    5.70
  -1  -1  -6   35.80    9.60
  -1   2   6   65.89   20.40
   2  -1   6   45.00   18.30
  -1  -1  -6   28.30    6.10
   2  -1  -6   29.00    5.80
  -1   2  -6   27.60    5.80
  -1  -1   6   30.30   21.40
  -2   0   6  557.84   41.20
   2   0  -6  590.74   28.50
  -2   2  -6  537.55   23.60
   2   0  -6  552.64   23.90
   0  -2  -6  510.85   23.60
   0   2   6  502.15   36.50
   2  -2   6  492.85   36.30
   0  -2  -6  570.74   29.60
   3  -3  -6  133.59   18.60
   3  -3  -6   90.79    8.40
   0  -3   6   82.19   22.00
   3   0   6   69.29   18.20
   0   3  -6   88.09    8.40
  -3   3   6  104.29   23.70
  -3   0  -6   78.49    8.40
   2  -3  -6   90.19   18.80
   2  -3  -6   56.79    8.40
  -3   2   6   74.69   21.50
  -3   1  -6   59.59    8.00
   1   2  -6   63.49    8.20
   2   1   6   74.19   18.60
   1  -3   6   70.79   20.90
  -2  -1  -6   46.80    6.70
   3  -1   6   65.29   18.50
  -1   3  -6   72.99    7.90
   3  -2  -6   60.19    7.50
  -1  -2   6   57.89   22.40
  -2   3   6   44.90   20.00
   2  -3   6   29.20   19.20
  -3   2  -6   44.00    6.30
   1  -3  -6   57.09   13.40
  -3   1   6   29.60   20.80
   1   2   6   54.49   19.70
   2   1  -6   47.40    6.20
   1  -3  -6   47.50    6.60
  -2  -1   6   60.79   21.70
  -2   3  -6   38.10    6.40
  -1  -2  -6   44.30    6.10
   3  -1  -6   45.30    6.50
  -1   3   6   41.90   18.80
   3  -1  -6   96.79   15.90
   3  -2   6   34.80   17.80
  -1  -2  -6   51.59   10.70
   3   0  -6  304.37   19.20
  -3   0   6  256.17   31.80
  -3   3  -6  217.48   13.00
   0   3   6  234.48   30.30
   3   0  -6  226.08   12.90
   0  -3  -6  241.48   13.30
   3  -3   6  246.88   29.60
   0  -3  -6  259.87   21.30
   4  -4  -6  150.88   20.00
   4   0   6   77.09   17.20
   4  -4  -6   90.99    8.20
   0   4  -6   85.69    8.10
   0  -4   6   86.79   23.30
  -4   4   6   94.19   22.00
  -4   0  -6   90.89    8.30
   3  -4  -6    9.90    4.80
   1   3  -6    6.70    4.80
  -4   3   6   14.70   19.60
  -4   1  -6   12.00    5.20
   3   1   6   14.10   15.30
   1  -4   6    7.20   20.60
   3  -4  -6   30.10   12.90
   4  -3  -6   13.90    4.90
  -1  -3   6   12.50   20.00
   4  -3  -6   23.00   12.10
  -3   4   6   10.00   19.50
  -1   4  -6    9.80    4.90
  -3  -1  -6    4.20    5.00
   4  -1   6    0.50   14.70
   2   2   6  305.17   29.50
   2  -4  -6  392.46   26.10
   2   2  -6  357.06   16.30
  -4   2  -6  345.77   16.50
  -4   2   6  330.07   33.60
   2  -4   6  336.47   32.00
   2  -4  -6  326.77   16.50
  -2   4  -6  324.77   16.30
  -2  -2  -6  339.67   16.60
   4  -2   6  352.86   28.30
  -2   4   6  343.97   30.80
  -2  -2   6  350.56   33.60
   4  -2  -6  335.17   16.60
  -2  -2  -6  350.66   21.20
   3   1  -6   -1.70    4.80
   3  -4   6   15.40   18.30
  -4   3  -6    7.40    4.90
   1   3   6    6.40   16.00
  -4   1   6   25.30   20.40
   1  -4  -6    5.10    4.90
   1  -4  -6   16.80   11.30
  -3   4  -6   -4.20    4.50
  -3  -1   6   -7.10   21.40
   4  -3   6   19.20   16.70
   4  -1  -6   -4.40    4.40
  -1  -3  -6   -0.20    4.80
  -1  -3  -6    3.50    9.70
  -1   4   6   -2.30   17.50
   4   0  -6  512.05   22.30
   4  -4   6  467.55   34.10
  -4   0   6  489.85   38.50
   0  -4  -6  502.15   22.30
  -4   4  -6  501.15   22.20
   0  -4  -6  531.55   30.00
   4   0  -6  502.45   27.60
   0   4   6  475.25   35.50
   5   0   6   44.80   14.70
  -5   5   6   44.30   19.00
   0  -5   6   30.90   21.50
   5  -5  -6   27.70    5.60
   0   5  -6   24.00    5.40
   5  -5  -6   58.09   14.30
  -5   0  -6   38.90    6.00
   4  -5  -6   66.69   15.90
   1   4  -6   27.50    5.40
   4  -5  -6   25.00    5.60
  -5   4   6   43.40   20.90
   1  -5   6   56.39   21.60
  -5   1  -6   28.50    5.70
   4   1   6   45.70   15.50
  -4   5   6   56.79   21.00
   5  -4  -6   36.60    5.70
  -1   5  -6   30.90    5.60
  -1  -4   6   24.20   20.80
   5  -4  -6   57.89   14.80
   5  -1   6   37.70   15.00
  -4  -1  -6   35.50    5.90
   2   3  -6   11.50    5.10
   3   2   6   15.50   15.80
   3  -5  -6    2.10    4.80
   3  -5  -6   31.40   14.30
  -5   3   6   11.40   19.00
  -5   2  -6    4.30    4.80
   2  -5   6    9.10   18.50
   5  -3  -6    1.50    4.40
  -3  -2  -6    7.50    4.90
  -2   5  -6    5.80    4.80
   5  -3  -6   43.40   12.30
  -3   5   6    0.10   16.90
   5  -2   6  -11.70   13.90
  -2  -3   6    3.90   19.20
  -3  -2  -6    6.00    7.70
  -5   3  -6  237.48   13.10
  -5   2   6  218.48   30.10
   2  -5  -6  293.47   24.60
   3   2  -6  225.88   12.60
   2  -5  -6  227.88   13.10
   3  -5   6  218.48   27.90
   2   3   6  250.07   24.90
  -3   5  -6  234.08   13.30
  -2  -3  -6  243.48   13.20
   5  -3   6  245.68   24.60
   5  -2  -6  281.77   21.30
  -2   5   6  222.58   29.50
   5  -2  -6  239.88   13.10
  -3  -2   6  263.27   32.70
  -2  -3  -6  230.58   19.00
  -5   4  -6    1.10    4.70
   1   4   6    5.80   14.90
   1  -5  -6   21.90   12.80
   1  -5  -6    2.10    4.90
  -5   1   6  -10.50   20.60
   4   1  -6    2.90    4.50
   4  -5   6   -4.50   16.90
   5  -1  -6   30.30   10.30
  -1  -4  -6   12.00   11.00
   5  -4   6   20.80   16.30
  -4  -1   6    2.60   20.10
  -4   5  -6    2.10    4.80
   5  -1  -6    4.80    4.60
  -1  -4  -6    3.50    4.90
  -1   5   6   -9.00   15.90
   0  -5  -6  878.01   42.40
  -5   5  -6  809.72   33.30
   0   5   6  790.12   45.10
   5   0  -6  683.03   37.50
  -5   0   6  857.21   48.60
   0  -5  -6  817.62   33.60
   5  -5   6  800.22   43.60
   5   0  -6  829.82   33.30
  -6   6   6  181.68   27.60
  -6   0  -6  154.78   10.50
   6   0   6  156.18   21.30
   6  -6  -6  142.19    9.90
   0   6  -6  145.29    9.70
   0  -6   6  165.08   26.60
  -6   1  -6   -3.10    4.70
   5  -6  -6    2.60    4.50
   1  -6   6    4.80   21.70
   5  -6  -6   27.10   14.30
   1   5  -6   -5.00    4.30
   5   1   6   -5.70   12.60
  -6   5   6    0.00   17.60
  -5  -1  -6   -6.80    4.30
   6  -5  -6   30.90   12.70
   6  -5  -6    4.30    4.90
   6  -1   6    6.50   13.60
  -5   6   6   20.50   18.90
  -1   6  -6    1.50    4.40
  -1  -5   6   -3.50   19.80
   2   4  -6   51.29    6.40
  -6   2  -6   53.79    7.40
  -6   4   6   60.19   22.10
   4  -6  -6   48.10    6.30
   2  -6   6   63.49   22.60
   4   2   6   58.49   15.60
   4  -6  -6   88.19   16.90
   6  -2   6   41.60   14.70
  -2   6  -6   62.89    7.20
  -4  -2  -6   45.80    6.70
  -4  -2  -6   55.99    9.30
  -2  -4   6   29.60   21.90
  -4   6   6   58.99   19.20
   6  -4  -6   53.49    7.30
   6  -4  -6   74.99   14.70
   3   3  -6   10.50    4.80
   3   3   6   20.10   14.50
   3  -6   6   28.00   19.40
  -6   3   6   17.30   19.30
   3  -6  -6   45.60   15.10
  -6   3  -6   11.20    4.90
   3  -6  -6   14.50    5.30
  -3   6   6   21.20   19.30
   6  -3  -6   11.20    4.80
  -3  -3   6   42.90   20.40
  -3   6  -6   13.90    5.10
   6  -3   6    4.20   14.00
   6  -3  -6   34.30   12.80
  -3  -3  -6   15.30    5.20
   2   4   6   38.20   16.50
   2  -6  -6   32.30   13.70
  -6   2   6   14.70   19.90
  -6   4  -6   24.10    5.50
   2  -6  -6   20.80    5.20
   4   2  -6   14.70    4.70
   4  -6   6   21.80   17.10
   4   2  -6   36.10   10.00
  -4   6  -6   20.80    5.30
   6  -4   6    7.70   13.90
  -4  -2   6   36.70   21.60
  -2  -4  -6   29.00   11.50
  -2  -4  -6   13.50    5.60
   6  -2  -6  -15.50   10.50
   6  -2  -6   17.10    5.20
  -2   6   6   13.30   16.90
   5   1  -6   26.70    5.20
   1   5   6   21.70   15.80
  -6   1   6   37.70   22.00
   1  -6  -6   45.40   14.90
   5  -6   6   34.80   17.80
   5   1  -6   47.00   14.90
   1  -6  -6   25.00    5.80
  -6   5  -6   26.70    5.60
  -5   6  -6   26.30    5.40
  -1  -5  -6   27.60    5.80
  -5  -1   6   21.70   20.70
  -1   6   6   43.30   18.30
   6  -1  -6   23.60    5.30
   6  -5   6   29.00   15.90
  -1  -5  -6   29.40   13.40
   6  -1  -6    9.70   10.80
   0   6   6  463.95   33.70
   6   0  -6  457.55   20.90
   6  -6   6  414.46   32.00
   0  -6  -6  442.56   20.90
  -6   6  -6  447.76   20.80
  -6   0   6  428.06   37.00
   6   0  -6  543.45   27.60
   0  -6  -6  501.95   31.80
   0   7  -6  152.48   10.70
   0  -7   6  185.28   27.40
   7   0   6  147.29   21.00
   7  -7  -6  191.08   21.50
  -7   7   6  218.78   26.90
   7  -7  -6  143.79   10.40
  -7   0  -6  169.38   10.80
   6   1   6   10.00   13.10
   6  -7  -6   30.50   15.50
  -7   1  -6    7.90    5.10
   1   6  -6    3.10    4.60
   6  -7  -6    7.00    4.90
  -7   6   6   -1.50   16.70
  -6  -1  -6   10.90    5.10
   7  -1   6    5.30   13.30
  -6  -1  -6    1.50    6.00
   7  -6  -6   45.30   14.40
  -1   7  -6   10.30    5.00
   7  -6  -6   10.30    4.80
  -6   7   6   13.50   17.10
  -1  -6   6    1.40   24.90
   5  -7  -6  143.99   21.70
  -7   5   6   90.59   21.30
   2  -7   6   70.59   38.10
   5  -7  -6   82.99    9.10
   5   2   6   90.49   15.90
  -7   2  -6  102.79    8.70
   2   5  -6   90.89    8.90
   7  -5  -6   87.79    8.70
  -2  -5   6   71.69   27.00
  -5  -2  -6   80.49    9.10
   7  -5  -6  103.69   17.00
  -2   7  -6   89.99    8.90
  -5   7   6  117.59   20.90
   7  -2   6  116.89   17.10
  -5  -2  -6   86.29   11.70
   4   3   6   65.19   14.90
  -7   4   6   87.39   22.50
  -7   3  -6   41.90    6.20
   3  -7   6   46.50   21.10
   3   4  -6   51.79    7.10
   4  -7  -6   48.30    6.60
   7  -4  -6   58.29    7.80
  -3  -4   6   38.50   21.90
  -4   7   6   41.80   18.90
   7  -4  -6   32.60   13.90
  -4  -3  -6   53.69    7.60
   7  -3   6   44.40   14.70
  -3   7  -6   54.59    7.30
  -4  -3  -6   60.99   10.70
  -7   3   6   22.00   19.50
   4  -7   6   16.20   18.00
   4   3  -6   15.80    4.90
   3  -7  -6   13.70    5.30
   3  -7  -6   32.40   15.30
  -7   4  -6   13.00    5.10
   4   3  -6   42.40   10.30
   3   4   6   14.00   14.60
  -4  -3   6   14.20   20.80
   7  -3  -6    6.60   11.90
   7  -4   6   22.90   14.30
   7  -3  -6    7.70    4.70
  -3  -4  -6   20.20    5.40
  -4   7  -6   20.40    5.10
  -3   7   6   56.09   19.30
  -3  -4  -6   22.40   10.70
   2  -7  -6  922.51   45.40
   5  -7   6  709.13   60.59
   5   2  -6  883.41   35.80
   2  -7  -6  760.32   36.10
  -7   2   6  935.61   49.99
   2   5   6  899.41   45.90
  -7   5  -6  862.91   36.00
  -2  -5  -6  841.82   36.40
   7  -2  -6  951.60   43.10
   7  -2  -6  903.51   36.10
  -5  -2   6  920.71   50.79
  -2   7   6  903.51   48.00
  -2  -5  -6  887.11   43.30
   7  -5   6  857.31   44.30
   6   1  -6  272.37   14.60
   6   1  -6  281.87   21.20
  -7   1   6  307.87   32.20
   1  -7  -6  338.47   28.00
   1   6   6  248.78   26.90
   7  -1  -6  288.57   14.60
  -6  -1   6  281.57   35.00
  -1  -6  -6  294.27   23.90
  -1   7   6  275.87   28.80
   7  -1  -6  274.77   21.90
   7  -7   6 1690.63   80.29
  -7   0   6 1864.11   84.89
  -7   7  -6 1852.61   72.79
   7   0  -6 1898.01   72.89
   0  -7  -6 1922.41   73.29
   0   7   6 1974.10   83.29
   0  -7  -6 1841.12   81.79
   8   0   6   -7.00   11.70
   8  -8  -6   31.40   14.50
  -8   8   6    4.20   15.90
   8  -8  -6    1.40    4.80
   0  -8   6   13.20   21.70
   7  -8  -6   53.19   15.80
  -8   7   6   30.60   16.20
   7  -8  -6   13.50    5.00
   7   1   6   21.30   12.80
   1  -8   6   27.60   20.80
  -8   1  -6    9.30    9.00
   1   7  -6    9.90    4.80
  -7   8   6   27.60   17.20
   8  -7  -6   17.60    5.00
  -7  -1  -6   10.90    7.10
   8  -1   6    9.90   12.60
   8  -7  -6   45.10   14.90
  -1  -7   6   10.90   22.00
   6  -8  -6   14.20    5.40
   2  -8   6    4.10   20.70
  -8   6   6   13.20   17.60
   2   6  -6   11.30    4.70
   6  -8  -6   49.80   16.80
   6   2   6    3.20   12.40
  -8   2  -6   14.00    5.20
  -6  -2  -6    7.70    9.00
   8  -6  -6    0.40   12.60
  -2  -6   6   30.20   22.60
  -6   8   6   14.40   17.50
   8  -2   6   -5.10   12.30
   8  -6  -6    8.90    4.80
  -6  -2  -6   10.20    7.70
   3   5  -6    7.10    4.70
   5  -8  -6    9.60    5.10
   3  -8   6   23.30   21.70
   5  -8  -6   43.70   15.20
  -8   5   6   19.20   17.60
   5   3   6    0.60   12.80
  -8   3  -6    1.60    4.70
  -5  -3  -6   -1.00    8.10
   8  -5  -6    6.10    4.50
   8  -5  -6  -17.00   11.50
  -3   8  -6   -1.50    8.10
  -5  -3  -6    4.40    8.40
  -5   8   6   23.00   18.30
  -3  -5   6   -4.20   21.00
   8  -3   6   -7.30   13.10
   4  -8  -6  220.78   23.40
   4   4  -6  168.48   10.40
   4  -8   6  160.48   24.30
  -8   4  -6  144.89   11.30
   4   4   6  147.69   19.70
  -8   4   6  219.28   29.80
  -4  -4  -6  178.18   18.10
   8  -4  -6  148.59   18.00
   8  -4  -6  170.78   10.80
  -4   8  -6  157.38   10.90
  -4  -4   6  178.38   26.60
   5   3  -6   29.90   12.50
   3  -8  -6   37.70   15.80
   5   3  -6   30.60    5.40
   3  -8  -6   24.50    5.60
   3   5   6   38.20   15.50
   5  -8   6   22.40   18.10
  -8   3   6   43.20   20.10
  -5  -3   6   34.90   22.10
  -5   8  -6   23.10    5.50
  -3  -5  -6   14.70    6.40
   8  -3  -6   38.40    5.90
  -3  -5  -6   16.70   11.60
   8  -5   6   41.50   14.70
   8  -3  -6   30.30   12.70
   2  -8  -6  277.07   14.60
   2   6   6  330.87   27.60
   6   2  -6  295.17   20.20
  -8   6  -6  260.37   14.20
   2  -8  -6  306.97   25.70
   6   2  -6  273.97   14.30
  -8   2   6  285.57   31.20
   6  -8   6  264.07   28.00
  -6   8  -6  252.87   14.10
   8  -2  -6  283.27   22.70
  -2  -6  -6  298.87   24.30
   8  -6   6  252.57   24.20
  -2  -6  -6  268.57   14.60
  -6  -2   6  238.38   32.70
   8  -2  -6  276.67   14.30
   7  -8   6   97.49   19.90
   7   1  -6  109.29    9.00
   7   1  -6  110.69   16.30
   1  -8  -6  123.99    9.60
  -8   7  -6  109.19    9.10
   1  -8  -6  148.39   21.40
  -7  -1   6  106.59   24.30
   8  -1  -6  146.59   18.40
   8  -1  -6  108.49    8.70
  -7   8  -6  105.59    9.00
  -1  -7  -6  114.09    9.60
  -1  -7  -6   99.49   17.10
   8  -7   6   94.39   18.00
  -8   0   6   -4.40   20.00
  -8   8  -6    7.30    5.00
   8   0  -6   30.20   11.50
   8  -8   6    4.30   15.00
   0  -8  -6    1.40    5.20
   0  -8  -6   15.20   14.30
   8   0  -6    4.10    4.70
   9  -9  -6   -1.90    5.60
  -9   0  -6    3.10    5.20
   0   9  -6   -5.90    4.50
   9  -9  -6   13.00   15.40
   0  -9   6  -14.30   22.20
   8  -9  -6   33.70   15.60
  -9   1  -6    6.40    5.50
   1  -9   6   10.70   21.00
  -9   8   6   13.60   15.20
   8   1   6   -9.60   11.90
  -8  -1  -6    2.20    5.10
  -8  -1  -6   -2.40    6.40
   9  -8  -6  -21.00   12.90
  -1   9  -6    3.60    4.70
   9  -1   6   -1.60   12.60
  -1  -8   6   12.40   23.40
   9  -8  -6    4.40    5.00
   7   2   6   54.09   14.00
   7  -9  -6   63.69   17.20
   7  -9  -6   34.70    9.40
   2  -9   6   23.10   22.50
  -9   7   6   77.29   18.20
   2   7  -6   43.80    6.10
  -9   2  -6   34.10    6.20
  -2  -7   6   36.70   23.40
   9  -2   6   35.50   14.10
   9  -7  -6   42.70    6.20
  -7  -2  -6   41.60    6.30
  -7  -2  -6   48.70    8.90
  -2   9  -6   34.30    5.90
  -9   3  -6   84.99   10.00
   6   3   6  113.59   16.70
  -9   6   6  127.69   21.40
   6  -9  -6   98.89    8.90
   3   6  -6  100.99    8.80
   3  -9   6   75.99   23.10
   6  -9  -6  163.08   25.00
  -6  -3  -6   98.79   13.60
   9  -3   6  101.49   16.20
  -3   9  -6   87.39    8.40
   9  -6  -6  104.19    9.20
   9  -6  -6   58.89   17.20
  -3  -6   6  104.19   24.90
  -6  -3  -6   99.29    9.10
   5  -9  -6   17.70   15.50
   5   4   6    7.30   13.80
   5  -9  -6   -2.60    4.70
   4  -9   6  -34.30   17.60
  -9   4  -6    0.80    5.40
  -9   5   6   13.80   17.70
   4   5  -6    1.80    4.40
  -4  -5   6   -6.80   21.50
   9  -5  -6    1.70    4.70
  -5  -4  -6    2.20    5.20
   9  -4   6  -20.80   12.40
   9  -5  -6  -16.30   10.60
  -4   9  -6   -2.30    4.60
  -5  -4  -6   -7.40    8.60
  -9   5  -6  197.98   12.00
   4   5   6  240.08   21.30
   4  -9  -6  199.98   12.10
   5  -9   6  204.48   28.20
   4  -9  -6  265.67   27.80
  -9   4   6  183.58   27.00
   5   4  -6  186.68   17.20
   5   4  -6  184.38   11.50
   9  -4  -6  207.18   21.60
  -4  -5  -6  209.48   19.60
  -5  -4   6  226.98   31.70
   9  -4  -6  216.28   12.00
  -4  -5  -6  206.08   12.10
  -5   9  -6  185.38   11.60
   9  -5   6  170.78   21.40
   3  -9  -6   17.70    5.50
  -9   6  -6   16.20    5.40
   3   6   6   25.60   14.30
  -9   3   6   25.20   18.10
   6   3  -6   14.30    9.90
   3  -9  -6   36.60   16.50
   6  -9   6   21.30   17.70
   6   3  -6    8.60    4.70
   9  -3  -6   27.70   13.30
   9  -3  -6   21.00    5.30
   9  -6   6   18.50   13.40
  -6   9  -6   17.00    5.30
  -3  -6  -6   16.90    5.50
  -3  -6  -6   21.60   12.90
  -6  -3   6   16.10   21.70
   2  -9  -6  451.65   31.50
   2  -9  -6  420.46   19.50
  -9   7  -6  407.86   19.30
   7   2  -6  435.36   19.40
   7  -9   6  361.66   31.90
   7   2  -6  425.96   25.20
  -9   2   6  320.77   48.50
  -7   9  -6  396.16   19.10
  -2  -7  -6  421.56   19.50
  -2  -7  -6  434.86   28.40
  -7  -2   6  413.46   36.40
   9  -2  -6  424.16   26.50
   9  -7   6  362.86   27.90
   9  -2  -6  420.66   19.10
  -9   8  -6   36.40    6.00
   1  -9  -6   34.80    6.30
   8   1  -6   46.50    6.20
  -9   1   6   70.79   20.30
   8   1  -6   49.70   12.00
   8  -9   6   27.50   17.00
   1  -9  -6   69.69   18.80
  -1  -8  -6   47.10    6.60
  -1  -8  -6   70.29   16.30
  -8  -1   6   45.70   21.80
   9  -1  -6   47.10    6.10
  -8   9  -6   40.10    6.20
   9  -8   6   41.60   15.90
   9  -1  -6   56.99   12.60
   9   0  -6  272.77   20.90
   0  -9  -6  246.58   26.40
  -9   9  -6  236.38   13.30
   0  -9  -6  250.47   14.10
   9   0  -6  239.38   13.30
  -9   0   6  231.78   29.60
   9  -9   6  186.68   24.20
   0  10  -6  134.59    9.70
  10 -10  -6  142.99   10.80
   0 -10   6  106.49   26.20
 -10   0  -6  152.08   11.10
 -10   9   6   52.29   18.10
   1   9  -6   38.50    6.20
   9 -10  -6   72.29   18.80
   1 -10   6   37.40   21.50
   9 -10  -6   32.80    6.20
 -10   1  -6   41.60    6.80
  10  -9  -6   25.30    5.50
  -1  10  -6   30.10    5.70
  -1  -9   6   26.50   23.30
  -9  -1  -6   38.10    6.50
  -9  -1  -6   40.50    8.70
   8 -10  -6   14.60    5.40
   8   2   6   18.20   13.50
   8 -10  -6   70.09   18.00
   2 -10   6    2.50   21.10
 -10   8   6   28.30   15.90
 -10   2  -6   24.20    6.10
  -8  -2  -6   13.40    8.30
  -2  -8   6   11.90   22.30
  -2  10  -6   16.20    5.20
  10  -8  -6  -14.20   12.80
  10  -8  -6   18.40    5.30
  -8  -2  -6   12.60    5.40
   7   3   6  225.88   21.80
 -10   7   6  271.07   25.70
   3   7  -6  246.98   13.10
   3 -10   6  212.88   32.80
   7 -10  -6  240.08   13.60
   7 -10  -6  265.47   26.60
 -10   3  -6  252.47   13.90
  -7  -3  -6  224.78   13.40
  10  -3   6  211.98   22.20
  10  -7  -6  249.18   13.40
  -7  -3  -6  242.68   17.80
  -3  -7   6  204.48   33.10
  -3  10  -6  238.78   13.00
   6 -10  -6   14.50    5.20
   4 -10   6    6.40   19.90
   6 -10  -6   31.60   16.70
 -10   6   6   -3.50   15.40
 -10   4  -6   13.60    5.20
   6   4   6   30.00   13.60
   4   6  -6   14.30    5.30
  -6  -4  -6   12.10    9.50
  10  -6  -6   11.20    5.20
  -4  -6   6  -10.70   21.40
  -6  -4  -6   15.20    5.50
  10  -4   6   15.70   13.30
  -4  10  -6   13.20    5.10
  10  -6  -6   13.40   12.70
   5 -10   6  406.86   35.80
   5   5  -6  454.25   20.50
   5   5   6  469.25   29.70
   5   5  -6  408.56   25.40
   5 -10  -6  456.05   20.60
 -10   5   6  439.16   32.80
 -10   5  -6  453.65   20.70
   5 -10  -6  503.75   36.00
  10  -5  -6  461.25   30.20
  -5  10  -6  438.76   20.60
  -5  -5   6  460.25   40.50
  -5  -5  -6  459.95   26.70
  -5  -5  -6  431.56   20.60
  10  -5  -6  482.55   20.80
  10  -5   6  425.06   29.70
   6   4  -6   35.20    5.90
 -10   6  -6   27.30    6.10
   6 -10   6   31.50   18.10
   4 -10  -6   34.80   17.30
   4   6   6   45.90   14.40
   6   4  -6   11.80   11.00
   4 -10  -6   29.40    6.00
 -10   4   6   32.30   19.50
  10  -4  -6   32.40    5.70
  -6  10  -6   24.90    5.70
  -4  -6  -6   36.50   12.80
  10  -4  -6   41.10   13.50
  -6  -4   6   23.60   22.50
  10  -6   6   28.10   14.30
  -4  -6  -6   19.00    5.70
   3 -10  -6  301.27   28.30
   7 -10   6  201.08   27.80
   7   3  -6  207.08   19.10
 -10   7  -6  234.08   13.50
 -10   3   6  237.68   27.20
   3 -10  -6  220.88   13.10
   7   3  -6  241.18   12.90
  10  -7   6  219.08   22.50
  -3  -7  -6  245.78   13.80
  -7  10  -6  229.18   12.80
  10  -3  -6  226.28   13.00
  -3  -7  -6  218.98   22.90
  -7  -3   6  234.58   31.40
  10  -3  -6  236.88   23.10
   8   2  -6    4.60   10.10
 -10   8  -6    4.80    5.20
   2 -10  -6    2.40    5.00
   8   2  -6    1.10    4.70
   2 -10  -6   22.80   17.00
 -10   2   6  -10.20   16.60
   8 -10   6    3.60   17.00
  10  -2  -6    7.20    4.80
  10  -2  -6   20.30   11.70
  -2  -8  -6    7.90   14.40
  -2  -8  -6    5.30    5.00
  10  -8   6    0.80   12.50
  -8  10  -6    6.00    5.00
  -8  -2   6    3.90   20.40
   1 -10  -6   39.30   16.90
 -10   9  -6   35.30    5.90
   1 -10  -6   34.80    6.30
   9   1  -6   31.50    5.70
   9   1  -6   23.00   11.00
 -10   1   6   24.20   18.20
   9 -10   6   22.40   16.60
  10  -1  -6   44.40   13.00
  -1  -9  -6   27.40    6.20
  10  -1  -6   42.00    6.40
  10  -9   6   29.30   15.20
  -9  10  -6   23.30    5.80
  -9  -1   6   48.50   19.60
  -1  -9  -6   41.20   15.40
  10   0  -6   26.20   12.20
 -10   0   6   24.20   17.90
  10 -10   6   22.10   15.10
   0 -10  -6   40.00   17.30
   0 -10  -6   18.00    5.50
 -10  10  -6   13.30    5.50
  10   0  -6   26.50    5.70
 -11   0  -6   38.40    6.20
   0 -11   6   29.20   22.50
 -11   0  -6   44.00    7.00
  11 -11  -6   42.40    6.40
   0  11  -6   41.80    6.30
   1  10  -6    2.90    4.70
  10 -11  -6   -5.40   15.30
  10 -11  -6    0.60    4.90
 -11   1  -6    1.50    5.50
   1 -11   6    0.70   20.50
 -11   1  -6   -3.30    4.60
  -1 -10   6  -10.00   21.30
  11 -10  -6   -2.70    4.80
  -1  11  -6   -1.20    4.60
 -10  -1  -6   -9.50    5.10
 -10  -1  -6  -13.80    6.70
   2   9  -6    1.70    5.00
   9 -11  -6   -1.00    4.80
   9 -11  -6   31.60   18.00
 -11   9   6    6.70   13.20
 -11   2  -6    4.90    5.70
   2 -11   6   18.30   22.40
  11  -9  -6   -6.70    4.60
  -2  -9   6    6.90   22.40
  -2  11  -6   -3.30    4.70
  -9  -2  -6    0.00    5.20
  -9  -2  -6   -4.20    7.00
   8   3   6    8.20   12.30
   3 -11   6   12.70   22.10
 -11   8   6   20.80   14.40
 -11   3  -6    7.40    5.50
   8 -11  -6   41.30   29.80
   8 -11  -6   12.90    5.20
  -3  -8   6   -3.40   20.20
  -8  -3  -6   15.50    5.50
  -8  -3  -6   10.40    8.20
  11  -8  -6  -22.70   12.80
  -3  11  -6   14.40    5.20
  11  -8  -6   10.70    4.80
   4   7  -6   48.70    6.30
 -11   7   6   52.59   17.20
 -11   4  -6   46.10    6.70
   7 -11  -6   47.70    6.60
   7 -11  -6   81.39   18.40
   7   4   6   56.79   14.60
   4 -11   6   40.90   22.50
  11  -7  -6   60.69   16.50
  11  -7  -6   49.10    6.50
  -7  -4  -6   47.00   10.70
  -4  11  -6   39.70    6.10
  -4  -7   6   56.49   22.30
  -7  -4  -6   54.89    7.80
   6 -11  -6   44.80    6.50
 -11   6   6   60.79   17.60
 -11   5  -6   39.80    6.30
   6   5   6   73.89   14.80
   5   6  -6   44.70    6.30
   5 -11   6   24.80   21.60
   6 -11  -6   68.89   19.10
  -6  -5  -6   52.79    7.00
  11  -6  -6   37.30   14.20
  -6  -5  -6   56.59   12.30
  11  -5   6   31.10   14.30
  -5  -6   6   23.80   22.10
  11  -6  -6   57.99    7.90
  -5  11  -6   53.59    6.80
   6 -11   6   35.20   19.70
 -11   5   6   52.09   20.90
   5 -11  -6   38.40    6.30
   5   6   6   44.30   14.40
   6   5  -6   15.70   10.70
   5 -11  -6   67.99   19.10
   6   5  -6   23.30    5.60
 -11   6  -6   25.40    6.20
  -6  -5   6    5.70   21.60
  11  -5  -6   27.70    5.40
  -5  -6  -6   24.90   11.00
  11  -5  -6   40.10   14.10
  11  -6   6   20.10   13.60
  -5  -6  -6   20.90    5.80
  -6  11  -6   27.80    5.70
   4 -11  -6  140.09   24.40
 -11   7  -6  131.49    9.60
   4 -11  -6  117.69    9.70
   7   4  -6   90.69   16.10
 -11   4   6  126.59   21.40
   7 -11   6  116.59   21.20
   7   4  -6  122.79    9.60
  11  -7   6  104.79   16.80
  -4  -7  -6  111.69   18.70
  11  -4  -6  121.29    9.60
  -7  -4   6   99.89   23.70
  -4  -7  -6  114.29    9.60
  -7  11  -6  110.79    9.10
  11  -4  -6  136.99   21.20
   3 -11  -6   57.79   19.50
   8   3  -6   25.50    5.70
 -11   8  -6   21.00    5.70
   8 -11   6   11.00   17.50
   8   3  -6   15.30   11.10
   3 -11  -6   19.10    5.70
 -11   3   6   18.40   18.20
  11  -8   6   17.40   14.00
  -3  -8  -6   20.20    5.60
  -8  -3   6   22.10   19.50
  -3  -8  -6   31.00   14.00
  11  -3  -6   25.80   12.90
  -8  11  -6   18.60    5.80
  11  -3  -6   24.50    5.20
   2 -11  -6  199.88   27.60
   9 -11   6  118.69   20.80
   9   2  -6  164.68   10.70
 -11   2   6  156.28   23.30
 -11   9  -6  132.69   10.20
   2 -11  -6  155.58   10.80
   9   2  -6  160.78   17.90
  -9  11  -6  133.39   10.80
  11  -2  -6  177.88   19.70
  -2  -9  -6  178.68   22.90
  -9  -2   6  128.99   23.60
  11  -9   6  112.79   18.00
  11  -2  -6  170.88   10.80
  -2  -9  -6  148.19   10.90
  10   1  -6    3.70    4.70
   1 -11  -6   -2.40    5.00
   1 -11  -6   13.80   26.70
  10 -11   6   -3.60   14.20
  10   1  -6   -3.60   10.40
 -11   1   6  -20.10   16.90
 -11  10  -6    3.20    5.50
 -10  -1   6   20.80   18.10
  -1 -10  -6    1.60    5.30
 -10  11  -6   -1.40    4.70
  11  -1  -6    7.10   12.00
  11  -1  -6   -2.80    4.60
  -1 -10  -6    7.00   14.60
  11 -10   6    0.30   13.70
   0 -11  -6   22.90    5.80
  11   0  -6   42.60   13.40
  11 -11   6   15.10   14.70
   0 -11  -6   26.90   16.10
  11   0  -6   29.50    5.90
 -11   0   6   39.60   17.50
 -11  11  -6   19.10    5.70
 -12  12   6  303.77   14.80
 -12   0  -6  322.57   16.00
 -12   0  -6  294.57   14.80
   0 -12   6  285.27   35.00
  12 -12  -6  232.08   26.20
   0  12  -6  296.87   14.90
 -12   1  -6   89.49    9.40
 -12   1  -6   81.79    7.70
   1 -12   6   86.59   26.20
   1  11  -6   79.29    7.90
  11 -12  -6   35.20   17.70
  -1 -11   6   49.30   23.40
 -11  -1  -6   74.49    9.40
  12 -11  -6   54.49   17.60
  -1  12  -6   88.79    8.20
 -11  -1  -6   74.49    7.60
 -12   2  -6  158.98   11.10
  10 -12  -6  155.18   24.90
   2  10  -6  153.18   10.60
   2 -12   6  116.99   26.20
 -12   2  -6  150.58    9.90
 -10  -2  -6  152.58   11.30
  -2 -10   6  130.79   26.00
 -10  -2  -6  133.29   13.70
  12 -10  -6  115.49   21.40
  -2  12  -6  143.19   10.60
  12 -10  -6  128.69   10.50
 -10  -2  -6  149.88    9.70
 -12   3  -6  267.47   14.30
 -12   3  -6  283.47   15.30
   9 -12  -6  342.67   31.10
   3 -12   6  291.87   34.10
   3   9  -6  277.27   14.70
   9 -12  -6  272.27   14.60
 -12   9   6  331.27   24.80
  -3  -9   6  275.97   33.60
  12  -9  -6  289.67   26.30
  -9  -3  -6  268.57   18.70
  12  -9  -6  275.87   14.80
  -3  12  -6  263.07   14.60
  -9  -3  -6  294.87   15.40
   8 -12  -6  249.48   27.00
   8 -12  -6  169.58   11.30
 -12   4  -6  168.88   11.50
 -12   8   6  204.58   21.30
   8   4   6  195.88   19.40
   4 -12   6  149.19   27.50
  12  -8  -6  171.08   22.50
  -8  -4  -6  178.98   16.40
  -8  -4  -6  186.28   11.50
  -4  12  -6  167.38   11.50
  12  -8  -6  176.88   11.40
  -4  -8   6  159.28   27.80
   5 -12   6  565.74   40.50
   5   7  -6  572.24   24.00
   7 -12  -6  532.55   37.10
   7 -12  -6  537.15   23.90
   7   5   6  568.34   31.80
  -5  12  -6  512.55   23.50
  12  -7  -6  560.04   23.90
  -5  -7   6  490.85   40.50
  -7  -5  -6  561.54   29.60
  -7  -5  -6  498.85   23.90
 -12   6   6  109.69   19.30
   6 -12  -6  158.88   27.90
   6 -12  -6   66.89    8.30
   6 -12   6   70.89   22.20
   6   6  -6   78.69    8.70
   6   6  -6   73.39   12.40
   6   6   6   98.99   15.90
 -12   6  -6   84.99    9.50
  12  -6  -6   73.99    8.40
  -6  -6  -6   74.29    9.30
  -6  12  -6   79.09    8.30
  -6  -6   6   93.39   24.00
  -6  -6  -6   79.49   14.20
  12  -6  -6   97.19   18.10
   7   5  -6  336.77   21.90
 -12   7  -6  332.37   16.70
   5 -12  -6  390.76   34.30
   5 -12  -6  327.27   16.80
 -12   5   6  332.47   28.80
   7   5  -6  352.26   16.80
   7 -12   6  294.17   31.30
  -5  -7  -6  329.67   16.60
  12  -7   6  299.97   25.20
  -7  12  -6  327.67   16.20
  12  -5  -6  361.76   27.60
  12  -5  -6  319.17   16.30
  -5  -7  -6  319.47   24.80
  -7  -5   6  306.47   33.10
   8   4  -6   80.89    8.50
   4 -12  -6  112.39   21.80
   8   4  -6   59.49   12.10
 -12   8  -6   67.59    8.40
   4 -12  -6   76.39    8.40
   8 -12   6   83.79   21.30
 -12   4   6   81.69   18.00
  12  -4  -6   68.59   15.40
  12  -8   6   90.59   16.20
  12  -4  -6   70.29    8.50
  -4  -8  -6   99.69   19.20
  -8  -4   6   70.99   21.60
  -4  -8  -6   73.69    8.40
  -8  12  -6   79.29    8.80
 -12   9  -6  209.48   12.60
   9   3  -6  196.08   19.40
   3 -12  -6  261.47   30.40
   3 -12  -6  217.28   12.70
   9   3  -6  219.18   12.70
 -12   3   6  242.98   25.40
   9 -12   6  204.28   26.20
  -3  -9  -6  222.28   24.90
  12  -3  -6  251.07   21.20
  12  -9   6  168.98   21.10
  12  -3  -6  225.08   12.80
  -9  -3   6  196.28   27.70
  -9  12  -6  201.28   12.70
  -3  -9  -6  215.78   12.80
 -12   2   6    1.20   14.40
  10   2  -6    1.70    4.80
 -12  10  -6   10.40    5.30
  10 -12   6   13.50   16.90
  10   2  -6    2.20   10.30
   2 -12  -6   22.00   18.80
   2 -12  -6    9.70    5.50
 -10  -2   6    4.60   16.90
  12  -2  -6   16.40   11.90
  12  -2  -6   10.10    4.90
  12 -10   6   -3.00   12.80
  -2 -10  -6    2.40    5.00
 -10  12  -6    1.70    5.40
   1 -12  -6   13.70    5.50
  11 -12   6   11.10   15.50
 -12   1   6   22.10   15.80
   1 -12  -6   31.80   18.10
 -12  11  -6   18.40    6.00
  11   1  -6   20.50   12.60
  12 -11   6   18.20   13.70
  -1 -11  -6   11.80    5.50
 -11  -1   6    3.30   16.40
 -11  12  -6   21.10    5.60
  -1 -11  -6   25.70   15.80
  12  -1  -6   22.20   12.30
  12 -12   6    6.30   13.60
   0 -12  -6    0.70    5.40
   0 -12  -6    2.90   16.50
 -12  12  -6   -1.40    5.00
 -12   0   6   -0.60   15.40
 -13   0  -6   74.59    7.60
  13 -13  -6   51.19   18.20
 -13   0  -6   61.99    7.90
   0  13  -6   64.29    8.00
   0 -13   6   26.20   24.30
 -13  13   6   92.39    8.30
   1 -13   6  -11.90   21.20
  12 -13  -6  -31.50   15.00
 -13  12   6   10.40    4.60
   1  12  -6    0.10    4.90
 -13   1  -6   -2.60    4.60
 -13   1  -6    1.10    5.30
 -12  -1  -6    0.70    4.70
 -12  -1  -6   -5.90    5.00
  13 -12  -6  -14.70   15.20
  -1  13  -6   10.60    5.40
  -1 -12   6  -22.50   20.60
 -12  13   6   -0.10    4.00
 -13  11   6   23.10    5.00
 -13   2  -6    2.20    5.30
   2 -13   6  -13.70   21.10
  11 -13  -6  -35.50   16.00
 -13   2  -6   11.80    5.40
   2  11  -6    9.90    5.10
 -11  -2  -6    4.00    8.20
  13 -11  -6    8.20   15.30
 -11  -2  -6   -0.20    5.10
 -11  13   6   12.90    4.60
  -2  13  -6    6.40    4.80
 -11  -2  -6    5.00    5.20
  -2 -11   6  -11.40   20.40
 -13  10   6   14.60   14.30
   3 -13   6   -1.40   21.00
 -13   3  -6    1.40    4.70
 -13   3  -6    4.80    5.30
  10 -13  -6   10.80   16.70
   3  10  -6    5.70    5.40
  13 -10  -6    0.00   15.20
 -10  -3  -6   -1.30    7.80
 -10  -3  -6    0.20    4.60
 -10  -3  -6    9.40    5.50
  -3 -10   6  -24.40   20.80
 -10  13   6    3.80    4.40
  -3  13  -6   -5.80    4.50
 -13   4  -6    6.10    4.80
   4 -13   6    6.30   21.40
 -13   4  -6    3.00    5.10
 -13   9   6   15.50   13.70
   4   9  -6    6.00    5.30
   9 -13  -6   18.80   16.60
  -4  -9   6  -18.50   20.20
  -9  -4  -6    3.50    5.40
  13  -9  -6    2.80   14.40
  -9  -4  -6    1.90    8.60
  13  -9  -6    0.60    4.70
  -4  13  -6    0.80    4.70
 -13   5  -6   24.20    6.30
   8   5   6   -2.90   12.20
   8 -13  -6   39.00   18.00
   5 -13   6   11.90   21.60
 -13   8   6   41.70   14.20
  -5  -8   6   26.60   21.20
  -5  13  -6   29.10    5.50
  -8  -5  -6   25.40    5.90
  -8  -5  -6   11.00    9.90
  13  -8  -6   20.30   15.70
  13  -8  -6   21.00    5.40
 -13   7   6   13.70   14.00
   7 -13  -6   30.20   18.20
   6 -13   6    3.00   19.60
   6   7  -6    9.50    5.40
 -13   6  -6    7.70    5.60
   7   6   6  -15.20   10.80
  13  -7  -6   18.70   15.80
  13  -7  -6    8.60    5.10
  -7  -6  -6   12.10    5.40
  -6  13  -6   12.40    5.30
  -6  -7   6  -18.90   19.30
  -7  -6  -6   17.40   10.80
 -13   6   6   66.59   16.50
   7   6  -6   44.30    6.50
   7 -13   6   12.80   19.90
   7   6  -6   42.40   11.30
 -13   7  -6   41.70    6.50
   6 -13  -6   53.19   19.70
  -7  13  -6   38.30    6.00
  -6  -7  -6   60.99   13.70
  13  -6  -6   28.60   15.40
  13  -6  -6   27.20    5.60
  -6  -7  -6   44.50    6.30
  -7  -6   6   37.10   20.90
   5 -13  -6   -2.40    4.80
 -13   8  -6   14.80    5.60
   8   5  -6   -5.60   10.00
   8   5  -6   10.00    5.30
   8 -13   6   12.30   18.80
   5 -13  -6   12.40   17.20
 -13   5   6    8.50   13.50
  13  -8   6    9.70   13.10
  -8  -5   6  -28.00   17.50
  -5  -8  -6   10.10    5.80
  -5  -8  -6    2.30   12.80
  13  -5  -6   13.90   14.40
  13  -5  -6    7.60    5.00
  -8  13  -6   12.80    5.10
   9 -13   6   50.69   19.60
 -13   9  -6   42.80    6.60
 -13   4   6   20.70   14.50
   4 -13  -6   67.09   20.90
   9   4  -6   51.69    6.90
   4 -13  -6   43.70    6.50
   9   4  -6   28.30   11.90
  -4  -9  -6   39.80    6.40
  13  -9   6   54.39   14.30
  13  -4  -6   49.99   14.70
  -9  13  -6   42.50    6.50
  -9  -4   6   29.10   18.30
  13  -4  -6   63.39    8.60
 -13   3   6   -2.70   13.90
  10   3  -6  -10.40    9.90
 -13  10  -6    5.30    5.10
   3 -13  -6   17.50   17.10
  10   3  -6    9.00    5.10
  10 -13   6  -13.60   16.60
  13 -10   6   -7.00   12.90
 -10  13  -6    4.60    5.20
  13  -3  -6   19.60   13.30
  -3 -10  -6   -4.50    4.70
  -3 -10  -6    9.20   13.50
 -10  -3   6    0.80   17.80
 -13  11  -6   10.60    5.40
   2 -13  -6   26.80   17.50
  11   2  -6   -4.20   11.40
 -13   2   6   12.40   14.30
  11 -13   6   -2.60   16.20
  -2 -11  -6   20.10    5.60
  13 -11   6   23.70   14.40
  -2 -11  -6    0.40   13.90
  13  -2  -6   19.30   13.30
 -11  -2   6   10.20   15.80
 -11  13  -6   10.80    5.30
  12   1  -6   -6.80   12.00
 -13  12  -6   -0.50    5.00
   1 -13  -6   -9.90   14.80
  12 -13   6    7.60   15.50
 -13   1   6   -8.60   13.40
  13 -12   6   13.00   14.60
  13  -1  -6   12.50   12.90
 -12  13  -6    1.80    5.20
  -1 -12  -6    6.40    5.30
 -12  -1   6   -4.40   14.70
  -1 -12  -6    0.30   14.10
  13 -13   6    3.90   14.50
  13   0  -6   -7.60   11.30
   0 -13  -6   -1.10   15.60
 -13   0   6   -8.10   14.40
 -13  13  -6  -10.00    5.20
   0 -14   6  217.58   30.50
  14 -14  -6  178.38   26.20
 -14   0  -6  233.98   14.10
 -14  14   6  237.68   12.80
   0  14  -6  202.18   12.40
   1  13  -6   59.59    8.70
  13 -14  -6   27.30   19.70
 -14  13   6   87.69    8.30
   1 -14   6   46.60   24.00
 -14   1  -6   81.39   10.10
 -14   1  -6   73.29    8.30
 -13  -1  -6   72.29    9.60
  -1  14  -6   69.29    8.80
 -13  14   6   89.09    8.30
 -13  -1  -6   64.39    7.70
  -1 -13   6   34.50   23.60
  14 -13  -6   54.99   18.50
   2  12  -6  315.77   16.10
  12 -14  -6  251.07   29.90
   2 -14   6  291.57   36.30
 -14  12   6  321.87   15.60
 -14   2  -6  354.36   17.40
  -2  14  -6  311.47   15.60
 -12  14   6  319.77   15.30
 -12  -2  -6  305.97   15.60
  -2 -12   6  348.17   35.40
  14 -12  -6  314.07   28.50
 -14   3  -6  184.58   11.20
   3 -14   6  115.89   27.20
  11 -14  -6  131.69   25.20
   3  11  -6  177.58   11.30
 -14  11   6  207.68   11.10
 -14   3  -6  203.08   12.80
  -3 -11   6  160.98   28.40
 -11  -3  -6  182.28   11.50
 -11  14   6  188.38   11.10
  -3  14  -6  174.28   11.00
  14 -11  -6  182.48   26.70
 -11  -3  -6  188.08   12.40
 -11  -3  -6  178.98   16.30
   4 -14   6  167.78   28.20
   4  10  -6  170.08   11.40
 -14  10   6  166.38   20.40
  10 -14  -6  180.78   26.50
 -14  10   6  191.88   10.80
 -14   4  -6  161.88   12.20
 -14   4  -6  162.48   10.60
 -10  -4  -6  166.28   11.80
 -10  14   6  160.28   10.70
  14 -10  -6  177.98   25.90
  -4 -10   6  199.88   29.70
 -10  -4  -6  193.58   16.60
 -10  -4  -6  151.98   10.50
  -4  14  -6  176.98   10.80
   9 -14  -6  298.87   29.60
 -14   5  -6  283.17   14.60
 -14   9   6  289.87   24.60
   5   9  -6  276.27   14.90
   5 -14   6  288.77   34.90
 -14   5  -6  304.97   15.80
  -9  -5  -6  293.17   20.50
  -5  -9   6  208.58   31.80
  -9  14   6  268.47   14.30
  -5  14  -6  265.37   14.20
  -9  -5  -6  284.27   15.40
  14  -9  -6  295.17   28.00
 -14   6  -6  121.09    9.40
 -14   8   6  153.68   21.20
   8 -14  -6  167.18   28.70
 -14   6  -6  143.69   10.40
   8   6   6  123.39   18.40
   6 -14   6  112.49   25.40
  -6  -8   6  129.59   24.80
  -8  -6  -6  123.59   15.80
  -6  14  -6  119.89    9.30
  14  -8  -6  143.39   23.70
  -8  -6  -6  127.89   10.50
  -8  14   6  123.69    8.90
   7 -14   6  295.17   36.60
   7 -14  -6  359.76   32.20
 -14   7  -6  327.07   16.90
   7   7  -6  343.97   16.70
 -14   7   6  315.97   26.70
   7   7  -6  326.07   20.90
  -7  -7  -6  308.77   16.40
  -7  -7   6  320.37   32.40
  -7  14  -6  310.57   16.00
  14  -7  -6  341.97   28.70
  14  -7  -6  328.97   16.40
  -7  14   6  305.77   15.50
  -7  -7  -6  320.27   23.50
   8 -14   6   44.60   20.20
   6 -14  -6  133.69   25.40
 -14   8  -6   59.59    8.90
   8   6  -6   65.49   12.10
   8   6  -6   95.49    9.20
 -14   6   6   50.29   16.20
  -8  -6   6   66.79   20.00
  -6  14   6   60.49    7.40
  -6  -8  -6   86.29   16.00
  14  -6  -6   88.99   18.40
  -6  -8  -6   57.19    8.40
  -8  14  -6   67.09    7.80
 -14   9  -6  296.87   15.90
   9   5  -6  326.27   15.90
 -14   5   6  328.97   25.10
   9   5  -6  262.97   21.00
   9 -14   6  252.37   30.00
   5 -14  -6  338.07   30.90
  -9  -5   6  286.07   29.90
  -5  -9  -6  290.17   25.80
  14  -9   6  301.97   24.40
  -9  14  -6  275.07   14.90
  -5  -9  -6  297.17   15.50
  14  -5  -6  288.17   26.40
  10 -14   6   35.60   18.70
 -14   4   6   25.00   14.20
  10   4  -6   18.70   12.10
   4 -14  -6   46.90   20.70
 -14  10  -6   23.40    6.10
  -4 -10  -6   25.40    6.40
 -10  14  -6   22.30    5.70
 -10  -4   6    5.70   17.60
  14 -10   6   16.00   13.50
  -4 -10  -6   34.00   14.30
  14  -4  -6   37.20   14.50
  11 -14   6   78.99   20.60
 -14   3   6   77.29   16.80
 -14  11  -6   74.69    8.70
   3 -14  -6  106.39   21.80
  -3 -11  -6  119.79   20.00
  14  -3  -6   98.69   17.70
  14 -11   6   56.79   16.10
 -11  14  -6   84.29    8.60
  -3 -11  -6   77.89    8.70
 -11  -3   6   64.89   18.50
 -14  12  -6   -0.90    5.70
  12 -14   6    3.20   16.00
   2 -14  -6   25.90   18.30
 -14   2   6   -3.20   13.30
  12   2  -6  -11.80   10.90
  -2 -12  -6    4.00    5.30
 -12  14  -6   -0.90    5.00
  -2  14   6    3.00    4.70
 -12  -2   6    2.30   14.40
  14  -2  -6    2.80   12.40
  14 -12   6   -0.90   13.60
  -2 -12  -6   -6.40   14.40
 -14  13  -6    0.50    5.30
 -14   1   6   14.10   13.80
  13 -14   6   -5.10   15.40
   1 -14  -6   11.70   17.70
  13   1  -6   -2.00   13.00
  14 -13   6    8.60   14.60
  -1  14   6    6.00    4.80
  -1 -13  -6    8.10   17.10
  14  -1  -6    5.50   12.60
 -13  14  -6    8.00    5.80
 -13  -1   6   10.20   14.30
  14 -14   6   23.40   15.40
   0  14   6   14.90    5.20
 -14  14  -6   11.10    5.80
 -14   0   6   19.90   14.70
  14   0  -6   11.20   13.20
   0 -14  -6   26.20   18.10
   0  15  -6    2.50    5.60
   0 -15   6    9.80   23.00
 -15   0  -6   13.60    6.70
 -15  15   6   18.80    5.30
 -15   0  -6    6.10    5.20
  15 -15  -6   -1.70   17.20
 -15   1  -6    9.50    5.60
   1  14  -6   16.00    5.70
  14 -15  -6  -18.60   17.60
 -15  14   6   17.60    5.30
  14   1   6   15.00   12.80
   1 -15   6  -26.50   22.30
 -15   1  -6   14.70    6.90
 -14  -1  -6   11.10    6.10
 -14  15   6   18.60    5.50
  -1  15  -6   17.30    5.70
  15 -14  -6   19.60   18.10
 -14  -1  -6   10.50    5.40
  -1 -14   6   10.20   22.60
 -15  13   6   16.00    5.10
 -15   2  -6    4.30    5.10
   2  13  -6    4.40    5.80
   2 -15   6  -35.40   21.00
 -15   2  -6    4.40    6.10
  -2 -13   6  -13.10   22.00
 -13  15   6   15.70    5.00
 -13  -2  -6   12.80    6.40
  15 -13  -6    2.80   16.80
 -13  -2  -6    3.00    4.90
  -2  15  -6    6.40    5.10
   3 -15   6  -28.10   22.30
 -15   3  -6    1.80    4.90
   3  12  -6    3.90    5.40
  12 -15  -6  -39.00   15.90
 -15   3  -6    6.20    6.00
 -15  12   6   10.60    5.20
 -12  -3  -6    2.40    5.70
  -3 -12   6  -15.10   21.00
 -12  -3  -6  -16.20    8.00
  15 -12  -6   -2.40   16.30
 -12  15   6    5.40    4.70
  -3  15  -6    1.40    5.00
 -12  -3  -6   -0.80    4.80
 -15   4  -6    4.70    5.70
   4  11  -6    8.00    5.70
   4 -15   6  -26.50   21.00
 -15  11   6   16.60    4.80
  11 -15  -6    9.20   17.10
 -15   4  -6    1.50    5.20
 -15  11   6   10.20   19.30
 -11  15   6    1.80    4.40
 -11  -4  -6   -3.40    5.20
 -11  -4  -6   -7.30    9.30
  15 -11  -6    0.30   16.00
 -11  -4  -6    4.80    5.30
  -4  15  -6    0.40    4.80
  -4 -11   6  -12.00   19.90
 -15   5  -6   18.50    6.20
 -15  10   6   24.70    5.00
   5  10  -6   20.90    6.10
 -15   5  -6   28.20    6.10
  10 -15  -6   36.40   18.90
   5 -15   6  -12.20   21.40
 -15  10   6   32.70   13.40
 -10  15   6   20.60    5.10
 -10  -5  -6    6.70   12.00
 -10  -5  -6   25.30    6.20
  -5  15  -6   15.80    5.30
  15 -10  -6    8.10   17.00
  -5 -10   6    8.80   21.50
 -15   6  -6    6.40    5.00
 -15   9   6   18.20   12.60
   6 -15   6  -37.60   21.70
   6   9  -6    3.80    5.70
   9 -15  -6   22.10   18.30
 -15   6  -6   -3.50    5.80
  -6  -9   6  -22.20   18.60
  15  -9  -6   11.60   16.20
  -6  15  -6    1.40    4.70
  -9  -6  -6    1.00    5.70
  -9  -6  -6    7.20   10.70
  -9  15   6   -1.40    4.40
   8 -15  -6   45.60   19.70
   7   8  -6   -2.30    6.50
 -15   8   6   11.60   13.70
   7 -15   6  -21.80   20.50
 -15   7  -6    7.00    5.90
 -15   7  -6    0.60    5.00
  -8  -7  -6    4.00    5.70
  -8  15   6    5.30    4.50
  15  -8  -6   14.90   16.00
  -8  -7  -6    7.00   11.20
  -7  15  -6    5.30    4.80
  -7  -8   6   -2.70   18.30
   8   7  -6    8.50    9.70
 -15   8  -6   11.80    6.00
   7 -15  -6   42.40   19.20
 -15   7   6    6.50   12.90
   8 -15   6    7.50   21.20
   8   7  -6   14.80    6.00
  -7  15   6    4.70    4.50
  -8  -7   6   15.70   19.40
  15  -7  -6   26.40   15.30
  -8  15  -6    6.50    5.00
  -7  -8  -6    7.40   11.70
  -7  -8  -6    9.00    5.70
   6 -15  -6   78.89   20.70
 -15   6   6   33.70   14.00
   9 -15   6   47.80   21.30
   9   6  -6   40.10   11.50
 -15   9  -6   24.10    6.60
  -9  15  -6   45.90    6.40
  -6  -9  -6   38.50   14.40
  -6  15   6   27.80    5.70
  -9  -6   6   43.70   18.90
  -6  -9  -6   42.30    6.90
  15  -6  -6   46.80   16.50
  10   5  -6   16.10   11.00
   5 -15  -6   48.80   19.70
 -15   5   6   41.50   15.50
 -15  10  -6   27.50    6.30
  10 -15   6   19.50   19.00
 -10  -5   6    7.40   17.30
  -5  15   6   25.20    5.20
 -10  15  -6   32.30    5.90
  -5 -10  -6   27.50    6.20
  15  -5  -6   39.30   15.00
  -5 -10  -6   31.00   14.20
  15 -10   6   27.90   13.80
 -15  11  -6   -3.50    5.40
  11 -15   6  -15.90   17.70
   4 -15  -6    9.50   18.30
  11   4  -6   -0.10   11.40
 -15   4   6    0.10   13.00
  15 -11   6   17.20   13.80
 -11  15  -6    1.40    4.90
 -11  -4   6   -3.00   16.10
  15  -4  -6   22.00   14.60
  -4 -11  -6   -0.40   14.20
  -4  15   6   -2.90    4.30
  -4 -11  -6    0.00    5.30
 -15  12  -6    8.50    6.00
 -15   3   6   18.10   14.20
  12   3  -6    7.40   12.80
  12 -15   6   10.90   17.00
   3 -15  -6   36.50   19.60
  15 -12   6   22.40   14.60
  15  -3  -6   13.80   13.00
  -3  15   6   22.10    5.50
 -12  -3   6   14.70   15.90
  -3 -12  -6   21.30   14.90
 -12  15  -6    7.00    5.50
 -15   2   6   -3.60   12.70
  13 -15   6   -1.70   16.10
 -15  13  -6   -3.90    5.40
  13   2  -6  -15.60   10.90
   2 -15  -6   25.70   17.50
  15  -2  -6   -7.00   13.20
  -2  15   6   -5.70    4.40
  15 -13   6    5.70   14.00
 -13  -2   6    9.60   14.80
 -13  15  -6   -4.70    5.20
  -2 -13  -6    9.50   16.50
 -15  14  -6   -2.40    5.60
 -15   1   6   13.60   14.00
   1  14   6    5.90    5.20
   1 -15  -6   19.00   18.00
  14   1  -6  -15.70   12.00
  14 -15   6   11.90   16.30
  15  -1  -6   -0.10   12.90
  -1  15   6   -0.10    4.80
  15 -14   6   -0.80   14.40
 -14  -1   6    2.10   13.70
  -1 -14  -6  -10.70   15.40
 -14  15  -6   -0.70    5.40
  15 -15   6  -15.70   13.90
   0  15   6    2.00    5.00
 -15  15  -6    0.10    5.70
   0 -15  -6   19.00   17.00
 -15   0   6   11.30   14.50
  15   0  -6   -0.20   13.20
   0 -16   6  127.09   30.10
  16 -16  -6   90.09   23.60
 -16   0  -6  102.39   11.60
 -16   0  -6  113.19   10.00
   0  16  -6  100.39   10.00
 -16  16   6   97.29    9.90
 -16   1  -6   30.20    6.30
   1 -16   6   23.40   23.90
 -16  15   6   29.70    5.80
  15 -16  -6   13.90   20.30
   1  15  -6   24.30    6.50
 -16   1  -6   25.30    7.20
  16 -15  -6   28.50   19.00
 -15  -1  -6   23.40    6.20
  -1  16  -6   14.40    5.70
  -1 -15   6   53.49   26.50
 -15  -1  -6   16.20    6.80
 -15  16   6   31.40    5.90
 -16  14   6   41.10    6.50
   2  14  -6   31.40    6.50
  14 -16  -6  -10.50   18.20
 -16   2  -6   32.10    6.30
 -16   2  -6   24.20    7.20
   2 -16   6   14.30   24.60
 -14  16   6   42.50    6.30
  -2 -14   6   44.40   24.70
 -14  -2  -6   34.90    7.20
  -2  16  -6   40.10    6.80
 -14  -2  -6   34.50    6.40
  16 -14  -6   28.30   19.40
 -16   3  -6   28.10    6.10
   3  13  -6   20.00    6.10
 -16   3  -6   29.50    7.00
   3 -16   6   -1.10   22.60
 -16  13   6   32.10    5.60
  16 -13  -6   27.20   17.90
  -3  16  -6   17.10    5.70
  -3 -13   6   32.00   23.00
 -13  -3  -6   26.00    6.10
 -13  16   6   26.40    5.40
 -13  -3  -6   34.90    7.00
   4 -16   6   -0.40   23.00
  12 -16  -6   11.10   18.30
 -16   4  -6   49.40    7.00
   4  12  -6   48.60    7.10
 -16  12   6   74.99    8.40
 -16   4  -6   47.50    7.60
 -12  -4  -6   29.90    6.00
  -4  16  -6   35.90    6.40
 -12  -4  -6   34.70    7.00
  16 -12  -6   51.69   19.10
 -12  -4  -6   34.10   11.00
  -4 -12   6   37.20   22.30
 -12  16   6   45.80    6.40
   5 -16   6    1.60   24.10
   5  11  -6   64.79    9.60
 -16   5  -6   76.89   10.40
  11 -16  -6   91.59   22.10
 -16  11   6  105.19   16.70
 -16   5  -6   74.49    7.90
 -11  -5  -6   52.79    8.50
  16 -11  -6   86.69   20.60
 -11  16   6   68.79    7.70
 -11  -5  -6   67.99   12.70
 -11  -5  -6   67.99    9.40
  -5 -11   6   63.29   22.40
  -5  16  -6   69.79    8.10
 -16   6  -6   37.70    6.30
 -16   6  -6   35.40    6.80
  10 -16  -6   63.39   20.30
   6  10  -6   29.30    6.50
   6 -16   6  -14.10   22.20
 -16  10   6   32.70   12.60
  -6 -10   6   25.70   19.50
  16 -10  -6   39.10   16.80
 -10  -6  -6   17.40   11.00
  -6  16  -6   26.80    6.00
 -10  -6  -6   30.40    6.70
 -10  16   6   49.30    7.10
 -16   7  -6  145.19   12.10
   7   9  -6  152.58   11.50
 -16   7  -6  140.59   10.60
 -16   9   6  150.58   20.00
   7 -16   6  104.19   26.30
   9 -16  -6  202.18   28.00
  -7  16  -6  127.19    9.90
  -9  -7  -6  149.19   11.50
  -9  -7  -6  154.28   18.60
  -7  -9   6  106.29   22.40
  16  -9  -6  140.39   23.10
  -9  16   6  133.89   10.20
 -16   8   6   44.50   14.10
   8 -16   6   45.50   24.70
 -16   8  -6   48.40    7.70
   8 -16  -6   75.09   22.90
 -16   8  -6   70.69    9.70
   8   8  -6   41.80   11.00
   8   8  -6   58.49   11.80
  -8  -8  -6   52.19    7.40
  -8  -8  -6   63.29   14.40
  -8  16   6   62.69    7.50
  -8  -8   6   31.10   19.90
  16  -8  -6   45.50   17.00
  -8  16  -6   50.69    6.80
   7 -16  -6  209.58   28.00
   9 -16   6  107.19   26.10
   9   7  -6  142.79   16.90
 -16   7   6  160.08   20.00
 -16   9  -6  150.98   11.90
  16  -7  -6  183.18   23.20
  -9  16  -6  142.59   10.10
  -7  16   6  152.08   10.50
  -9  -7   6  144.39   23.60
  -7  -9  -6  135.29   18.70
  -7  -9  -6  156.98   11.10
  10   6  -6    7.00   10.50
   6 -16  -6   57.19   20.90
 -16   6   6    5.60   12.90
 -16  10  -6   12.20    6.20
  10 -16   6    8.50   19.90
 -10  -6   6   22.50   17.70
  16  -6  -6   18.40   15.70
  -6 -10  -6   10.30    5.60
 -10  16  -6    0.20    4.90
  -6 -10  -6   12.00   14.20
  -6  16   6    8.30    4.70
  11 -16   6  152.68   25.50
  11   5  -6  134.69   18.40
   5 -16  -6  173.28   28.20
 -16   5   6  148.89   20.00
 -16  11  -6  145.39   11.20
  16  -5  -6  164.08   21.20
  -5 -11  -6  136.59   10.50
 -11  16  -6  132.59   10.00
 -11  -5   6  113.29   20.80
  16 -11   6  145.49   20.60
  -5 -11  -6  160.78   22.60
  -5  16   6  145.59   10.00
  12   4  -6  -15.40   11.30
   4 -16  -6   22.30   19.40
  12 -16   6   -7.60   17.90
 -16   4   6    7.90   12.80
 -16  12  -6    1.50    6.00
 -12  16  -6    1.30    5.00
  16  -4  -6   15.50   14.80
  -4  16   6   -0.60    4.70
  16 -12   6   -9.00   12.90
  -4 -12  -6   -4.00   15.30
 -12  -4   6   -0.10   15.00
   3  13   6   16.80    5.40
  13 -16   6    6.00   17.50
  13   3  -6    2.80   11.90
 -16  13  -6   14.10    6.00
 -16   3   6    7.90   13.10
   3 -16  -6   24.10   19.50
  16 -13   6   22.10   14.90
 -13  -3   6   10.50   14.60
  16  -3  -6   12.50   13.90
  -3  16   6   15.10    5.10
  -3 -13  -6   18.60   15.20
 -13  16  -6    4.60    5.40
   2  14   6   -2.10    5.00
 -16   2   6   -6.40   13.70
  14   2  -6   -4.50   11.50
  14 -16   6   -3.50   16.60
 -16  14  -6    1.00    6.10
   2 -16  -6   17.00   19.20
 -14  -2   6    7.80   14.70
  -2  16   6    0.00    4.90
  16  -2  -6    1.30   13.00
  16 -14   6    5.20   14.30
 -14  16  -6   -6.70    5.30
  -2 -14  -6   13.70   17.00
  15   1  -6  -17.40   13.10
   1  15   6    4.20    5.40
   1 -16  -6   27.20   19.20
  15 -16   6    2.00   16.00
 -16   1   6  -13.50   12.70
 -16  15  -6    5.20    6.30
 -15  -1   6    6.00   13.90
  -1  16   6    3.70    5.10
  16  -1  -6   -5.80   14.10
  16 -15   6    1.40   14.50
  -1 -15  -6    8.60   16.70
 -15  16  -6   -0.60    5.50
  16 -16   6    0.10   15.90
  16   0  -6   -4.90   14.20
   0 -16  -6   15.20   17.50
 -16   0   6   -2.50   12.60
   0  16   6    4.30    5.20
 -16  16  -6   -4.00    5.80
   0 -17   6   89.69   26.70
   0  17  -6   68.89    8.30
 -17   0  -6   65.99    8.40
 -17  17   6   84.29    9.50
  17 -17  -6   37.10   21.20
   1 -17   6   27.60   25.70
   1  16  -6    3.30    5.90
  16 -17  -6   15.20   19.70
 -17  16   6   11.40    5.60
 -17   1  -6    2.70    7.10
 -17   1  -6   -4.60    5.20
  -1 -16   6   40.50   24.80
  17 -16  -6   13.40   19.00
 -16  17   6    6.30    5.20
 -16  -1  -6    2.10    6.60
 -16  -1  -6   -1.30    5.50
  -1  17  -6   -5.50    5.70
 -17   2  -6   26.90    6.60
 -17   2  -6   39.00    8.00
   2  15  -6   23.10    6.70
 -17  15   6   24.10    6.20
   2 -17   6   40.10   25.60
  15 -17  -6   -1.50   19.50
  17 -15  -6   32.20   19.70
 -15  17   6   25.60    5.70
  -2 -15   6   54.39   25.10
 -15  -2  -6   16.70    7.10
  -2  17  -6   19.40    6.20
 -15  -2  -6   29.70    6.40
 -17   3  -6   14.40    6.90
 -17   3  -6   -0.80    5.30
   3  14  -6    1.90    5.80
 -17  14   6    9.00    5.60
   3 -17   6  -13.90   23.20
 -14  17   6    7.20    5.20
  -3 -14   6   19.50   22.30
  -3  17  -6   -1.40    5.80
  17 -14  -6   -0.80   17.50
 -14  -3  -6  -13.10    4.80
 -14  -3  -6   -6.30    6.30
   4  13  -6    4.60    6.40
 -17   4  -6    5.70    6.70
   4 -17   6  -11.30   24.90
 -17   4  -6   -1.90    5.00
 -13  17   6    5.40    4.80
 -13  -4  -6  -15.40    8.90
  -4  17  -6    2.60    5.20
 -13  -4  -6   -6.50    5.70
  -4 -13   6   -1.80   20.20
 -13  -4  -6    0.30    5.20
  17 -13  -6    3.20   17.30
 -17   5  -6    3.30    5.40
 -17   5  -6    8.80    6.60
   5  12  -6    1.90    5.90
   5 -17   6  -65.39   21.20
  12 -17  -6  -42.40   17.10
 -12  -5  -6   15.10    6.30
 -12  -5  -6   -3.70    5.70
  17 -12  -6   14.60   18.20
 -12  -5  -6    0.50   10.10
 -12  17   6    2.10    5.00
  -5 -12   6   20.40   20.90
  -5  17  -6   -5.40    5.20
  11 -17  -6   19.80   19.40
   6  11  -6   14.60    6.50
 -17   6  -6    9.30    6.70
   6 -17   6  -16.40   22.20
 -17   6  -6   12.70    5.40
 -17  11   6   22.90   12.80
  -6  17  -6    7.40    5.50
 -11  -6  -6    5.50    5.80
 -11  -6  -6    3.90    9.90
  -6 -11   6    9.00   19.20
  17 -11  -6   17.40   17.20
 -11  17   6   12.10    5.50
 -11  -6  -6   -3.20    5.80
  10 -17  -6   24.60   19.70
   7  10  -6   -5.80    5.80
 -17  10   6    2.60   11.30
 -17   7  -6    1.60    6.10
 -17   7  -6    3.60    5.50
   7 -17   6  -65.89   22.40
 -10  -7  -6    3.00    6.00
  -7  17  -6   -7.40    4.70
 -10  -7  -6   -2.70   10.20
  17 -10  -6   10.10   16.50
  -7 -10   6    6.90   18.00
 -10  17   6    5.00    5.00
   9 -17  -6   82.29   22.50
   8   9  -6   41.10    7.70
   8 -17   6   18.60   22.60
 -17   8  -6   49.00    7.80
 -17   8  -6   56.19    8.40
 -17   9   6   55.89   13.50
  -9  -8  -6   52.09    7.30
  -8  -9   6   52.09   19.40
  17  -9  -6   76.89   19.40
  -9  17   6   57.19    7.60
  -9  -8  -6   46.30   13.60
  -8  17  -6   54.59    7.00
 -17   9  -6    4.60    5.50
 -17   9  -6    1.80    6.20
   9 -17   6  -16.50   21.00
   8 -17  -6   32.00   20.20
 -17   8   6    5.40   13.00
   9   8  -6    1.30   10.00
  -9  17  -6    0.30    5.00
  17  -8  -6   -0.10   15.10
  -8  -9  -6   22.50   13.40
  -9  -8   6    1.10   17.60
  -8  -9  -6   -0.10    5.60
  -8  17   6    2.40    4.80
  10   7  -6   10.90   10.80
  10 -17   6   12.70   21.30
   7 -17  -6   22.20   19.80
 -17   7   6   26.20   13.60
 -17  10  -6   22.90    7.40
  17  -7  -6   30.40   16.50
  -7 -10  -6   13.20    5.90
 -10  17  -6   15.20    5.50
  -7 -10  -6   24.10   13.40
  -7  17   6   16.70    5.20
 -10  -7   6   12.00   17.10
 -17   6   6   -1.00   12.40
  11 -17   6  -15.10   19.00
   6 -17  -6   24.30   19.80
 -17  11  -6    3.60    6.70
  11   6  -6   -8.40   10.90
 -11  17  -6   -7.20    4.90
  -6 -11  -6   -6.70   12.70
 -11  -6   6   -6.80   15.50
  17  -6  -6   17.40   16.00
  -6  17   6    2.80    4.80
 -17  12  -6   80.39   10.60
  12   5  -6   72.29   14.70
 -17   5   6   63.89   15.10
  12 -17   6   58.09   22.00
   5 -17  -6   97.99   24.00
  17  -5  -6   56.79   16.20
  -5 -12  -6  101.09   19.70
  -5  17   6   85.19    8.30
  17 -12   6   68.19   16.70
 -12  17  -6   67.39    7.70
 -12  -5   6   47.10   17.00
 -17   4   6   -7.30   13.00
   4 -17  -6   14.30   19.60
 -17  13  -6    0.60    5.80
   4  13   6   -2.20    4.90
  13   4  -6   -6.00   11.80
  13 -17   6   15.30   19.00
 -13  -4   6    0.40   13.90
  17 -13   6   -1.10   14.70
  -4  17   6    6.30    5.10
  -4 -13  -6   14.80   14.90
 -13  17  -6  -14.10    5.00
  17  -4  -6   -3.60   13.20
   3  14   6   68.79    8.70
  14 -17   6   57.39   20.70
 -17  14  -6   68.59    9.90
   3 -17  -6   71.59   21.10
 -17   3   6   59.59   14.50
  14   3  -6   39.80   14.30
  -3  17   6   57.19    8.10
  -3 -14  -6   79.19   18.70
 -14  -3   6   54.09   17.10
  17  -3  -6   82.39   17.90
 -14  17  -6   48.10    7.20
  17 -14   6   60.59   16.80
 -17   2   6   19.10   13.00
  15   2  -6   15.30   13.30
 -17  15  -6   16.40    6.60
  15 -17   6   24.10   18.20
   2  15   6   30.50    6.20
   2 -17  -6   44.50   19.80
  -2  17   6   32.00    6.30
 -15  -2   6   27.70   14.70
  17  -2  -6   15.70   14.80
 -15  17  -6    8.80    6.00
  17 -15   6    3.50   15.80
  -2 -15  -6   50.09   18.20
   1  16   6   30.10    6.30
  16 -17   6    7.90   16.50
 -17   1   6   27.10   13.10
 -17  16  -6    9.70    6.40
  16   1  -6    7.70   14.60
   1 -17  -6   25.80   19.30
  17 -16   6   30.40   16.50
  -1  17   6   21.60    5.70
  -1 -16  -6   27.00   18.60
  17  -1  -6   14.40   14.80
 -16  -1   6   10.70   13.50
 -16  17  -6    0.90    5.60
  17   0  -6  110.09   18.70
   0  17   6  126.29   10.20
  17 -17   6   82.69   18.50
   0 -17  -6  130.99   24.90
 -17   0   6  136.59   21.00
 -18   1  -6    0.60    5.70
  17 -18  -6   16.80   21.00
   1 -18   6   18.50   25.80
 -17  18   6    2.60    5.40
  18 -17  -6   17.80   20.30
  -1  18  -6    2.10    5.80
  -1 -17   6   35.00   25.00
 -17  -1  -6    1.20    5.50
  16 -18  -6   47.50   21.40
 -18   2  -6   49.50    7.20
   2  16  -6   38.80    7.40
   2 -18   6   68.89   26.80
  16   2   6   65.09   17.10
 -18  16   6   39.50    6.90
 -16  -2  -6   38.20    7.20
 -16  -2  -6   46.40    8.70
 -16  18   6   41.10    6.70
  -2  18  -6   37.80    7.40
  18 -16  -6   45.30   20.00
  -2 -16   6   67.39   23.90
   3 -18   6   -2.50   25.00
 -18   3  -6   30.50    8.30
  15 -18  -6  -11.20   18.40
 -18   3  -6   21.20    6.30
   3  15  -6   24.50    7.10
 -15  -3  -6    9.80    5.80
 -15  18   6   22.60    5.70
  -3  18  -6    9.40    5.80
  18 -15  -6   21.20   18.90
 -15  -3  -6   30.60    7.60
  -3 -15   6   28.30   22.20
   4  14  -6   39.50    7.60
  14 -18  -6  -15.50   18.00
   4 -18   6   54.09   26.50
 -18   4  -6   31.80    8.10
 -18   4  -6   33.60    6.60
  -4 -14   6   41.60   22.90
  18 -14  -6   54.29   20.70
 -14  18   6   37.60    6.20
 -14  -4  -6   23.40    6.30
  -4  18  -6   27.10    6.50
 -14  -4  -6   38.40    7.50
 -18   5  -6   34.90    8.00
   5  13  -6   28.90    7.00
 -18   5  -6   41.90    6.70
   5 -18   6   40.00   25.30
  13 -18  -6  -26.50   18.60
 -13  -5  -6   35.00    7.00
  -5  18  -6   32.70    6.80
 -13  18   6   37.80    6.00
  18 -13  -6   44.80   19.70
 -13  -5  -6   37.10    7.10
 -13  -5  -6   27.10   11.80
  -5 -13   6   75.29   23.50
 -18   6  -6   26.00    7.50
 -18   6  -6   25.20    6.30
  12 -18  -6    6.20   19.40
   6  12  -6   22.40    7.30
   6 -18   6  -10.50   25.30
 -18  12   6   48.70   12.90
 -12  -6  -6   19.50    7.00
 -12  18   6   25.20    5.70
  -6  18  -6   19.00    6.30
 -12  -6  -6   17.60    6.60
  18 -12  -6   38.00   18.70
 -12  -6  -6   24.40   11.50
  -6 -12   6   27.60   20.40
 -18  11   6   35.10   13.30
 -18   7  -6   35.30    6.70
 -18   7  -6   32.60    7.60
   7  11  -6   24.60    7.20
  11 -18  -6   16.60   19.90
   7 -18   6  -14.90   23.10
  18 -11  -6   36.60   18.50
  -7 -11   6   31.80   19.30
 -11  -7  -6   21.40   11.60
 -11  18   6   38.30    6.00
  -7  18  -6   22.90    6.30
 -11  -7  -6   29.70    7.00
  10 -18  -6   29.50   21.00
 -18  10   6   16.90   12.50
 -18   8  -6    4.20    5.40
   8 -18   6  -60.39   21.10
 -18   8  -6    8.20    7.00
  -8 -10   6   -9.60   17.30
  18 -10  -6    1.40   16.60
  -8  18  -6   -6.80    5.00
 -10  -8  -6    2.80    6.00
 -10  -8  -6    6.20   12.30
 -10  18   6    6.80    4.90
 -18   9  -6  134.49   12.50
   9 -18  -6  200.08   29.20
 -18   9   6  144.69   17.30
   9 -18   6   45.80   24.80
 -18   9  -6  129.99   10.00
  -9  -9   6  131.39   23.00
  -9  -9  -6  113.89   10.40
  -9  18   6  133.09    9.60
  -9  18  -6   99.19    9.60
  18  -9  -6  128.39   23.10
  -9  -9  -6  121.09   18.10
  10   8  -6    6.60   10.30
 -18   8   6    2.70   10.80
 -18  10  -6   -2.40    6.30
 -18  10  -6   -0.20    5.30
  10 -18   6  -27.00   20.90
   8 -18  -6   35.70   19.50
  -8  18   6    1.90    4.80
  18  -8  -6    1.30   15.70
 -10  18  -6  -11.30    4.90
  -8 -10  -6   -9.40   12.80
 -10  -8   6    5.60   15.70
 -18  11  -6   73.69   10.10
   7 -18  -6   84.49   23.00
  11   7  -6   55.89   13.20
  11 -18   6   56.79   23.20
 -18   7   6   58.99   13.60
  18  -7  -6   79.19   18.50
  -7  18   6   63.59    8.80
 -11  -7   6   48.40   16.80
  -7 -11  -6   69.89   16.70
 -11  18  -6   52.29    7.50
 -18  12  -6    2.80    6.40
   6 -18  -6   27.60   21.00
   6  12   6   -0.30    5.00
 -18   6   6    8.00   11.90
  12 -18   6   -6.60   19.50
  12   6  -6   -7.40   11.40
  18  -6  -6    4.10   14.60
  -6 -12  -6    5.20   14.80
 -12  18  -6  -10.80    5.10
  -6  18   6   -3.50    4.90
 -12  -6   6    2.80   14.40
   5  13   6   50.79    7.00
   5 -18  -6   65.39   23.70
  13 -18   6   45.40   22.40
  13   5  -6   62.89   14.70
 -18   5   6   46.40   14.50
 -18  13  -6   40.60    7.80
  18 -13   6   38.40   15.70
 -13  -5   6   33.10   15.30
 -13  18  -6   33.00    6.70
  -5  18   6   64.49    8.70
  -5 -13  -6   62.79   17.40
  18  -5  -6   59.39   17.60
 -18  14  -6    2.30    6.20
   4 -18  -6   38.20   19.50
  14   4  -6   -3.50   12.40
  14 -18   6    4.40   19.20
   4  14   6    7.50    5.70
 -18   4   6   14.50   12.10
  18  -4  -6   21.20   14.40
 -14  -4   6   -1.40   13.90
  18 -14   6   -5.50   14.10
  -4 -14  -6   20.30   15.70
 -14  18  -6   -6.10    5.30
  -4  18   6    6.90    5.40
  15   3  -6  -11.40   12.30
 -18   3   6    2.50   11.80
   3 -18  -6   14.50   19.40
   3  15   6   15.10    5.80
 -18  15  -6   -0.80    6.30
  15 -18   6    5.10   18.70
 -15  -3   6    0.90   12.80
 -15  18  -6   -7.90    5.30
  18  -3  -6   10.90   14.40
  -3  18   6    6.70    5.30
  -3 -15  -6   -2.40   15.80
  18 -15   6    7.20   14.70
  16 -18   6   11.20   19.00
 -18   2   6    4.60   12.20
 -18  16  -6    0.60    5.90
   2 -18  -6   -0.90   18.60
  16   2  -6   -1.30   12.50
   2  16   6    3.60    5.50
  18 -16   6    7.90   15.30
  -2  18   6    3.40    5.10
  -2 -16  -6   24.00   16.30
 -16  -2   6   -1.30   11.90
  18  -2  -6    4.80   13.80
  17 -18   6   -0.40   17.70
 -18   1   6   -0.10   12.20
   1 -18  -6   25.40   18.70
   1  17   6    5.50    5.90
  17   1  -6   -9.60   13.90
  -1  18   6   -0.20    5.10
 -17  -1   6    5.80   12.80
  18 -17   6    4.80   14.90
  -1 -17  -6    4.40   16.80
  18  -1  -6  -13.00   13.80
  16 -19  -6   -9.10   19.60
  19 -16  -6   -9.10   18.10
  15 -19  -6  -21.10   17.70
 -19   4  -6    8.60    6.00
   4  15  -6   11.10    6.70
   4 -19   6    8.00   24.00
 -15  -4  -6    5.10    7.10
 -15  19   6   14.60    5.60
  -4 -15   6   59.49   23.90
 -15  -4  -6    0.20    6.10
  19 -15  -6    9.10   17.60
  -4  19  -6    4.00    6.00
 -19   5  -6   -0.80    7.90
 -19   5  -6    1.90    5.50
   5 -19   6   39.90   25.70
   5  14  -6    1.20    6.80
 -14  19   6    0.30    4.80
 -14  -5  -6   -7.20    5.70
  -5  19  -6   -6.00    5.20
  -5 -14   6   -5.80   20.90
  19 -14  -6   -9.40   18.10
 -14  -5  -6   -2.30    6.40
 -19   6  -6    8.00    7.60
   6 -19   6   -3.50   26.30
 -19   6  -6    0.20    5.30
   6  13  -6    0.50    6.90
 -13  -6  -6   -5.80    6.20
 -13  -6  -6  -10.40   10.20
 -13  -6  -6  -10.40    5.50
  19 -13  -6    7.30   18.60
  -6 -13   6   14.80   19.90
  -6  19  -6    5.90    5.50
 -13  19   6    3.60    5.00
 -19   7  -6   -0.90    5.20
   7 -19   6  -11.70   24.30
 -19  12   6   11.50   11.20
 -19   7  -6    2.50    7.20
  12 -19  -6  -18.70   18.00
 -12  19   6    2.30    4.90
 -12  -7  -6   -7.00    6.10
  19 -12  -6    2.50   17.10
 -12  -7  -6    1.60   11.10
  -7  19  -6   -8.30    5.20
 -12  -7  -6   -5.60    6.20
  -7 -12   6    2.80   18.40
  11 -19  -6   45.40   21.30
 -19   8  -6   46.70    7.60
 -19   8  -6   44.20    8.50
   8 -19   6  -16.40   22.40
 -19  11   6   45.60   12.80
  -8  19  -6   28.50    6.10
  -8 -11   6   44.20   19.30
  19 -11  -6   51.49   18.70
 -11  -8  -6   42.60   13.80
 -11  19   6   37.80    6.20
 -19   9  -6    9.70    7.50
  10 -19  -6   33.10   21.00
 -19   9  -6    5.30    5.70
 -19  10   6    8.60   10.90
   9 -19   6  -62.39   21.30
  19 -10  -6    9.20   16.80
  -9 -10   6   -5.60   16.40
  -9  19  -6   -2.50    5.40
 -10  19   6    9.10    5.10
 -10  -9  -6    4.80   11.00
  10   9  -6   74.19   14.70
   9 -19  -6  144.89   27.30
 -19  10  -6   68.19    8.40
 -19   9   6   55.69   14.20
  10 -19   6   28.60   24.30
  -9  19   6   84.29    8.90
 -10  -9   6   71.19   18.70
  19  -9  -6   64.49   18.70
  -9 -10  -6   78.79   15.70
 -10  19  -6   57.09    8.40
   8 -19  -6   16.70   19.50
   8  11   6    7.40    5.30
  11 -19   6  -21.30   21.10
 -19  11  -6    1.60    6.70
  11   8  -6    2.90   11.30
 -19   8   6    1.50   11.20
 -11  -8   6   19.60   16.30
 -11  19  -6   -6.70    4.90
  -8  19   6   -1.00    4.70
  19  -8  -6    6.10   16.30
  -8 -11  -6   -6.90   12.90
  12 -19   6   55.59   23.60
 -19  12  -6  114.79   12.30
 -19   7   6  130.49   17.90
   7 -19  -6  143.19   26.50
  12   7  -6  109.49   17.20
   7  12   6   90.69    9.50
  -7 -12  -6  111.79   19.00
  -7  19   6   92.49    8.90
  19  -7  -6  115.59   21.00
 -12  -7   6   83.59   17.80
 -12  19  -6   78.59    9.90
   6 -19  -6   10.60   20.40
  13   6  -6    4.60   11.90
   6  13   6    3.10    5.00
  13 -19   6  -14.90   20.50
 -19   6   6   16.80   11.40
 -19  13  -6    6.00    6.60
  -6 -13  -6    5.20   14.30
 -13  19  -6    0.90    5.50
  19  -6  -6   28.90   15.70
  -6  19   6    3.90    5.00
  19 -13   6    2.80   14.60
 -13  -6   6    7.10   14.30
 -19   5   6   68.89   13.40
   5  14   6  109.19    9.20
  14   5  -6  109.89   19.30
  14 -19   6   81.49   22.90
   5 -19  -6  142.39   27.20
  19 -14   6  144.49   22.90
 -14  19  -6   83.29    9.70
  -5  19   6   96.59    9.10
  19  -5  -6  132.69   21.50
  -5 -14  -6  123.99   20.30
 -14  -5   6   83.99   17.50
  15 -19   6   46.70   21.30
 -19   4   6   58.19   12.90
 -19  15  -6   55.89    8.30
   4  15   6   46.50    6.80
  15   4  -6   28.60   14.90
   4 -19  -6   71.79   21.60
  -4  19   6   54.89    8.00
 -15  19  -6   40.50    7.10
  -4 -15  -6   79.69   17.80
  19 -15   6   44.50   16.90
 -15  -4   6   35.80   14.70
  19  -4  -6   54.79   16.00
   3 -19  -6   69.49   21.90
  16   3  -6   27.80   14.90
  -3 -16  -6   42.40   17.70
  19  -3  -6   34.20   15.80
  13 -20  -6  -20.20   19.20
   7 -20   6   15.90   26.00
 -13  20   6   41.80    6.40
  -7 -13   6   50.69   20.50
  -7  20  -6   41.40    7.00
 -13  -7  -6   43.90   13.00
  20 -13  -6   68.09   19.90
 -20   8  -6    9.30    7.80
  12 -20  -6  -26.90   17.90
 -20   8  -6   -4.90    5.40
 -20  12   6   13.00   10.90
   8 -20   6   -4.90   24.00
  -8 -12   6   10.90   17.60
 -12  20   6   -1.40    5.00
  -8  20  -6   -3.80    5.10
  20 -12  -6    8.50   17.00
 -12  -8  -6    7.50   11.30
   9 -20   6   26.60   24.60
 -20  11   6   50.29   12.70
 -20   9  -6   22.90    7.80
  11 -20  -6   56.29   22.00
 -20   9  -6   35.50    6.60
 -11  -9  -6   31.50   13.40
  -9  20  -6   26.30    6.20
 -11  20   6   30.30    5.80
  -9 -11   6   48.10   18.10
  20 -11  -6   48.80   18.50
  10 -20  -6   24.30   20.90
 -20  10  -6   -1.40    7.40
 -20  10   6    6.10   10.50
  10 -20   6  -54.19   21.30
  10  10   6   -7.00    4.90
 -20  10  -6    1.90    5.40
 -10 -10   6   13.50   16.00
 -10  20  -6   -5.60    5.50
 -10 -10  -6    8.50   11.90
  20 -10  -6    8.20   17.00
 -10  20   6    3.10    5.40
   9  11   6   47.20    6.80
  11   9  -6   28.40   13.10
 -20  11  -6   36.20    6.80
   9 -20  -6   47.70   21.20
 -20   9   6   40.00   12.00
 -20  11  -6   36.00    8.30
  11 -20   6  -16.70   22.30
  -9  20   6   25.60    5.90
  20  -9  -6   37.10   18.50
  -9 -11  -6   24.80   13.70
 -11  20  -6   28.20    6.30
 -11  -9   6   35.10   16.40
  12 -20   6  -51.59   20.20
 -20   8   6   19.90   11.40
 -20  12  -6   14.20    7.80
   8 -20  -6   21.90   20.70
  12   8  -6   12.90   12.20
   8  12   6   14.30    5.50
  -8 -12  -6   -1.00   12.80
  20  -8  -6   26.80   17.30
 -12  -8   6    1.30   14.50
 -12  20  -6    8.10    5.60
  -8  20   6   18.60    5.70
 -20   7   6   45.70   12.50
  13 -20   6    3.70   22.70
   7  13   6   62.09    8.60
 -20  13  -6   56.99    9.60
  13   7  -6   53.09   14.50
   7 -20  -6   80.99   22.90
 -13  -7   6   26.50   15.00
  -7  20   6   72.29    9.20
  -7 -13  -6   57.59   16.60
  20  -7  -6   53.89   18.00
 -13  20  -6   39.90    7.40
   0   0   7 1123.79   64.39
   0   1  -7  250.27   13.90
   1  -1  -7  260.07   14.00
   0  -1   7  234.88   32.30
  -1   1   7  282.07   32.60
   1   0   7  273.17   43.00
  -1   0  -7  246.68   14.00
  -1   0   7   49.40   23.90
   0   1   7   57.19   22.60
  -1   1  -7   36.20    6.40
   0  -1  -7   41.80    6.50
   1  -1   7   47.90   21.50
   1   0  -7   42.20    6.60
   2  -2  -7  335.17   16.40
  -2   0  -7  310.57   16.20
   0  -2   7  310.97   37.40
  -2   2   7  322.47   36.20
   2   0   7  323.97   32.40
   0   2  -7  310.67   16.20
   1  -2  -7   50.69    6.90
   1   1  -7   41.40    6.50
  -2   1  -7   51.29    7.00
   1  -2   7   51.29   22.80
   1   1   7   45.40   21.00
   2  -1   7   40.70   20.50
  -1   2  -7   44.30    6.70
  -1  -1   7   48.90   22.50
  -1   2   7   56.29   21.90
  -1  -1  -7   47.60    6.90
   2  -1  -7   58.49    8.00
  -2   0   7  670.53   46.80
   2   0  -7  749.82   31.60
  -2   2  -7  753.82   31.70
   0  -2  -7  755.82   31.70
   2  -2   7  761.72   45.70
   0   2   7  755.22   45.90
  -3   3   7  290.67   33.90
   3  -3  -7  367.76   31.30
   0   3  -7  256.77   14.30
   3  -3  -7  264.37   14.60
  -3   0  -7  261.77   14.70
   0  -3   7  228.78   35.40
   3   0   7  272.17   31.50
  -3   2   7    3.60   22.10
   2   1   7   17.30   22.40
   1  -3   7    8.10   21.30
   2  -3  -7   -0.20    5.40
  -3   1  -7   -3.10    5.10
   1   2  -7   -2.00    5.10
  -2  -1  -7    4.10    5.10
  -1   3  -7    0.60    5.00
  -1  -2   7   23.60   22.30
   3  -2  -7    1.70    5.40
  -2   3   7    5.20   20.70
   3  -1   7    0.10   17.40
   1   2   7   63.09   23.00
   2   1  -7   69.99    8.30
   2  -3   7   48.50   21.80
  -3   1   7   64.59   25.40
  -3   2  -7   68.39    8.50
   1  -3  -7   62.59    9.20
  -2   3  -7   57.89    8.10
   3  -2   7   72.29   20.70
  -2  -1   7   65.49   23.60
   3  -1  -7   68.69    8.90
  -1  -2  -7   65.49    8.40
  -1   3   7   81.29   23.80
   0   3   7   22.60   19.80
  -3   3  -7   18.10    5.60
   0  -3  -7   14.50    5.60
  -3   0   7   19.90   22.20
   3   0  -7   20.80    6.10
   3  -3   7   42.30   19.60
   0   4  -7   64.49    9.10
   4   0   7   74.79   21.00
  -4   0  -7   72.39    8.70
  -4   4   7   50.19   22.90
   4  -4  -7   65.49    8.50
   0  -4   7   86.59   24.30
   1  -4   7   -6.20   21.10
   1   3  -7    2.10    4.90
   3  -4  -7   48.40   16.90
  -4   1  -7    6.80    5.00
   3  -4  -7    3.60    5.20
  -4   3   7   11.10   20.90
  -3  -1  -7    0.90    5.20
  -1   4  -7    6.70    5.50
   4  -1   7   15.80   17.80
  -3   4   7    4.90   20.80
  -1  -3   7    6.60   21.20
   4  -3  -7    3.10    5.30
   2  -4  -7  233.98   23.80
   2  -4  -7  166.48   11.20
   2  -4   7  134.29   25.80
  -4   2   7  176.98   29.00
  -4   2  -7  171.38   11.70
   2   2   7  167.28   26.50
   2   2  -7  168.48   11.70
  -2   4   7  199.08   32.50
  -2  -2   7  179.68   27.60
   4  -2  -7  139.19   10.90
   4  -2   7  136.69   23.00
  -2  -2  -7  158.48   11.20
  -2   4  -7  158.28   11.60
  -4   1   7    0.60   22.60
  -4   3  -7   11.60    5.30
   3   1  -7   20.00    5.60
   1   3   7   35.90   21.10
   1  -4  -7   17.30    5.70
   3  -4   7   28.10   20.80
  -1  -3  -7   12.90    5.70
  -3   4  -7   15.10    5.60
   4  -1  -7   19.10    5.50
  -3  -1   7   20.60   23.50
   4  -3   7   36.80   19.20
  -1   4   7  -10.40   19.90
   4   0  -7  116.19    9.70
  -4   0   7  130.19   27.80
   0   4   7  104.49   22.60
   0  -4  -7  106.49    9.80
  -4   4  -7  110.29   10.10
   4  -4   7  101.19   22.00
   0  -4  -7  137.59   25.10
  -5   0  -7  268.87   14.10
  -5   5   7  284.57   32.10
   5   0   7  224.38   28.50
   0   5  -7  219.98   13.50
   0  -5   7  256.37   33.80
   5  -5  -7  248.48   13.90
  -5   4   7   66.79   23.50
   1  -5   7   37.30   22.00
  -5   1  -7   55.99    7.10
   4  -5  -7   47.30    6.80
   1   4  -7   54.29    7.00
   4   1   7   59.49   19.50
  -4   5   7   59.09   23.80
   5  -1   7   35.20   18.30
  -1  -4   7   48.20   23.20
  -4  -1  -7   42.80    6.60
  -1   5  -7   39.50    6.50
   5  -4  -7   44.10    6.70
   3  -5  -7  278.27   15.50
  -5   3   7  316.57   48.50
   3   2   7  215.68   30.00
   3  -5  -7  391.96   30.40
  -5   2  -7  299.87   15.40
   2  -5   7  274.97   34.00
   2   3  -7  295.87   15.50
  -2   5  -7  269.47   15.20
  -3   5   7  365.96   36.70
  -2  -3   7  277.37   37.60
   5  -3  -7  302.17   15.50
   5  -2   7  282.27   29.30
  -3  -2  -7  293.97   15.50
   3  -5   7   -6.20   19.90
   2   3   7  -10.20   17.10
  -5   3  -7   -2.10    5.10
  -5   2   7    2.50   23.00
   2  -5  -7   -5.10    5.20
   2  -5  -7   33.60   15.50
   3   2  -7    5.20    5.30
  -3  -2   7    6.10   22.30
   5  -3   7  -11.20   17.90
  -3   5  -7   -3.50    5.00
  -2   5   7   -5.80   19.80
  -2  -3  -7    3.50    5.50
   5  -2  -7    1.50    5.00
   4  -5   7   37.00   21.00
   1   4   7   22.60   20.70
  -5   1   7   31.80   22.00
   4   1  -7   32.10    6.20
   1  -5  -7   20.60    6.00
  -5   4  -7   29.50    6.00
   1  -5  -7   82.89   17.70
  -4  -1   7   16.60   23.10
  -1  -4  -7   32.20    6.20
   5  -1  -7   23.10    5.90
  -1   5   7   15.80   20.00
  -4   5  -7   24.70    5.90
   5  -4   7   26.10   18.60
   0   5   7   35.30   20.40
  -5   5  -7   16.00    5.50
   0  -5  -7   44.30   14.70
  -5   0   7   11.90   22.50
   5   0  -7   17.10    5.70
   5  -5   7   34.30   18.00
   0  -5  -7   16.20    5.90
  -6   6   7   22.90   22.30
   6   0   7   13.60   17.20
  -6   0  -7   12.20    5.40
   0   6  -7   17.20    5.90
   0  -6   7   13.80   21.80
   6  -6  -7   42.60   17.20
   6  -6  -7   19.10    6.00
  -6   1  -7   44.70    6.90
   1  -6   7   40.10   23.40
   1   5  -7   36.70    6.30
  -6   5   7   65.99   23.20
   5  -6  -7   37.40    6.40
   5   1   7   39.10   18.10
  -1   6  -7   39.70    6.20
   6  -5  -7   47.90    7.00
   6  -1   7   45.40   17.50
  -1  -5   7   69.39   23.70
  -5  -1  -7   33.70    6.40
  -5   6   7   70.79   22.70
   4  -6  -7   52.39   18.20
   2   4  -7   11.50    5.50
   4   2   7    7.70   20.70
  -6   2  -7   15.70    5.50
   2  -6   7   15.80   19.80
  -6   4   7   -3.60   36.10
   4  -6  -7   16.30    5.70
   6  -2   7   21.50   17.10
  -2  -4   7   -3.80   21.50
  -4  -2  -7    9.10    5.80
  -2   6  -7   22.60    5.50
   6  -4  -7   19.80    6.10
  -4   6   7   44.70   21.20
   3  -6  -7   10.90    5.40
   3   3   7   12.00   18.20
   3  -6   7   17.20   20.70
   3   3  -7   13.50    5.30
  -6   3   7   11.40   21.90
  -6   3  -7    7.80    5.60
   3  -6  -7   37.10   17.00
   6  -3  -7   11.30    5.60
   6  -3   7    8.90   17.40
  -3  -3   7   15.30   22.90
  -3  -3  -7   12.30    5.60
  -3   6   7   37.60   22.10
  -3   6  -7   10.80    5.60
   6  -3  -7   28.00   14.80
   2   4   7   98.39   21.70
   4   2  -7  106.39    9.80
  -6   4  -7   89.89    9.10
   2  -6  -7  172.18   23.70
   2  -6  -7   94.39    9.20
  -6   2   7   85.99   24.90
   4  -6   7   97.39   23.20
   6  -2  -7   86.59   16.80
   6  -4   7   60.79   19.30
  -4   6  -7   92.19    9.10
  -2  -4  -7   87.69    9.30
  -2   6   7  117.49   25.20
  -4  -2   7   86.59   25.30
   6  -2  -7   95.39    9.70
  -6   5  -7    1.30    5.10
   1  -6  -7    0.10    5.10
  -6   1   7  -18.00   21.00
   1   5   7    3.40   19.90
   5  -6   7    0.60   19.10
   5   1  -7   -3.70    5.10
   1  -6  -7   27.00   16.70
   6  -1  -7    3.80    5.10
   6  -1  -7    2.90   15.10
  -1   6   7   18.40   20.70
  -5   6  -7    2.50    5.40
  -1  -5  -7   13.00   13.40
  -5  -1   7   -8.90   22.60
  -1  -5  -7   -3.50    4.90
   6  -5   7    4.50   16.50
  -6   6  -7    1.40    5.10
   0   6   7    7.50   19.20
   6   0  -7    2.10    5.20
   0  -6  -7   32.00   14.80
  -6   0   7   -0.30   22.60
   0  -6  -7    6.30    5.50
   6  -6   7   -8.60   18.00
   7  -7  -7  396.36   31.70
   7   0   7  334.37   27.80
   7  -7  -7  362.86   17.80
  -7   0  -7  333.67   17.60
   0   7  -7  361.36   17.50
  -7   7   7  418.16   35.60
   0  -7   7  389.96   37.20
   1  -7   7   58.49   23.50
   1   6  -7   57.19    8.00
  -7   6   7   96.69   22.50
   6  -7  -7  101.49   20.20
   6  -7  -7   63.09    9.10
  -7   1  -7   64.09    7.90
   6   1   7   63.99   17.70
   7  -6  -7   69.19    9.10
   7  -6  -7  122.29   23.30
  -1  -6   7   96.19   25.40
   7  -1   7   58.29   18.20
  -6   7   7   71.79   23.80
  -6  -1  -7   67.29    8.60
  -1   7  -7   62.49    8.20
   5   2   7  336.27   31.10
   2  -7   7  344.57   36.00
   2   5  -7  340.17   17.00
   5  -7  -7  326.47   16.70
  -7   2  -7  316.17   16.40
  -7   5   7  249.38   47.40
   5  -7  -7  410.36   31.70
  -5  -2  -7  334.97   17.20
   7  -5  -7  351.76   17.00
   7  -5  -7  248.58   27.80
  -5   7   7  411.36   35.50
  -2   7  -7  299.47   16.20
  -2  -5   7  357.66   37.00
   7  -2   7  304.87   27.30
   3   4  -7   64.39    8.80
   3  -7   7   66.39   22.90
   4  -7  -7   47.30    7.20
   4  -7  -7  139.99   25.30
  -7   4   7   59.29   23.20
  -7   3  -7   44.60    6.80
  -3   7  -7   46.20    6.70
  -4   7   7   72.19   33.20
  -4  -3  -7   62.89    8.40
   7  -3   7   69.29   17.90
  -3  -4   7   69.09   24.00
   7  -4  -7   55.09    7.50
   3   4   7  187.48   28.40
   4  -7   7  185.58   29.70
   4   3  -7  163.68   11.50
   3  -7  -7  187.08   11.90
  -7   3   7  221.98   30.30
  -7   4  -7  183.98   11.80
  -4   7  -7  180.88   12.10
  -4  -3   7  217.58   32.90
   7  -4   7  152.98   22.40
   7  -3  -7  193.18   12.30
  -3  -4  -7  193.38   12.60
  -7   5  -7    7.30    5.40
   2  -7  -7   33.30   17.30
   5   2  -7   -0.10    5.50
  -7   2   7   22.30   23.00
   5  -7   7   25.80   19.00
   2   5   7    2.50   18.30
   2  -7  -7    0.60    5.20
   7  -5   7   15.10   16.90
  -5   7  -7    0.60    5.10
  -5  -2   7   21.50   21.80
   7  -2  -7   33.70   14.20
  -2  -5  -7    2.30    5.40
   7  -2  -7    2.80    5.30
  -2  -5  -7   38.20   13.90
   1   6   7   22.50   19.00
   6   1  -7   10.90    5.80
   1  -7  -7   15.50   15.80
  -7   1   7   25.50   21.50
   1  -7  -7    6.50    5.30
   6  -7   7   15.00   17.90
  -7   6  -7   12.20    5.70
  -1  -6  -7   16.60    5.60
   7  -1  -7   12.20    5.50
  -1  -6  -7   13.50   13.80
   7  -1  -7   66.19   15.70
   7  -6   7  -12.70   17.10
  -6   7  -7    9.30    5.20
  -6  -1   7  -13.40   21.50
   0  -7  -7   18.00   14.30
  -7   0   7    2.00   21.60
   7  -7   7   -8.30   16.20
   7   0  -7    5.20    5.50
  -7   7  -7    3.70    5.50
   0  -7  -7   -2.50    5.10
   0  -8   7    3.40   22.00
   0   8  -7    2.00    4.90
   8   0   7   14.30   15.20
  -8   8   7   11.70   21.70
   8  -8  -7   17.20   18.20
   8  -8  -7    0.30    4.90
  -8   0  -7   -0.50    5.10
   7  -8  -7  109.69   22.00
   1   7  -7   75.39    9.00
  -8   7   7   78.49   21.80
   7  -8  -7   62.39    8.40
   1  -8   7   65.39   24.70
  -8   1  -7   75.89    8.80
   7   1   7   67.09   17.70
   8  -1   7   47.70   16.30
   8  -7  -7   73.59    8.40
  -1   8  -7   59.69    8.00
  -1  -7   7   49.00   24.20
  -7  -1  -7   65.89    7.90
   8  -7  -7   69.49   19.50
   6  -8  -7    9.80    5.30
  -8   6   7    7.70   21.90
   2   6  -7   13.40    5.60
   6   2   7   15.20   16.90
   2  -8   7   30.00   22.90
   6  -8  -7   30.90   18.40
  -8   2  -7    6.10    5.70
   8  -2   7    6.30   14.20
   8  -6  -7    7.90    5.60
  -2  -6   7   16.10   23.30
   8  -6  -7  -25.60   14.40
  -2   8  -7    9.80    5.20
  -6  -2  -7    5.30    5.60
  -8   3  -7   32.00    6.20
   3  -8   7   31.10   21.40
  -8   5   7   43.70   21.00
   5   3   7   29.10   17.90
   5  -8  -7   29.40    6.10
   3   5  -7   33.90    6.30
  -5  -3  -7   34.90    6.40
  -3   8  -7   26.00    5.90
  -3  -5   7   42.40   23.30
   8  -3   7   37.10   16.10
   8  -5  -7   31.00    6.40
   4  -8  -7   51.29   19.20
   4   4   7   20.50   17.90
  -8   4  -7   17.40    5.80
   4   4  -7   24.80    6.30
  -8   4   7   25.10   21.80
   4  -8   7    9.00   21.30
   4  -8  -7   14.40    6.00
  -4  -4   7   20.70   22.20
   8  -4   7   11.60   15.80
   8  -4  -7   36.80   14.70
  -4   8  -7   15.20    5.30
  -4  -4  -7   10.40    5.50
   8  -4  -7   11.00    5.60
   3  -8  -7    7.40    5.30
  -8   3   7    2.90   20.30
   3   5   7   -5.90   17.60
   5  -8   7   -9.40   19.90
   3  -8  -7   38.20   18.50
  -8   5  -7   -0.30    5.20
   5   3  -7   12.60    5.40
   8  -5   7   11.60   16.30
   8  -3  -7   11.80    6.40
  -5   8  -7    7.80    5.10
  -5  -3   7   -4.50   22.40
  -3  -5  -7    2.70    5.30
   8  -3  -7   34.90   15.40
  -3  -5  -7   26.00   12.60
   2  -8  -7    9.20    5.30
   2  -8  -7   23.60   17.60
   6   2  -7    8.30    6.50
   6  -8   7    3.20   19.20
   2   6   7  -11.60   20.60
  -8   2   7   31.50   21.60
  -8   6  -7    6.30    5.40
  -2  -6  -7    4.60    5.70
  -6   8  -7    8.90    5.20
   8  -2  -7    6.10    5.50
  -2  -6  -7   18.50   13.70
  -6  -2   7  -18.70   20.50
   8  -6   7   18.70   16.50
   8  -2  -7    4.10   14.80
  -8   7  -7   -4.00    5.30
  -8   1   7  -16.50   20.30
   1  -8  -7   -1.70    5.40
   7   1  -7   -1.60    5.20
   1  -8  -7   19.10   15.80
   7  -8   7    1.50   18.40
  -1  -7  -7    3.50    5.20
  -7  -1   7   -9.30   22.20
  -7   8  -7   -0.30    5.20
   8  -7   7   -4.10   16.90
   8  -1  -7    3.50   13.80
  -1  -7  -7    8.40   13.80
   8  -1  -7    2.30    5.50
   0  -8  -7  124.59   23.20
   0  -8  -7   64.99    8.70
   8  -8   7   74.99   19.20
   8   0  -7   60.99    8.40
   8   0  -7   74.49   16.70
  -8   0   7   67.19   23.10
  -8   8  -7   55.79    8.30
   0  -9   7  131.89   27.70
  -9   0  -7  152.28   11.00
   9   0   7  176.78   21.80
   9  -9  -7  153.98   11.30
   9  -9  -7  104.59   24.50
   0   9  -7  143.59   10.10
   1  -9   7   34.90   24.50
   8   1   7   22.80   15.50
   8  -9  -7   29.30    6.60
  -9   8   7   57.29   19.20
  -9   1  -7   33.60    6.40
   1   8  -7   15.70    6.00
  -1  -8   7   40.90   24.30
  -1   9  -7   25.80    5.70
   9  -1   7   21.90   14.80
  -8  -1  -7   28.60    6.20
   9  -8  -7   20.50    5.80
   9  -8  -7  -23.70   24.10
  -9   7   7  256.47   27.80
   7  -9  -7  224.18   26.10
   2   7  -7  184.28   11.80
   2  -9   7  227.38   33.30
  -9   2  -7  192.58   12.50
   7   2   7  175.38   22.70
   7  -9  -7  197.28   12.40
  -7  -2  -7  195.38   12.40
  -2   9  -7  195.38   11.80
   9  -2   7  198.88   24.80
   9  -7  -7  202.38   12.80
  -2  -7   7  212.28   33.40
  -9   6   7   42.00   19.50
   6  -9  -7    2.30    5.10
   3   6  -7    7.30    5.20
   6  -9  -7   14.70   17.70
  -9   3  -7    4.70    5.50
   6   3   7   16.00   16.70
   3  -9   7    5.90   22.60
  -6  -3  -7    3.40    5.40
  -3   9  -7    4.90    5.00
   9  -6  -7   10.30    5.50
  -3  -6   7  -17.30   22.70
   9  -6  -7   -1.60   14.80
   9  -3   7    2.60   13.90
  -9   5   7  138.99   23.80
   4  -9   7  136.29   26.60
   5  -9  -7  209.08   29.00
  -9   4  -7  122.79   11.10
   5  -9  -7  129.89   10.30
   5   4   7  161.08   26.30
   4   5  -7  127.89   10.10
  -4  -5   7  128.69   27.20
  -5  -4  -7  133.79   11.10
   9  -4   7  142.39   21.80
   9  -5  -7  176.58   23.30
   9  -5  -7  130.59   10.20
  -4   9  -7  136.09    9.90
   4  -9  -7   23.00   18.50
   5   4  -7   11.50    5.70
  -9   5  -7    2.70    5.00
   4   5   7    2.10   18.10
   5  -9   7  -10.30   20.10
   4  -9  -7    1.80    5.40
  -9   4   7    9.50   19.20
  -5  -4   7   -7.40   21.90
  -5   9  -7    8.60    5.20
   9  -4  -7    6.90    5.60
  -4  -5  -7    2.60    5.10
   9  -4  -7   14.60   15.70
  -4  -5  -7  -11.80   16.20
   9  -5   7   15.10   16.00
  -9   6  -7   33.20    6.50
   6   3  -7   42.90    6.70
   3  -9  -7   69.29   19.90
  -9   3   7   34.00   21.00
   6  -9   7   29.20   20.80
   3  -9  -7   36.20    6.30
   9  -3  -7   45.80   16.00
  -6   9  -7   25.40    5.90
  -3  -6  -7   55.89   14.50
   9  -3  -7   38.10    6.80
   9  -6   7   28.80   16.60
  -3  -6  -7   32.10    6.50
  -6  -3   7   34.80   24.40
   7   2  -7   49.80    6.80
   2  -9  -7   80.79   21.20
   2  -9  -7   34.30    6.60
  -9   7  -7   30.60    6.60
  -9   2   7   28.60   20.50
   7  -9   7   28.90   19.30
  -2  -7  -7   30.80    6.40
   9  -7   7   31.70   16.70
  -2  -7  -7   37.60   15.20
   9  -2  -7   35.20   15.10
   9  -2  -7   35.20    6.30
  -7   9  -7   39.60    6.30
  -7  -2   7   -2.70   22.50
   1  -9  -7   10.40    5.50
   8  -9   7   11.90   18.50
   1  -9  -7   14.20   16.30
   8   1  -7    3.20    5.80
  -9   1   7    7.80   20.70
  -9   8  -7    9.00    5.50
   9  -1  -7   19.30    6.40
   9  -8   7    6.10   17.00
  -8   9  -7    9.00    5.70
  -8  -1   7   -4.40   20.60
  -1  -8  -7   10.70   15.20
  -1  -8  -7   12.10    6.00
   9  -1  -7   35.60   16.00
  -9   9  -7   39.80    6.90
   9   0  -7   37.60    6.60
   9  -9   7   36.60   17.60
   9   0  -7   71.39   17.30
   0  -9  -7   34.00    6.50
  -9   0   7   49.60   21.00
   0  -9  -7   74.29   19.40
   0 -10   7   -7.90   24.00
  10 -10  -7  -27.10   16.60
  10   0   7    7.90   13.90
   0  10  -7    0.20    5.30
  10 -10  -7    1.50    5.80
 -10   0  -7   -7.10    5.70
   9   1   7   26.60   15.50
   9 -10  -7   26.90    6.50
   9 -10  -7   23.60   19.40
 -10   1  -7   29.30    6.40
   1   9  -7   37.30    6.20
   1 -10   7   42.30   24.30
  10  -1   7   50.19   15.90
  -9  -1  -7   27.30    6.40
  -1  10  -7   36.50    6.00
  10  -9  -7   21.10    5.90
  -1  -9   7   18.90   23.70
  10  -9  -7  -13.20   18.00
 -10   8   7    9.50   18.70
 -10   2  -7  -11.00    5.40
   2 -10   7  -13.30   22.30
   2   8  -7    1.90    5.40
   8 -10  -7   26.50   18.40
   8   2   7    7.90   15.50
   8 -10  -7    2.40    5.50
  -8  -2  -7    3.90    5.20
  -2  -8   7  -20.50   22.60
  -2  10  -7   -1.20    5.10
  10  -8  -7   -6.00    5.50
  10  -2   7    9.40   13.50
  10  -8  -7    4.20   17.80
   3   7  -7   76.29    8.70
   7 -10  -7   93.99    9.70
   7 -10  -7  104.19   23.50
   7   3   7   93.29   18.40
 -10   3  -7   79.79    9.00
 -10   7   7  105.89   21.90
   3 -10   7   66.89   24.70
  -3  -7   7   72.79   25.80
  -7  -3  -7   90.09   10.00
  10  -3   7   91.39   17.40
  -3  10  -7   78.09    8.60
  10  -7  -7   99.19    9.00
   6 -10  -7    2.20    5.30
   4 -10   7    4.10   20.70
 -10   4  -7    5.20    5.40
   4   6  -7    8.00    5.40
   6   4   7  -10.30   16.20
 -10   6   7    4.80   17.60
   6 -10  -7   49.00   21.70
  10  -4   7    3.20   14.10
  -6  -4  -7    4.20    5.70
  10  -6  -7   21.00   16.50
  10  -6  -7   -1.00    5.40
  -4  -6   7    9.10   22.40
  -4  10  -7    0.10    4.90
   5   5  -7  107.79   10.00
   5 -10  -7  120.99   10.40
   5   5   7  129.69   23.00
   5 -10   7   96.69   25.00
 -10   5  -7   97.49    9.50
 -10   5   7  119.79   23.40
  -5  10  -7   96.09    9.40
  10  -5  -7  124.89   21.60
  10  -5  -7  105.09   10.00
  10  -5   7   89.39   17.80
  -5  -5   7   88.29   26.20
  -5  -5  -7  104.29    9.60
 -10   4   7    1.40   18.10
   6 -10   7    6.40   20.50
   6   4  -7    7.80    5.40
   4 -10  -7    0.40    5.60
 -10   6  -7   -3.60    5.00
  10  -6   7   -7.00   15.50
  -4  -6  -7   -0.30    5.20
  10  -4  -7    1.90    5.30
  -6  10  -7    2.10    5.00
  -6  -4   7   27.90   22.80
  10  -4  -7   30.10   16.20
  -4  -6  -7    0.80   11.80
   3 -10  -7  190.38   12.50
   7   3  -7  178.98   12.20
 -10   3   7  184.58   26.10
   7 -10   7  177.68   26.90
 -10   7  -7  171.58   11.80
  -7  10  -7  171.28   11.80
  -3  -7  -7  180.88   12.40
  10  -3  -7  193.38   12.60
  10  -3  -7  202.98   24.30
  10  -7   7  159.28   23.50
  -3  -7  -7  163.58   21.90
  -7  -3   7  173.78   28.80
   2 -10  -7   22.30    6.50
   8 -10   7   43.10   19.80
 -10   2   7   18.20   20.00
 -10   8  -7   21.40    6.00
   2 -10  -7   26.90   22.10
   8   2  -7   15.70    6.10
  -2  -8  -7   24.80   15.60
  10  -8   7   26.90   15.70
  -2  -8  -7   25.20    6.00
  10  -2  -7   10.80   15.90
  10  -2  -7   23.80    6.00
  -8  10  -7   18.40    5.60
  -8  -2   7   21.00   21.70
   1 -10  -7   11.70    5.70
   9   1  -7   12.30    6.20
   9 -10   7   24.30   19.10
 -10   1   7   13.70   19.30
   9   1  -7    6.10   14.30
 -10   9  -7    3.10    5.40
   1 -10  -7   28.30   18.30
  10  -1  -7   20.10    7.40
  10  -9   7    9.90   16.70
  -9  10  -7    5.30    5.30
  10  -1  -7   12.80   15.60
  -1  -9  -7   15.10   15.70
  -1  -9  -7    9.60    5.60
  -9  -1   7   17.70   20.70
  10 -10   7  258.97   28.10
   0 -10  -7  236.48   29.40
 -10  10  -7  220.78   13.40
  10   0  -7  199.18   15.60
 -10   0   7  243.88   29.80
   0 -10  -7  236.88   13.60
  10   0  -7  295.67   26.60
   0  11  -7   72.39    8.80
   0 -11   7   51.69   24.60
  11 -11  -7   61.19   22.90
  11 -11  -7   81.39   10.00
  11   0   7  111.19   18.40
 -11   0  -7   89.39   10.10
  10 -11  -7  -20.60   18.30
  10 -11  -7   10.20    5.60
  10   1   7   26.70   14.60
   1  10  -7   16.80    5.60
 -11   1  -7   21.80    6.40
   1 -11   7   11.20   23.50
 -10  -1  -7   15.00    6.20
  11 -10  -7   21.10   19.00
  -1  11  -7   16.40    5.90
  11  -1   7    9.80   14.40
  -1 -10   7   -7.30   23.30
  11 -10  -7   25.90    6.30
   9 -11  -7  111.29    9.70
 -11   2  -7   92.99    9.40
   9   2   7   91.99   19.20
   2 -11   7  110.39   26.50
   2   9  -7   81.69    9.70
 -11   9   7  103.99   19.90
   9 -11  -7   73.79   21.40
  11  -2   7   73.89   17.50
  11  -9  -7  152.68   26.50
  -9  -2  -7   97.99    9.80
  -2  11  -7   97.79    9.60
  11  -9  -7   92.39   10.30
  -2  -9   7   79.49   27.10
   8 -11  -7    9.10   19.10
 -11   3  -7    2.10    5.60
   8   3   7   -8.50   16.00
   8 -11  -7    2.00    5.60
   3   8  -7    5.30    5.40
 -11   8   7   24.70   18.30
   3 -11   7    0.10   21.80
  11  -3   7    7.40   13.90
  11  -8  -7   10.00    5.60
  -3  11  -7   -4.30    5.00
  -8  -3  -7    9.50    5.80
  -3  -8   7   14.50   22.90
  11  -8  -7   47.60   19.60
   7 -11  -7  114.69   23.40
 -11   7   7   66.79   19.90
   4 -11   7  104.09   26.90
   7   4   7   90.19   18.10
   4   7  -7  100.49    9.30
   7 -11  -7   91.99    9.90
 -11   4  -7   95.19   10.40
  -4  -7   7   93.09   26.00
  -7  -4  -7   89.09    9.30
  11  -7  -7  121.59   22.30
  11  -4   7   69.99   16.80
  -4  11  -7   89.29    8.80
  11  -7  -7   93.39    9.90
   6   5   7   33.00   18.10
   5   6  -7   35.00    6.40
   6 -11  -7   75.99   22.10
   6 -11  -7   25.90    6.30
 -11   6   7   29.60   19.20
 -11   5  -7   24.40    6.60
   5 -11   7   32.10   21.90
  11  -6  -7   53.49   19.10
  11  -5   7   35.60   14.90
  -6  -5  -7   21.40    6.10
  11  -6  -7   21.70    6.00
  -5  -6   7  -16.80   21.80
  -5  11  -7   23.50    6.20
 -11   5   7   90.89   23.20
   6 -11   7  121.99   24.20
   5 -11  -7  125.49   24.50
 -11   6  -7   81.69    9.10
   5 -11  -7   99.59   10.30
   6   5  -7   89.29    9.60
  11  -6   7   97.39   17.70
  -5  -6  -7   83.49    9.30
  11  -5  -7  108.49   22.00
  11  -5  -7   97.19   10.00
  -6  -5   7   87.09   24.80
  -6  11  -7   74.89    8.80
  -5  -6  -7  131.19   18.40
   7   4  -7   28.70    6.90
 -11   7  -7   28.50    6.30
 -11   4   7   20.90   19.00
   4 -11  -7   24.30    6.20
   7 -11   7   41.60   19.80
   4 -11  -7   64.69   21.50
  -7  11  -7   22.80    6.30
  -4  -7  -7   32.10    6.60
  -7  -4   7    9.60   21.80
  11  -4  -7   24.40    6.70
  -4  -7  -7   29.80   14.30
  11  -7   7   12.00   15.40
   8   3  -7    9.00    6.00
   3 -11  -7   34.40   20.70
 -11   3   7   -3.10   18.00
 -11   8  -7   11.20    6.10
   8 -11   7   24.30   19.20
   3 -11  -7    8.60    5.80
  -8  -3   7    6.10   20.60
  11  -3  -7    5.70    5.80
  -3  -8  -7   -4.80   13.10
  -8  11  -7    5.20    5.20
  11  -8   7   -0.70   15.00
  11  -3  -7    2.50   15.70
  -3  -8  -7   -7.70    5.10
   9 -11   7   19.30   19.20
   2 -11  -7   22.50    6.50
 -11   9  -7   13.30    5.80
 -11   2   7   23.70   19.10
   9   2  -7   28.10    6.50
   2 -11  -7   38.40   20.40
  11  -9   7   30.80   16.30
  -2  -9  -7   17.20    6.30
  11  -2  -7   29.60   16.20
  -9  -2   7   22.70   19.90
  -2  -9  -7   36.50   17.40
  -9  11  -7   14.00    5.60
  10 -11   7    1.20   16.90
   1 -11  -7    0.50    5.50
  10   1  -7    5.40    6.00
   1 -11  -7   41.80   18.60
 -11   1   7   -4.30   18.00
  10   1  -7   16.00   14.50
 -11  10  -7    1.10    5.90
  11  -1  -7   12.60   15.40
  -1 -10  -7   -8.60   15.50
 -10  -1   7   -7.90   17.70
 -10  11  -7   -0.30    5.30
  -1 -10  -7   -1.00    5.30
  11 -10   7   12.90   16.10
   0 -11  -7   21.30    6.50
   0 -11  -7   32.50   19.30
 -11  11  -7   14.20    5.80
  11 -11   7   12.30   17.70
 -11   0   7    6.80   19.20
 -12   0  -7   21.00    6.80
  12   0   7   21.10   14.90
   0  12  -7   23.40    6.30
  12 -12  -7   39.20   22.00
   0 -12   7   11.50   23.40
  11 -12  -7    5.00   20.50
   1 -12   7   28.50   24.50
  11   1   7   36.40   15.80
   1  11  -7   44.60    7.10
 -12   1  -7   45.80    7.70
  12  -1   7   32.00   15.10
  12 -11  -7   39.00    6.70
  12 -11  -7   38.40   19.90
 -11  -1  -7   39.00    7.20
  -1  12  -7   46.60    6.70
  -1 -11   7   32.00   24.10
  10 -12  -7    5.50    5.90
  10 -12  -7  -45.00   18.10
 -12   2  -7   -0.70    5.70
  10   2   7   11.60   15.70
   2 -12   7  -17.10   23.30
   2  10  -7    2.40    5.40
  -2  12  -7    2.10    5.30
  12 -10  -7    1.60    5.70
  -2 -10   7  -16.20   22.10
 -10  -2  -7   -4.20    6.00
  12  -2   7    9.40   14.20
  12 -10  -7   -0.50   17.20
   3   9  -7  130.29   11.00
   3 -12   7  153.08   27.80
   9   3   7  135.89   20.40
 -12   3  -7  111.99   11.30
   9 -12  -7  195.48   31.00
 -12   9   7  171.58   24.40
   9 -12  -7  124.99   11.10
  12  -9  -7  111.09   11.20
  -3  12  -7  122.99    9.90
  -9  -3  -7  122.59   11.10
  -3  -9   7  121.19   27.80
  12  -3   7  117.29   19.10
  12  -9  -7  126.49   24.40
   8   4   7   15.40   16.90
   8 -12  -7    1.90    5.60
 -12   4  -7    5.20    5.90
   4 -12   7    6.60   23.60
 -12   8   7   59.59   18.10
   4   8  -7    8.70    5.80
   8 -12  -7   37.70   20.30
  12  -8  -7   24.90   18.70
  -4  -8   7  -10.30   23.50
  12  -4   7   -0.80   13.30
  12  -8  -7    2.50    5.60
  -4  12  -7    3.50    5.20
  -8  -4  -7    8.60    5.90
   7   5   7  206.88   25.50
 -12   5  -7  191.58   12.40
   5 -12   7  177.18   28.20
   5   7  -7  177.78   12.60
   7 -12  -7  168.18   11.90
 -12   7   7  209.48   27.30
   7 -12  -7  219.28   32.20
  -5  12  -7  165.28   11.50
  12  -7  -7  192.48   27.80
  12  -5   7  172.68   22.00
  -5  -7   7  184.38   29.90
  -7  -5  -7  184.28   12.80
  12  -7  -7  185.68   12.50
   6   6  -7   -5.40    5.80
 -12   6   7   12.20   17.60
   6 -12  -7   14.90    6.00
   6 -12   7    7.50   20.50
   6 -12  -7   16.30   19.40
 -12   6  -7    2.20    5.60
  -6  -6   7  -20.20   22.30
  -6  -6  -7    5.50    6.00
  12  -6  -7   17.10   16.80
  -6  -6  -7   -4.50   11.20
  12  -6  -7    4.20    5.80
  -6  12  -7   -5.80    4.90
  12  -6   7    1.10   13.20
 -12   7  -7  319.17   16.80
   5 -12  -7  336.57   16.70
   7   5  -7  324.07   17.30
 -12   5   7  324.87   32.20
   5 -12  -7  345.77   34.40
   7 -12   7  293.47   34.00
  -5  -7  -7  304.17   25.50
  12  -7   7  301.07   26.50
  -5  -7  -7  339.37   16.90
  -7  -5   7  309.37   34.90
  -7  12  -7  320.67   16.40
  12  -5  -7  328.67   17.20
  12  -5  -7  357.66   30.20
   8   4  -7  162.08   11.90
   8 -12   7  156.28   25.30
 -12   4   7  164.78   25.80
 -12   8  -7  127.49   10.60
   4 -12  -7  143.89   10.80
  12  -4  -7  140.69   11.80
  12  -8   7  105.49   19.30
  -8  12  -7  130.39   10.20
  -8  -4   7  115.19   25.30
  12  -4  -7  156.38   25.80
  -4  -8  -7  139.99   10.90
   3 -12  -7   72.09    8.90
   9   3  -7   58.99    8.10
 -12   3   7   83.09   20.40
 -12   9  -7   67.09    9.80
   9 -12   7   45.90   20.60
   3 -12  -7   78.99   23.20
  -9  -3   7   62.09   21.50
  -9  12  -7   62.59    8.60
  12  -3  -7   92.69   20.50
  -3  -9  -7   71.49   17.60
  12  -9   7   42.70   17.50
  -3  -9  -7   64.59    8.90
 -12   2   7  120.39   21.80
   2 -12  -7  124.79   10.90
   2 -12  -7  146.99   26.10
  10 -12   7  102.09   21.80
  10   2  -7  118.59   11.40
 -12  10  -7  104.79   10.00
  12  -2  -7  108.09   20.60
 -10  -2   7   92.29   22.60
  12 -10   7   79.29   18.40
 -10  12  -7  107.29    9.60
  -2 -10  -7  133.49   24.80
  -2 -10  -7  108.19   10.70
  12  -2  -7  125.89   13.40
   1 -12  -7   52.09   19.10
   1 -12  -7   45.40    7.00
 -12  11  -7   54.99    7.80
 -12   1   7   51.59   19.10
  11 -12   7   28.30   19.40
  11   1  -7   48.90   17.60
  12 -11   7   43.20   17.70
  12  -1  -7   65.39   17.40
  -1 -11  -7   71.49   19.90
  -1 -11  -7   38.90    7.00
 -11  -1   7   45.80   19.30
 -11  12  -7   40.40    6.70
 -12   0   7  193.88   27.80
  12   0  -7  241.48   26.20
 -12  12  -7  238.98   14.40
  12 -12   7  226.08   27.90
   0 -12  -7  245.68   14.70
   0 -12  -7  281.17   30.70
   0 -13   7   -5.50   22.80
   0  13  -7   37.50    7.10
 -13  13   7   30.80    6.00
  13   0   7   47.70   17.00
  13 -13  -7   45.60   23.40
 -13   0  -7   43.70    8.10
 -13   1  -7   10.10    6.50
   1 -13   7  -18.20   23.70
 -13  12   7   19.20    5.40
   1  12  -7   15.70    6.60
  12   1   7   40.20   16.80
  12 -13  -7    7.20   19.50
  13  -1   7    3.60   14.40
 -12  13   7   21.00    5.20
  13 -12  -7   33.50   20.30
 -12  -1  -7   14.20    6.50
  -1 -12   7  -16.10   23.70
  -1  13  -7   13.90    6.00
   2  11  -7   47.90    7.40
   2 -13   7   15.20   24.60
  11   2   7   52.59   16.50
 -13   2  -7   42.50    7.50
  -2  13  -7   37.50    6.80
  -2 -11   7   30.20   24.90
  13  -2   7   41.60   15.80
  13 -11  -7   64.29   21.50
 -11  -2  -7   38.90    7.40
 -13   3  -7   23.60    6.60
  10 -13  -7   -2.80   18.70
   3 -13   7   -7.30   23.00
   3  10  -7   14.20    5.90
  10   3   7   44.70   17.10
  13  -3   7   10.00   14.70
 -10  -3  -7   13.90    6.10
  -3 -10   7  -11.40   21.60
  -3  13  -7   23.00    6.40
  13 -10  -7   20.50    6.70
  13 -10  -7   28.80   20.50
   9   4   7   44.20   18.20
   4   9  -7   67.79   10.00
 -13   9   7   88.29   18.40
   4 -13   7   52.99   26.10
 -13   4  -7   56.79    8.10
   9 -13  -7   87.99   23.60
  -4  -9   7   44.80   24.70
  13  -9  -7   64.79    8.40
  -9  -4  -7   67.19    9.40
  13  -9  -7   86.69   20.60
  13  -4   7   61.79   16.40
  -4  13  -7   57.39    7.60
   8   5   7   42.00   17.40
   5   8  -7   44.50    7.60
 -13   5  -7   28.40    6.70
   8 -13  -7   35.90    6.50
   8 -13  -7   40.20   20.40
   5 -13   7   39.80   25.80
 -13   8   7   55.99   18.30
  -5  13  -7   37.70    6.80
  13  -8  -7   39.70    7.40
  13  -8  -7   58.99   19.90
  -8  -5  -7   26.10    6.60
  13  -5   7   26.80   16.20
  -5  -8   7   30.50   24.40
   6 -13   7    0.70   23.00
   7 -13  -7   46.80   23.30
   7 -13  -7   12.30    5.80
 -13   7   7   34.00   17.00
 -13   6  -7   13.10    6.30
   6   7  -7   15.40    6.30
  -7  -6  -7   13.40   12.00
  13  -6   7   26.50   15.70
  -7  -6  -7   10.80    5.90
  13  -7  -7   52.19   20.10
  -6  -7   7    2.20   22.30
  -6  13  -7   21.00    5.80
  13  -7  -7   17.00    6.40
   7 -13   7   38.20   23.80
   7   6  -7   45.30    7.50
 -13   6   7   23.90   17.00
   6 -13  -7   72.09   22.20
 -13   7  -7   38.40    7.10
   6 -13  -7   38.70    6.90
  13  -6  -7   24.40    6.50
  13  -6  -7   32.70   18.90
  -7  -6   7    3.80   21.10
  -6  -7  -7   30.10    6.60
  -7  13  -7   30.90    6.30
  13  -7   7   22.70   15.20
 -13   8  -7    3.70    5.80
 -13   5   7   -5.40   16.50
   8 -13   7  -10.30   20.20
   5 -13  -7    2.80    5.50
   8   5  -7   -8.00    6.00
   5 -13  -7   23.60   20.60
  13  -5  -7   -6.40    5.90
  -5  -8  -7   -3.50    5.50
  -8  -5   7  -17.70   19.40
  -5  -8  -7   14.60   13.50
  -8  13  -7    1.80    5.20
  13  -8   7    8.70   14.70
  13  -5  -7    9.40   16.40
   9   4  -7    1.10    6.00
   9 -13   7   -3.80   20.00
   4 -13  -7   20.80   21.00
   4 -13  -7    0.90    5.60
 -13   4   7   13.80   16.60
 -13   9  -7   -1.80    5.80
  -9  -4   7  -15.40   18.00
  -4  -9  -7    4.70    5.50
  13  -4  -7    5.10    8.90
  -9  13  -7    4.60    5.60
  -4  -9  -7    7.00   14.50
  13  -4  -7    9.20   16.70
  13  -9   7   -8.60   14.80
 -13  10  -7    0.60    6.20
   3 -13  -7   -2.80    5.40
  10 -13   7   -9.70   17.60
  10   3  -7   -0.40    6.50
   3 -13  -7   16.00   19.30
 -13   3   7    0.50   16.10
 -10  13  -7    7.10    5.50
  13 -10   7    4.40   15.40
  -3 -10  -7    4.10   15.60
 -10  -3   7    5.30   20.00
  -3 -10  -7   11.70    6.20
  13  -3  -7   10.90   17.80
 -13   2   7    8.40   16.00
   2 -13  -7   10.50    6.30
   2 -13  -7   46.90   19.90
 -13  11  -7    3.70    6.00
  11 -13   7   10.90   19.10
  11   2  -7    9.00   14.80
  13  -2  -7   12.00   16.00
 -11  13  -7    0.80    5.50
  -2 -11  -7    1.90    5.70
  -2 -11  -7   -0.10   17.70
  13 -11   7    3.00   16.20
 -11  -2   7    6.40   18.40
   1 -13  -7   51.19   21.50
 -13  12  -7   12.00    6.10
  12   1  -7   29.80   15.30
   1 -13  -7    9.00    6.10
  12 -13   7   11.50   19.70
 -13   1   7   25.90   16.70
 -12  13  -7   14.60    6.30
  -1 -12  -7   24.00    6.40
  13 -12   7   26.30   17.80
  -1 -12  -7   30.90   19.20
  13  -1  -7   32.60   17.00
 -12  -1   7   15.50   18.20
  13   0  -7    4.40   15.30
  13 -13   7   30.60   17.60
   0 -13  -7   25.10   19.10
 -13  13  -7   12.40    5.80
 -13   0   7   13.70   16.80
 -14  14   7    5.90    5.30
   0 -14   7  -27.60   21.30
   0  14  -7    4.20    6.10
  14 -14  -7   -3.80   20.20
 -14   0  -7   10.70    6.60
   1 -14   7   -0.90   24.70
 -14   1  -7    6.30    6.30
  13 -14  -7    3.70   19.20
 -14  13   7   22.10    5.80
  13   1   7   26.80   15.40
   1  13  -7    8.20    6.40
  14 -13  -7   28.30   20.40
  -1 -13   7  -16.00   23.90
 -13  14   7    7.10    5.10
 -13  -1  -7   14.00    6.30
  -1  14  -7    8.20    5.90
   2 -14   7  -26.90   23.20
 -14   2  -7    5.10    7.00
  12   2   7    8.70   16.20
 -14  12   7    7.20    5.00
   2  12  -7   -0.50    6.20
  14  -2   7   -2.00   14.80
  -2  14  -7   -6.90    5.70
  14 -12  -7    7.60   19.80
 -12  -2  -7   -2.90    6.50
 -12  14   7    4.00    5.00
  -2 -12   7  -16.00   22.40
 -14  11   7   94.19    9.10
  11   3   7   55.69   16.80
   3  11  -7   67.39    8.40
  11 -14  -7    0.10   21.30
   3 -14   7   27.80   25.60
 -14   3  -7   54.09    8.10
 -11  -3  -7   65.19    9.40
  -3  14  -7   74.69    8.60
  14 -11  -7   50.39   21.60
  14  -3   7   71.79   18.20
 -11  14   7   73.49    8.00
  -3 -11   7    9.40   23.70
 -14  10   7   15.50   16.00
 -14   4  -7    0.40    6.50
   4  10  -7   -5.30    5.80
  10   4   7    2.20   15.50
   4 -14   7  -28.30   22.00
  10 -14  -7    7.70   21.00
 -10  -4  -7   -0.10    5.90
 -10  14   7    1.10    4.60
  -4 -10   7   -1.10   22.70
  14  -4   7    5.00   14.50
  -4  14  -7   -0.40    5.50
  14 -10  -7   18.70   19.60
 -14   9   7  307.37   28.70
   5   9  -7  304.07   16.40
   9   5   7  339.07   28.60
 -14   5  -7  306.37   16.60
   5 -14   7  251.97   38.80
   9 -14  -7  285.47   36.00
  -9  14   7  290.27   15.10
  -5  14  -7  275.97   15.40
  -9  -5  -7  321.47   17.00
  14  -9  -7  319.07   32.90
  -5  -9   7  300.17   35.80
  14  -5   7  261.67   25.50
 -14   6  -7   13.00    6.60
 -14   8   7   13.10   15.40
   6   8  -7   14.70    6.50
   8 -14  -7   13.80   21.60
   6 -14   7   -9.80   23.50
  14  -8  -7    9.90    6.40
  14  -8  -7    5.80   18.00
  -8  -6  -7    5.00    6.40
  -6  -8   7   14.30   22.70
  14  -6   7   -3.50   14.40
  -6  14  -7   17.20    6.00
 -14   7   7  216.48   25.00
   7 -14   7  223.98   34.10
   7 -14  -7  262.57   31.40
   7   7  -7  236.78   14.60
 -14   7  -7  229.48   14.70
  14  -7  -7  256.97   29.50
  -7  -7   7  204.88   32.10
  -7  -7  -7  219.58   14.20
  -7  -7  -7  232.68   22.50
  -7  14  -7  206.38   12.90
  14  -7  -7  204.08   14.50
  14  -7   7  192.08   23.60
   8 -14   7  110.29   25.90
 -14   8  -7  132.19   11.60
   6 -14  -7  112.49   24.10
   8   6  -7  135.39   12.00
 -14   6   7  155.88   23.00
  -8  -6   7  115.29   25.40
  -6  -8  -7  128.39   11.50
  -6  -8  -7  133.19   21.40
  14  -6  -7  153.58   27.00
  -8  14  -7  118.49   10.10
  14  -8   7  105.39   18.20
  14  -6  -7  145.79   16.60
   5 -14  -7  208.68   33.00
   9   5  -7  162.88   13.40
 -14   5   7  189.88   26.80
 -14   9  -7  187.88   12.40
   9 -14   7  109.29   24.90
  -5  -9  -7  184.58   12.80
  -9  -5   7  132.09   24.70
  14  -5  -7  210.28   26.00
  14  -9   7  173.48   23.30
  -5  -9  -7  192.08   21.60
  -9  14  -7  154.58   11.50
  10 -14   7   87.59   23.40
 -14  10  -7   92.19   10.10
   4 -14  -7   96.39   24.20
 -14   4   7   79.89   18.80
  -4 -10  -7  102.69   20.50
  14  -4  -7   76.49   20.70
  -4 -10  -7   89.19   10.70
  14 -10   7   60.99   17.10
 -10  14  -7   74.29    9.80
 -10  -4   7  103.29   22.10
  11 -14   7   33.10   20.70
 -14  11  -7   71.09    8.60
 -14   3   7   69.99   17.80
   3 -14  -7  109.09   24.10
  -3 -11  -7   70.09    9.20
 -11  14  -7   63.89    8.00
 -11  -3   7   66.59   21.30
  14  -3  -7   67.09   19.50
  14 -11   7   48.90   17.70
  -3 -11  -7   49.50   18.00
   2 -14  -7  208.38   30.30
  12 -14   7  140.49   25.20
 -14   2   7  164.68   25.60
 -14  12  -7  171.08   12.80
  12   2  -7  170.58   23.80
  -2 -12  -7  152.88   11.90
 -12  -2   7  146.69   23.30
  -2 -12  -7  212.68   26.80
  14 -12   7  185.18   26.50
  14  -2  -7  192.68   26.50
 -12  14  -7  145.59   12.00
 -14  13  -7   22.50    6.50
 -14   1   7   31.60   16.30
  13   1  -7   50.09   17.40
   1 -14  -7   52.89   20.30
  13 -14   7   38.70   18.90
  -1 -13  -7   48.50   20.50
 -13  -1   7   33.00   16.80
  14 -13   7   59.49   17.60
  14  -1  -7   36.70   16.40
 -13  14  -7   27.40    6.60
  14   0  -7  200.28   25.30
   0 -14  -7  202.48   29.60
 -14  14  -7  174.38   12.20
  14 -14   7  213.18   26.80
 -14   0   7  193.78   24.80
 -15   0  -7    0.20    6.80
   0 -15   7    7.10   25.20
  15 -15  -7    0.30   20.40
 -15  15   7    5.50    5.70
   0  15  -7   -1.50    5.80
 -15  14   7   11.60    5.60
   1 -15   7    8.80   24.00
   1  14  -7    1.70    6.40
  14 -15  -7   20.60   22.40
 -15   1  -7   11.00    7.30
  15 -14  -7   20.30   20.90
 -14  -1  -7    6.10    7.10
 -14  15   7   12.40    5.60
  -1  15  -7   -8.80    5.70
  -1 -14   7    3.80   25.00
  13 -15  -7   18.80   20.60
  13   2   7   14.70   15.70
   2 -15   7   -7.80   23.70
 -15  13   7   28.30    6.10
 -15   2  -7   11.70    6.90
   2  13  -7   18.70    6.90
 -13  -2  -7   14.40    6.80
  15 -13  -7   24.60   20.00
 -13  15   7   23.10    5.60
  -2  15  -7   17.80    6.40
  -2 -13   7   40.30   25.20
   3 -15   7   -5.30   24.00
 -15  12   7    9.50    5.50
  12   3   7   18.70   16.30
 -15   3  -7    3.60    6.70
   3  12  -7    3.90    6.30
 -12  -3  -7    1.10    6.30
  -3 -12   7  -12.00   22.50
  15 -12  -7   21.40   20.90
  -3  15  -7    3.60    5.80
 -12  15   7    2.60    5.30
   4  11  -7   29.50    6.80
   4 -15   7   -7.00   24.40
 -15   4  -7   37.00    7.70
  11   4   7   27.50   16.70
  -4 -11   7   24.30   22.70
 -11  -4  -7   16.00    6.80
  15 -11  -7   37.40   20.40
  15  -4   7   14.90   15.50
  -4  15  -7   24.50    6.20
 -11  15   7   29.70    5.90
 -15   5  -7   11.60    6.90
   5  10  -7   23.00    7.40
 -15  10   7   47.70   15.80
   5 -15   7  -52.29   21.80
  10 -15  -7    0.60   20.50
  10   5   7   29.00   16.40
 -10  15   7   18.20    5.50
  15  -5   7    3.50   14.70
  15 -10  -7   21.00   19.90
 -10  -5  -7   21.20    7.00
  -5 -10   7   20.60   22.70
  -5  15  -7    7.20    5.80
   6 -15   7    3.50   23.80
 -15   6  -7   23.80    6.80
 -15   9   7   50.89   16.60
   6   9  -7   29.50    7.60
   9 -15  -7   23.30   21.70
  15  -9  -7    9.30   19.70
  -9  -6  -7   27.30    6.80
  -9  15   7   22.50    5.80
  -6  -9   7   -3.60   22.30
  15  -6   7   33.30   15.50
  -6  15  -7   18.30    6.00
   7 -15   7   43.50   25.30
 -15   8   7  116.59   19.60
 -15   7  -7   88.59   11.00
   7   8  -7  104.99   11.70
   8 -15  -7  104.49   25.00
  -8  -7  -7   91.79   10.30
  -7  -8   7   52.29   22.60
  -8  15   7   90.59    8.50
  -8  -7  -7   85.99   15.70
  15  -8  -7   63.49   20.10
  -7  15  -7   96.39   10.00
  15  -7   7   80.39   17.80
   8 -15   7  -19.20   22.00
 -15   7   7   -2.90   15.30
 -15   8  -7   12.90    6.90
   7 -15  -7   45.50   21.30
   8   7  -7   17.20    6.80
  15  -8   7   12.30   15.10
  -7  15   7    8.80    4.90
  -7  -8  -7   11.40   13.60
  -7  -8  -7    0.90    5.80
  15  -7  -7    8.60   18.30
  -8  15  -7    1.90    5.40
  -8  -7   7  -13.00   19.20
   9   6  -7   39.10    8.80
   6 -15  -7   77.59   23.80
 -15   9  -7   32.40    7.30
 -15   6   7   47.40   16.90
   9 -15   7   15.70   21.90
  -9  15  -7   45.20    7.10
  -9  -6   7   22.00   20.10
  15  -9   7   21.10   15.10
  15  -6  -7   46.00   19.40
  -6  -9  -7   34.40    7.00
  -6  15   7   32.90    5.80
  -6  -9  -7   30.40   15.80
 -15   5   7   -1.80   15.00
  10 -15   7    2.70   20.30
 -15  10  -7   -6.50    5.90
   5 -15  -7   47.40   22.90
  15  -5  -7   14.70   18.80
  -5 -10  -7    5.70    6.10
 -10  -5   7    8.90   18.70
  15 -10   7   -2.80   15.40
  -5 -10  -7    1.50   14.20
  -5  15   7    6.90    5.00
 -10  15  -7    4.60    5.60
   4 -15  -7   18.70   20.10
 -15   4   7   -3.60   15.00
 -15  11  -7    9.30    7.00
  11 -15   7  -14.00   19.70
 -11  -4   7   -8.50   16.80
  15  -4  -7   -7.00   16.50
  -4 -11  -7    4.40    5.80
  -4  15   7   -1.60    4.80
  -4 -11  -7    1.80   15.10
 -11  15  -7   -3.60    5.40
  15 -11   7   -2.30   14.90
  12 -15   7    8.60   19.20
   3 -15  -7   34.60   21.50
 -15  12  -7    1.20    6.00
 -15   3   7    9.90   16.40
  -3 -12  -7    1.50    5.90
  -3 -12  -7    7.20   16.20
 -12  -3   7   -5.70   16.40
  15  -3  -7   25.40   18.80
  15 -12   7   11.70   16.10
 -12  15  -7    3.30    5.70
  -3  15   7    5.10    5.10
 -15   2   7    2.30   15.70
 -15  13  -7   -4.30    6.00
  13 -15   7  -23.80   18.80
  13   2  -7  -10.40   15.80
   2 -15  -7   14.70   19.50
 -13  -2   7    1.40   15.60
  15 -13   7   13.30   16.70
  15  -2  -7    9.90   16.70
 -13  15  -7    1.60    5.60
  -2 -13  -7    3.70   16.30
  -2  15   7   -5.80    4.80
  14 -15   7    5.20   17.40
   1  14   7    8.00    5.40
 -15  14  -7   -0.20    5.60
   1 -15  -7    9.50   19.50
 -15   1   7   24.60   16.30
  14   1  -7    9.50   16.10
 -14  15  -7    7.80    6.40
 -14  -1   7   -1.40   14.50
  15  -1  -7   14.80   15.50
  -1  15   7    5.60    5.10
  -1 -14  -7    4.60   17.40
  15 -14   7    4.00   15.50
   0  15   7   11.50    5.60
   0 -15  -7   39.60   20.00
  15 -15   7    4.80   16.80
 -15  15  -7   11.40    6.10
 -15   0   7   21.40   15.40
  15   0  -7    4.80   15.10
  15 -16  -7    4.80   20.30
  16 -15  -7    7.20   20.30
  14 -16  -7    0.20   20.40
   2  14  -7   -0.30    6.60
   2 -16   7  -31.10   24.40
 -16  14   7    4.60    5.50
 -16   2  -7   17.50    7.70
  16 -14  -7   13.00   20.10
  -2 -14   7   31.60   24.30
 -14  16   7   11.00    5.60
 -14  -2  -7    6.30    6.80
  -2  16  -7   -3.20    5.80
 -16   3  -7   37.40    7.90
 -16  13   7   38.50    7.10
   3 -16   7    8.30   25.10
  13 -16  -7    6.00   20.60
  13   3   7   55.89   18.00
   3  13  -7   37.30    7.80
  -3  16  -7   30.50    7.20
 -13  -3  -7   50.09    8.20
  -3 -13   7   46.80   24.20
 -13  16   7   32.90    5.80
  16 -13  -7   44.50   20.30
 -16   4  -7   11.40    7.00
   4  12  -7    1.70    6.20
  12   4   7   24.10   15.80
 -16  12   7   18.70    6.00
   4 -16   7  -18.90   22.60
 -12  -4  -7   -9.90    5.80
  -4 -12   7   19.40   22.40
  16 -12  -7   11.30   20.80
 -12  16   7    8.30    5.20
  -4  16  -7    1.60    5.40
 -16   5  -7   45.60    8.00
   5  11  -7   37.90    8.10
   5 -16   7   -7.00   23.40
  11   5   7   78.59   19.00
 -11  16   7   41.80    6.60
 -11  -5  -7   39.70    8.10
  -5 -11   7   34.90   23.30
  16 -11  -7   39.10   20.50
  -5  16  -7   27.20    6.40
   6  10  -7   -4.80    6.80
 -16  10   7    9.90   14.20
  10 -16  -7    2.60   19.80
 -16   6  -7   12.00    7.00
   6 -16   7  -36.10   21.00
  -6  16  -7    4.90    5.50
  16  -6   7   -0.80   15.40
  16 -10  -7    5.90   20.60
 -10  -6  -7    0.50    6.10
  -6 -10   7    2.20   20.90
 -10  16   7    6.70    5.20
   9 -16  -7   80.79   23.50
   7   9  -7   78.99    9.50
   7 -16   7   37.70   24.00
 -16   9   7   68.69   17.00
 -16   7  -7   37.60    7.60
  -9  -7  -7   68.29   10.00
  16  -9  -7   67.59   21.00
  -7  16  -7   52.29    7.40
  16  -7   7   65.19   16.50
  -9  16   7   44.20    6.40
  -7  -9   7   39.90   21.00
  -9  -7  -7   34.10   14.10
   8 -16  -7    9.90   19.40
   8 -16   7  -21.40   23.30
   8   8  -7   -4.30    6.70
 -16   8   7   13.00   15.30
 -16   8  -7   -9.00    6.40
  16  -8   7   -7.50   14.70
  16  -8  -7   12.40   18.80
  -8  -8  -7    4.00    6.50
  -8  16   7    5.10    5.00
  -8  -8   7  -17.00   17.80
  -8  -8  -7   14.00   13.50
  -8  16  -7   -0.50    5.30
   7 -16  -7  193.98   29.60
 -16   7   7  150.78   23.20
   9 -16   7  113.39   27.40
 -16   9  -7  129.89   12.10
  16  -7  -7  153.48   25.90
  16  -9   7  130.09   20.00
  -7  -9  -7  157.48   22.10
  -7  16   7  146.09   10.30
  -9  -7   7  125.09   23.90
  -9  16  -7  133.39   10.60
  -7  -9  -7  152.58   12.30
 -16   6   7   54.49   17.20
   6 -16  -7   79.59   24.60
 -16  10  -7   29.10    7.30
  10 -16   7   20.90   22.60
  16 -10   7   26.20   15.70
 -10  16  -7   29.60    6.50
 -10  -6   7   29.80   19.00
  -6 -10  -7   39.60    7.20
  16  -6  -7   50.89   20.80
  -6  16   7   53.99    6.80
  -6 -10  -7   51.19   17.10
  11 -16   7   53.49   23.10
 -16  11  -7   68.19    8.90
 -16   5   7   54.39   16.30
   5 -16  -7  111.89   25.90
 -11  -5   7   39.90   18.50
  -5 -11  -7   64.09    9.30
 -11  16  -7   52.49    7.40
  -5  16   7   63.09    7.50
  -5 -11  -7   64.39   18.60
  16  -5  -7   49.90   18.90
  16 -11   7   52.89   17.50
 -16  12  -7  107.69   10.80
  12 -16   7   82.79   23.00
 -16   4   7  112.69   19.70
   4 -16  -7  166.98   28.50
  -4  16   7  104.29    9.80
  16 -12   7   86.29   18.30
  -4 -12  -7  132.09   24.60
  16  -4  -7  127.09   22.70
 -12  16  -7   99.69   10.40
 -12  -4   7  108.19   20.30
 -16   3   7   41.30   15.50
 -16  13  -7   22.30    7.50
  13 -16   7   31.50   20.90
   3 -16  -7   21.00   19.40
 -13  -3   7   31.10   17.40
  16  -3  -7   46.30   19.50
  16 -13   7   20.20   16.70
 -13  16  -7   23.20    6.60
  -3  16   7   20.70    5.70
  -3 -13  -7   62.29   19.50
 -16  14  -7  119.29   11.70
  14 -16   7  105.19   23.90
   2 -16  -7  154.98   27.00
 -16   2   7   89.19   17.70
  14   2  -7   95.39   20.20
   2  14   7  127.19    9.90
  -2  16   7  116.79    9.80
 -14  -2   7  120.09   19.80
 -14  16  -7  101.09   10.10
  16  -2  -7  133.39   24.60
  16 -14   7  109.09   20.50
  -2 -14  -7  104.09   21.40
  15   1  -7   32.80   16.60
   1 -16  -7   49.60   21.40
  16  -1  -7   67.99   19.00
  -1 -15  -7   47.70   18.90
   4  13  -7    2.70    6.50
   4 -17   7   -9.90   24.20
  13 -17  -7  -36.80   18.00
  13   4   7   18.20   16.10
 -17   4  -7   10.30    7.30
  -4 -13   7   20.50   22.90
 -13  -4  -7    5.80    7.10
  -4  17  -7    8.20    6.20
  17 -13  -7   10.00   20.60
 -13  17   7    9.60    5.10
 -17   5  -7  128.39   12.60
   5 -17   7   84.69   27.80
   5  12  -7   91.69   11.60
  12   5   7  162.68   25.10
 -12  17   7  103.49    9.50
  -5 -12   7   86.99   23.90
  17 -12  -7   94.99   22.80
 -12  -5  -7   97.59   11.60
  -5  17  -7   77.99   10.00
 -17   6  -7   -5.70    6.40
  11 -17  -7  -48.80   19.00
 -17  11   7   29.70   17.40
   6 -17   7  -47.90   22.30
   6  11  -7    3.90    7.00
 -11  -6  -7    1.00    5.90
 -11  17   7    5.40    5.10
  17 -11  -7   11.00   20.10
  -6  17  -7    0.70    5.70
  -6 -11   7   -0.10   19.30
 -17  10   7   56.69   15.50
   7  10  -7   39.00    8.60
  10 -17  -7   52.99   23.30
   7 -17   7  -19.20   23.20
 -17   7  -7   37.40    8.50
  17  -7   7   36.00   15.50
  -7 -10   7   41.70   20.60
 -10  -7  -7   29.80    7.50
  17 -10  -7   48.50   20.00
  -7  17  -7   34.90    7.00
 -10  17   7   30.10    5.90
 -17   8  -7   -0.60    6.80
   9 -17  -7   24.10   22.80
   8 -17   7  -44.40   21.40
 -17   9   7   12.00   13.10
  -8  17  -7    3.20    5.50
  -9  -8  -7   -6.40   13.00
  -9  -8  -7    7.40    6.50
  -8  -9   7  -17.90   18.20
  -9  17   7    7.60    5.00
  17  -9  -7   11.30   19.20
  17  -8   7   -2.40   14.00
 -17   9  -7   40.60    8.30
   8 -17  -7   80.59   24.10
   9 -17   7   24.00   23.50
 -17   8   7   52.59   15.20
  -9  -8   7   52.59   21.30
  -8  -9  -7   28.70    6.90
  17  -8  -7   47.40   19.40
  -9  17  -7   36.40    6.70
  -8  -9  -7   38.70   15.20
  -8  17   7   35.00    6.20
  17  -9   7   41.70   16.60
 -17   7   7   24.90   14.60
   7 -17  -7   46.50   22.80
  10 -17   7  -21.60   21.30
 -17  10  -7    6.70    6.70
  -7  17   7   10.50    5.40
  17 -10   7    8.80   15.10
  -7 -10  -7    0.80    6.30
  17  -7  -7    6.50   19.10
 -10  17  -7    2.40    5.40
 -10  -7   7    6.20   16.90
  -7 -10  -7   14.70   14.30
   6 -17  -7   18.20   21.90
  11 -17   7  -36.20   20.20
 -17   6   7    7.60   13.90
 -17  11  -7   -9.10    6.60
  -6 -11  -7   10.40   14.30
  17  -6  -7   13.30   18.80
 -11  -6   7  -20.50   15.50
 -11  17  -7  -13.00    5.50
  17 -11   7    7.30   14.90
  -6  17   7    1.30    5.00
  12 -17   7   -9.60   19.50
 -17   5   7    2.50   13.50
 -17  12  -7    5.70    6.80
   5 -17  -7   32.40   22.00
  -5 -12  -7  -12.30   14.10
  17 -12   7  -11.40   14.30
  -5  17   7   -1.70    4.80
  17  -5  -7    2.50   17.30
 -12  -5   7    4.60   15.90
 -12  17  -7  -13.70    5.20
 -17  13  -7    9.40    7.30
   4  13   7   12.90    5.70
  13 -17   7   -4.00   19.90
 -17   4   7    0.00   13.20
   4 -17  -7   22.00   19.60
  -4 -13  -7   16.80   15.90
  17 -13   7   11.40   15.40
 -13  17  -7   -2.50    5.70
 -13  -4   7    9.90   15.60
  17  -4  -7   18.40   18.00
  -4  17   7    6.10    5.20
   0   0   8   35.40   23.30
   0   0  -8   47.60    6.80
   1  -1  -8   36.30    7.00
   1   0   8   12.60   22.20
   0  -1   8   52.19   25.00
   0   1  -8   29.40    6.50
  -1   0  -8   20.90    6.10
  -1   1   8   25.40   22.30
  -1   0   8   11.90   22.40
   0  -1  -8    0.70    5.70
   0   1   8    4.10   22.90
  -1   1  -8   -4.20    5.30
   1   0  -8   -0.60    5.20
   1  -1   8  -12.70   22.30
  -2   2   8   81.99   25.80
   0  -2   8   58.19   24.70
   0   2  -8   56.89    7.60
   2  -2  -8   49.70    7.20
  -2   0  -8   62.19    8.40
   2   0   8   69.39   23.10
   1   1  -8   -1.40    5.50
  -2   1   8   -5.70   23.00
   1  -2   8   15.80   23.10
   1  -2  -8    4.70    5.50
  -2   1  -8   -4.20    5.50
   1   1   8   22.00   23.30
  -1   2   8   19.50   23.90
   2  -1   8  -18.90   21.20
   2  -1  -8    3.20    5.80
  -1   2  -8   -2.30    5.40
  -1  -1   8    8.50   23.40
  -1  -1  -8    3.30    5.30
   2   0  -8    7.80    5.60
  -2   0   8    7.40   22.60
   2  -2   8   29.80   21.90
  -2   2  -8    1.80    5.10
   0   2   8   16.70   23.40
   0  -2  -8    1.90    5.30
  -3   0  -8  196.58   12.90
  -3   3   8  210.98   34.10
   0  -3   8  138.99   28.50
   3   0   8  193.68   31.20
   3  -3  -8  213.28   12.80
   0   3  -8  190.78   12.50
  -3   2   8   64.29   25.60
   1  -3   8   50.89   24.10
  -3   1  -8   60.49    8.80
   2   1   8   62.59   25.00
   1   2  -8   58.29    7.40
   2  -3  -8   45.40    7.10
  -1  -2   8   68.89   24.90
   3  -1   8   58.79   24.30
  -2   3   8   54.89   24.10
   3  -2  -8   60.49    7.80
  -1   3  -8   40.80    6.90
  -2  -1  -8   40.80    7.00
   1  -3  -8   38.90    6.90
   2  -3   8   52.79   23.60
  -3   2  -8   41.60    6.70
   1   2   8   66.89   24.20
   2   1  -8   53.39    7.70
  -3   1   8   56.19   24.80
  -2   3  -8   40.00    6.70
  -1   3   8   58.79   25.10
   3  -2   8   43.60   22.20
  -1  -2  -8   46.50    7.40
   3  -1  -8   36.30    6.80
  -2  -1   8   50.09   24.80
   3  -3   8  139.29   26.70
   0  -3  -8  171.88   11.90
  -3   3  -8  174.58   12.30
   0   3   8  195.98   30.70
  -3   0   8  199.78   31.90
   3   0  -8  177.08   12.30
   0   4  -8   15.10    6.20
  -4   0  -8    9.90    5.70
   4  -4  -8   11.30    6.10
  -4   4   8   58.29   26.30
   0  -4   8   43.60   23.50
   4   0   8   -6.50   19.30
   1   3  -8   -2.70    5.20
   3  -4  -8   -1.30    5.70
  -4   1  -8    1.00    5.40
  -4   3   8   -6.70   23.80
   3   1   8    9.50   22.30
   1  -4   8   -0.60   22.80
   4  -3  -8    4.80    5.80
  -1  -3   8  -10.60   22.90
   4  -1   8   -6.20   19.20
  -1   4  -8    1.90    5.90
  -3  -1  -8    0.70    5.70
  -3   4   8    0.90   24.00
   2   2  -8   -1.70    5.30
   2  -4   8    3.00   22.00
  -4   2   8  -13.60   23.70
   2   2   8   -4.80   21.50
  -4   2  -8    7.30    5.90
   2  -4  -8    2.60    5.60
   4  -2   8  -10.00   18.50
  -2  -2   8   -9.80   21.60
  -2  -2  -8   -0.70    5.50
   4  -2  -8   -1.00    5.50
  -2   4  -8   -2.50    5.20
  -2   4   8   16.40   23.00
   1  -4  -8   15.70    6.10
   3  -4   8    6.20   21.80
   1   3   8   23.30   23.20
  -4   3  -8   21.60    6.20
   3   1  -8   13.80    6.10
  -4   1   8   35.00   25.60
   4  -1  -8   20.70    6.70
  -1   4   8    8.70   23.00
  -3   4  -8   13.80    6.00
   4  -3   8   15.50   20.80
  -3  -1   8   23.00   23.90
  -1  -3  -8   16.80    5.90
   4  -4   8   -5.10   21.40
   0  -4  -8    6.50    5.90
  -4   4  -8    3.80    5.50
  -4   0   8    1.30   22.60
   4   0  -8    6.00    5.80
   0   4   8   24.60   23.30
  -5   5   8  166.18   30.60
  -5   0  -8  151.08   11.60
   5  -5  -8  160.08   12.20
   5   0   8  171.58   27.20
   0  -5   8  133.29   28.30
   0   5  -8  173.68   11.90
  -5   4   8   92.79   26.40
   1  -5   8   69.69   25.30
   4   1   8   74.39   22.40
   4  -5  -8   86.19    9.30
   1   4  -8   76.39    9.30
  -5   1  -8   72.19    9.20
   5  -4  -8   74.79    9.50
  -4   5   8   74.19   25.70
  -4  -1  -8   78.09    9.30
  -1   5  -8   90.99    9.10
   5  -1   8   75.29   22.30
  -1  -4   8   56.89   26.10
  -5   2  -8   99.89    9.90
   3  -5  -8  109.79   10.00
   2  -5   8  105.69   26.00
   2   3  -8  110.79   10.70
  -5   3   8  118.59   29.20
   3   2   8  111.39   26.80
   5  -2   8   90.09   22.80
  -2  -3   8  106.59   27.00
   5  -3  -8  118.09   10.80
  -2   5  -8  104.19    9.60
  -3  -2  -8  108.09   10.80
  -3   5   8  128.09   28.30
  -5   2   8  152.38   30.30
   3  -5   8   84.09   25.30
  -5   3  -8  129.89   11.30
   2   3   8  136.89   26.70
   3   2  -8  160.98   11.70
   2  -5  -8  132.59   10.60
   5  -2  -8  124.09   11.40
  -3  -2   8  127.59   28.50
   5  -3   8  141.29   25.80
  -2   5   8  156.28   30.90
  -2  -3  -8  119.99   10.70
  -3   5  -8  130.29   11.10
   1  -5  -8   24.30    6.30
   4  -5   8   21.60   21.60
   4   1  -8   28.90    7.20
  -5   4  -8   20.10    6.30
   1   4   8    9.10   23.60
  -5   1   8   11.00   24.90
  -1  -4  -8   28.20    6.50
  -4  -1   8   52.59   25.20
  -1   5   8   27.80   24.10
  -4   5  -8   22.90    6.00
   5  -1  -8   21.60    6.20
   5  -4   8   20.10   19.70
   5   0  -8  249.28   14.50
   0  -5  -8  231.78   13.90
  -5   0   8  289.67   35.60
  -5   5  -8  230.48   13.60
   5  -5   8  244.08   30.90
   0   5   8  154.28   28.90
  -6   0  -8   37.10    7.00
  -6   6   8   39.80   25.70
   0   6  -8   61.89    8.70
   6   0   8   25.30   20.10
   0  -6   8   50.89   25.50
   6  -6  -8   45.70    7.30
  -6   5   8   -9.00   25.40
   5  -6  -8   -1.20    5.50
  -6   1  -8    2.00    5.50
   1  -6   8  -10.20   22.30
   1   5  -8    3.20    5.70
   5   1   8   -7.00   18.80
   6  -5  -8   -2.00    5.40
  -1  -5   8   13.80   24.30
  -1   6  -8    0.60    5.50
  -5   6   8  -12.50   23.30
  -5  -1  -8   -2.00    5.50
   6  -1   8   19.60   21.10
   2   4  -8    2.40    5.90
   4  -6  -8   -0.10    5.60
   4   2   8    4.20   21.00
   2  -6   8    5.10   23.50
  -6   2  -8   -2.80    5.60
  -6   4   8   -1.50   23.90
  -2  -4   8  -23.40   23.60
  -4   6   8   -5.80   22.60
   6  -2   8  -10.70   18.30
  -2   6  -8    9.20    5.80
  -4  -2  -8   -6.10    5.40
   6  -4  -8    1.90    6.00
   3  -6  -8    7.70    6.00
  -6   3   8   19.80   23.20
   3  -6   8   -5.00   22.40
   3   3   8    3.60   23.10
   3   3  -8    1.20    5.50
  -6   3  -8    0.80    5.40
  -3  -3   8    3.70   23.10
   6  -3   8   21.70   19.20
   6  -3  -8   11.70    6.20
  -3  -3  -8    6.00    5.60
  -3   6  -8   -4.10    5.40
  -3   6   8   23.10   25.60
   4  -6   8   25.70   22.10
  -6   2   8   23.60   25.00
   2   4   8   -7.70   22.60
   2  -6  -8   16.30    6.50
   4   2  -8    8.80    6.10
  -6   4  -8   13.50    6.20
   6  -4   8   12.10   19.90
  -4   6  -8   17.10    6.30
   6  -2  -8   15.90    6.60
  -2  -4  -8   20.20    6.20
  -2   6   8   28.50   25.10
  -4  -2   8   21.00   24.50
   5   1  -8   21.40    6.50
   1   5   8   21.60   22.70
   5  -6   8    2.60   22.60
  -6   1   8   17.40   23.50
   1  -6  -8   31.40    6.80
  -6   5  -8   16.40    6.20
   6  -5   8   10.00   20.20
  -5   6  -8   14.70    5.90
  -1  -5  -8   20.10    6.10
  -1   6   8   36.10   25.80
  -5  -1   8   40.40   24.60
   6  -1  -8   17.90    6.30
   0   6   8   45.40   25.00
  -6   0   8   65.69   26.20
  -6   6  -8   62.99    7.80
   6  -6   8   35.40   21.60
   6   0  -8   55.49    8.10
   0  -6  -8   65.39    9.10
   7  -7  -8  179.28   12.60
   7  -7  -8  266.57   33.60
   0   7  -8  180.48   12.70
   0  -7   8  156.18   29.50
  -7   7   8  272.67   38.40
   7   0   8  202.38   31.00
  -7   0  -8  187.38   12.70
   1  -7   8   19.30   23.00
   6   1   8   44.60   21.60
  -7   6   8   74.69   26.70
   1   6  -8   37.50    7.00
   6  -7  -8   42.50    7.50
  -7   1  -8   24.40    6.50
   7  -6  -8   39.60    7.20
   7  -1   8   28.20   20.00
  -1  -6   8    8.10   24.30
  -1   7  -8   30.60    6.50
  -6  -1  -8   18.10    6.50
  -6   7   8   41.10   25.90
   2   5  -8  172.58   11.90
   2  -7   8  171.38   28.90
   5  -7  -8  187.88   12.40
  -7   5   8  236.08   37.70
  -7   2  -8  173.08   12.30
   5   2   8  141.49   25.10
  -5   7   8  210.28   34.20
  -2   7  -8  177.28   11.90
   7  -5  -8  169.08   12.00
  -2  -5   8  125.49   29.10
  -5  -2  -8  159.98   12.00
   7  -2   8  157.48   25.80
   4   3   8  142.59   26.80
  -7   3  -8  141.29   11.20
   3  -7   8  178.78   28.60
   3   4  -8  152.58   11.50
  -7   4   8  140.69   27.90
   4  -7  -8  154.68   12.10
   7  -3   8  151.58   24.80
  -3  -4   8  107.59   27.60
   7  -4  -8  156.48   12.30
  -3   7  -8  143.69   11.00
  -4  -3  -8  150.68   11.50
   3   4   8   67.99   26.00
   3  -7  -8   67.99    8.20
  -7   4  -8   56.69    7.90
  -7   3   8   45.80   25.60
   4   3  -8   49.40    7.40
   4  -7   8   46.10   24.90
   7  -4   8   37.50   20.30
   7  -3  -8   66.59    9.10
  -4  -3   8   88.19   28.00
  -3  -4  -8   56.59    8.00
  -4   7  -8   64.69    8.60
   2  -7  -8  191.58   12.50
   5  -7   8  117.19   26.50
   5   2  -8  184.88   12.60
   2   5   8  137.39   27.10
  -7   2   8  185.38   30.60
  -7   5  -8  173.78   12.40
   7  -2  -8  196.08   13.40
  -2  -5  -8  188.38   12.30
  -5  -2   8  186.98   30.80
  -5   7  -8  190.48   12.20
   7  -5   8  213.08   28.70
   6   1  -8   24.60    7.10
   6  -7   8   24.10   21.30
  -7   6  -8   28.00    6.30
  -7   1   8   32.30   24.80
   1  -7  -8   33.60    7.10
  -1  -6  -8   20.90    6.50
  -6  -1   8   29.40   26.40
   7  -1  -8   21.10    6.90
  -6   7  -8   24.90    6.40
   7  -6   8   12.00   19.00
   0  -7  -8  291.57   16.00
   7   0  -8  298.17   16.20
  -7   7  -8  279.27   15.80
   7  -7   8  299.87   33.00
  -7   0   8  300.37   37.10
   8   0   8    9.90   19.90
   8  -8  -8   13.40    6.80
   0  -8   8    4.90   24.10
   0   8  -8    7.30    6.50
  -8   0  -8    0.90    5.90
   8  -8  -8   10.60   20.70
   1   7  -8    4.50    6.00
  -8   1  -8   -3.00    5.70
  -8   7   8   36.60   25.10
   1  -8   8   14.60   24.00
   7  -8  -8   51.39   23.60
   7   1   8   -1.20   19.60
   7  -8  -8    9.40    6.20
   8  -7  -8  -18.80   21.20
  -7  -1  -8    0.60    5.90
  -1   8  -8   -3.90    5.50
   8  -7  -8   -2.70    5.80
   8  -1   8   21.40   19.10
  -1  -7   8    0.60   22.60
  -8   2  -8   14.50    6.20
   6  -8  -8   21.00    6.50
   2  -8   8   32.20   24.20
   6   2   8   18.00   22.00
  -8   6   8   53.29   25.80
   2   6  -8   19.70    6.20
  -6  -2  -8   16.00    6.30
  -2  -6   8   23.70   25.10
   8  -6  -8   23.10    6.80
   8  -2   8   16.30   19.40
  -2   8  -8    9.90    6.00
  -8   5   8   13.30   22.40
   5  -8  -8   51.89   25.70
   5  -8  -8    1.00    6.00
   5   3   8    3.50   20.00
   3   5  -8   -0.90    5.70
   3  -8   8   -6.60   22.50
  -8   3  -8    0.40    5.60
   8  -5  -8    1.30    6.10
  -3  -5   8   -4.00   24.10
   8  -3   8    3.50   18.50
  -5  -3  -8    0.70    5.90
  -3   8  -8   -2.40    5.60
  -8   4  -8    5.90    6.20
   4  -8  -8    4.40    5.80
   4   4  -8    1.60    6.00
   4   4   8  -14.50   20.80
   4  -8   8   -7.50   22.30
  -8   4   8   32.10   24.50
   8  -4   8    3.40   19.10
  -4   8  -8   -0.70    5.40
  -4  -4  -8    5.10    5.90
  -4  -4   8    0.00   22.80
   8  -4  -8   -1.30    5.90
   5   3  -8    9.40    5.90
   3  -8  -8   -2.10    5.80
   5  -8   8   -9.60   21.50
  -8   5  -8    3.00    5.80
  -8   3   8   -8.90   22.60
   3   5   8   -0.60   23.10
   8  -3  -8   -5.70    6.20
  -3  -5  -8    2.50    5.90
  -5  -3   8   16.90   25.30
  -5   8  -8   -1.80    5.90
   8  -5   8  -21.40   18.80
   6   2  -8   17.30    6.70
   6  -8   8   12.90   22.90
  -8   6  -8    9.00    5.90
   2  -8  -8   18.40    6.40
  -8   2   8   14.90   23.50
  -6   8  -8   19.30    6.40
  -6  -2   8   15.80   25.00
  -2  -6  -8   14.10    6.20
   8  -2  -8   26.20    6.80
   8  -6   8   18.90   20.20
   7  -8   8   26.00   21.40
  -8   7  -8   11.00    5.90
  -8   1   8   36.50   24.50
   1  -8  -8   11.60    6.00
   7   1  -8   13.00    6.80
   8  -1  -8   18.40    6.80
  -1  -7  -8   11.40    6.20
  -7  -1   8  -10.20   24.40
   8  -7   8   25.10   19.70
  -7   8  -8    6.40    5.80
   8   0  -8   33.70    7.80
   0  -8  -8   22.60    6.50
  -8   8  -8   31.70    7.10
  -8   0   8   34.30   23.80
   8  -8   8   18.80   21.30
   0   9  -8  170.98   12.10
   9  -9  -8  107.19   27.40
   0  -9   8  161.68   30.10
  -9   0  -8  205.98   13.70
   9  -9  -8  198.28   12.80
   9   0   8  187.18   29.10
  -9   1  -8   15.30    6.60
   8  -9  -8   19.90    6.90
  -9   8   8   58.49   23.50
   1  -9   8   31.90   25.50
   8   1   8   26.80   19.70
   1   8  -8   12.60    6.30
   8  -9  -8   24.90   22.10
  -8  -1  -8   21.50    6.70
   9  -8  -8   27.70    7.20
  -1  -8   8   22.70   24.80
   9  -1   8   42.70   18.90
  -1   9  -8   21.40    6.80
   7   2   8   87.29   22.20
   2   7  -8  100.69   10.80
   2  -9   8   78.59   26.80
  -9   7   8  150.58   27.50
  -9   2  -8  113.89   10.90
   7  -9  -8  132.69   26.90
   7  -9  -8  107.39   11.30
   9  -7  -8  110.59   11.10
   9  -2   8  109.79   22.10
   9  -7  -8  108.79   25.00
  -7  -2  -8   98.99   10.50
  -2  -7   8  109.29   27.10
  -2   9  -8   93.09    9.70
  -9   6   8   94.99   25.10
  -9   3  -8   44.60    7.70
   6   3   8   51.59   23.30
   6  -9  -8   38.10    7.30
   3   6  -8   30.90    6.70
   6  -9  -8   96.89   25.40
   3  -9   8   40.00   24.40
  -6  -3  -8   30.80    7.00
   9  -3   8   34.10   19.50
  -3  -6   8   37.60   24.90
   9  -6  -8   29.50    7.10
   9  -6  -8   20.60   27.30
  -3   9  -8   42.50    6.90
   4  -9   8   79.69   25.30
  -9   4  -8   99.19   10.40
   5   4   8   85.49   24.20
   4   5  -8   85.69   10.60
  -9   5   8   73.29   23.80
   5  -9  -8   83.69    9.80
   9  -5  -8   91.29   11.10
   9  -4   8   99.69   22.10
  -4   9  -8   88.29    9.30
  -4  -5   8   73.99   26.70
  -5  -4  -8   82.69    9.70
  -9   5  -8   73.19    9.60
  -9   4   8  101.09   26.00
   5   4  -8   70.59   10.30
   5  -9   8   82.09   25.60
   4  -9  -8   78.59    9.70
   4   5   8   64.79   25.30
  -4  -5  -8   80.59    9.60
   9  -4  -8   82.29   10.50
   9  -5   8   85.49   21.60
  -5  -4   8   60.09   25.80
  -5   9  -8   76.09    9.90
  -9   6  -8   18.30    6.40
   6  -9   8   20.00   23.40
   3  -9  -8   47.70   22.50
   6   3  -8   13.60    6.40
   3  -9  -8   10.50    6.30
  -9   3   8   30.90   22.70
  -6  -3   8   -6.60   23.00
  -6   9  -8    7.20    6.00
   9  -6   8    3.80   19.50
  -3  -6  -8   14.40    6.60
   9  -3  -8    6.10    6.30
   2  -9  -8  148.69   11.70
  -9   2   8  140.09   27.10
   7  -9   8  128.79   25.10
   7   2  -8  171.48   12.90
  -9   7  -8  149.69   11.40
   9  -2  -8  169.28   13.00
  -7   9  -8  152.98   12.00
  -7  -2   8  121.89   28.20
   9  -7   8  111.39   23.70
  -2  -7  -8  153.98   11.70
   8   1  -8   19.70    7.20
  -9   1   8    3.30   22.30
   1  -9  -8   17.60    6.50
   8  -9   8   21.80   21.20
  -9   8  -8   14.50    6.60
  -1  -8  -8   18.80    6.40
  -8  -1   8   11.10   23.80
   9  -1  -8   23.80    7.40
   9  -8   8   35.20   20.40
  -8   9  -8   25.50    6.50
   9   0  -8  129.09   12.00
   9  -9   8  107.09   24.40
   0  -9  -8  140.39   11.70
  -9   9  -8  122.19   10.80
  -9   0   8  101.29   25.50
  10   0   8   91.99   22.10
 -10   0  -8   73.19    9.90
   0  10  -8   74.49   10.00
  10 -10  -8   80.09   10.90
   0 -10   8   49.10   26.00
  10 -10  -8   91.79   27.20
   1   9  -8   10.70    6.60
   9 -10  -8   18.10    7.20
   9 -10  -8  -32.50   21.30
 -10   1  -8    1.30    6.20
   1 -10   8  -19.90   23.40
   9   1   8   -7.70   18.10
  -1  -9   8  -18.10   24.30
  -1  10  -8    6.50    6.00
  -9  -1  -8    7.40    6.80
  10  -1   8    1.80   17.70
  10  -9  -8    9.80    6.60
  10  -9  -8   36.40   23.20
   2   8  -8   54.89    8.20
 -10   2  -8   46.00    7.70
 -10   8   8   82.59   25.20
   2 -10   8   25.00   24.70
   8   2   8   46.00   20.90
   8 -10  -8   67.29    8.60
   8 -10  -8   87.69   26.80
  -8  -2  -8   56.29    8.20
  -2  10  -8   55.09    7.80
  10  -8  -8   48.20    8.00
  -2  -8   8   25.20   25.80
  10  -2   8   38.80   18.70
  10  -8  -8   94.59   23.50
   7 -10  -8   53.69   23.90
   7 -10  -8   -2.70    5.80
   3   7  -8   -0.80    5.90
 -10   3  -8    1.30    5.90
 -10   7   8   49.60   24.20
   3 -10   8   12.70   24.30
   7   3   8  -19.30   20.10
  10  -7  -8    2.80    6.60
  -3  -7   8   -3.80   24.60
  -7  -3  -8   -2.00    5.80
  -3  10  -8   -0.50    6.10
  10  -7  -8   71.19   25.20
  10  -3   8   -7.10   17.60
 -10   4  -8    5.40    6.20
   4   6  -8   11.90    6.20
   4 -10   8    8.70   24.00
   6   4   8    5.60   21.50
   6 -10  -8   -2.50    6.00
   6 -10  -8   72.79   25.20
 -10   6   8    1.00   23.00
  10  -4   8  -13.90   16.80
  -4  10  -8   -0.80    5.90
  -4  -6   8  -14.80   23.30
  -6  -4  -8   -0.60    5.70
  10  -6  -8    0.70    6.40
   5   5  -8    8.60    6.30
   5 -10   8   -5.20   23.10
 -10   5   8   12.10   21.10
   5 -10  -8    3.00    6.00
   5 -10  -8   85.69   25.50
 -10   5  -8   -1.90    5.90
   5   5   8    5.80   23.00
  -5  -5  -8    0.30    6.00
  -5  10  -8   -2.70    5.50
  -5  -5   8  -39.30   22.30
  10  -5  -8    1.40    6.20
  10  -5   8   22.50   19.80
   6   4  -8   21.20    6.70
   6 -10   8    8.20   23.80
 -10   4   8   36.20   23.20
 -10   6  -8   27.70    7.30
   4 -10  -8   60.09   25.30
   4 -10  -8   11.30    6.40
  -6  -4   8    1.00   25.30
  -4  -6  -8   22.10    6.60
  10  -4  -8   17.30    6.90
  -6  10  -8   27.40    6.50
  10  -6   8   39.70   20.70
 -10   7  -8    5.20    6.00
 -10   3   8  -14.50   20.60
   7   3  -8    1.10    6.60
   3 -10  -8   20.60   21.40
   3 -10  -8    5.20    5.90
   7 -10   8    2.70   22.30
  10  -3  -8    6.80    6.80
  -7  10  -8    1.40    5.50
  -7  -3   8  -38.60   21.80
  10  -7   8  -12.90   18.40
  -3  -7  -8    8.20    6.40
   8   2  -8    8.50    6.80
   8 -10   8   -6.00   21.10
 -10   2   8   14.00   21.30
   2 -10  -8   26.30    6.70
   2 -10  -8   42.50   21.00
 -10   8  -8   13.50    6.70
  10  -8   8   16.40   19.90
  10  -2  -8   12.90    7.30
  -8  10  -8   11.60    6.00
  -2  -8  -8   10.10    6.20
  -8  -2   8    6.90   22.50
   9 -10   8  -10.20   20.10
   1 -10  -8   -3.00    5.80
 -10   9  -8   -5.90    5.70
   9   1  -8    3.50    6.70
   1 -10  -8    6.50   19.90
 -10   1   8    5.00   20.80
  10  -9   8   -6.00   18.50
  -1  -9  -8    3.30    6.10
  10  -1  -8    8.30    7.00
  -9  10  -8   -1.30    5.80
  -9  -1   8  -27.00   19.70
   0 -10  -8   62.59    8.20
   0 -10  -8   84.19   38.00
 -10  10  -8   44.00    7.50
  10   0  -8   51.09    8.60
 -10   0   8   30.10   21.30
  10 -10   8   83.19   22.60
 -11   0  -8   54.69    8.50
  11 -11  -8   91.29   24.70
  11 -11  -8   41.50    7.80
  11   0   8   50.09   19.00
   0  11  -8   45.70    7.40
   0 -11   8   11.30   24.20
   1 -11   8  -11.50   22.80
  10   1   8   -6.20   18.30
   1  10  -8   -2.50    5.90
 -11   1  -8    8.30    6.60
  10 -11  -8    5.40    6.20
  10 -11  -8  -41.60   20.80
  -1 -10   8  -16.00   23.20
  -1  11  -8    4.20    6.40
  11  -1   8    9.50   17.60
  11 -10  -8   25.00   23.70
  11 -10  -8    9.20    6.50
 -10  -1  -8   -9.70    6.10
   2   9  -8  149.49   11.70
   2 -11   8  127.89   28.30
   9 -11  -8  164.68   12.10
 -11   2  -8  154.08   12.70
   9   2   8  122.79   23.20
   9 -11  -8  153.78   29.20
  11  -9  -8  272.57   35.50
  -2  -9   8  103.39   28.00
  11  -9  -8  154.18   12.90
  -2  11  -8  162.28   11.60
  11  -2   8  171.18   27.90
  -9  -2  -8  133.39   12.50
   8 -11  -8   22.60   24.70
   8   3   8    3.10   20.50
 -11   3  -8   -0.20    6.10
   3   8  -8    7.00    6.50
   8 -11  -8    1.40    6.20
 -11   8   8   51.89   22.00
   3 -11   8   12.50   24.80
  11  -3   8   -6.40   17.00
  -3  11  -8    5.80    6.00
  11  -8  -8   43.80   23.80
  11  -8  -8    0.20    6.50
  -3  -8   8  -15.20   23.40
  -8  -3  -8    4.90    6.50
 -11   4  -8   75.99    9.20
   4 -11   8   59.29   25.90
   7   4   8   77.79   25.20
   7 -11  -8   83.29   10.90
 -11   7   8   91.19   25.40
   4   7  -8   81.59   10.30
   7 -11  -8  126.89   27.80
  -4  -7   8   61.69   28.10
  11  -7  -8   81.89   11.30
  11  -4   8   81.79   20.10
  11  -7  -8  125.89   27.40
  -7  -4  -8   87.49   10.60
  -4  11  -8   81.29    9.40
   5 -11   8   27.50   24.80
   5   6  -8   67.29    9.50
 -11   5  -8   67.99    8.60
   6 -11  -8  116.09   27.50
   6 -11  -8   77.59    9.70
   6   5   8   35.50   23.70
 -11   6   8  109.59   25.20
  -5  -6   8   41.50   25.20
  11  -6  -8   39.30    7.70
  -6  -5  -8   55.89    7.80
  -5  11  -8   43.00    7.30
  11  -5   8   54.39   19.40
 -11   6  -8   11.90    6.40
 -11   5   8   34.50   21.80
   5 -11  -8   69.99   25.40
   6 -11   8    4.50   22.40
   6   5  -8   11.70    6.70
   5 -11  -8   11.10    6.70
  -6  -5   8   11.10   23.70
  11  -6   8    8.10   17.90
  -5  -6  -8   15.50    6.30
  11  -5  -8   23.50    7.10
  -6  11  -8   10.10    6.40
   4 -11  -8   77.49    9.10
   4 -11  -8   96.39   25.60
 -11   4   8   68.59   23.80
   7 -11   8   48.40   24.70
 -11   7  -8   68.69    9.60
   7   4  -8   72.69    9.30
  -4  -7  -8   76.09   10.40
  -7  -4   8   51.39   25.90
  -7  11  -8   49.90    7.60
  11  -4  -8   75.89   11.00
  11  -7   8   62.59   20.80
   8 -11   8   31.10   22.60
 -11   8  -8   29.40    7.00
 -11   3   8   15.20   21.50
   8   3  -8   41.40    7.80
   3 -11  -8   32.10    7.50
   3 -11  -8   62.19   22.40
  -8  11  -8   35.80    7.30
  11  -8   8   20.10   20.10
  -3  -8  -8   42.50    7.60
  11  -3  -8   36.50    8.10
  -8  -3   8   25.50   22.50
   2 -11  -8   74.39   23.20
 -11   9  -8   54.79    8.00
   9 -11   8   45.10   22.10
 -11   2   8   49.40   22.40
   9   2  -8   42.00    8.10
   2 -11  -8   60.79    8.20
  11  -2  -8   62.89    9.00
  -9  -2   8   44.40   22.20
  11  -9   8   45.10   20.20
  -2  -9  -8   50.69    7.70
  -9  11  -8   47.80    7.30
   1 -11  -8    3.70    6.20
 -11  10  -8    2.90    6.10
 -11   1   8  -11.50   19.50
  10 -11   8   13.30   19.40
  10   1  -8   17.60    7.50
   1 -11  -8   11.30   20.20
  11  -1  -8   11.00    7.30
  11 -10   8   -3.00   19.50
  -1 -10  -8   11.10    6.20
 -10  11  -8    2.80    5.90
 -10  -1   8  -11.40   20.20
 -11  11  -8   51.49    7.90
  11 -11   8   40.30   20.50
   0 -11  -8   77.29   10.60
   0 -11  -8  117.49   24.90
  11   0  -8  105.59   12.90
 -11   0   8   56.29   21.50
  12 -12  -8   80.39   26.90
   0  12  -8   72.19   10.20
  12   0   8   69.79   20.30
 -12   0  -8   62.29    8.70
   0 -12   8   34.30   25.80
 -12   1  -8   -0.60    6.20
   1 -12   8  -17.20   24.30
  11   1   8   10.10   18.40
  11 -12  -8   22.60   22.90
   1  11  -8    8.50    6.70
  12  -1   8   -4.50   17.90
  -1  12  -8    2.10    5.90
  12 -11  -8   58.69   24.50
  12 -11  -8   -5.70    6.50
  -1 -11   8  -38.40   21.70
 -11  -1  -8    2.80    6.50
  10 -12  -8  -37.60   22.90
   2 -12   8   26.00   25.00
  10 -12  -8   32.10    7.20
  10   2   8   44.70   20.60
 -12   2  -8   28.30    7.10
   2  10  -8   40.90    7.60
  -2 -10   8   38.40   25.90
  12 -10  -8   44.70   24.20
  12  -2   8   33.00   18.10
  12 -10  -8   31.50    7.90
  -2  12  -8   29.00    6.70
 -10  -2  -8   38.00    7.50
   9 -12  -8    6.90    6.40
   9 -12  -8   35.80   24.30
 -12   9   8   32.20   24.50
   3 -12   8   20.00   24.50
 -12   3  -8    8.10    6.50
   9   3   8    2.30   19.90
   3   9  -8   -0.30    6.20
  12  -9  -8    6.50    7.10
  12  -9  -8   28.20   24.20
  -3  12  -8    0.10    6.00
  -3  -9   8  -19.50   23.20
  12  -3   8    6.80   17.90
  -9  -3  -8    4.90    6.20
   8 -12  -8   42.50    7.90
   4   8  -8   44.70    8.20
   8   4   8   47.00   23.90
   4 -12   8   25.80   24.50
   8 -12  -8   86.69   28.80
 -12   4  -8   29.20    7.30
 -12   8   8   62.49   21.50
  12  -4   8   20.90   17.50
  12  -8  -8   51.39   23.70
  -4  -8   8   13.00   24.80
  12  -8  -8   33.60    7.80
  -4  12  -8   37.80    7.30
  -8  -4  -8   39.90    7.70
   5   7  -8    8.00    6.70
 -12   5  -8    5.90    6.40
   7   5   8  -18.40   21.10
 -12   7   8   20.20   19.10
   7 -12  -8    4.10    6.10
   7 -12  -8   21.10   23.70
   5 -12   8  -15.80   22.70
  12  -7  -8    4.00    6.50
  -5  -7   8  -21.30   24.00
  12  -5   8    0.50   16.70
  -5  12  -8    3.30    5.90
  -7  -5  -8   -3.60    6.20
  12  -7  -8   57.39   24.00
   6 -12  -8   -0.50    6.20
 -12   6  -8   10.10    6.40
 -12   6   8   23.80   20.30
   6 -12  -8   69.79   25.90
   6   6  -8   11.90    7.20
   6 -12   8   -9.00   23.40
  -6  -6   8    6.10   24.60
  12  -6  -8   -1.40    6.70
  -6  12  -8    9.20    5.80
  12  -6   8  -11.50   16.50
  -6  -6  -8    5.70    6.40
  12  -6  -8   40.30   22.40
   7 -12   8    7.20   22.20
   7   5  -8    9.20    6.60
   5 -12  -8   14.40    6.20
   5 -12  -8   53.69   24.90
 -12   5   8   23.90   20.90
 -12   7  -8    1.00    6.60
  -5  -7  -8   -0.70    6.20
  12  -7   8    5.70   17.50
  -7  -5   8   -3.10   22.70
  12  -5  -8   61.39   22.70
  12  -5  -8   18.40    7.10
  -7  12  -8    4.60    5.70
 -12   8  -8   16.20    6.60
 -12   4   8   23.10   19.40
   8   4  -8   22.80    7.80
   4 -12  -8   51.19   24.90
   4 -12  -8   22.60    6.60
   8 -12   8   14.40   23.00
  12  -4  -8   14.60    7.20
  12  -8   8   18.30   18.90
  -8  -4   8   17.00   22.40
  -8  12  -8   19.20    6.30
  -4  -8  -8   19.10    7.00
   3 -12  -8   25.60   21.60
   9 -12   8    6.40   19.90
   3 -12  -8   -1.30    5.80
 -12   3   8   -3.60   18.70
 -12   9  -8   -4.10    6.00
   9   3  -8   -2.80    6.90
  -9  -3   8  -25.80   19.40
  12  -3  -8   11.30    7.50
  -9  12  -8   -4.80    5.90
  12  -9   8   -2.30   17.70
  -3  -9  -8    4.30    6.10
   2 -12  -8   68.49   23.60
  10   2  -8   76.39    9.90
 -12  10  -8   65.69    8.40
 -12   2   8   59.09   21.00
  10 -12   8   22.30   21.30
   2 -12  -8   71.39   10.30
 -10  -2   8   65.69   22.50
 -10  12  -8   50.99    7.60
  12 -10   8   62.59   20.90
  -2 -10  -8   53.59    7.80
   1 -12  -8   22.70    6.60
  11 -12   8    9.50   20.00
   1 -12  -8   40.80   22.00
 -12   1   8   24.60   19.10
 -12  11  -8   15.30    6.60
  -1 -11  -8   52.29   21.50
  -1 -11  -8   19.60    6.80
 -11  12  -8   14.60    6.40
 -11  -1   8   33.90   21.10
  12 -11   8   23.90   19.90
  12 -12   8   18.50   20.40
 -12  12  -8   57.39    8.10
   0 -12  -8  107.19   25.00
 -12   0   8   47.20   20.10
   0 -12  -8   69.29    9.50
  12 -13  -8   49.90   23.20
  13 -12  -8   27.00   22.00
   2 -13   8    0.50   24.50
   2  11  -8   29.60    7.60
  11 -13  -8    5.40   23.90
 -13   2  -8   32.60    7.50
  11   2   8   24.20   19.20
  -2 -11   8   24.30   24.10
  13 -11  -8   78.99   26.70
  13  -2   8   34.60   19.30
 -11  -2  -8   31.30    7.00
  -2  13  -8   30.10    7.00
 -13   3  -8    3.60    6.50
   3  10  -8    1.50    6.70
   3 -13   8  -28.50   23.00
  10 -13  -8  -57.99   23.10
  10   3   8   10.00   20.80
  -3 -10   8  -22.80   23.40
 -10  -3  -8    2.80    6.70
  13 -10  -8   42.90   23.80
  -3  13  -8    0.80    6.10
  13 -10  -8  -16.90    6.60
  13  -3   8   20.90   17.50
   9   4   8   12.70   22.40
 -13   4  -8   37.40    7.70
   4   9  -8   40.20    7.60
 -13   9   8   58.79   20.20
   4 -13   8   26.50   24.00
   9 -13  -8   41.10   26.80
  13  -9  -8   58.79   23.50
  13  -9  -8   33.30    8.00
  -4  13  -8   29.20    6.60
  13  -4   8   37.00   18.60
  -4  -9   8   -3.90   23.70
  -9  -4  -8   33.20    7.20
   8 -13  -8   41.60   25.20
   8 -13  -8   -2.50    6.00
   5 -13   8   21.70   25.10
 -13   8   8   42.70   19.10
 -13   5  -8   10.80    6.90
   5   8  -8    6.70    6.60
   8   5   8   20.30   22.00
  13  -8  -8   35.60   23.80
  -5  13  -8   -3.80    5.40
  13  -8  -8   -8.90    7.00
  13  -5   8   19.50   16.80
  -8  -5  -8   -5.00    5.80
  -5  -8   8  -31.40   22.00
 -13   7   8   41.30   18.40
   6   7  -8   18.70    7.10
   7 -13  -8   70.49   25.00
   6 -13   8   14.40   24.00
   7 -13  -8   21.40    7.10
 -13   6  -8   17.90    6.80
  13  -7  -8   59.59   23.70
  -7  -6  -8   24.40    6.90
  13  -6   8   14.90   17.10
  13  -7  -8   19.20    7.80
  -6  13  -8   18.60    6.50
  -6  -7   8   20.80   24.90
   6 -13  -8   32.60   24.10
   6 -13  -8    0.20    6.00
   7 -13   8  -23.80   22.00
 -13   7  -8    1.50    6.40
   7   6  -8   -8.00    6.60
 -13   6   8   10.70   17.20
  13  -6  -8    0.30    7.10
  13  -7   8   13.30   16.90
  -6  -7  -8   -3.90    6.20
  -7  13  -8   -4.80    5.30
  -7  -6   8   -5.20   22.70
  13  -6  -8   60.49   23.00
   8   5  -8    1.70    7.10
   8 -13   8  -24.20   22.40
   5 -13  -8    6.10    6.10
 -13   5   8    7.30   18.70
   5 -13  -8   77.99   25.80
 -13   8  -8    3.00    6.80
  -8  -5   8  -30.50   20.70
  -8  13  -8    5.00    5.70
  13  -8   8   -1.20   16.20
  13  -5  -8    0.60    7.50
  13  -5  -8   69.59   23.50
  -5  -8  -8   -2.00    6.40
   4 -13  -8   51.09    7.70
 -13   9  -8   55.09    7.90
   9 -13   8   68.49   24.20
   4 -13  -8   76.49   24.80
 -13   4   8   55.59   19.40
   9   4  -8   66.99    9.80
  -9  -4   8   90.19   24.00
  -9  13  -8   49.50    7.40
  13  -9   8   78.09   20.70
  -4  -9  -8   59.99    8.30
 -13  10  -8    6.60    6.40
   3 -13  -8   36.30   22.10
 -13   3   8    9.40   16.70
  10 -13   8    2.40   21.00
   3 -13  -8    6.90    6.20
 -10  13  -8    6.10    6.40
 -10  -3   8    8.70   19.90
  -3 -10  -8   13.70    6.80
  13 -10   8   18.50   18.80
 -13  11  -8   45.70    8.20
   2 -13  -8   45.20    7.30
   2 -13  -8   51.89   23.50
  11 -13   8   64.79   23.50
 -13   2   8   58.69   19.40
  -2 -11  -8   36.00    7.30
 -11  -2   8   36.10   20.60
  13 -11   8   27.30   19.00
 -11  13  -8   39.70    7.70
   1 -13  -8   29.80   20.40
  -1 -12  -8   10.80   18.40
  10 -14  -8   15.10   25.00
  14 -10  -8   80.79   24.60
 -14   5  -8    7.80    6.90
   5 -14   8  -31.80   22.80
   9   5   8  -26.20   20.70
 -14   9   8   19.70   17.60
   5   9  -8  -11.10    6.90
   9 -14  -8   24.80   24.20
  14  -5   8   -8.00   16.60
  14  -9  -8  -11.10    6.90
  -9  -5  -8    1.90    6.70
  14  -9  -8   36.20   23.10
  -5  -9   8  -13.90   22.60
  -5  14  -8   -3.60    5.60
   6 -14   8    2.20   23.20
   8 -14  -8   55.19   25.90
   6   8  -8   39.10    8.40
 -14   8   8   61.69   20.50
 -14   6  -8   29.50    7.80
  -6  -8   8   27.20   23.10
  14  -8  -8   92.79   25.30
  14  -6   8   39.20   18.10
  14  -8  -8   23.10    8.00
  -8  -6  -8   28.80    7.10
  -6  14  -8   29.70    6.50
   7 -14   8   -9.70   23.30
   7   7  -8   10.40    7.70
 -14   7   8   50.69   18.70
 -14   7  -8   14.70    6.90
   7 -14  -8   40.90   24.00
  14  -7  -8   63.19   22.60
  14  -7   8    5.30   17.00
  -7  -7  -8   16.00    6.70
  -7  -7   8    0.50   22.00
  -7  14  -8   12.50    6.20
 -14   8  -8   13.00    6.80
   8   6  -8   13.90    7.30
   8 -14   8    7.90   24.10
   6 -14  -8   24.00   23.20
 -14   6   8   25.60   17.00
  14  -8   8   14.70   17.30
  -8  14  -8    5.60    5.70
  -6  -8  -8    8.20    6.50
  -8  -6   8   16.30   21.50
  14  -6  -8   54.69   24.40
 -14   5   8   26.80   18.10
   9 -14   8    1.10   22.20
 -14   9  -8    3.80    6.60
   9   5  -8   21.60   11.40
   5 -14  -8   46.20   25.10
  14  -9   8   17.50   17.70
  14  -5  -8   21.30   21.90
  -9  -5   8   20.20   21.10
  -5  -9  -8   -5.30    5.90
  -9  14  -8    3.20    5.80
   4 -14  -8  121.09   26.30
   0   0   9  117.89   29.40
   0   0  -9  176.28   13.20
   0  -1   9   23.00   27.30
  -1   1   9   23.20   26.50
  -1   0  -9   27.40    7.30
   1  -1  -9    6.10    6.30
   0   1  -9   14.60    6.40
   1   0   9   22.40   26.20
   1   0  -9   19.00    7.20
   0   1   9   20.00   25.80
   1  -1   9   18.60   24.80
   0  -1  -9   13.20    6.50
  -1   0   9  -14.80   24.90
  -1   1  -9   15.50    6.40
   0  -2   9   59.99   27.50
   2   0   9  107.29   27.70
  -2   0  -9  119.19   11.00
   2  -2  -9  135.99   12.20
   0   2  -9  129.69   11.20
  -2   2   9  154.98   33.00
  -2   1  -9   10.60    6.50
   1  -2   9   44.60   24.70
   1   1   9    9.80   23.80
   1   1  -9    6.10    6.10
   1  -2  -9   12.20    6.90
  -2   1   9   32.00   28.50
   2  -1   9   11.10   24.30
  -1  -1   9    2.70   24.90
  -1  -1  -9    6.50    6.30
   2  -1  -9    8.40    6.60
  -1   2   9   21.20   26.60
  -1   2  -9    4.90    6.30
  -2   2  -9  134.19   11.60
  -2   0   9  156.58   30.60
   0  -2  -9  142.99   12.40
   2  -2   9  157.78   30.20
   2   0  -9  137.19   11.60
   0   2   9  124.39   30.10
  -3   0  -9    3.80    6.10
   0  -3   9   17.50   25.40
   3  -3  -9   -5.60    5.80
   3   0   9  -13.90   22.70
  -3   3   9    1.80   27.80
   0   3  -9   -1.20    6.00
   1   2  -9   18.30    6.70
   2   1   9   11.40   25.50
  -3   2   9   48.00   28.50
   2  -3  -9   16.90    6.90
   1  -3   9   21.70   24.30
  -3   1  -9   21.50    6.70
   3  -1   9   28.90   26.10
  -2   3   9   36.20   28.80
  -1  -2   9   56.59   26.90
  -2  -1  -9   22.60    6.70
   3  -2  -9   22.20    6.90
  -1   3  -9   20.70    7.00
  -3   1   9    1.50   27.10
   2  -3   9  -19.30   22.90
  -3   2  -9    3.00    6.10
   2   1  -9    2.00    6.60
   1   2   9   27.80   25.80
   1  -3  -9   -5.30    6.00
   3  -1  -9   -1.00    6.90
   3  -2   9   -1.70   23.80
  -2   3  -9    2.00    6.20
  -1  -2  -9   10.30    6.60
  -2  -1   9   10.30   25.00
  -1   3   9   18.10   27.10
  -3   0   9  109.79   29.90
   0   3   9   51.19   26.80
   3   0  -9   67.59    9.70
  -3   3  -9   75.69   10.00
   3  -3   9   65.79   26.80
   0  -3  -9   75.29   10.10
   4   0   9   36.40   23.70
   4  -4  -9   39.80    7.40
   0  -4   9   56.69   25.30
   0   4  -9   50.69    7.70
  -4   0  -9   28.60    7.00
  -4   4   9   79.79   29.10
   3   1   9   14.00   24.00
  -4   1  -9    8.20    6.40
   1  -4   9    7.20   23.80
   3  -4  -9   18.90    6.90
   1   3  -9    0.80    6.50
  -4   3   9   41.30   28.10
  -1  -3   9  -14.70   24.90
   4  -1   9   13.90   23.10
  -3  -1  -9   15.00    6.50
  -3   4   9    3.20   26.10
  -1   4  -9    9.60    6.60
   4  -3  -9   10.20    7.00
   2  -4  -9   81.19   10.90
   2   2  -9   75.29   10.70
   2  -4   9   47.20   25.60
   2   2   9   56.29   27.70
  -4   2   9   66.59   28.10
  -4   2  -9   77.29    9.50
   4  -2   9   64.79   26.90
  -2  -2   9   75.89   28.10
  -2   4   9   70.99   28.60
  -2  -2  -9   73.19    9.90
   4  -2  -9   87.99   11.10
  -2   4  -9   71.49    8.70
   3   1  -9   -0.10    6.50
  -4   3  -9    0.60    5.90
   3  -4   9  -32.50   23.30
   1  -4  -9    4.70    6.30
   1   3   9  -24.30   25.30
  -4   1   9   13.50   26.00
   4  -3   9    2.20   22.40
  -3  -1   9   -9.90   25.20
  -1  -3  -9   -7.50    5.70
   4  -1  -9   -2.70    6.20
  -1   4   9   33.10   28.40
  -3   4  -9   -2.50    5.80
   0   4   9   40.70   29.60
  -4   0   9   94.39   30.30
   4   0  -9   89.29   10.20
  -4   4  -9   69.29    9.70
   4  -4   9   61.29   25.50
   0  -4  -9   78.29   10.70
   5  -5  -9    7.50    6.60
  -5   5   9   46.10   28.40
   5   0   9    5.50   24.50
   0  -5   9   -9.00   23.70
  -5   0  -9   10.20    6.60
   0   5  -9   10.60    6.70
   4  -5  -9   33.40    7.60
   1   4  -9   16.70    6.60
  -5   1  -9   17.10    6.70
   4   1   9   31.20   25.50
  -5   4   9   48.00   29.00
   1  -5   9   22.90   26.70
  -1   5  -9   24.60    7.30
  -4   5   9   55.09   29.70
  -4  -1  -9   22.60    6.60
   5  -4  -9   27.80    7.70
   5  -1   9   14.10   24.10
  -1  -4   9    8.60   25.10
   3  -5  -9    3.20    6.20
  -5   3   9    4.30   26.50
   3   2   9   22.20   24.80
   2  -5   9  -10.00   23.80
  -5   2  -9    5.90    5.80
   2   3  -9    3.30    6.50
  -2  -3   9  -16.70   24.00
   5  -2   9   -2.30   21.90
   5  -3  -9   -3.00    6.40
  -3  -2  -9   -0.80    6.20
  -2   5  -9   -2.50    6.40
  -3   5   9    4.90   28.40
  -5   3  -9   70.79    9.80
  -5   2   9   35.00   26.70
   3   2  -9   49.20    7.90
   2  -5  -9   45.80    7.60
   3  -5   9   42.80   24.70
   2   3   9   29.10   26.50
   5  -2  -9   47.40    8.00
  -2  -3  -9   79.79   10.70
  -3   5  -9   63.89    8.30
  -3  -2   9   75.89   28.90
  -2   5   9   76.39   30.90
   5  -3   9   54.79   24.50
   4  -5   9    3.70   23.70
   1  -5  -9    1.40    6.30
   1   4   9    6.30   26.00
  -5   1   9   20.70   26.10
   4   1  -9    3.40    6.70
  -5   4  -9    0.60    6.40
  -4   5  -9    1.70    6.00
   5  -1  -9    8.20    6.70
   5  -4   9  -11.30   23.60
  -1  -4  -9   -2.90    6.00
  -4  -1   9  -10.70   24.30
  -1   5   9   21.90   28.60
   0  -5  -9   80.09   10.30
  -5   0   9   83.79   28.90
   0   5   9   70.39   29.10
  -5   5  -9  114.79   10.40
   5  -5   9  108.19   26.00
   5   0  -9  113.69   12.00
  -6   6   9   41.00   27.80
   0  -6   9  -16.80   23.20
   0   6  -9   -2.50    6.10
  -6   0  -9   -4.90    5.80
   6   0   9  -20.60   21.60
   6  -6  -9   -3.50    6.30
   1   5  -9   -1.10    6.30
  -6   5   9   -3.10   25.60
  -6   1  -9    0.70    6.40
   5  -6  -9   -3.40    6.50
   5   1   9   -4.80   23.90
   1  -6   9   -6.50   25.70
  -5   6   9    6.50   28.10
   6  -5  -9   -6.30    6.60
  -5  -1  -9    6.70    6.30
  -1  -5   9   -5.60   25.10
  -1   6  -9   -3.20    6.40
   6  -1   9    4.40   23.30
   4   2   9  -16.30   24.40
  -6   2  -9    9.40    6.30
   2  -6   9    6.20   23.90
   4  -6  -9   13.50    6.80
  -6   4   9   48.00   28.80
   2   4  -9   25.40    7.30
  -2  -4   9   20.20   25.80
  -2   6  -9   14.50    7.20
  -4  -2  -9   15.60    6.70
   6  -4  -9   18.00    7.00
   6  -2   9   14.30   22.90
  -4   6   9   28.90   27.70
  -6   3   9   22.50   26.10
   3  -6   9  -17.60   22.80
   3   3  -9    4.70    6.30
  -6   3  -9    2.20    6.40
   3  -6  -9   -2.00    6.50
   3   3   9  -19.40   24.10
   6  -3  -9    4.30    6.40
  -3   6  -9   18.50    7.10
  -3   6   9   -6.90   27.70
  -3  -3   9   -8.70   24.60
  -3  -3  -9    1.00    6.30
   6  -3   9   -5.80   23.70
   4  -6   9   -8.50   23.30
  -6   2   9    8.50   25.90
   4   2  -9   21.40    7.20
   2   4   9    8.30   25.70
   2  -6  -9   16.50    7.20
  -6   4  -9   21.00    6.60
  -2   6   9   -2.10   28.80
  -4  -2   9   21.80   25.30
  -2  -4  -9   16.80    6.50
   6  -4   9   26.70   23.40
  -4   6  -9   18.20    6.60
   6  -2  -9   21.20    7.30
  -6   5  -9    9.00    6.20
   1   5   9    6.00   27.30
   1  -6  -9    5.70    6.60
  -6   1   9   17.00   25.90
   5   1  -9   16.00    7.40
   5  -6   9  -13.90   21.70
  -5   6  -9    5.00    6.20
  -5  -1   9    7.60   26.10
  -1  -5  -9    8.30    6.70
   6  -5   9   15.90   23.80
   6  -1  -9    3.80    7.10
  -6   6  -9   32.50    7.10
   0  -6  -9   24.20    7.00
   6  -6   9   13.00   23.50
   6   0  -9   38.60    8.50
  -6   0   9   30.30   26.20
   7  -7  -9    2.70    6.60
  -7   0  -9   -5.10    6.00
   0  -7   9    8.80   23.80
   7   0   9    3.60   22.40
   0   7  -9   -0.20    6.50
  -7   7   9    4.10   28.50
   6   1   9    6.50   22.70
   1  -7   9   25.80   26.10
  -7   6   9   38.20   28.00
   6  -7  -9    8.90    6.80
  -7   1  -9    8.70    6.70
   1   6  -9   10.60    6.70
  -1  -6   9  -26.60   23.90
  -1   7  -9   11.90    6.40
   7  -6  -9   19.30    7.50
   7  -1   9   18.20   22.60
  -6  -1  -9    6.80    6.30
  -7   2  -9   -5.80    5.90
   5  -7  -9    5.40    6.70
   5   2   9  -11.10   24.50
  -7   5   9   56.09   27.30
   2   5  -9    4.80    6.80
   2  -7   9    6.10   24.30
  -2   7  -9    3.10    6.50
  -5  -2  -9   -3.40    6.00
  -2  -5   9    6.40   24.70
   7  -2   9  -23.50   21.30
   7  -5  -9    7.00    7.10
   4   3   9   37.60   26.20
   3  -7   9   96.19   26.60
  -7   4   9   48.60   27.90
  -7   3  -9   76.29    9.70
   3   4  -9   69.39    9.90
   4  -7  -9   93.09   11.20
  -3   7  -9   63.29    8.60
   7  -3   9   71.29   23.90
   7  -4  -9   94.59   10.50
  -4  -3  -9   79.39    9.90
  -3  -4   9   66.49   27.20
   4   3  -9   10.40    7.20
   3   4   9  -11.10   26.30
   4  -7   9    8.80   24.00
  -7   4  -9   13.30    6.70
   3  -7  -9   10.50    6.70
  -7   3   9   25.80   26.00
  -4  -3   9   -6.50   24.90
   7  -4   9   16.30   22.10
  -4   7  -9   13.30    6.40
   7  -3  -9   14.30    6.90
  -3  -4  -9    7.30    6.00
   2  -7  -9  111.69   10.90
  -7   2   9  107.29   28.40
   5  -7   9   95.19   26.40
   5   2  -9   95.59   11.90
   2   5   9   97.79   30.30
  -7   5  -9  101.39   11.00
  -5  -2   9   87.59   27.70
  -5   7  -9   84.79   10.20
  -2  -5  -9  100.79   10.60
   7  -5   9   98.19   25.40
   7  -2  -9  106.19   11.80
   1  -7  -9   39.30    7.40
  -7   1   9   49.99   26.10
   6   1  -9   34.80    8.20
  -7   6  -9   34.50    7.20
   6  -7   9   28.30   23.80
  -6  -1   9   40.80   28.00
   7  -1  -9   35.90    7.90
  -1  -6  -9   31.90    7.20
   7  -6   9   37.50   24.40
  -6   7  -9   36.50    7.60
  -7   7  -9  162.18   12.70
   7  -7   9  170.28   28.80
   0  -7  -9  191.88   13.70
  -7   0   9  144.99   30.20
   7   0  -9  195.78   14.00
   1  -8   9   -5.00   24.60
   1   7  -9   22.60    7.80
  -8   7   9   66.49   27.50
   7  -8  -9   28.60    7.70
  -8   1  -9   21.10    7.30
   7   1   9   14.10   22.80
  -1  -7   9    0.60   25.00
   8  -1   9   -4.00   21.90
  -1   8  -9   21.30    6.80
  -7  -1  -9   16.00    6.80
   8  -7  -9   36.50    7.70
   2  -8   9   -2.90   24.40
  -8   2  -9   -1.70    6.00
   6   2   9    2.90   23.10
   2   6  -9   -2.10    6.40
  -8   6   9   37.10   27.30
   6  -8  -9   -1.40    6.70
   8  -2   9   -6.80   21.70
  -2   8  -9   -1.50    6.00
  -2  -6   9  -17.20   24.40
  -6  -2  -9    4.20    6.40
   8  -6  -9   -5.60    6.90
  -8   5   9   29.70   25.70
   3  -8   9   -2.70   24.20
   5   3   9   44.00   28.20
   3   5  -9   18.70    7.00
   5  -8  -9   10.50    6.70
  -8   3  -9   16.20    6.50
  -3   8  -9   19.30    6.50
   8  -5  -9   21.40    7.90
  -3  -5   9   13.30   25.80
   8  -3   9   22.00   21.90
  -5  -3  -9   16.30    7.10
   4   4   9  -21.10   24.60
   4   4  -9   24.80    7.40
  -8   4   9   35.70   25.00
  -8   4  -9   17.70    6.60
   4  -8  -9   17.80    6.90
   4  -8   9    8.30   24.80
   8  -4   9   -0.50   21.40
   8  -4  -9   21.00    7.50
  -4  -4   9   16.30   26.00
  -4  -4  -9   30.60    7.20
  -4   8  -9   17.00    6.60
   3  -8  -9   10.80    6.70
   3   5   9   -0.60   26.50
   5   3  -9   17.00    7.20
   5  -8   9    1.40   25.10
  -8   5  -9   11.80    6.70
  -8   3   9   27.90   24.00
   8  -5   9   15.20   23.10
  -5  -3   9    9.70   25.00
  -5   8  -9    1.00    5.80
   8  -3  -9   17.10    7.10
  -3  -5  -9   14.80    7.00
  -8   2   9   30.50   24.90
   6  -8   9    5.90   22.70
   6   2  -9   13.80    7.40
   2  -8  -9    6.40    6.30
  -8   6  -9    3.80    6.30
  -2  -6  -9    4.50    6.40
  -6  -2   9    4.10   25.20
  -6   8  -9   18.60    6.70
   8  -6   9  -16.90   22.10
   8  -2  -9   12.70    7.30
   1  -8  -9    2.60    6.20
  -8   1   9    8.60   24.40
  -8   7  -9    4.40    6.50
   7  -8   9   25.40   23.40
   7   1  -9    4.70    7.00
   8  -7   9   -5.70   22.60
  -7   8  -9    1.80    6.10
  -7  -1   9  -25.50   24.00
  -1  -7  -9    1.00    6.10
   8  -1  -9    6.40    6.90
  -9   4  -9    2.30    6.30
   5  -9  -9    6.20    7.10
   4   5  -9    2.90    6.30
  -4   9  -9   14.80    6.50
  -5  -4  -9   -1.50    5.90
   9  -5  -9   17.50    7.40
   4  -9  -9  147.29   12.70
  -9   5  -9  112.99   12.00
   5   4  -9  125.99   12.40
   9  -4  -9  144.99   13.30
  -5   9  -9  142.29   12.00
  -4  -5  -9  118.19   11.40

_computing_structure_solution     'SHELXT 2014/4 (Sheldrick, 2014)'
;
_shelx_hkl_checksum              40955
loop_
_space_group_symop_operation_xyz
'x, y, z'
'-y, x-y, z'
'-x+y, -x, z'
'y, x, -z'
'x-y, -y, -z'
'-x, -x+y, -z'
'-x, -y, -z'
'y, -x+y, -z'
'x-y, x, -z'
'-y, -x, z'
'-x+y, y, z'
'x, x-y, z'
loop_
_atom_site_label
_atom_site_type_symbol
_atom_site_fract_x
_atom_site_fract_y
_atom_site_fract_z
_atom_site_U_iso_or_equiv
_atom_site_adp_type
_atom_site_occupancy
_atom_site_site_symmetry_order
_atom_site_calc_flag
_atom_site_refinement_flags_posn
_atom_site_refinement_flags_adp
_atom_site_refinement_flags_occupancy
_atom_site_disorder_assembly
_atom_site_disorder_group
CU1 Cu 0.52366(2) 0.47634(2) 0.34455(5) 0.02018(12) Uani 1 2 d S T P . .
O1 O 0.58895(10) 0.55888(13) 0.7537(3) 0.0426(4) Uani 1 1 d . . . . .
O2 O 0.62880(11) 0.51974(13) 0.4865(3) 0.0421(4) Uani 1 1 d . . . . .
O1W O 0.56282(8) 0.43718(8) 0.0886(4) 0.0410(6) Uani 1 2 d DS T P . .
O3 O 0.84111(12) 0.6822(2) 1.1889(5) 0.0592(9) Uani 1 2 d S T P . .
C1 C 0.64071(12) 0.54964(13) 0.6557(3) 0.0262(4) Uani 1 1 d . . . . .
C2 C 0.72294(13) 0.57520(14) 0.7489(3) 0.0284(4) Uani 1 1 d . . . . .
C3 C 0.77778(10) 0.5556(2) 0.6566(4) 0.0294(6) Uani 1 2 d S T P . .
H3 H 0.764793 0.529585 0.534493 0.035 Uiso 1 2 calc R U P . .
C4 C 0.74344(14) 0.61678(15) 0.9288(3) 0.0337(5) Uani 1 1 d . . . . .
H4 H 0.706371 0.629562 0.989604 0.040 Uiso 1 1 calc R U . . .
C5 C 0.81961(12) 0.6392(2) 1.0174(5) 0.0370(7) Uani 1 2 d S T P . .
C6 C 0.9142(4) 0.7120(5) 1.2755(9) 0.0570(16) Uani 0.5 1 d . . P . .
H6A H 0.957981 0.745406 1.182658 0.068 Uiso 0.5 1 calc R U P . .
H6B H 0.921764 0.666403 1.318031 0.068 Uiso 0.5 1 calc R U P . .
C7 C 0.9200(6) 0.7639(6) 1.4481(14) 0.095(3) Uani 0.5 1 d . . P . .
H7A H 0.973387 0.785070 1.509363 0.142 Uiso 0.5 1 calc R U P . .
H7B H 0.913232 0.809479 1.405628 0.142 Uiso 0.5 1 calc R U P . .
H7C H 0.877080 0.730616 1.540760 0.142 Uiso 0.5 1 calc R U P . .
O2W O 0.7157(4) 0.4313(7) 0.1916(16) 0.080 Uiso 0.384(8) 2 d S U . . .
O3W O 0.666667 0.333333 0.556(3) 0.080 Uiso 0.335(14) 6 d S U . . .
O4W O 0.7014(7) 0.4028(15) 0.016(4) 0.080 Uiso 0.169(8) 2 d S U . . .
H1W H 0.521(4) 0.407(5) 0.012(11) 0.120 Uiso 0.5 1 d D U P . .
loop_
_atom_site_aniso_label
_atom_site_aniso_U_11
_atom_site_aniso_U_22
_atom_site_aniso_U_33
_atom_site_aniso_U_23
_atom_site_aniso_U_13
_atom_site_aniso_U_12
CU1 0.02273(15) 0.02273(15) 0.02121(18) 0.00013(5) -0.00013(5) 0.01596(14)
O1 0.0285(8) 0.0739(13) 0.0356(9) -0.0140(8) -0.0063(7) 0.0332(9)
O2 0.0280(8) 0.0704(13) 0.0359(9) -0.0176(8) -0.0086(7) 0.0305(9)
O1W 0.0531(12) 0.0531(12) 0.0292(12) -0.0044(5) 0.0044(5) 0.0359(13)
O3 0.0527(11) 0.084(2) 0.0511(17) -0.0386(16) -0.0193(8) 0.0422(11)
C1 0.0225(9) 0.0311(10) 0.0296(10) 0.0027(8) -0.0011(7) 0.0169(8)
C2 0.0223(9) 0.0350(10) 0.0322(10) -0.0022(8) -0.0025(8) 0.0175(8)
C3 0.0252(9) 0.0390(16) 0.0285(14) -0.0034(12) -0.0017(6) 0.0195(8)
C4 0.0271(10) 0.0439(12) 0.0376(12) -0.0089(10) -0.0032(9) 0.0234(10)
C5 0.0308(10) 0.050(2) 0.0370(17) -0.0160(15) -0.0080(7) 0.0248(10)
C6 0.050(3) 0.069(4) 0.050(3) -0.023(3) -0.019(3) 0.029(3)
C7 0.094(6) 0.108(7) 0.091(6) -0.054(6) -0.033(5) 0.057(6)
loop_
_atom_type_symbol
_atom_type_description
_atom_type_scat_dispersion_real
_atom_type_scat_dispersion_imag
_atom_type_scat_source
C C 0.0040 0.0020 'Calculated using XDISP in WinGX (Farrugia, 1999)'
H H 0.0000 0.0000 'Calculated using XDISP in WinGX (Farrugia, 1999)'
O O 0.0132 0.0074 'Calculated using XDISP in WinGX (Farrugia, 1999)'
Cu Cu 0.2913 1.4803 'Calculated using XDISP in WinGX (Farrugia, 1999)'
loop_
_geom_angle_atom_site_label_1
_geom_angle_atom_site_label_2
_geom_angle_atom_site_label_3
_geom_angle
_geom_angle_site_symmetry_1
_geom_angle_site_symmetry_3
O2 CU1 O2 89.73(12) 10_665 .
O2 CU1 O1 89.84(9) 10_665 7_666
O2 CU1 O1 168.62(7) . 7_666
O2 CU1 O1 168.62(7) 10_665 4_556
O2 CU1 O1 89.84(9) . 4_556
O1 CU1 O1 88.35(13) 7_666 4_556
O2 CU1 O1W 95.91(7) 10_665 .
O2 CU1 O1W 95.91(7) . .
O1 CU1 O1W 95.45(7) 7_666 .
O1 CU1 O1W 95.45(7) 4_556 .
O2 CU1 CU1 83.99(5) 10_665 7_666
O2 CU1 CU1 83.99(5) . 7_666
O1 CU1 CU1 84.65(5) 7_666 7_666
O1 CU1 CU1 84.65(5) 4_556 7_666
O1W CU1 CU1 179.85(8) . 7_666
C1 O1 CU1 122.31(15) . 7_666
C1 O2 CU1 123.86(14) . .
CU1 O1W H1W 111(6) . .
C6 O3 C6 109.7(6) . 11_655
C6 O3 C5 124.7(3) . .
C6 O3 C5 124.7(3) 11_655 .
O2 C1 O1 125.14(19) . .
O2 C1 C2 117.26(18) . .
O1 C1 C2 117.59(19) . .
C3 C2 C4 120.6(2) . .
C3 C2 C1 119.4(2) . .
C4 C2 C1 120.07(19) . .
C2 C3 C2 119.3(3) 11_655 .
C2 C3 H3 120.4 11_655 .
C2 C3 H3 120.4 . .
C2 C4 C5 120.0(2) . .
C2 C4 H4 120.0 . .
C5 C4 H4 120.0 . .
O3 C5 C4 120.24(15) . 11_655
O3 C5 C4 120.24(15) . .
C4 C5 C4 119.5(3) 11_655 .
O3 C6 C7 110.5(6) . .
O3 C6 H6A 109.5 . .
C7 C6 H6A 109.5 . .
O3 C6 H6B 109.5 . .
C7 C6 H6B 109.5 . .
H6A C6 H6B 108.1 . .
C6 C7 H7A 109.5 . .
C6 C7 H7B 109.5 . .
H7A C7 H7B 109.5 . .
C6 C7 H7C 109.5 . .
H7A C7 H7C 109.5 . .
H7B C7 H7C 109.5 . .
loop_
_geom_bond_atom_site_label_1
_geom_bond_atom_site_label_2
_geom_bond_distance
_geom_bond_site_symmetry_2
CU1 O2 1.9548(16) 10_665
CU1 O2 1.9548(16) .
CU1 O1 1.9695(16) 7_666
CU1 O1 1.9695(16) 4_556
CU1 O1W 2.150(2) .
CU1 CU1 2.6062(7) 7_666
O1 C1 1.250(3) .
O1 CU1 1.9696(16) 7_666
O2 C1 1.249(3) .
O1W H1W 0.87(2) .
O3 C6 1.320(6) .
O3 C6 1.320(6) 11_655
O3 C5 1.357(4) .
C1 C2 1.495(3) .
C2 C3 1.391(3) .
C2 C4 1.395(3) .
C3 C2 1.391(3) 11_655
C3 H3 0.9300 .
C4 C5 1.396(3) .
C4 H4 0.9300 .
C5 C4 1.396(3) 11_655
C6 C7 1.488(9) .
C6 H6A 0.9700 .
C6 H6B 0.9700 .
C7 H7A 0.9600 .
C7 H7B 0.9600 .
C7 H7C 0.9600 .
O2W O4W 1.28(2) .
loop_
_geom_hbond_atom_site_label_D
_geom_hbond_atom_site_label_H
_geom_hbond_atom_site_label_A
_geom_hbond_distance_DH
_geom_hbond_distance_HA
_geom_hbond_distance_DA
_geom_hbond_angle_DHA
_geom_hbond_site_symmetry_A
O1W H1W O1_$2 0.87(2) 2.33(5) 3.072(3) 144(8) 10_664
