#------------------------------------------------------------------------------
#$Date: 2019-06-14 11:55:00 +0300 (Fri, 14 Jun 2019) $
#$Revision: 215972 $
#$URL: file:///home/coder/svn-repositories/cod/cif/1/55/14/1551434.cif $
#------------------------------------------------------------------------------
#
# This file is available in the Crystallography Open Database (COD),
# http://www.crystallography.net/
#
# All data on this site have been placed in the public domain by the
# contributors.
#
data_1551434
loop_
_publ_author_name
'Ren-Wu Huang'
'Yong-Sheng Wei'
'Xi-Yan Dong'
'Xiao-Hui Wu'
'Chen-Xia Du'
'Shuang-Quan Zang'
'Thomas C. W. Mak'
_publ_section_title
;
 Hypersensitive dual-function luminescence switching of a
 silver-chalcogenolate cluster-based metal-organic framework
;
_journal_name_full               'Nature Chemistry'
_journal_page_first              689
_journal_page_last               697
_journal_paper_doi               10.1038/nchem.2718
_journal_volume                  9
_journal_year                    2017
_chemical_absolute_configuration ad
_chemical_formula_moiety         'C80 H104 Ag12 F12 N8 O8 S8, 4(C6 H6)'
_chemical_formula_sum            'C104 H128 Ag12 F12 N8 O8 S8'
_chemical_formula_weight         3397.06
_space_group_crystal_system      tetragonal
_space_group_IT_number           121
_space_group_name_Hall           'I -4 2'
_space_group_name_H-M_alt        'I -4 2 m'
_atom_sites_solution_hydrogens   geom
_atom_sites_solution_primary     direct
_cell_angle_alpha                90
_cell_angle_beta                 90
_cell_angle_gamma                90
_cell_formula_units_Z            2
_cell_length_a                   17.29800(10)
_cell_length_b                   17.29800(10)
_cell_length_c                   20.5393(4)
_cell_measurement_reflns_used    13003
_cell_measurement_temperature    100.01(10)
_cell_measurement_theta_max      28.9270
_cell_measurement_theta_min      3.6420
_cell_volume                     6145.79(13)
_computing_cell_refinement
;
CrysAlisPro, Agilent Technologies,
Version 1.171.37.35 (release 13-08-2014 CrysAlis171 .NET)
(compiled Aug 13 2014,18:06:01)
;
_computing_data_collection
;
CrysAlisPro, Agilent Technologies,
Version 1.171.37.35 (release 13-08-2014 CrysAlis171 .NET)
(compiled Aug 13 2014,18:06:01)
;
_computing_data_reduction
;
CrysAlisPro, Agilent Technologies,
Version 1.171.37.35 (release 13-08-2014 CrysAlis171 .NET)
(compiled Aug 13 2014,18:06:01)
;
_computing_molecular_graphics    'Olex2 (Dolomanov et al., 2009)'
_computing_publication_material  'Olex2 (Dolomanov et al., 2009)'
_computing_structure_refinement  'ShelXL (Sheldrick, 2015)'
_computing_structure_solution    'ShelXS (Sheldrick, 2008)'
_diffrn_ambient_temperature      100.01(10)
_diffrn_detector_area_resol_mean 16.2312
_diffrn_detector_type            Eos
_diffrn_measured_fraction_theta_full 0.993
_diffrn_measured_fraction_theta_max 0.953
_diffrn_measurement_details
;
#__ type_ start__ end____ width___ exp.time_
  1 omega  -19.00   23.40   0.8000   12.5000
omega____ theta____ kappa____ phi______ frames
    -      -15.1755  -99.0000    0.0000 53

#__ type_ start__ end____ width___ exp.time_
  2 omega   38.00   77.20   0.8000   12.5000
omega____ theta____ kappa____ phi______ frames
    -       18.0661 -178.0000   30.0000 49

#__ type_ start__ end____ width___ exp.time_
  3 omega    9.00   46.60   0.8000   12.5000
omega____ theta____ kappa____ phi______ frames
    -       18.0661   57.0000   90.0000 47

#__ type_ start__ end____ width___ exp.time_
  4 omega  -38.00   23.60   0.8000   12.5000
omega____ theta____ kappa____ phi______ frames
    -       18.0661  -57.0000   90.0000 77

#__ type_ start__ end____ width___ exp.time_
  5 omega   -1.00   85.40   0.8000   12.5000
omega____ theta____ kappa____ phi______ frames
    -       18.0661   37.0000   30.0000 108

#__ type_ start__ end____ width___ exp.time_
  6 omega   35.00   60.60   0.8000   12.5000
omega____ theta____ kappa____ phi______ frames
    -       18.0661  178.0000  -90.0000 32

#__ type_ start__ end____ width___ exp.time_
  7 omega    2.00   80.40   0.8000   12.5000
omega____ theta____ kappa____ phi______ frames
    -       18.0661   57.0000 -180.0000 98

#__ type_ start__ end____ width___ exp.time_
  8 omega  -47.00   44.20   0.8000   12.5000
omega____ theta____ kappa____ phi______ frames
    -       18.0661  -77.0000 -120.0000 114
;
_diffrn_measurement_device       'four-circle diffractometer'
_diffrn_measurement_device_type  'Xcalibur, Eos, Gemini'
_diffrn_measurement_method       '\w scans'
_diffrn_radiation_type           MoK\a
_diffrn_radiation_wavelength     0.71073
_diffrn_reflns_av_R_equivalents  0.0446
_diffrn_reflns_av_unetI/netI     0.0301
_diffrn_reflns_Laue_measured_fraction_full 0.993
_diffrn_reflns_Laue_measured_fraction_max 0.953
_diffrn_reflns_limit_h_max       21
_diffrn_reflns_limit_h_min       -23
_diffrn_reflns_limit_k_max       23
_diffrn_reflns_limit_k_min       -23
_diffrn_reflns_limit_l_max       27
_diffrn_reflns_limit_l_min       -28
_diffrn_reflns_number            31078
_diffrn_reflns_point_group_measured_fraction_full 0.995
_diffrn_reflns_point_group_measured_fraction_max 0.920
_diffrn_reflns_theta_full        25.250
_diffrn_reflns_theta_max         29.411
_diffrn_reflns_theta_min         3.670
_exptl_absorpt_coefficient_mu    2.073
_exptl_absorpt_correction_T_max  1.00000
_exptl_absorpt_correction_T_min  0.85126
_exptl_absorpt_correction_type   multi-scan
_exptl_absorpt_process_details
;
CrysAlisPro, Agilent Technologies,
Version 1.171.37.35 (release 13-08-2014 CrysAlis171 .NET)
(compiled Aug 13 2014,18:06:01)
Empirical absorption correction using spherical harmonics,
 implemented in SCALE3 ABSPACK scaling algorithm.
;
_exptl_crystal_colour            colourless
_exptl_crystal_colour_primary    colourless
_exptl_crystal_density_diffrn    1.836
_exptl_crystal_description       block
_exptl_crystal_F_000             3344
_exptl_crystal_size_max          0.21
_exptl_crystal_size_mid          0.18
_exptl_crystal_size_min          0.15
_refine_diff_density_max         0.731
_refine_diff_density_min         -0.418
_refine_diff_density_rms         0.088
_refine_ls_abs_structure_details
;
 Flack x determined using 1516 quotients [(I+)-(I-)]/[(I+)+(I-)]
 (Parsons and Flack (2004), Acta Cryst. A60, s61).
;
_refine_ls_abs_structure_Flack   -0.022(15)
_refine_ls_extinction_coef       .
_refine_ls_extinction_method     none
_refine_ls_goodness_of_fit_ref   1.051
_refine_ls_hydrogen_treatment    constr
_refine_ls_matrix_type           full
_refine_ls_number_parameters     216
_refine_ls_number_reflns         4087
_refine_ls_number_restraints     46
_refine_ls_restrained_S_all      1.075
_refine_ls_R_factor_all          0.0359
_refine_ls_R_factor_gt           0.0282
_refine_ls_shift/su_max          0.001
_refine_ls_shift/su_mean         0.000
_refine_ls_structure_factor_coef Fsqd
_refine_ls_weighting_details
;
 w=1/[\s^2^(Fo^2^)+(0.0248P)^2^+12.6339P]
 where P=(Fo^2^+2Fc^2^)/3
;
_refine_ls_weighting_scheme      calc
_refine_ls_wR_factor_gt          0.0576
_refine_ls_wR_factor_ref         0.0600
_reflns_Friedel_coverage         0.774
_reflns_Friedel_fraction_full    0.998
_reflns_Friedel_fraction_max     0.880
_reflns_number_gt                3691
_reflns_number_total             4087
_reflns_threshold_expression     'I > 2\s(I)'
_cod_data_source_file            nchem.2718-s17.cif
_cod_data_source_block           ag12bpy_benzene
_cod_original_cell_volume        6145.79(14)
_cod_database_code               1551434
_shelx_space_group_comment
;
The symmetry employed for this shelxl refinement is uniquely defined
by the following loop, which should always be used as a source of
symmetry information in preference to the above space-group names.
They are only intended as comments.
;
_olex2_refinement_description
;
1. Fixed Uiso
 At 1.2 times of:
  All C(H) groups
 At 1.5 times of:
  All C(H,H,H) groups
2. Restrained distances
 C14-C15 = C16-C15 = C16-C16_$1 = C14-C14_$1
 1.39 with sigma of 0.01
 F1B-C8B \\sim C8B-F2B \\sim F1-C8 \\sim F2-C8
 with sigma of 0.01
3. Uiso/Uaniso restraints and constraints
C14 \\sim C15 \\sim C16: within 2A with sigma of 0.01 and sigma for terminal
atoms of 0.02
Uanis(F2B) \\sim Ueq, Uanis(F2) \\sim Ueq: with sigma of 0.01 and sigma for
terminal atoms of 0.02
Uanis(C8B) \\sim Ueq, Uanis(C8) \\sim Ueq: with sigma of 0.01 and sigma for
terminal atoms of 0.02
4. Others
 Sof(F2B)=1-FVAR(1)
 Sof(C8B)=Sof(F1B)=0.5*(1-FVAR(2))
 Sof(C8)=Sof(F1)=0.5*FVAR(2)
 Sof(F2)=FVAR(1)
 Fixed Sof: Ag3(0.25) H3A(0.5) H3B(0.5) H3C(0.5) H5A(0.5) H5B(0.5) H5C(0.5)
5.a Aromatic/amide H refined with riding coordinates:
 C9(H9), C10(H10), C12(H12), C13(H13), C14(H14), C15(H15), C16(H16)
5.b Idealised Me refined as rotating group:
 C2(H2A,H2B,H2C), C3(H3A,H3B,H3C), C5(H5A,H5B,H5C), C6(H6A,H6B,H6C)
Comments: The trifluoroacetate anion and the lattice benzene 
molecule were found to be disordered in this structure. 
For trifluoroacetate, two parts were assigned for the 
trifluoromethyl group with a refined occupancy ratio of 
approximately 0.62:0.38. A similar C-F distance refinement 
was applied for all C-F bonds with the "SADI 0.01" command, 
and the thermal vibration parameters were also restrained 
with "ISOR 0.01 0.02". The determination of the lattice benzene 
molecule was completed with the difference Fourier map; 
however, the disorder and high symmetry required the 
assigned benzene molecule to be refined with strong restraints, 
such as "DFIX 1.39 0.01" for the C-C bonds and 
"SIMU 0.01 0.02" for the ADPs.
;
_shelx_res_file
;
TITL A in I-42m
REM reset to I-42m
CELL 0.71073 17.298 17.298 20.5393 90 90 90
ZERR 2 0.0001 0.0001 0.0004 0 0 0
LATT -2
SYMM +Y,-X,-Z
SYMM -X,-Y,+Z
SYMM -Y,+X,-Z
SYMM +X,-Y,-Z
SYMM -X,+Y,-Z
SYMM -Y,-X,+Z
SYMM +Y,+X,+Z
SFAC C H Ag F N O S
UNIT 208 256 24 24 16 16 16
EQIV $1 +X,2-Y,-Z
DFIX 1.39 0.01 C14 C15 C16 C15 C16 C16_$1 C14 C14_$1
SADI 0.01 F1B C8B C8B F2B F1 C8 F2 C8
SIMU 0.01 0.02 2 C14 C15 C16
ISOR 0.01 0.02 F2B F2
ISOR 0.01 0.02 C8B C8

L.S. 100
PLAN  3
TEMP -173.14(10)
BOND
MORE -1
BOND $H
CONF
fmap 2
acta 50.5
OMIT 0 0 4
OMIT 4 8 0
REM <olex2.extras>
REM <HklSrc "%.\\Ag12bpy_Benzene.hkl">
REM </olex2.extras>

WGHT    0.024800   12.633901
FVAR       0.02423   0.62121
AG1   3    0.500000    0.500000    0.202159    10.25000    0.01535    0.01535 =
         0.02492    0.00000    0.00000    0.00145
AG2   3    0.528793    0.660785    0.165193    11.00000    0.02589    0.01493 =
         0.04073   -0.00095   -0.00087   -0.00162
AG3   3    0.500000    0.583359    0.000000    10.25000    0.02456    0.01811 =
         0.02762    0.00000   -0.00957    0.00000
S1    7    0.599079    0.400921    0.197007    10.50000    0.01991    0.01991 =
         0.02843    0.00425   -0.00425    0.00433
C1    1    0.624835    0.375165    0.282334    10.50000    0.03857    0.03857 =
         0.02634    0.00841   -0.00841    0.00485
C2    1    0.608932    0.288587    0.291340    11.00000    0.07997    0.04312 =
         0.04836    0.01980   -0.02145    0.00604
AFIX 137
H2A   2    0.637274    0.259188    0.258267    11.00000   -1.50000
H2B   2    0.553405    0.278768    0.286725    11.00000   -1.50000
H2C   2    0.625956    0.272489    0.334782    11.00000   -1.50000
AFIX   0
C3    1    0.578476    0.421524    0.329737    10.50000    0.06306    0.06306 =
         0.03088    0.01026   -0.01026    0.01411
PART -1
AFIX 137
H3A   2    0.526671    0.399098    0.333774    10.50000   -1.50000
H3B   2    0.574304    0.474932    0.314212    10.50000   -1.50000
H3C   2    0.604059    0.420936    0.372306    10.50000   -1.50000
AFIX   0
PART 0
S2    7    0.601143    0.601143    0.072346    10.50000    0.02862    0.02862 =
         0.02067   -0.00167   -0.00167   -0.00978
C4    1    0.669474    0.669474    0.032235    10.50000    0.03663    0.03663 =
         0.02307    0.00225    0.00225   -0.01693
C5    1    0.712328    0.712328    0.084912    10.50000    0.04373    0.04373 =
         0.03268    0.00138    0.00138   -0.02453
PART -1
AFIX 137
H5A   2    0.731248    0.675436    0.117429    10.50000   -1.50000
H5B   2    0.677409    0.749398    0.105817    10.50000   -1.50000
H5C   2    0.756205    0.740027    0.065757    10.50000   -1.50000
AFIX   0
PART 0
C6    1    0.623914    0.724185   -0.008952    11.00000    0.07362    0.08133 =
         0.08511    0.06186   -0.03990   -0.04838
AFIX 137
H6A   2    0.589624    0.754933    0.018832    11.00000   -1.50000
H6B   2    0.592944    0.694870   -0.040364    11.00000   -1.50000
H6C   2    0.659292    0.758638   -0.032339    11.00000   -1.50000
AFIX   0
O1    6    0.601506    0.692197    0.263382    11.00000    0.07046    0.04473 =
         0.05831   -0.01446   -0.03452    0.01626
C7    1    0.657117    0.657117    0.284835    10.50000    0.03005    0.03005 =
         0.02165    0.00068    0.00068   -0.00565
PART 1
C8    1    0.685286    0.685286    0.352785    20.50000    0.04324    0.04324 =
         0.03731   -0.00713   -0.00713   -0.01157
F1    4    0.649521    0.649521    0.399690    20.50000    0.10920    0.10920 =
         0.02615    0.00314    0.00314   -0.01574
F2    4    0.672418    0.758656    0.360606    21.00000    0.16584    0.03572 =
         0.09440   -0.02978   -0.05203   -0.00266
PART 0
PART 2
C8B   1    0.698143    0.698143    0.344025   -20.50000    0.04787    0.04787 =
         0.02595    0.00230    0.00230    0.00198
F1B   4    0.749519    0.749519    0.328652   -20.50000    0.08542    0.08542 =
         0.08550   -0.01156   -0.01156   -0.05550
F2B   4    0.648448    0.733207    0.381111   -21.00000    0.07238    0.14307 =
         0.05708   -0.06825    0.00349    0.01734
PART 0
N1    5    0.515301    0.795937    0.165982    11.00000    0.02773    0.01922 =
         0.03353   -0.00421    0.00067   -0.00051
C9    1    0.574570    0.841076    0.184192    11.00000    0.02578    0.02092 =
         0.03837   -0.00167   -0.00424    0.00285
AFIX  43
H9    2    0.621133    0.816927    0.197900    11.00000   -1.20000
AFIX   0
C10   1    0.571342    0.920574    0.184022    11.00000    0.02293    0.02076 =
         0.03426   -0.00383    0.00033   -0.00525
AFIX  43
H10   2    0.615208    0.950139    0.196452    11.00000   -1.20000
AFIX   0
C11   1    0.502909    0.957392    0.165386    11.00000    0.02363    0.01718 =
         0.02635   -0.00056    0.00214   -0.00127
C12   1    0.440598    0.910424    0.147727    11.00000    0.02253    0.02178 =
         0.03298   -0.00075   -0.00496    0.00101
AFIX  43
H12   2    0.392526    0.932596    0.135419    11.00000   -1.20000
AFIX   0
C13   1    0.450259    0.830933    0.148511    11.00000    0.02467    0.01991 =
         0.03365   -0.00280   -0.00416   -0.00036
AFIX  43
H13   2    0.407772    0.799589    0.135776    11.00000   -1.20000
AFIX   0

C14   1    0.615261    0.964134    0.015080    11.00000    0.13624    0.13072 =
         0.04726    0.00600    0.01122   -0.03828
AFIX  43
H14   2    0.567974    0.937919    0.023198    11.00000   -1.20000
AFIX   0
C15   1    0.683868    0.931649    0.032955    11.00000    0.15251    0.09898 =
         0.09717    0.02764    0.02657    0.01457
AFIX  43
H15   2    0.683951    0.884920    0.057255    11.00000   -1.20000
AFIX   0
C16   1    0.752287    0.965317    0.016427    11.00000    0.15309    0.17900 =
         0.13928    0.05520    0.02339    0.02541
AFIX  43
H16   2    0.799765    0.941056    0.027515    11.00000   -1.20000
AFIX   0
HKLF 4

REM  A in I-42m
REM R1 =  0.0282 for    3691 Fo > 4sig(Fo)  and  0.0359 for all    4087 data
REM    216 parameters refined using     46 restraints

END

WGHT      0.0248     12.6290

REM Highest difference peak  0.731,  deepest hole -0.418,  1-sigma level  0.088
Q1    1   0.5210  0.5000  0.5000  10.50000  0.05    0.73
Q2    1   0.6987  1.0000  0.0000  10.50000  0.05    0.56
Q3    1   0.6669  0.6669  0.2338  10.50000  0.05    0.55
;
_shelx_res_checksum              5715
_shelx_hkl_file
;
   0   0   4    2.57    0.20
   0   0  -4    2.66    0.21
   0   0  -4    2.64    0.18
   0   0  -6 1000.00   19.59
   0   0   6  960.65   19.59
   0   0  -6  958.60   19.53
   0   0   8   44.47    1.31
   0   0  -8   46.70    1.26
   0   0  -8   46.11    1.32
   0   0   8   46.92    1.27
   0   0  10   -0.01    0.19
   0   0 -10    0.04    0.07
   0   0 -10    0.22    0.22
   0   0 -10    0.44    0.32
   0   0 -10    0.00    0.16
   0   0  10    0.10    0.14
   0   0  12  140.42    3.44
   0   0 -12  143.61    3.43
   0   0 -12  137.12    3.43
   0   0 -12  138.96    2.96
   0   0 -14    2.57    0.44
   0   0  14    2.71    0.38
   0   0 -14    3.09    0.42
   0   0 -14    2.61    0.17
   0   0  16    6.16    0.56
   0   0 -16    5.62    0.25
   0   0 -16    5.67    0.62
   0   0 -16    5.49    0.56
   0   0 -18   22.32    1.18
   0   0  18   21.32    1.13
   0   0 -18   22.37    1.14
   0   0 -20    0.84    0.38
   0   0  20    1.39    0.43
   0   0 -20    1.37    0.48
   0   0 -22   12.06    0.94
   0   0 -22   12.16    0.97
   0   0  22   10.85    0.88
   0   0 -24   15.95    1.16
   0   0 -24   17.47    1.16
   0   0  24   14.93    1.10
   0   0 -26    1.39    0.47
   0   0 -26    0.33    0.46
   0   0  26    0.79    0.42
  -1   0   5  131.62    2.86
  -1   0  -5  136.73    2.93
   0   1  -5  137.44    2.77
   0   1  -5  133.48    2.96
   1   0   5  128.61    2.94
  -1   0   5  131.34    2.92
   0   1   5  129.93    2.95
   1   0  -5  131.11    2.95
   1   0  -5  138.94    2.93
   0  -1   5  130.10    2.91
   0  -1  -5  137.12    2.88
   0  -1  -7   23.83    0.77
   0   1   7   22.51    0.79
   0  -1  -7   23.25    0.73
   0  -1   7   22.74    0.77
   1   0  -7   23.23    0.78
   0   1  -7   22.96    0.58
  -1   0   7   22.76    0.71
  -1   0   7   22.52    0.77
   1   0  -7   21.65    0.79
   1   0   7   22.19    0.78
   0   1   7   21.75    0.72
  -1   0  -7   23.79    0.77
   0   1  -7   22.66    0.80
   0   1  -7   23.65    0.79
   1   0   9   64.17    1.72
   1   0  -9   63.23    1.76
   0   1  -9   68.64    1.75
   0  -1  -9   63.93    1.66
  -1   0  -9   66.45    1.78
   1   0  -9   65.01    1.74
   0  -1   9   63.36    1.73
   0   1  -9   64.36    1.77
  -1   0  -9   63.51    1.70
   0   1   9   62.76    1.76
   0  -1   9   64.20    1.71
  -1   0   9   64.49    1.75
   1   0  -9   65.79    1.73
   0   1  -9   65.62    1.45
   0  -1  -9   68.82    1.74
   1   0   9   60.94    1.74
   0   1   9   64.83    1.68
   0   1  -9   61.75    1.73
  -1   0   9   64.65    1.66
   1   0  11   65.84    1.85
   0  -1 -11   65.17    1.80
   1   0 -11   64.75    1.81
   0   1 -11   65.04    1.85
   0  -1 -11   62.32    1.87
  -1   0  11   67.45    1.74
   1   0  11   67.39    1.81
  -1   0  11   66.24    1.83
   0   1 -11   64.81    1.84
   0  -1  11   67.14    1.80
   0  -1  11   67.41    1.83
  -1   0 -11   65.14    1.84
   1   0 -11   63.00    1.84
   0   1 -11   66.91    1.45
   0   1  11   66.22    1.75
   0  -1 -11   65.52    1.73
  -1   0 -11   65.09    1.77
   1   0 -11   58.07    1.35
   0   1  11   65.85    1.86
   0   1 -13   17.00    0.51
   1   0 -13   17.15    0.84
   1   0 -13   17.24    0.88
  -1   0 -13   17.27    0.79
   0  -1 -13   17.93    0.92
  -1   0 -13   17.74    0.58
   0  -1 -13   17.43    0.77
   1   0  13   18.16    0.87
   0  -1  13   16.56    0.83
   0   1 -13   16.17    0.84
   0   1  13   17.84    0.86
  -1   0 -13   17.17    0.85
  -1   0  13   16.07    0.83
   0  -1 -13   16.54    0.83
   0   1 -13   17.72    0.86
   0   1 -15    0.06    0.28
  -1   0 -15    0.76    0.14
   0  -1 -15    0.82    0.32
   0  -1 -15    0.53    0.10
  -1   0  15    0.58    0.27
   0   1 -15    0.52    0.35
   0   1  15    0.65    0.29
   0   1 -15    0.67    0.10
   1   0 -15    0.42    0.29
  -1   0 -15    1.11    0.44
  -1   0 -15    0.74    0.32
   0  -1  15    1.14    0.32
   0  -1  15    0.34    0.24
   1   0  15    0.53    0.26
   1   0 -15    0.48    0.39
   0  -1 -15    1.01    0.43
  -1   0 -17    0.90    0.35
  -1   0 -17    1.20    0.16
   1   0  17    0.87    0.32
   0  -1 -17    0.95    0.11
   0   1 -17    0.53    0.35
   0  -1 -17    1.56    0.38
   1   0 -17    0.88    0.41
   0  -1  17    0.96    0.33
   0   1  17    1.42    0.37
  -1   0  17    1.38    0.34
   0  -1 -17    1.48    0.46
   0   1 -17    0.57    0.39
   1   0 -17    0.88    0.34
  -1   0  19   13.53    0.90
   0  -1 -19   12.42    0.86
   0  -1 -19   12.15    0.91
   0  -1  19   13.87    0.91
  -1   0 -19   11.77    0.89
   1   0 -19   13.41    0.88
   0   1 -19   13.16    0.90
   0   1  19   14.49    0.95
   1   0  19   12.88    0.89
   1   0 -19   13.57    0.94
  -1   0 -19   12.63    0.89
   0   1 -19   13.25    0.92
   0  -1 -21    2.62    0.48
  -1   0 -21    3.40    0.54
   1   0 -21    3.23    0.57
   1   0 -21    2.78    0.50
   0   1 -21    2.84    0.51
  -1   0  21    3.78    0.53
   0  -1 -21    2.49    0.53
  -1   0 -21    2.73    0.56
   1   0  21    3.42    0.53
   0  -1  21    3.75    0.54
   0   1  21    3.25    0.52
   0   1 -21    3.42    0.55
  -1   0 -23    0.26    0.40
   0   1 -23   -0.18    0.39
   0  -1  23    0.48    0.38
  -1   0  23    0.59    0.36
   1   0 -23    0.12    0.40
   1   0  23    0.81    0.41
   1   0 -23    0.42    0.39
  -1   0 -23    0.41    0.38
   0  -1 -23    0.50    0.36
   0  -1 -23   -0.06    0.41
   0   1  23    0.16    0.34
   0   1 -23    0.90    0.42
   0   1 -25   14.56    1.11
  -1   0 -25   14.19    1.10
   0  -1 -25   14.70    1.08
   0   1 -25   11.80    1.04
   1   0 -25   14.46    1.08
   1   0 -25   12.57    1.07
   0  -1 -25   13.92    1.13
  -1   0  25   14.92    1.11
  -1   0 -25   12.14    1.06
   0   1  25   14.86    1.12
   1   0 -27    0.95    0.46
  -1   0 -27    1.54    0.49
   0   1 -27    0.47    0.45
   0   1 -27    2.22    0.59
   0  -1 -27    1.94    0.54
  -1  -1 -26    0.70    0.42
  -1  -1 -26    0.04    0.48
  -1   1  26    1.20    0.44
   1   1 -26    0.39    0.41
   1   1 -24    7.79    0.86
   1   1 -24   10.25    0.92
  -1   1  24   10.14    0.92
  -1  -1 -24    9.70    0.90
  -1  -1 -24   11.17    0.99
   1   1 -22    7.09    0.74
   1   1 -22    5.79    0.70
   1  -1  22    6.27    0.69
  -1  -1 -22    7.40    0.78
  -1   1  22    6.57    0.70
  -1  -1 -22    5.43    0.66
   1   1 -20    3.31    0.56
  -1  -1 -20    4.35    0.62
  -1  -1 -20    2.25    0.45
   1  -1  20    2.93    0.48
   1   1 -20    3.60    0.54
  -1   1  20    3.32    0.50
  -1   1  18    6.14    0.61
   1   1 -18    7.93    0.70
  -1  -1 -18    6.97    0.65
   1   1 -18    6.45    0.65
  -1  -1 -18    7.01    0.70
   1  -1  18    7.19    0.65
  -1  -1 -18    6.47    0.33
  -1  -1 -16    0.49    0.26
  -1   1  16    0.35    0.27
   1  -1  16    0.86    0.31
   1   1 -16    0.79    0.33
   1  -1  16    0.45    0.24
  -1  -1 -16    0.40    0.38
   1   1 -16    0.14    0.35
  -1  -1 -16    0.60    0.13
  -1  -1 -16    0.48    0.33
   1  -1  14    7.75    0.58
  -1   1  14    6.99    0.56
   1   1 -14    7.59    0.59
   1  -1  14    6.61    0.44
  -1  -1 -14    8.79    0.56
   1   1 -14    7.25    0.61
  -1  -1 -14    7.73    0.67
  -1  -1 -14    7.54    0.58
  -1  -1 -12   11.43    0.60
   1  -1  12   11.10    0.64
  -1   1  12   12.01    0.67
  -1  -1 -12   11.53    0.66
  -1   1  12   11.97    0.58
   1   1 -12   10.90    0.65
   1   1 -12   10.48    0.65
  -1  -1 -10   30.47    1.06
   1  -1  10   28.84    1.05
   1   1 -10   30.01    1.06
   1   1 -10   31.13    1.03
  -1   1  10   31.49    0.98
   1  -1  10   31.57    1.06
   1   1 -10   29.46    1.05
  -1   1  10   30.02    1.06
  -1  -1 -10   29.04    0.99
   1  -1   8   14.13    0.61
   1   1  -8   13.54    0.61
  -1  -1  -8   13.96    0.58
  -1   1   8   14.79    0.54
   1   1  -8   14.87    0.60
   1   1  -8   13.68    0.62
  -1   1   8   13.93    0.61
   1   1  -6   41.15    1.14
   1  -1   6   43.45    1.02
  -1  -1  -6   43.55    1.13
  -1   1   6   41.36    1.06
  -1   1   6   41.27    1.15
   1   1  -6   42.92    1.17
   1  -1   6   42.40    1.16
   1   1  -4   15.07    0.50
   1  -1   4   13.57    0.37
  -1  -1  -4   13.73    0.46
  -1   1   4   13.15    0.46
   1   1  -4   12.86    0.46
  -1   1  -4   13.85    0.48
   1  -1  -4   14.01    0.40
   1  -1  -4   13.72    0.43
  -1  -1   4   12.80    0.43
  -1   1  -4   13.54    0.41
   1   1   4   13.26    0.48
   1  -1  -4   13.47    0.50
  -1   1  -6   36.60    1.07
   1  -1  -6   35.20    1.07
  -1  -1   6   35.97    1.00
  -1   1  -6   37.68    1.03
   1   1   6   34.84    1.04
  -1   1  -6   37.39    0.90
   1  -1  -6   36.66    0.99
  -1  -1   6   35.88    0.98
   1  -1  -6   35.49    0.93
  -1  -1   8   13.76    0.58
   1  -1  -8   13.19    0.64
  -1  -1   8   13.40    0.55
  -1   1  -8   13.14    0.58
  -1   1  -8   13.29    0.45
   1  -1  -8   14.29    0.53
   1   1   8   13.49    0.57
   1  -1  -8   13.64    0.57
  -1   1  -8   13.21    0.62
   1   1   8   13.11    0.61
  -1  -1  10   29.82    1.04
  -1   1 -10   30.23    0.83
   1   1  10   31.25    1.03
  -1   1 -10   29.26    1.08
  -1  -1  10   32.57    1.02
   1  -1 -10   30.62    0.96
   1  -1 -10   29.95    1.03
  -1   1 -10   30.68    1.06
   1   1  10   29.89    1.08
   1  -1 -10   31.77    1.12
   1  -1 -12   11.25    0.69
   1  -1 -12   10.05    0.61
  -1  -1  12   10.67    0.61
  -1  -1  12   10.84    0.59
  -1   1 -12   10.98    0.67
   1   1  12   11.40    0.66
  -1   1 -12   11.08    0.43
   1  -1 -12   12.09    0.58
   1   1  14    7.45    0.58
   1  -1 -14    8.41    0.66
  -1   1 -14    7.42    0.62
   1  -1 -14    7.60    0.56
  -1   1 -14    7.95    0.62
   1  -1 -14    6.75    0.24
  -1   1 -14    7.97    0.36
  -1  -1  14    7.69    0.56
  -1   1 -16    0.44    0.33
  -1  -1  16    0.49    0.27
   1   1  16    0.21    0.25
   1  -1 -16    0.42    0.38
   1  -1 -16    0.67    0.34
  -1   1 -16    0.98    0.44
  -1   1 -16    0.49    0.12
   1   1  18    7.13    0.66
   1  -1 -18    5.55    0.58
   1  -1 -18    5.86    0.67
  -1   1 -18    7.15    0.67
  -1   1 -18    6.75    0.33
  -1  -1  18    6.49    0.62
  -1   1 -18    5.93    0.65
   1  -1 -20    2.67    0.45
  -1   1 -20    3.77    0.57
  -1  -1  20    2.67    0.48
   1  -1 -20    3.39    0.58
  -1   1 -20    3.07    0.51
   1   1  20    3.08    0.52
  -1   1 -22    6.07    0.72
  -1   1 -22    5.52    0.68
   1  -1 -22    6.02    0.73
   1  -1 -22    7.46    0.71
  -1  -1  22    7.03    0.72
   1   1  22    5.85    0.68
   1   1  24   10.27    0.92
   1  -1 -24   10.75    0.90
  -1  -1  24    9.52    0.90
  -1   1 -24   10.43    0.95
  -1   1 -24    9.78    0.91
   1  -1 -24   10.47    0.97
  -1   1 -26    0.50    0.42
   1  -1 -26    0.86    0.43
  -1   1 -26   -0.56    0.49
   1   1  26    0.47    0.38
   1  -1 -26    1.04    0.55
   2   0   4    3.90    0.26
   0   2  -4    3.87    0.24
   2   0  -4    4.39    0.25
   0   2  -4    4.30    0.25
   0  -2  -4    4.33    0.22
   0   2   4    4.02    0.26
   0  -2   4    3.79    0.19
  -2   0   4    3.52    0.22
   0   2  -4    3.66    0.27
   2   0   4    3.84    0.22
  -2   0  -4    3.72    0.25
   0   2  -6  132.75    2.82
   0  -2   6  126.10    2.68
   2   0   6  119.86    2.86
  -2   0   6  124.12    2.82
   2   0  -6  125.47    2.88
   0   2   6  121.55    2.87
   0   2  -6  127.75    2.90
   0  -2   6  126.21    2.77
   0  -2  -6  130.20    2.78
   0  -2   6  126.81    2.81
   0   2   6  127.14    2.78
  -2   0  -6  128.28    2.87
   0   2  -6  122.48    2.79
  -2   0   6  126.52    2.73
   2   0  -6  130.84    2.84
   0   2  -8   21.94    0.83
   0  -2  -8   23.15    0.78
   0  -2  -8   20.73    0.72
   0  -2   8   21.73    0.71
   0   2  -8   22.68    0.78
   2   0  -8   21.89    0.78
   2   0   8   22.27    0.82
   2   0  -8   22.83    0.78
  -2   0   8   21.08    0.77
  -2   0   8   21.78    0.78
   0   2  -8   20.81    0.60
   0   2   8   21.21    0.81
   2   0  -8   20.93    0.82
   0   2   8   22.27    0.74
   0   2  -8   21.16    0.77
  -2   0   8   21.94    0.70
  -2   0  -8   22.56    0.80
   0  -2   8   21.19    0.77
   0  -2 -10   11.85    0.69
   2   0 -10   12.25    0.59
   0  -2  10   12.73    0.61
   0  -2  10   12.69    0.61
   0  -2  10   12.53    0.55
   0   2 -10   12.79    0.42
   0   2 -10   11.72    0.61
   0   2  10   12.78    0.66
   0  -2 -10   13.18    0.61
   0   2 -10   13.36    0.62
   0   2 -10   11.78    0.65
   2   0  10   11.91    0.61
   2   0 -10   11.67    0.61
  -2   0  10   12.50    0.62
   2   0  10   12.81    0.65
  -2   0  10   12.70    0.62
   2   0 -10   11.83    0.66
   0  -2 -10   13.14    0.57
  -2   0 -10   11.47    0.60
  -2   0  10   12.14    0.54
   0   2  10   13.03    0.58
   0  -2  12   10.98    0.63
  -2   0  12   11.55    0.57
   0  -2 -12    9.57    0.54
   0   2 -12   10.42    0.63
  -2   0  12   10.28    0.61
  -2   0 -12   10.52    0.66
  -2   0 -12   10.27    0.60
   2   0  12   11.06    0.65
   0   2  12   11.40    0.67
   2   0 -12   10.47    0.62
   0  -2 -12   10.98    0.62
   2   0 -12   12.00    0.70
   0   2 -12   11.68    0.69
   0  -2 -12   11.38    0.72
   0  -2  12   10.57    0.54
   0   2  12   10.03    0.56
  -2   0 -14    3.03    0.40
   0   2 -14    3.93    0.48
   0  -2 -14    3.09    0.40
   0  -2  14    2.71    0.35
   0  -2 -14    3.49    0.36
   2   0  14    3.56    0.44
   0  -2 -14    3.78    0.53
  -2   0  14    3.84    0.45
   0  -2  14    3.16    0.39
   0   2 -14    3.31    0.45
   2   0 -14    3.47    0.43
   0   2  14    3.47    0.43
  -2   0 -14    3.12    0.46
   2   0 -14    3.58    0.49
  -2   0 -14    3.23    0.26
   0  -2 -16    1.02    0.27
   0   2 -16    1.30    0.39
  -2   0 -16    1.25    0.19
   0   2 -16    1.60    0.42
   0   2  16    1.40    0.34
   0  -2 -16    1.97    0.41
   0  -2  16    1.24    0.31
   2   0  16    1.21    0.32
   2   0 -16    1.13    0.36
  -2   0 -16    1.47    0.41
   2   0 -16    1.25    0.40
  -2   0  16    1.42    0.32
   0  -2 -16    1.89    0.49
   0   2 -18    2.42    0.45
   0  -2 -18    2.03    0.52
   0   2  18    2.26    0.42
   2   0  18    2.59    0.43
  -2   0 -18    2.27    0.23
  -2   0 -18    2.62    0.52
   0   2 -18    2.25    0.45
   0  -2  18    2.66    0.42
   0  -2 -18    2.08    0.17
   2   0 -18    1.98    0.48
   2   0 -18    2.30    0.43
  -2   0  18    1.98    0.40
   0  -2 -18    1.16    0.36
  -2   0 -18    2.11    0.46
   0  -2 -20    4.02    0.65
   0   2  20    3.19    0.50
   2   0 -20    4.30    0.56
   0  -2  20    3.57    0.53
   2   0  20    3.98    0.58
  -2   0 -20    4.94    0.64
   0  -2 -20    3.13    0.51
  -2   0 -20    4.00    0.59
   0   2 -20    4.42    0.59
   2   0 -20    2.56    0.52
  -2   0  20    3.86    0.53
   0   2 -20    3.78    0.59
   2   0 -22    1.24    0.41
   0  -2 -22    1.35    0.41
   2   0 -22    1.44    0.45
   0   2  22    2.79    0.52
   2   0  22    1.88    0.45
  -2   0 -22    1.84    0.51
   0  -2 -22    1.50    0.51
   0   2 -22    0.71    0.41
   0   2 -22    1.42    0.45
  -2   0  22    1.82    0.44
  -2   0 -22    1.60    0.48
  -2   0 -24    3.79    0.66
   0   2 -24    3.19    0.60
   0   2  24    3.72    0.60
   0  -2 -24    2.32    0.61
  -2   0  24    3.25    0.55
   0   2 -24    2.63    0.56
   0  -2 -24    4.47    0.64
  -2   0 -24    3.17    0.61
   2   0 -24    2.96    0.55
  -2   0  26    0.39    0.46
   0  -2 -26    0.15    0.36
   0   2 -26    1.05    0.46
  -2   0 -26    0.96    0.44
   0   2 -26    1.12    0.51
   0  -2 -26    0.32    0.54
  -2   0 -26    0.29    0.45
   0   2  26    0.24    0.36
   2   0 -26    0.58    0.42
   0  -2 -28    0.29    0.44
   2   1 -27    0.14    0.38
  -1  -2 -27    0.44    0.40
  -2  -1 -27    0.78    0.48
  -2   1  25    2.51    0.52
  -1   2  25    3.78    0.61
  -1  -2 -25    3.59    0.69
   1   2 -25    2.52    0.59
  -2  -1 -25    3.02    0.64
  -1  -2 -25    2.80    0.59
   2   1 -25    2.98    0.57
  -2  -1 -25    2.96    0.57
  -2  -1 -23    0.86    0.46
  -2   1  23    1.42    0.47
   1   2 -23    0.76    0.39
  -1  -2 -23    0.57    0.37
   2   1 -23    0.29    0.33
  -2  -1 -23    1.48    0.47
  -1   2  23    0.68    0.40
   1   2 -23    0.87    0.39
  -1  -2 -23    1.19    0.51
  -2  -1 -21    1.60    0.45
  -2  -1 -21    1.37    0.52
  -2   1  21    1.17    0.39
   2   1 -21    0.03    0.39
  -1  -2 -21    0.31    0.33
   2   1 -21    0.97    0.39
  -1   2  21    0.64    0.33
   1   2 -21    0.86    0.42
   1   2 -21    0.91    0.38
  -1  -2 -21    0.86    0.45
   2   1 -19    4.76    0.59
  -2  -1 -19    4.99    0.64
   1   2 -19    4.53    0.58
  -1   2  19    4.82    0.59
  -2   1  19    5.40    0.59
  -2  -1 -19    4.10    0.55
   2   1 -19    4.09    0.56
  -2  -1 -19    4.86    0.32
   1   2 -19    5.33    0.60
  -1  -2 -19    4.16    0.55
  -1  -2 -19    4.94    0.65
   2  -1  19    4.79    0.57
   2  -1  17    2.03    0.30
   1   2 -17    2.13    0.42
  -2  -1 -17    2.18    0.23
  -2   1  17    2.00    0.38
   1   2 -17    2.46    0.47
   2   1 -17    2.71    0.46
   1  -2  17    2.24    0.40
   2   1 -17    1.76    0.46
  -1   2  17    2.35    0.42
  -1  -2 -17    2.27    0.42
   1  -2  17    1.87    0.32
  -1  -2 -17    1.99    0.37
   2  -1  17    2.39    0.42
  -2  -1 -17    1.93    0.43
  -2  -1 -17    3.35    0.58
  -1  -2 -17    2.53    0.55
  -2  -1 -17    2.40    0.38
  -1  -2 -15   16.53    0.96
   1   2 -15   17.56    0.93
  -1  -2 -15   16.05    0.81
  -2   1  15   16.36    0.89
  -2  -1 -15   18.06    0.93
   2  -1  15   17.71    0.92
   1   2 -15   15.50    0.87
   1  -2  15   17.01    0.90
  -2  -1 -15   16.43    0.83
  -1   2  15   16.45    0.91
   2   1 -15   16.75    0.89
  -1  -2 -15   16.37    0.88
   1  -2  15   16.40    0.73
   2  -1  15   16.81    0.69
   2   1 -15   15.54    0.90
   1  -2  13    3.89    0.34
  -2  -1 -13    4.17    0.41
  -1  -2 -13    3.99    0.43
   1   2 -13    4.25    0.46
   2  -1  13    4.24    0.44
  -1  -2 -13    4.05    0.38
   1  -2  13    5.10    0.46
   2   1 -13    4.34    0.50
   2   1 -13    3.50    0.42
  -1   2  13    3.87    0.43
  -2   1  13    4.78    0.37
  -2   1  13    5.07    0.46
  -1   2  13    4.88    0.38
  -2  -1 -13    4.78    0.48
   1   2 -13    4.56    0.48
   2  -1  13    4.43    0.32
   1  -2  11   19.40    0.70
   2  -1  11   20.02    0.66
  -2  -1 -11   20.15    0.83
   1   2 -11   18.94    0.86
  -1   2  11   20.08    0.87
  -1  -2 -11   20.35    0.80
   2   1 -11   19.84    0.87
  -2   1  11   20.17    0.85
   1  -2  11   20.58    0.85
   1   2 -11   21.26    0.83
  -2   1  11   19.63    0.73
   2  -1  11   18.25    0.84
   2   1 -11   20.75    0.82
   1   2 -11   18.55    0.81
  -1  -2 -11   20.14    0.85
   2   1 -11   18.63    0.83
  -1   2  11   20.41    0.76
   2  -1   9   30.69    0.81
   1   2  -9   26.79    0.96
  -1   2   9   29.79    0.91
   1  -2   9   29.89    1.00
  -2  -1  -9   29.00    0.99
  -2   1   9   29.61    1.01
   2   1  -9   31.37    0.98
   2  -1   9   29.18    1.02
  -1  -2  -9   29.36    0.96
   2   1  -9   28.88    1.00
  -1   2   9   27.82    1.01
   1  -2   9   29.86    0.86
   1   2  -9   30.16    1.04
  -2   1   9   31.01    0.90
   2   1  -9   27.89    1.00
   1   2  -9   31.51    0.98
  -1   2   7    9.51    0.48
   2  -1   7    9.87    0.35
   2   1  -7    9.46    0.43
  -2   1   7    9.30    0.46
  -2  -1  -7    9.91    0.47
  -1   2   7    9.68    0.39
   2   1  -7    8.51    0.46
   1   2  -7    9.92    0.44
   1  -2   7   10.08    0.38
   2  -1   7    9.62    0.48
   1   2  -7    9.34    0.46
  -2   1   7    9.92    0.44
  -2   1   7    9.43    0.38
  -1  -2  -7    9.17    0.44
   2   1  -7   10.43    0.50
   2  -1   7    9.40    0.32
   1   2  -7    9.15    0.49
  -1  -2  -5   46.64    1.18
  -2   1   5   44.39    1.19
  -2  -1  -5   47.84    1.22
   1   2  -5   46.38    1.16
  -1   2   5   45.25    1.22
   2  -1   5   47.93    1.07
   1  -2   5   47.00    1.09
   1  -2   5   47.81    1.13
   2   1  -5   48.86    1.23
   1   2  -5   47.50    1.15
  -2   1   5   45.22    1.07
   2   1  -5   47.26    1.15
   1   2  -5   48.68    1.26
  -2   1   5   47.02    1.16
  -1   2   5   45.83    1.10
   1   2  -3   14.85    0.49
   2   1  -3   13.96    0.47
  -2  -1  -3   14.63    0.47
  -1  -2  -3   14.56    0.45
  -2   1   3   14.18    0.45
  -2   1   3   14.27    0.38
   1   2  -3   13.73    0.38
   2  -1   3   14.73    0.40
   1   2  -3   14.35    0.47
  -1   2   3   13.96    0.47
  -2  -1   3   14.83    0.42
   2  -1  -3   15.49    0.42
  -1   2  -3   14.22    0.50
   1  -2  -3   15.60    0.40
  -2   1  -3   14.49    0.49
   1  -2  -3   14.42    0.48
  -1   2  -3   15.29    0.46
   1  -2  -3   15.65    0.52
   1  -2  -3   15.33    0.40
   2  -1  -3   15.22    0.48
   2   1   3   15.54    0.50
  -1  -2   3   14.83    0.40
   1   2   3   15.42    0.49
  -1  -2   3   14.92    0.41
  -1   2  -3   16.02    0.42
   1  -2  -5   47.58    1.11
   1  -2  -5   47.08    1.13
  -2  -1   5   45.62    1.16
  -1   2  -5   46.91    1.14
  -1  -2   5   45.80    1.15
  -1   2  -5   45.14    1.25
   2  -1  -5   47.31    1.08
   1  -2  -5   47.81    1.28
   2  -1  -5   44.56    1.25
   1   2   5   47.62    1.25
  -1   2  -5   48.71    1.10
  -2   1  -5   47.40    1.24
   2  -1  -5   47.83    1.16
  -1  -2   5   49.26    1.19
   2   1   5   47.89    1.25
  -2  -1   7    8.72    0.39
  -1  -2   7    8.83    0.29
   1  -2  -7    8.05    0.50
  -1  -2   7    8.86    0.43
   1   2   7    8.83    0.42
  -2  -1   7    9.53    0.47
   1  -2  -7    9.04    0.41
   2  -1  -7    8.01    0.49
   2   1   7    7.73    0.45
   2  -1  -7    8.83    0.42
   1  -2  -7    9.18    0.38
  -1   2  -7    8.94    0.49
  -2   1  -7    8.79    0.46
  -2  -1   7    8.68    0.42
  -1  -2   7    8.35    0.41
   1   2   7    9.18    0.49
  -1   2  -7    8.89    0.36
   2   1   9   30.89    1.00
  -2   1  -9   29.30    0.85
  -1   2  -9   29.93    1.00
   1  -2  -9   30.09    0.90
  -2   1  -9   29.16    1.05
   1  -2  -9   29.26    1.07
  -1  -2   9   28.78    0.96
  -1  -2   9   30.90    0.96
   2   1   9   28.31    1.02
  -2   1  -9   27.84    0.98
   1   2   9   29.15    0.95
   1   2   9   27.92    1.02
  -2  -1   9   29.08    0.92
  -2  -1   9   28.91    1.00
  -2  -1   9   27.85    0.96
   1  -2  -9   30.72    0.96
  -1  -2   9   29.03    0.96
  -1   2  -9   30.02    0.82
   2  -1  -9   29.69    0.96
  -1   2  -9   29.54    1.05
   2  -1  -9   29.65    1.06
  -1  -2  11   20.89    0.84
   2  -1 -11   20.66    0.93
  -1   2 -11   20.97    0.66
  -2  -1  11   21.71    0.81
  -2   1 -11   19.92    0.68
  -2   1 -11   22.52    0.94
  -2  -1  11   21.76    0.87
  -1   2 -11   19.36    0.89
   2   1  11   21.36    0.91
   1  -2 -11   21.17    0.77
   1  -2 -11   20.19    0.82
  -2   1 -11   20.54    0.86
  -1  -2  11   22.42    0.83
  -1  -2  11   22.59    0.85
   1  -2 -11   20.74    0.95
   2  -1 -11   20.76    0.84
   1   2  11   20.32    0.82
   1   2  11   20.54    0.89
  -2  -1  13    4.52    0.43
  -2   1 -13    4.97    0.50
  -1  -2  13    4.80    0.43
   2  -1 -13    4.79    0.45
  -1  -2  13    4.28    0.40
  -1   2 -13    4.60    0.28
   2   1  13    3.56    0.43
  -1   2 -13    3.89    0.46
   1  -2 -13    4.35    0.51
  -1   2 -13    4.53    0.48
   1  -2 -13    4.54    0.38
   1  -2 -13    4.65    0.43
   1   2  13    4.44    0.45
   2  -1 -13    4.47    0.51
  -2   1 -13    4.00    0.28
  -1   2 -15   17.36    0.95
  -1   2 -15   16.58    0.90
   1  -2 -15   17.17    0.79
  -2   1 -15   16.57    0.92
   1  -2 -15   15.64    0.94
  -2  -1  15   16.73    0.87
  -1   2 -15   16.51    0.59
   1  -2 -15   16.75    0.85
   2  -1 -15   17.24    0.88
   1   2  15   15.98    0.90
   2   1  15   17.20    0.92
  -1  -2  15   16.84    0.87
  -2   1 -15   16.51    0.63
   2  -1 -15   16.98    0.97
   1   2  17    2.15    0.42
  -2   1 -17    2.51    0.47
   2  -1 -17    2.25    0.44
  -2   1 -17    2.21    0.23
  -1  -2  17    2.26    0.38
   2   1  17    1.20    0.37
  -1   2 -17    2.18    0.47
   2  -1 -17    1.92    0.50
  -2   1 -17    3.15    0.55
   1  -2 -17    2.66    0.54
   1  -2 -17    1.72    0.36
   1  -2 -17    1.62    0.11
  -2  -1  17    2.60    0.42
  -1   2 -17    2.69    0.49
  -1   2 -19    5.32    0.62
  -2  -1  19    4.81    0.54
  -1   2 -19    5.27    0.61
   2  -1 -19    3.35    0.57
   2   1  19    4.88    0.59
  -2   1 -19    5.05    0.62
   1   2  19    4.73    0.57
  -2   1 -19    4.36    0.59
   1  -2 -19    5.07    0.64
   2  -1 -19    3.82    0.51
  -2   1 -19    4.15    0.30
   1  -2 -19    4.29    0.52
  -1  -2  19    3.70    0.50
   2  -1 -21    0.62    0.35
  -2  -1  21    0.92    0.35
   2   1  21    1.22    0.38
  -1  -2  21    0.38    0.33
  -1   2 -21    0.92    0.41
  -2   1 -21    1.43    0.50
  -2   1 -21    1.14    0.44
   1  -2 -21    0.76    0.34
   1   2  21    0.63    0.34
  -1   2 -21    0.69    0.37
   2  -1 -21    0.32    0.42
   1  -2 -21    1.17    0.50
  -1   2 -23    1.16    0.46
  -2   1 -23    0.96    0.45
   2   1  23    1.17    0.43
  -2   1 -23    1.20    0.50
   1   2  23    1.57    0.45
   1  -2 -23    0.78    0.46
   2  -1 -23    0.84    0.41
   2  -1 -23    0.95    0.47
   1  -2 -23    0.62    0.33
  -2  -1  23    1.05    0.36
  -1   2 -23    0.84    0.47
  -1  -2  23    1.79    0.46
   1  -2 -25    2.86    0.55
   1  -2 -25    2.93    0.63
   2  -1 -25    2.76    0.54
  -2  -1  25    2.71    0.55
  -1   2 -25    2.33    0.56
  -1   2 -25    2.26    0.56
  -2   1 -25    3.31    0.62
  -2   1 -25    2.78    0.60
   1   2  25    2.74    0.56
   2  -1 -25    1.51    0.51
  -2   1 -27   -0.93    0.56
  -1   2 -27   -0.92    0.53
   1  -2 -27    0.21    0.42
   2  -1 -27   -0.16    0.36
  -2   2  26    0.34    0.38
  -2  -2 -26    0.40    0.49
  -2  -2 -26    0.32    0.39
   2   2 -26    0.20    0.38
   2   2 -24    0.22    0.36
  -2   2  24    0.16    0.34
  -2  -2 -24    0.57    0.50
  -2  -2 -24    0.16    0.35
  -2  -2 -22    5.31    0.72
  -2   2  22    5.51    0.64
  -2  -2 -22    4.96    0.65
   2   2 -22    5.89    0.69
  -2  -2 -20   11.10    0.87
   2   2 -20   11.09    0.86
  -2  -2 -20   10.92    0.89
   2   2 -20    9.90    0.82
  -2   2  20   10.72    0.84
  -2  -2 -18    7.50    0.67
   2   2 -18    6.80    0.64
   2   2 -18    6.52    0.65
  -2  -2 -18    6.88    0.59
  -2   2  18    6.33    0.62
  -2  -2 -18    7.54    0.77
   2   2 -16    8.44    0.67
  -2  -2 -16    7.48    0.65
   2   2 -16    7.12    0.64
   2  -2  16    7.16    0.47
   2  -2  16    8.33    0.40
  -2   2  16    8.90    0.69
  -2  -2 -16    8.81    0.61
  -2   2  14   20.88    1.00
   2   2 -14   20.67    0.98
  -2  -2 -14   22.79    1.04
  -2  -2 -14   21.99    0.95
   2   2 -14   21.83    1.03
   2  -2  14   22.54    0.79
   2  -2  14   21.61    0.68
  -2   2  12   43.32    1.27
   2   2 -12   41.51    1.44
   2  -2  12   41.87    1.16
  -2  -2 -12   44.00    1.38
   2   2 -12   41.55    1.40
   2  -2  12   42.14    1.07
  -2   2  12   44.09    1.45
  -2   2  10   59.95    1.53
  -2  -2 -10   58.46    1.65
  -2   2  10   60.54    1.71
   2  -2  10   57.87    1.42
   2   2 -10   58.01    1.71
   2   2 -10   60.53    1.62
   2   2 -10   56.54    1.64
   2  -2  10   58.84    1.35
  -2   2   8   23.35    0.69
   2   2  -8   21.21    0.82
   2  -2   8   22.99    0.63
  -2  -2  -8   21.07    0.79
   2   2  -8   20.19    0.77
   2  -2   8   22.85    0.58
   2   2  -8   21.95    0.75
  -2   2   8   22.43    0.82
  -2   2   6   28.54    0.73
  -2   2   6   26.01    0.85
   2   2  -6   28.94    0.90
   2   2  -6   28.50    0.79
   2  -2   6   27.69    0.66
  -2  -2  -6   28.47    0.86
  -2   2   6   27.26    0.78
   2   2  -4    8.71    0.31
   2   2  -4    8.42    0.42
  -2   2   4    8.40    0.38
   2   2  -4    8.65    0.41
  -2   2   4    8.79    0.30
  -2   2   4    8.84    0.26
  -2  -2  -4    9.73    0.40
   2   2  -2   21.18    0.62
   2   2  -2   21.31    0.64
   2   2  -2   21.34    0.58
  -2  -2  -2   22.06    0.62
  -2   2  -2   20.95    0.61
   2  -2  -2   20.87    0.59
   2   2   2   20.54    0.57
   2  -2  -4    8.09    0.25
  -2  -2   4    7.56    0.29
   2  -2  -4    8.50    0.29
  -2  -2   4    7.92    0.31
  -2   2  -4    8.28    0.36
   2  -2  -4    7.99    0.42
   2   2   4    8.56    0.39
  -2   2  -4    7.85    0.26
  -2   2  -4    8.40    0.26
   2  -2  -4    8.31    0.38
   2  -2  -6   28.26    0.78
  -2   2  -6   25.23    0.88
  -2  -2   6   27.14    0.79
   2   2   6   28.15    0.89
  -2   2  -6   27.00    0.79
   2  -2  -6   27.81    0.72
  -2  -2   6   27.48    0.83
   2  -2  -6   27.53    0.92
  -2  -2   8   21.49    0.74
   2   2   8   22.23    0.84
  -2  -2   8   22.70    0.79
   2  -2  -8   22.34    0.73
   2  -2  -8   21.95    0.66
  -2  -2   8   23.10    0.80
  -2   2  -8   20.75    0.83
  -2   2  -8   21.84    0.68
   2  -2  -8   20.98    0.85
  -2  -2   8   19.43    0.51
   2  -2 -10   60.33    1.63
  -2  -2  10   61.57    1.66
   2   2  10   57.40    1.73
   2  -2 -10   60.69    1.54
  -2  -2  10   59.61    1.67
   2  -2 -10   58.74    1.78
  -2  -2  10   60.94    1.64
   2   2  10   59.57    1.68
  -2   2 -10   61.57    1.52
  -2   2 -10   57.41    1.75
  -2   2 -10   63.09    1.73
   2  -2 -12   40.32    1.43
   2  -2 -12   39.60    1.28
  -2  -2  12   38.91    1.30
   2   2  12   36.51    1.36
  -2  -2  12   40.48    1.31
  -2   2 -12   40.75    1.12
  -2   2 -12   38.43    1.39
   2  -2 -12   38.59    1.18
   2  -2 -14   20.83    1.06
   2   2  14   20.97    1.02
  -2  -2  14   21.13    0.96
   2  -2 -14   21.83    0.94
  -2   2 -14   23.04    0.76
  -2   2 -14   22.53    1.06
  -2   2 -16    8.22    0.42
   2  -2 -16    7.81    0.60
  -2  -2  16    7.54    0.61
   2   2  16    7.42    0.64
  -2   2 -16    8.15    0.68
  -2   2 -16    8.58    0.71
   2  -2 -16    7.62    0.71
  -2   2 -18    7.32    0.40
   2   2  18    6.63    0.65
   2  -2 -18    6.63    0.60
   2  -2 -18    7.08    0.73
  -2   2 -18    7.98    0.73
  -2  -2  18    6.84    0.62
  -2   2 -18    6.07    0.63
   2  -2 -20   10.35    0.89
  -2  -2  20   10.58    0.80
   2   2  20    9.31    0.81
   2  -2 -20    9.55    0.77
  -2   2 -20   11.21    0.89
  -2   2 -20    9.97    0.81
  -2   2 -22    5.72    0.70
   2  -2 -22    4.92    0.71
   2  -2 -22    4.66    0.59
  -2   2 -22    5.27    0.70
  -2  -2  22    5.80    0.64
   2   2  22    5.05    0.65
   2  -2 -24   -0.61    0.51
  -2   2 -24    0.54    0.48
   2   2  24    0.57    0.40
  -2  -2  24    0.25    0.33
   2  -2 -24    1.03    0.38
  -2   2 -24    0.96    0.49
  -2   2 -26    0.06    0.41
  -2   2 -26   -0.37    0.46
   2  -2 -26    0.30    0.37
   2  -2 -28    0.40    0.38
   0   3   1    2.31    0.15
   0   3  -1    2.28    0.16
   0  -3  -1    2.13    0.15
  -3   0  -1    2.06    0.15
   3   0   1    2.28    0.18
  -3   0   1    1.97    0.12
   3   0  -1    2.31    0.13
   0   3   1    2.09    0.12
  -3   0   3  171.36    3.67
   3   0  -3  179.92    3.69
   0   3   3  180.40    3.74
   0   3  -3  171.81    3.75
   0   3  -3  180.14    3.71
  -3   0  -3  172.41    3.74
   0  -3  -3  172.94    3.70
   0  -3  -3  178.95    3.68
   3   0   3  176.04    3.71
   0   3  -5   27.17    0.75
  -3   0   5   26.88    0.77
   3   0   5   24.56    0.73
   3   0  -5   27.21    0.75
   0   3  -5   25.51    0.83
   0   3   5   27.14    0.83
   0  -3  -5   26.64    0.74
   0  -3   5   26.09    0.71
   0   3  -5   26.58    0.75
  -3   0  -5   26.74    0.83
   0   3   5   25.18    0.73
   0  -3   5   24.62    0.74
   3   0  -5   27.99    0.78
  -3   0   5   24.64    0.60
   0   3  -5   24.82    0.70
  -3   0   5   24.54    0.74
  -3   0  -7    1.54    0.24
   0  -3   7    1.76    0.16
   3   0  -7    2.30    0.23
  -3   0   7    1.68    0.22
   0  -3   7    1.91    0.23
   3   0  -7    1.92    0.24
   0   3  -7    1.67    0.21
  -3   0   7    1.89    0.17
   0   3  -7    1.73    0.23
   3   0   7    2.04    0.21
   0   3  -7    1.82    0.29
   0   3   7    1.85    0.25
   0   3  -7    1.72    0.21
   0   3   7    1.75    0.19
  -3   0   7    1.71    0.22
   0  -3  -7    1.71    0.19
   3   0   9   10.97    0.48
   0   3  -9   10.94    0.54
   0   3  -9   11.52    0.63
   0   3  -9   12.17    0.56
   0  -3   9   11.48    0.43
   3   0  -9   10.91    0.56
   0  -3   9   11.09    0.51
   3   0  -9   11.62    0.61
   3   0  -9   11.96    0.55
   3   0   9   11.56    0.61
   0   3   9   11.55    0.61
   0   3   9   12.62    0.54
  -3   0   9   11.47    0.56
  -3   0  -9   11.49    0.58
  -3   0   9   11.91    0.49
   0  -3   9   12.00    0.59
   0  -3  -9   11.95    0.52
   0  -3   9   11.17    0.55
  -3   0   9   11.75    0.57
   0  -3  11   -0.03    0.20
   0  -3  11    0.12    0.18
   3   0  11    0.27    0.22
   0   3 -11    0.18    0.26
   3   0 -11   -0.16    0.28
  -3   0  11    0.12    0.18
   0   3  11   -0.18    0.20
   0   3 -11    0.16    0.18
   0  -3 -11   -0.06    0.14
   0   3 -11   -0.02    0.23
  -3   0  11    0.10    0.12
  -3   0 -11    0.05    0.19
   0  -3 -11    0.05    0.20
   0   3  11    0.07    0.15
  -3   0  11    0.11    0.19
   3   0 -11   -0.02    0.20
   0  -3 -11    0.50    0.35
  -3   0 -13    0.65    0.31
   3   0 -13    0.04    0.32
   3   0 -13    0.39    0.26
   0  -3 -13    0.53    0.20
   0  -3  13    0.55    0.26
   0   3 -13    0.49    0.32
  -3   0  13    0.22    0.18
  -3   0 -13    0.45    0.26
  -3   0  13    0.14    0.23
   0   3  13    0.51    0.27
   0  -3 -13    1.25    0.44
   0   3 -13    0.43    0.31
   0  -3  13    0.24    0.22
   3   0  13    0.63    0.28
   0  -3 -13    0.03    0.24
   3   0 -15    4.81    0.56
   0  -3 -15    5.66    0.51
   0   3  15    5.59    0.56
  -3   0 -15    5.90    0.37
   0   3 -15    5.22    0.54
   0  -3 -15    5.38    0.62
   0  -3 -15    5.41    0.46
   3   0  15    6.22    0.58
   0  -3  15    5.67    0.52
   0  -3  15    4.08    0.42
  -3   0 -15    4.92    0.55
   0   3 -15    5.82    0.54
  -3   0 -15    5.92    0.53
  -3   0  15    5.04    0.51
   3   0 -15    5.07    0.51
   3   0  17    0.86    0.39
   0   3 -17    0.12    0.34
  -3   0 -17    0.70    0.40
   3   0 -17    0.08    0.29
   0   3  17    0.31    0.27
   3   0 -17    0.53    0.39
   0  -3 -17    0.43    0.30
   0  -3 -17    0.46    0.23
  -3   0  17    0.67    0.31
   0  -3  17    0.90    0.33
   3   0  17    0.51    0.22
   0   3 -17    0.87    0.39
  -3   0 -17    0.34    0.15
   0  -3 -17    1.65    0.52
   0  -3 -19    7.57    0.77
   0   3 -19    5.60    0.66
  -3   0  19    6.30    0.62
   3   0 -19    7.12    0.73
  -3   0 -19    7.00    0.72
   0   3  19    6.45    0.67
  -3   0 -19    6.20    0.41
  -3   0 -19    7.91    0.76
   3   0  19    7.59    0.71
   0  -3 -19    6.00    0.60
   0   3 -19    6.31    0.63
   3   0 -19    7.58    0.69
   3   0 -21    1.64    0.42
   0   3 -21    1.88    0.49
   0  -3 -21    1.73    0.41
   0   3 -21    0.73    0.41
  -3   0 -21    1.04    0.49
  -3   0 -21    1.28    0.44
   0  -3 -21    1.79    0.53
   0   3  21    1.77    0.43
  -3   0  21    1.45    0.39
  -3   0  23    0.10    0.33
   0   3  23    0.44    0.35
  -3   0 -23    0.58    0.43
   0  -3 -23    0.21    0.43
   0   3 -23    0.26    0.40
  -3   0 -23    0.82    0.51
   0  -3 -23   -0.45    0.35
   3   0 -23   -0.13    0.32
   0   3 -23    0.28    0.39
   0   3 -25    0.71    0.45
  -3   0 -25    1.14    0.47
   0  -3 -25    1.49    0.48
   0   3 -25    0.62    0.43
   0   3  25    1.39    0.47
   0  -3 -25    0.29    0.46
  -3   0  25    0.93    0.41
   3   0 -25    1.10    0.44
  -3   0 -25    1.68    0.58
   3   0 -27    0.38    0.38
   0  -3 -27    0.08    0.36
  -1  -3 -28    0.72    0.44
  -3   1  26    0.82    0.43
  -3  -1 -26    0.33    0.45
  -1  -3 -26   -0.18    0.37
   1   3 -26   -1.07    0.48
  -3  -1 -26   -0.35    0.52
   3   1 -26    0.80    0.44
  -1  -3 -24    0.10    0.35
  -3  -1 -24   -0.72    0.50
   1   3 -24    0.26    0.37
   3   1 -24    0.08    0.36
  -1  -3 -24    0.12    0.44
  -1   3  24   -0.39    0.38
  -3  -1 -24   -0.23    0.40
  -3   1  24   -0.33    0.32
  -3   1  22    2.83    0.50
  -3  -1 -22    2.70    0.55
  -1  -3 -22    1.94    0.54
  -1   3  22    1.69    0.43
   1   3 -22    2.30    0.49
   3   1 -22    2.30    0.48
  -1  -3 -22    2.09    0.47
  -3  -1 -22    3.51    0.62
   1   3 -22    2.01    0.49
  -3   1  20    7.65    0.71
  -1   3  20    7.91    0.75
  -1  -3 -20    8.09    0.73
  -1  -3 -20    7.77    0.65
   1   3 -20    8.04    0.73
  -3  -1 -20    8.25    0.79
  -1  -3 -20    7.03    0.77
   1   3 -20    7.83    0.76
   3   1 -20    8.17    0.74
  -3  -1 -20    7.90    0.81
  -1  -3 -18    4.61    0.52
  -1   3  18    4.93    0.59
  -3  -1 -18    3.94    0.33
   1   3 -18    4.33    0.57
   3   1 -18    5.03    0.56
  -1  -3 -18    4.38    0.47
  -3  -1 -18    4.70    0.51
  -1  -3 -18    4.80    0.66
  -3   1  18    5.04    0.55
   1   3 -18    4.98    0.56
  -3  -1 -18    4.88    0.59
  -1  -3 -16    8.14    0.58
   1   3 -16    8.34    0.69
  -3  -1 -16    8.54    0.70
   3   1 -16    8.46    0.66
   1  -3  16    6.87    0.51
   1  -3  16    6.65    0.30
   3   1 -16    6.94    0.67
  -3  -1 -16    6.47    0.56
   3  -1  16    7.30    0.43
   1   3 -16    7.47    0.64
   3  -1  16    7.45    0.43
  -1  -3 -16    8.64    0.75
  -1   3  16    7.59    0.66
  -1  -3 -16    7.73    0.62
  -3   1  16    8.21    0.64
   3  -1  14    8.56    0.42
  -3  -1 -14    8.87    0.68
  -1  -3 -14    8.73    0.61
   1   3 -14    9.30    0.64
  -1  -3 -14    9.64    0.58
  -3   1  14    9.01    0.63
   1  -3  14    8.39    0.50
  -1   3  14    8.09    0.62
   3   1 -14    8.48    0.62
   3   1 -14    7.75    0.63
   1  -3  14    7.91    0.31
  -3  -1 -14    8.80    0.60
   3  -1  14    8.60    0.44
  -3   1  14    8.79    0.51
   1   3 -14    9.18    0.68
  -3   1  12   14.85    0.61
   3  -1  12   13.24    0.48
   3  -1  12   14.32    0.54
  -1   3  12   14.76    0.64
   3   1 -12   12.31    0.71
   1  -3  12   11.66    0.37
  -3   1  12   13.76    0.71
   1  -3  12   13.16    0.58
   1   3 -12   13.55    0.69
  -1   3  12   14.00    0.74
   3   1 -12   13.30    0.72
  -3  -1 -12   13.05    0.69
  -1  -3 -12   13.96    0.67
   1   3 -12   13.31    0.76
  -3   1  10   36.29    1.16
   1   3 -10   35.82    1.24
   3  -1  10   34.68    0.90
  -3   1  10   35.56    1.18
   3   1 -10   35.80    1.19
   3  -1  10   36.26    0.98
   3   1 -10   36.90    1.14
   1   3 -10   38.26    1.15
  -3   1  10   37.02    1.04
  -1  -3 -10   36.57    1.14
   1   3 -10   35.38    1.14
   1  -3  10   36.54    1.04
  -1   3  10   34.56    1.21
  -3  -1 -10   36.77    1.20
  -1   3  10   36.61    1.08
   1   3  -8   16.63    0.74
   3  -1   8   17.87    0.57
   3   1  -8   18.41    0.66
  -3   1   8   17.85    0.57
  -1   3   8   16.88    0.72
  -3   1   8   17.81    0.70
  -3  -1  -8   18.04    0.72
   3   1  -8   17.06    0.69
  -1   3   8   18.11    0.62
   1   3  -8   19.40    0.67
  -1  -3  -8   18.52    0.68
   1  -3   8   17.76    0.59
   1   3  -8   18.02    0.66
   3  -1   8   16.35    0.45
   1  -3   8   17.14    0.58
  -3   1   8   17.88    0.66
  -3   1   6    1.52    0.13
   1   3  -6    1.55    0.18
  -1   3   6    1.59    0.16
  -3  -1  -6    1.54    0.23
   3  -1   6    1.30    0.15
   3   1  -6    1.53    0.22
   1   3  -6    1.45    0.21
   1   3  -6    1.53    0.19
  -1   3   6    1.44    0.21
   3   1  -6    1.44    0.17
  -1  -3  -6    1.66    0.21
  -3   1   6    1.52    0.18
   1   3  -6    2.04    0.27
   1  -3   6    1.59    0.17
  -3   1   6    1.54    0.20
  -1   3   4   26.71    0.79
  -3   1   4   26.09    0.70
   1   3  -4   26.18    0.63
  -3  -1  -4   27.52    0.80
  -3   1   4   25.50    0.65
  -1   3   4   26.37    0.68
   1   3  -4   24.74    0.80
  -3   1   4   25.19    0.74
  -1  -3  -4   26.56    0.75
   1   3  -4   26.29    0.78
   1   3  -4   26.78    0.68
   3   1  -4   25.73    0.68
   3   1  -4   25.76    0.77
   3  -1   4   25.23    0.69
  -3  -1  -2   33.93    0.90
  -3   1   2   34.33    0.86
  -1  -3  -2   35.50    0.90
   1   3  -2   36.16    0.93
   1   3  -2   34.45    0.84
   3   1  -2   36.43    0.91
  -1   3   2   36.88    0.90
   1   3  -2   33.35    0.90
  -1  -3  -2   34.44    0.84
   3   1   0   16.85    0.52
   1   3   0   15.79    0.47
  -1   3   0   15.30    0.41
   1  -3   0   15.61    0.48
  -3   1   0   15.53    0.43
  -3  -1   0   16.49    0.47
   3  -1   0   17.23    0.46
  -3   1   0   15.73    0.49
   1   3   0   16.08    0.40
   3   1   0   15.50    0.49
  -3   1  -2   34.46    0.92
  -1   3  -2   35.39    0.91
   3  -1  -2   37.05    0.90
   3  -1  -2   36.84    0.85
   1  -3  -2   36.35    0.92
   1  -3  -2   35.44    0.91
   3   1   2   36.06    0.95
   1   3   2   37.29    0.90
   3   1   2   35.78    0.85
  -1   3  -4   28.76    0.73
   1   3   4   27.22    0.81
  -3  -1   4   26.07    0.71
  -1  -3   4   28.31    0.71
  -1   3  -4   26.20    0.82
   1  -3  -4   27.27    0.70
  -3   1  -4   27.62    0.73
   1  -3  -4   28.43    0.85
   3   1   4   26.37    0.79
  -1  -3   4   27.40    0.66
  -3   1  -4   25.86    0.81
   1  -3  -4   26.23    0.79
   3  -1  -4   27.61    0.72
  -1   3  -6    1.98    0.21
   3  -1  -6    1.86    0.20
  -1  -3   6    1.84    0.19
   1   3   6    1.95    0.21
   1  -3  -6    2.17    0.33
  -1   3  -6    1.92    0.27
   1  -3  -6    1.84    0.18
  -1  -3   6    1.65    0.12
  -1   3  -6    1.64    0.18
   1   3   6    1.76    0.20
   3   1   6    2.00    0.26
   1   3   6    1.68    0.24
  -3  -1   6    1.78    0.20
   1  -3  -6    1.59    0.16
  -1  -3   6    1.46    0.22
  -3   1  -6    1.95    0.25
  -1   3  -6    1.70    0.18
   3   1   8   17.81    0.74
  -3  -1   8   19.36    0.74
  -1   3  -8   17.56    0.76
   3  -1  -8   18.28    0.70
   3  -1  -8   16.75    0.74
  -1   3  -8   17.60    0.60
   3  -1  -8   18.75    0.68
  -1  -3   8   17.11    0.52
   1   3   8   16.92    0.73
  -3   1  -8   16.93    0.72
   1  -3  -8   18.81    0.63
  -1  -3   8   18.10    0.69
  -1   3  -8   19.05    0.70
   1  -3  -8   18.23    0.65
   1  -3  -8   17.98    0.78
   1   3   8   17.16    0.66
  -3  -1   8   18.05    0.71
  -3  -1   8   18.33    0.68
  -1  -3   8   17.26    0.65
   1  -3 -10   35.49    1.28
   1   3  10   36.46    1.26
  -3  -1  10   39.87    1.26
   1  -3 -10   37.81    1.14
   1  -3 -10   38.66    1.11
  -1  -3  10   36.80    1.19
   3  -1 -10   38.15    1.18
  -1   3 -10   36.81    1.02
   1   3  10   36.93    1.16
  -3  -1  10   36.98    1.22
   3  -1 -10   39.03    1.22
  -1  -3  10   37.70    1.16
  -3   1 -10   35.42    1.22
  -3   1 -10   36.82    1.08
   3   1  10   35.19    1.23
  -1   3 -10   36.27    1.27
  -1  -3  10   36.91    1.16
  -1   3 -10   39.39    1.22
  -3  -1  10   35.09    1.16
  -3  -1  10   38.62    1.11
   3  -1 -10   36.18    1.27
   1  -3 -12   13.46    0.81
  -3   1 -12   14.38    0.80
   1  -3 -12   14.08    0.63
  -3   1 -12   15.13    0.60
   3  -1 -12   14.01    0.70
  -1   3 -12   14.90    0.73
  -3   1 -12   16.03    0.77
  -1   3 -12   15.27    0.81
  -1   3 -12   14.04    0.54
  -3  -1  12   14.68    0.65
  -1  -3  12   15.04    0.70
  -1  -3  12   14.12    0.70
   3   1  12   13.97    0.76
   1  -3 -12   13.87    0.68
   1   3  12   13.96    0.76
  -3  -1  12   14.48    0.71
   3  -1 -12   13.50    0.78
  -3  -1  14    8.96    0.61
   3  -1 -14    7.83    0.57
   1  -3 -14    8.62    0.53
  -1   3 -14    7.49    0.63
   1  -3 -14    9.23    0.59
  -3   1 -14    9.45    0.63
  -1  -3  14    8.83    0.59
   1   3  14    8.79    0.65
  -3   1 -14    9.11    0.69
  -3   1 -14    9.09    0.47
   3   1  14   10.12    0.69
   1  -3 -14    7.90    0.72
  -1   3 -14    9.74    0.66
   3  -1 -14    9.23    0.70
  -3   1 -16    8.40    0.71
   1  -3 -16    7.68    0.54
   1  -3 -16    7.71    0.60
   3  -1 -16    5.98    0.64
   1   3  16    8.06    0.66
  -1   3 -16    8.06    0.65
  -1   3 -16    7.58    0.67
  -3   1 -16    7.34    0.44
   3  -1 -16    7.83    0.61
  -1  -3  16    7.77    0.60
   3   1  16    7.08    0.64
  -3  -1  16    7.92    0.61
   1  -3 -16    6.00    0.67
   1  -3 -18    4.29    0.61
   3  -1 -18    4.81    0.53
   1   3  18    5.31    0.60
  -3   1 -18    5.10    0.61
   1  -3 -18    5.05    0.53
   3   1  18    4.90    0.57
  -1   3 -18    4.96    0.59
  -3   1 -18    4.97    0.36
   3  -1 -18    5.41    0.66
  -1  -3  18    6.26    0.59
  -3   1 -18    5.38    0.63
  -3  -1  18    4.99    0.53
  -1   3 -18    4.26    0.55
  -3  -1  20    7.88    0.71
  -3   1 -20    8.28    0.79
  -1   3 -20    7.33    0.71
   1   3  20    7.80    0.74
   1  -3 -20    7.99    0.78
   3   1  20    8.34    0.77
  -1  -3  20    7.70    0.70
   1  -3 -20    7.53    0.67
  -3   1 -20    6.96    0.75
  -1   3 -20    8.07    0.77
   3  -1 -20    6.69    0.74
   3  -1 -20    7.84    0.70
   1  -3 -22    2.59    0.49
   3   1  22    2.30    0.49
   1  -3 -22    2.47    0.55
  -3   1 -22    2.84    0.59
  -3   1 -22    2.59    0.54
  -3  -1  22    1.85    0.43
   1   3  22    2.31    0.50
  -1   3 -22    1.97    0.50
  -1   3 -22    1.46    0.46
   3  -1 -22    1.54    0.42
  -3   1 -24    0.49    0.49
  -1   3 -24   -0.28    0.44
  -1   3 -24    0.25    0.42
   1  -3 -24    0.58    0.37
   1  -3 -24   -0.54    0.49
  -3  -1  24    0.07    0.35
   1   3  24   -0.05    0.35
   3  -1 -24    0.41    0.32
  -3   1 -24   -0.06    0.38
   1  -3 -26    0.04    0.35
  -3  -1  26    0.07    0.32
  -1   3 -26   -0.11    0.43
  -1   3 -26    0.04    0.43
  -3   1 -26    0.32    0.47
  -3   1 -26    0.00    0.45
   3  -1 -26    1.11    0.44
   3  -1 -28    0.07    0.38
  -2  -3 -27    0.79    0.46
  -3  -2 -27    0.53    0.45
   3   2 -27    0.10    0.41
  -2  -3 -25    0.29    0.40
   3   2 -25   -0.14    0.39
  -3  -2 -25    0.74    0.47
  -2   3  25    0.08    0.35
  -3   2  25    0.40    0.41
  -2  -3 -25   -0.33    0.45
   2   3 -25   -0.12    0.42
  -3  -2 -25    0.29    0.39
   2   3 -23    2.69    0.54
  -2  -3 -23    1.98    0.48
  -3  -2 -23    1.66    0.52
  -3  -2 -23    1.41    0.44
   3   2 -23    2.32    0.51
  -2  -3 -23    2.46    0.60
  -3   2  23    0.98    0.37
  -2   3  23    1.43    0.44
  -3   2  21    9.40    0.80
  -2  -3 -21   10.41    0.93
  -3  -2 -21    9.22    0.86
  -3  -2 -21    8.75    0.79
  -2  -3 -21    8.29    0.70
   3   2 -21    8.71    0.80
  -2   3  21    8.56    0.81
  -2  -3 -21    9.11    0.79
   2   3 -21    9.26    0.84
  -2   3  19    5.17    0.59
  -2  -3 -19    4.51    0.51
  -3  -2 -19    4.23    0.57
   2   3 -19    4.68    0.59
  -3   2  19    4.66    0.56
  -3  -2 -19    5.05    0.54
   2   3 -19    4.32    0.55
   3   2 -19    3.83    0.54
  -3  -2 -19    6.13    0.69
  -2  -3 -19    4.96    0.57
  -2  -3 -19    4.66    0.65
  -2  -3 -17    8.09    0.75
  -3   2  17    8.03    0.68
  -3  -2 -17    8.35    0.63
  -2   3  17    7.07    0.65
  -3  -2 -17    7.89    0.69
  -2  -3 -17    7.17    0.63
   2   3 -17    8.15    0.67
  -2  -3 -17    8.09    0.61
   2   3 -17    8.07    0.70
   3   2 -17    8.54    0.69
  -2  -3 -15   45.77    1.61
   3  -2  15   47.06    1.21
   2  -3  15   43.42    1.07
   2  -3  15   43.65    1.29
   3   2 -15   43.44    1.59
  -3   2  15   45.49    1.62
   3  -2  15   45.57    1.23
   2   3 -15   43.26    1.62
   2   3 -15   45.18    1.57
  -2   3  15   47.04    1.66
  -2  -3 -15   46.97    1.55
  -3  -2 -15   48.51    1.67
  -3  -2 -15   47.05    1.58
  -3  -2 -13   20.54    0.91
  -2  -3 -13   23.53    0.93
   2  -3  13   20.25    0.72
   3  -2  13   20.78    0.65
  -3   2  13   20.25    0.77
   2   3 -13   20.66    0.97
  -3   2  13   21.33    0.96
   2   3 -13   20.45    0.91
   3  -2  13   20.24    0.65
  -2   3  13   20.70    0.80
   3   2 -13   20.52    0.95
   2  -3  13   18.64    0.54
  -2   3  13   19.87    0.94
   2   3 -11   21.23    0.81
  -2   3  11   21.01    0.90
   3  -2  11   21.26    0.62
  -3   2  11   19.41    0.85
   2  -3  11   18.31    0.50
  -2  -3 -11   20.40    0.83
   2   3 -11   20.19    0.91
   3   2 -11   20.88    0.90
   3  -2  11   20.14    0.60
   2   3 -11   19.84    0.83
  -3   2  11   21.66    0.73
  -2   3  11   21.43    0.74
   3   2 -11   21.62    0.81
   2  -3  11   19.74    0.66
  -3  -2 -11   19.69    0.85
   3   2  -9   78.66    2.11
   2  -3   9   79.28    1.84
  -3   2   9   81.42    1.88
   2   3  -9   83.99    2.01
  -2   3   9   79.71    2.12
  -3   2   9   80.20    2.09
  -2   3   9   81.47    1.91
   3  -2   9   76.63    1.74
  -2  -3  -9   78.71    2.05
  -3   2   9   82.06    2.01
   3   2  -9   84.89    2.01
   2   3  -9   82.63    2.16
  -3  -2  -9   79.98    2.10
   3  -2   9   83.17    1.81
  -3  -2  -7   47.56    1.36
   3  -2   7   48.92    1.15
  -3   2   7   47.45    1.35
  -3   2   7   48.33    1.15
  -2  -3  -7   50.03    1.35
   2  -3   7   48.36    1.28
   2   3  -7   48.65    1.25
   2   3  -7   47.33    1.40
  -3   2   7   50.36    1.26
  -2   3   7   48.55    1.19
   3   2  -7   51.10    1.27
  -2   3   7   48.84    1.38
   3   2  -7   49.78    1.39
   3   2  -5    2.56    0.26
   3   2  -5    2.45    0.17
  -2   3   5    2.32    0.23
  -2  -3  -5    2.34    0.23
  -3   2   5    2.33    0.23
   2  -3   5    2.07    0.20
  -3   2   5    2.10    0.11
  -2   3   5    2.18    0.14
   2   3  -5    1.98    0.26
  -3  -2  -5    2.23    0.24
   2   3  -5    2.14    0.17
   2   3  -5    2.54    0.27
  -3   2   5    2.48    0.18
   3   2  -3  109.19    2.45
  -2   3   3  113.48    2.45
  -3   2   3  105.87    2.36
  -3  -2  -3  106.47    2.45
   2   3  -3  112.01    2.48
   2   3  -3  109.84    2.36
  -2  -3  -3  112.74    2.45
  -3   2   3  109.19    2.28
   2   3  -3  104.05    2.45
   3   2  -3  112.40    2.49
  -3  -2  -1    8.58    0.35
   2   3  -1    8.05    0.35
  -2  -3  -1    8.77    0.29
   3   2  -1    8.65    0.37
  -2  -3  -1    9.07    0.36
   2   3  -1    9.20    0.40
  -2  -3  -1    8.53    0.26
  -3   2   1    9.05    0.35
   3   2  -1    8.55    0.37
   3   2  -1    7.98    0.38
   2   3  -1    9.03    0.36
   2   3   1    8.29    0.25
  -3   2  -1    7.37    0.35
   2   3   1    7.60    0.27
   3  -2  -1    7.98    0.33
   3   2   1    7.98    0.37
   2  -3  -1    8.35    0.34
  -2   3  -1    8.39    0.36
   3  -2  -1    7.82    0.24
  -2   3  -1    7.46    0.30
   3   2   1    7.66    0.34
   2   3   3  110.35    2.32
   3  -2  -3  108.22    2.36
  -2   3  -3  110.13    2.45
   3  -2  -3  112.31    2.28
  -2  -3   3  107.90    2.36
   2  -3  -3  109.98    2.45
   3   2   3  109.51    2.41
  -3  -2   3  106.74    2.27
   2   3   3  107.20    2.41
   2  -3  -3  113.97    2.28
  -3   2  -3  107.93    2.45
  -2   3  -3  107.04    2.44
   3  -2  -3  110.83    2.43
   2  -3  -3  105.81    2.42
  -3   2  -3  104.33    2.43
   3   2   3  107.04    2.46
   2  -3  -5    2.20    0.28
   2   3   5    2.13    0.20
   3  -2  -5    1.78    0.10
   3   2   5    1.50    0.23
  -2   3  -5    1.80    0.11
  -2   3  -5    2.10    0.18
   3  -2  -5    2.15    0.24
  -2  -3   5    1.73    0.20
   2  -3  -5    1.96    0.24
   2  -3  -5    1.73    0.15
  -3   2  -5    1.46    0.22
  -3   2  -5    1.77    0.16
   3  -2  -5    2.17    0.16
   2   3   5    1.77    0.23
   3  -2  -5    1.86    0.16
   2  -3  -5    2.01    0.14
  -2  -3   5    1.96    0.17
  -3  -2   5    1.97    0.17
  -2   3  -5    1.88    0.20
  -2  -3   5    1.77    0.16
  -2   3  -5    2.03    0.26
  -3   2  -5    1.81    0.21
  -3  -2   7   51.25    1.36
   3   2   7   48.20    1.38
  -2   3  -7   50.86    1.35
   2  -3  -7   49.88    1.43
  -2   3  -7   48.75    1.15
   2  -3  -7   48.24    1.18
  -2   3  -7   46.79    1.39
  -3  -2   7   47.35    1.26
   3  -2  -7   48.54    1.11
  -2  -3   7   48.90    1.29
  -2  -3   7   47.92    1.15
   3  -2  -7   48.96    1.14
  -3   2  -7   45.13    1.36
   3  -2  -7   48.08    1.41
  -2  -3   7   48.69    1.36
  -2   3  -7   48.52    1.27
  -3   2  -7   46.98    1.28
   2   3   7   48.65    1.39
   2  -3  -7   47.93    1.21
  -2  -3   7   47.88    1.25
   3  -2  -7   48.83    1.24
  -3  -2   9   83.34    2.12
   2  -3  -9   81.10    1.95
  -3   2  -9   82.24    2.17
  -2  -3   9   77.89    1.75
   3  -2  -9   77.97    1.71
   2  -3  -9   81.63    1.90
   3  -2  -9   81.05    1.97
  -3  -2   9   79.87    2.00
  -3  -2   9   79.31    2.11
  -3   2  -9   77.87    2.10
  -2  -3   9   78.86    1.98
  -3   2  -9   80.40    1.95
  -2  -3   9   83.67    2.08
   2   3   9   80.80    2.05
   2   3   9   78.96    2.13
   2  -3  -9   75.73    2.15
  -2   3  -9   79.54    1.93
   3  -2  -9   78.97    2.15
  -2   3  -9   84.63    2.09
  -3  -2   9   85.23    2.09
  -2   3  -9   75.08    2.13
   3   2   9   76.63    2.11
   3   2  11   19.62    0.88
  -3   2 -11   20.63    0.73
  -3   2 -11   20.23    0.92
  -2  -3  11   21.72    0.83
  -2  -3  11   20.79    0.84
  -2  -3  11   20.89    0.81
   2   3  11   20.24    0.89
   2  -3 -11   19.50    0.77
  -2   3 -11   20.39    0.70
   2  -3 -11   19.75    0.93
   3  -2 -11   20.31    0.79
  -2   3 -11   19.36    0.89
  -3  -2  11   20.69    0.78
   3  -2 -11   18.36    0.91
   2  -3 -11   21.92    0.73
  -3  -2  11   20.91    0.82
   3  -2 -11   17.18    0.46
   3   2  13   19.96    0.97
  -2  -3  13   21.52    0.90
   2  -3 -13   20.22    0.86
   2   3  13   19.95    0.96
   3  -2 -13   19.00    0.86
   3  -2 -13   20.30    1.01
   2  -3 -13   22.73    1.07
  -3   2 -13   19.18    0.74
  -3   2 -13   22.64    1.04
  -3  -2  13   20.60    0.89
   2  -3 -13   20.07    0.78
  -2   3 -13   20.86    1.00
  -2   3 -13   21.77    0.75
   2  -3 -15   43.05    1.48
  -3   2 -15   47.06    1.69
   3  -2 -15   44.98    1.69
   2   3  15   45.44    1.67
  -2   3 -15   47.24    1.58
  -3  -2  15   43.92    1.53
   3  -2 -15   42.41    1.48
   3   2  15   44.14    1.63
   2  -3 -15   44.01    1.39
  -3   2 -15   45.07    1.30
  -2   3 -15   45.41    1.28
   2  -3 -15   45.55    1.70
  -2   3 -15   43.94    1.67
  -2  -3  15   45.69    1.54
  -3   2 -17    8.17    0.74
   3  -2 -17    7.43    0.73
   3   2  17    6.55    0.64
   2  -3 -17    7.87    0.72
   2   3  17    7.45    0.68
   2  -3 -17    8.42    0.64
  -3  -2  17    9.50    0.69
  -3   2 -17    8.96    0.48
  -2   3 -17    7.45    0.69
   3  -2 -17    7.58    0.63
  -2   3 -17    9.94    0.73
  -2  -3  17    7.98    0.63
  -3   2 -19    5.27    0.63
   3   2  19    5.59    0.64
  -3   2 -19    4.95    0.37
  -2   3 -19    4.82    0.59
   2  -3 -19    4.76    0.53
  -2  -3  19    4.78    0.54
  -3  -2  19    4.09    0.52
   3  -2 -19    4.90    0.53
   2  -3 -19    5.03    0.66
   3  -2 -19    4.34    0.61
  -3   2 -19    5.46    0.65
   2   3  19    5.56    0.63
  -2   3 -19    5.00    0.63
  -3   2 -21    9.12    0.86
  -2  -3  21   10.28    0.81
   3  -2 -21    9.20    0.75
  -3   2 -21   10.28    0.86
   3  -2 -21    8.72    0.85
  -3  -2  21    9.32    0.76
   3   2  21    9.82    0.86
  -2   3 -21    9.37    0.85
   2   3  21    8.23    0.79
  -2   3 -21    9.08    0.80
   2  -3 -21    8.97    0.74
   2  -3 -21    8.09    0.84
   2   3  23    1.46    0.45
   2  -3 -23    1.76    0.51
  -2   3 -23    2.02    0.51
  -3   2 -23    2.29    0.56
   2  -3 -23    1.84    0.43
  -3  -2  23    1.73    0.44
   3   2  23    2.38    0.50
  -3   2 -23    2.43    0.57
  -2   3 -23    1.87    0.49
   3  -2 -23    2.60    0.50
   2  -3 -25    0.07    0.32
   2   3  25    0.26    0.40
  -3   2 -25   -0.36    0.44
  -2   3 -25   -0.07    0.40
  -3   2 -25    0.00    0.43
  -3  -2  25    0.22    0.32
   3  -2 -25   -0.33    0.32
  -2   3 -25   -0.31    0.41
   2  -3 -25    0.38    0.47
   2  -3 -27    0.01    0.34
   3  -2 -27    1.01    0.46
  -2   3 -27    0.10    0.48
  -3   2 -27   -0.02    0.47
   3   3 -26   -0.03    0.38
  -3  -3 -26    0.74    0.46
  -3   3  24    3.00    0.57
  -3  -3 -24    3.77    0.61
  -3  -3 -24    3.95    0.70
   3   3 -24    2.98    0.56
  -3  -3 -22    1.61    0.45
  -3   3  22    1.59    0.42
  -3  -3 -22    2.35    0.58
   3   3 -22    2.28    0.52
  -3  -3 -22    1.84    0.41
  -3  -3 -20    6.72    0.76
  -3   3  20    7.36    0.70
  -3  -3 -20    6.26    0.66
  -3  -3 -20    6.92    0.64
   3   3 -20    6.88    0.71
  -3  -3 -18   38.50    1.55
  -3   3  18   37.50    1.56
   3   3 -18   33.44    1.49
  -3  -3 -18   34.67    1.43
  -3  -3 -16    6.35    0.55
   3   3 -16    5.87    0.60
   3  -3  16    5.90    0.28
   3  -3  16    6.23    0.39
  -3   3  16    6.35    0.58
  -3  -3 -16    6.83    0.62
  -3   3  14   16.12    0.68
   3  -3  14   14.88    0.56
   3  -3  14   15.15    0.47
  -3   3  14   15.19    0.83
   3   3 -14   14.18    0.84
  -3  -3 -14   14.85    0.79
  -3   3  12   96.07    2.27
  -3   3  12   95.72    2.55
   3   3 -12   95.33    2.56
  -3  -3 -12   95.46    2.50
   3   3 -12   93.33    2.39
   3  -3  12   91.35    2.03
  -3   3  10   68.02    1.94
  -3  -3 -10   70.43    1.92
  -3   3  10   69.63    1.69
   3   3 -10   71.00    1.82
   3   3 -10   69.35    1.97
   3   3  -8    8.01    0.39
  -3   3   8    8.06    0.32
  -3   3   8    7.35    0.45
   3   3  -8    7.27    0.48
  -3  -3  -8    7.19    0.45
  -3   3   6  102.48    2.27
   3   3  -6  105.37    2.29
   3   3  -6  107.82    2.50
  -3   3   6  101.88    2.20
  -3   3   6  102.79    2.46
  -3  -3  -6  105.87    2.47
   3   3  -4   93.43    2.19
  -3   3   4   89.82    2.14
  -3  -3  -4   95.13    2.17
   3   3  -4   92.73    1.94
   3   3  -4   91.45    2.17
  -3   3   4   90.15    1.93
   3   3  -2    8.54    0.40
  -3  -3  -2    8.28    0.38
  -3  -3  -2    8.23    0.34
   3   3  -2    7.44    0.41
   3   3  -2    8.55    0.38
   3   3   0    0.76    0.22
  -3  -3   0    0.58    0.08
   3   3   0    0.39    0.19
  -3   3   0    0.68    0.16
   3   3   0    0.67    0.18
   3  -3   0    0.75    0.18
   3   3   2    8.65    0.34
   3   3   2    8.84    0.44
   3   3   2    8.79    0.26
   3  -3  -2    8.95    0.39
  -3   3  -2    8.59    0.41
   3  -3  -4   93.88    2.09
   3  -3  -4   88.73    1.85
  -3  -3   4   86.40    2.00
  -3   3  -4   93.71    2.10
   3   3   4   90.24    2.07
   3  -3  -4   90.19    2.00
  -3  -3   4   87.19    1.88
   3  -3  -4   84.27    1.83
   3   3   4   92.47    1.95
  -3  -3   6  104.35    2.37
   3  -3  -6  105.51    2.25
  -3   3  -6  105.15    2.26
  -3  -3   6  103.77    2.34
   3  -3  -6  108.68    2.58
  -3   3  -6  108.27    2.25
   3   3   6  108.23    2.54
   3  -3  -6  107.02    2.31
   3  -3  -6  105.16    2.34
   3  -3  -6  106.49    2.51
  -3  -3   6  111.92    2.46
  -3   3  -6  107.03    2.48
  -3   3  -8    8.98    0.44
   3   3   8    8.46    0.51
  -3  -3   8    8.03    0.50
   3  -3  -8    9.19    0.40
  -3  -3   8    8.41    0.46
   3  -3  -8    8.17    0.33
   3  -3  -8    8.41    0.34
  -3   3  -8    8.59    0.54
  -3  -3   8    8.21    0.41
   3  -3  -8    7.06    0.53
  -3   3 -10   75.44    2.07
   3  -3 -10   71.99    1.62
  -3  -3  10   72.55    1.86
  -3  -3  10   66.87    1.55
   3   3  10   71.62    2.02
   3  -3 -10   70.52    2.05
   3  -3 -10   73.12    1.82
  -3   3 -10   72.08    1.82
  -3  -3  10   74.78    2.00
   3  -3 -10   73.32    1.72
  -3  -3  10   76.91    1.96
   3  -3 -12   95.64    2.25
  -3   3 -12   94.15    2.60
  -3  -3  12   96.44    2.42
   3  -3 -12   92.82    2.03
   3  -3 -12   93.59    2.36
   3   3  12   90.50    2.55
   3  -3 -12   94.26    2.62
  -3   3 -12   90.94    2.28
  -3   3 -14   14.43    0.87
   3  -3 -14   14.47    0.73
   3   3  14   14.84    0.85
  -3   3 -14   15.06    0.64
   3  -3 -14   11.88    0.84
  -3  -3  14   13.81    0.73
   3  -3 -14   13.98    0.39
  -3  -3  16    6.92    0.56
   3  -3 -16    8.23    0.75
   3  -3 -16    7.30    0.58
   3   3  16    6.52    0.62
  -3   3 -16    6.81    0.44
  -3   3 -16    7.38    0.70
  -3   3 -18   38.90    1.65
   3   3  18   39.55    1.64
   3  -3 -18   38.64    1.45
  -3  -3  18   38.92    1.50
  -3   3 -18   36.33    1.50
   3  -3 -18   36.93    1.64
  -3   3 -18   35.47    1.17
   3  -3 -20    6.19    0.74
  -3   3 -20    7.11    0.74
   3   3  20    6.87    0.72
  -3  -3  20    7.01    0.66
   3  -3 -20    7.47    0.64
  -3   3 -20    6.86    0.69
  -3  -3  22    1.46    0.40
  -3   3 -22    2.79    0.55
  -3   3 -22    0.79    0.43
   3  -3 -22    1.04    0.39
   3   3  22    2.31    0.51
   3  -3 -22    1.66    0.52
   3   3  24    4.39    0.66
  -3  -3  24    4.26    0.60
   3  -3 -24    3.71    0.56
  -3   3 -24    2.73    0.55
  -3   3 -24    3.83    0.67
   3  -3 -26    0.24    0.33
  -3   3 -26    1.01    0.48
  -4   0   0    0.56    0.12
   0   4   0    0.49    0.12
   0  -4   0    0.26    0.13
  -4   0   0    0.35    0.09
   0  -4   0    0.47    0.12
   4   0   0    0.39    0.10
   4   0  -2    0.39    0.14
  -4   0  -2    0.14    0.13
  -4   0   2    0.16    0.11
   0  -4  -2    0.09    0.13
   4   0  -2    0.05    0.12
   0  -4  -2    0.04    0.09
   0   4   2    0.06    0.11
   4   0   2    0.23    0.18
  -4   0  -2    0.03    0.13
  -4   0   2    0.07    0.07
   0   4  -2    0.11    0.15
   0   4  -4    0.17    0.18
   4   0  -4    0.38    0.15
  -4   0   4    0.31    0.12
   0   4   4    0.16    0.14
   0  -4  -4    0.21    0.14
   4   0   4    0.28    0.16
   0  -4  -4    0.24    0.12
  -4   0   4    0.20    0.12
  -4   0  -4    0.17    0.18
   0   4  -4    0.53    0.21
  -4   0  -4    0.34    0.17
   0   4  -6   38.63    1.00
  -4   0   6   35.90    1.02
  -4   0   6   35.76    1.00
  -4   0  -6   33.66    1.07
   0   4   6   35.83    1.08
   0   4  -6   34.81    1.10
   4   0  -6   36.71    1.00
   0  -4   6   34.08    0.96
   4   0  -6   35.40    1.01
  -4   0   6   34.77    0.83
   0   4   6   35.76    0.98
   0   4  -6   36.83    1.01
   0   4  -6   34.58    0.92
   0  -4  -6   35.94    0.99
   4   0   6   36.85    1.00
  -4   0   8    0.36    0.11
   0   4  -8    0.24    0.17
   0   4   8    0.19    0.14
  -4   0   8    0.28    0.18
   0  -4  -8    0.44    0.18
   0   4  -8    0.31    0.19
  -4   0  -8    0.36    0.22
   4   0  -8    0.22    0.18
   0   4   8    0.47    0.22
   0   4  -8    0.28    0.25
   4   0   8    0.32    0.17
   0  -4   8    0.26    0.12
   4   0  -8    0.25    0.14
   0  -4   8    0.44    0.19
  -4   0   8    0.37    0.18
   0   4  -8    0.39    0.16
   0  -4  10    0.44    0.12
  -4   0  10    0.21    0.17
   0   4  10    0.36    0.22
  -4   0  10    0.39    0.13
   4   0  10    0.36    0.17
  -4   0 -10    0.48    0.23
   0   4 -10    0.40    0.21
  -4   0  10    0.42    0.19
   0   4 -10    0.28    0.16
   4   0 -10    0.06    0.13
   0  -4  10    0.45    0.22
   0   4 -10    0.27    0.23
   0  -4 -10    0.26    0.16
   0  -4 -10    0.98    0.37
   4   0 -10    0.26    0.22
   0   4  10    0.33    0.15
   0   4 -12    0.74    0.26
   4   0  12    0.58    0.20
   0   4  12    0.50    0.24
   4   0 -12    0.55    0.26
   0   4 -12    1.21    0.33
   0  -4 -12    0.81    0.42
   0  -4 -12    0.66    0.21
  -4   0  12    0.52    0.21
  -4   0 -12    0.39    0.23
   0  -4  12    0.65    0.23
   0  -4 -12    0.84    0.24
  -4   0  12    0.34    0.13
   4   0  14    0.43    0.21
   0   4  14    0.01    0.28
   0   4 -14    0.18    0.29
  -4   0 -14    0.34    0.25
   0  -4 -14    0.42    0.44
   0  -4  14   -0.09    0.24
   4   0 -14    0.30    0.28
   0  -4 -14    0.46    0.29
  -4   0  14    0.43    0.26
   0   4 -14    0.61    0.35
  -4   0  14    0.15    0.17
   0  -4 -14    0.23    0.23
   0  -4 -16    0.37    0.22
   0   4 -16    0.66    0.35
  -4   0 -16    0.64    0.18
  -4   0  16    0.30    0.23
   0   4  16    0.40    0.27
   4   0  16    0.39    0.17
   0  -4 -16    1.18    0.48
   4   0 -16    0.97    0.31
  -4   0 -16    1.09    0.31
   0   4 -16    0.65    0.36
   4   0  16    0.63    0.22
   0  -4 -16    0.69    0.30
  -4   0 -16    0.19    0.35
   0  -4 -18    0.86    0.32
   0   4 -18    0.86    0.36
   0   4 -18    1.65    0.43
   0  -4 -18    0.54    0.41
   0  -4 -18    0.86    0.26
  -4   0 -18    0.90    0.38
  -4   0  18    1.49    0.35
  -4   0 -18    1.06    0.21
  -4   0 -18    1.04    0.31
   0   4  18    1.47    0.39
   4   0 -18    1.40    0.38
   0   4 -20    2.50    0.49
   0   4  20    2.02    0.47
   4   0 -20    2.80    0.48
  -4   0  20    2.02    0.42
   0   4 -20    3.02    0.55
   0  -4 -20    3.28    0.51
  -4   0 -20    2.86    0.55
  -4   0 -20    2.79    0.31
   0  -4 -20    2.98    0.44
   0  -4 -20    3.17    0.60
   0   4  22    0.00    0.31
  -4   0  22    0.36    0.33
  -4   0 -22    0.19    0.38
   0  -4 -22    0.10    0.43
   0  -4 -22    0.15    0.32
   0   4 -22    0.51    0.43
  -4   0 -22    0.88    0.49
   4   0 -22    0.23    0.33
   0   4 -22    0.07    0.33
   0   4 -24    3.64    0.60
  -4   0 -24    2.70    0.58
  -4   0 -24    3.84    0.64
   4   0 -24    3.02    0.57
  -4   0  24    3.09    0.54
   0  -4 -24    2.96    0.52
   0   4 -24    3.83    0.67
   0  -4 -24    3.29    0.66
   0   4  24    3.17    0.57
   4   0 -26    0.02    0.38
   0  -4 -26    0.69    0.44
   0   4 -26    0.87    0.49
  -4   0  26    0.29    0.33
  -4   0 -26    1.26    0.57
  -4   0 -26    0.41    0.44
  -1  -4 -27    0.64    0.44
   4   1 -27    1.21    0.48
  -4   1  25    0.14    0.31
   4   1 -25    0.56    0.38
  -1  -4 -25    0.30    0.44
  -4  -1 -25    0.47    0.43
   1   4 -25    0.17    0.36
  -1  -4 -25   -0.16    0.43
  -4  -1 -25    0.85    0.55
  -1   4  25    0.14    0.37
  -1  -4 -23    0.22    0.44
   4   1 -23    0.93    0.39
  -4  -1 -23    1.35    0.49
  -4  -1 -23    0.73    0.44
   1   4 -23    0.59    0.40
  -1  -4 -23    0.55    0.37
  -4   1  23    0.11    0.31
  -1   4  23    0.41    0.35
   1   4 -21    0.19    0.35
  -1  -4 -21    0.80    0.48
  -1   4  21    0.51    0.35
   1   4 -21    0.08    0.38
  -4  -1 -21    1.63    0.52
  -1  -4 -21    1.06    0.37
  -4  -1 -21    0.88    0.42
  -1  -4 -21    0.20    0.25
   4   1 -21    0.69    0.34
  -4   1  21    0.68    0.34
  -1   4  19    5.53    0.62
   1   4 -19    5.17    0.58
  -1  -4 -19    4.72    0.66
  -4  -1 -19    5.51    0.41
  -4  -1 -19    5.92    0.60
  -1  -4 -19    5.30    0.59
   1   4 -19    4.78    0.62
  -1  -4 -19    5.56    0.54
  -4  -1 -19    4.71    0.63
  -4   1  19    3.99    0.53
   4   1 -19    5.59    0.60
  -1   4  17    1.05    0.36
  -4   1  17    2.65    0.42
  -1  -4 -17    1.27    0.28
   4   1 -17    2.14    0.42
   1   4 -17    1.03    0.36
   1   4 -17    1.33    0.42
  -1  -4 -17    1.56    0.51
  -4  -1 -17    1.70    0.36
  -1  -4 -17    2.01    0.39
  -4  -1 -17    2.63    0.48
   4   1 -15    2.71    0.43
  -1   4  15    2.26    0.40
   1   4 -15    2.19    0.43
   4  -1  15    2.39    0.28
   1  -4  15    2.49    0.34
   4  -1  15    1.75    0.20
   1   4 -15    2.54    0.41
  -4  -1 -15    2.43    0.38
  -1  -4 -15    2.54    0.39
  -4   1  15    2.66    0.40
  -1  -4 -15    2.20    0.53
  -1  -4 -15    2.42    0.35
   1   4 -13    3.57    0.41
  -4   1  13    5.05    0.35
  -4   1  13    5.18    0.47
   4  -1  13    4.70    0.25
   4   1 -13    4.82    0.47
  -1   4  13    4.40    0.47
  -4  -1 -13    4.90    0.48
   4  -1  13    4.84    0.34
  -1  -4 -13    4.93    0.42
   1  -4  13    4.39    0.37
   1   4 -13    5.23    0.53
  -4   1  11   10.20    0.58
   1   4 -11    9.55    0.54
   4   1 -11    9.19    0.56
   4   1 -11    9.91    0.53
   1   4 -11   10.22    0.65
   4  -1  11    9.73    0.44
   1  -4  11    9.75    0.48
  -4   1  11    9.30    0.44
  -1   4  11    9.80    0.61
  -1  -4 -11    8.97    0.52
  -4  -1 -11    9.02    0.57
   1   4 -11    8.62    0.51
  -1   4  11    9.70    0.49
   4  -1  11    8.06    0.29
  -4   1  11   10.11    0.56
   1   4  -9   29.60    1.09
  -4   1   9   29.42    0.84
  -1  -4  -9   29.42    0.97
   1   4  -9   31.02    0.97
   1  -4   9   29.44    0.89
  -4   1   9   29.65    1.01
   4  -1   9   30.85    0.88
   4   1  -9   31.00    0.97
  -4   1   9   31.35    0.99
   1  -4   9   29.71    0.90
  -1   4   9   29.94    1.07
   1   4  -9   29.44    0.95
   4   1  -9   29.41    1.02
  -4  -1  -9   28.40    1.04
  -1   4   9   29.61    0.91
   4   1  -7    8.82    0.47
   1  -4   7    8.93    0.41
   4  -1   7    9.00    0.40
  -4   1   7    8.64    0.42
  -4   1   7    8.91    0.45
  -1   4   7    9.63    0.40
  -4  -1  -7    8.51    0.48
   1   4  -7    9.43    0.47
   4   1  -7    8.70    0.41
   1   4  -7    8.93    0.41
  -1  -4  -7    9.09    0.45
   1   4  -7    8.22    0.50
  -1   4   7    9.42    0.50
  -4   1   7    8.60    0.32
   4  -1   5   17.62    0.57
   1  -4   5   18.24    0.60
  -4   1   5   15.86    0.42
  -4   1   5   17.45    0.57
  -4  -1  -5   16.75    0.65
  -4   1   5   17.22    0.60
  -1  -4  -5   17.82    0.61
   1   4  -5   18.38    0.65
   1   4  -5   16.99    0.67
   4   1  -5   17.71    0.63
   1   4  -5   18.28    0.54
   1   4  -5   17.02    0.47
  -1   4   5   17.58    0.54
  -1   4   5   17.73    0.65
  -4   1   5   17.54    0.51
  -4   1   3    7.73    0.32
   1   4  -3    8.18    0.41
  -1  -4  -3    7.83    0.36
  -1   4   3    8.15    0.37
   1   4  -3    8.93    0.43
   4   1  -3    8.00    0.38
  -1  -4  -3    7.38    0.33
  -4  -1  -3    7.84    0.39
  -4   1   3    7.93    0.33
   1   4  -3    7.80    0.32
  -4  -1  -1    1.37    0.17
  -1  -4  -1    1.40    0.13
   1   4  -1    1.60    0.19
  -1   4   1    1.53    0.11
  -1  -4  -1    1.36    0.15
  -4   1   1    1.33    0.11
   1  -4   1    1.73    0.18
  -4  -1   1    1.28    0.11
   4   1   1    1.05    0.21
   1  -4  -1    1.15    0.19
   4   1   1    1.32    0.20
  -4   1  -1    1.31    0.16
   4  -1  -1    1.22    0.10
   1  -4  -1    1.04    0.17
   4  -1  -1    1.08    0.16
  -1   4  -1    1.38    0.16
   1   4   1    1.31    0.16
   1  -4  -1    1.32    0.11
  -4  -1   1    1.12    0.13
   1   4   1    1.23    0.13
   1   4   3    7.97    0.34
   4  -1  -3    7.63    0.32
   4   1   3    7.90    0.39
   4  -1  -3    7.67    0.35
   1   4   3    7.88    0.36
   1  -4  -3    7.74    0.31
  -4   1  -3    7.50    0.37
   1  -4  -3    7.83    0.37
  -1   4  -3    7.96    0.38
   1  -4  -3    8.78    0.41
  -4   1  -3    7.46    0.36
   4   1   3    7.59    0.30
   1   4   5   16.91    0.60
   1  -4  -5   17.97    0.69
  -4   1  -5   16.34    0.57
   1   4   5   18.06    0.60
  -4  -1   5   16.68    0.55
   4   1   5   17.02    0.46
  -4   1  -5   16.66    0.65
   1  -4  -5   17.16    0.62
   1   4   5   17.80    0.65
   1  -4  -5   17.11    0.54
  -1  -4   5   16.23    0.62
  -1  -4   5   17.94    0.52
  -1   4  -5   17.34    0.67
   4  -1  -5   16.77    0.56
   4   1   5   18.09    0.63
  -1   4  -5   17.36    0.58
  -4  -1   7    9.00    0.42
  -1   4  -7    9.71    0.46
   1  -4  -7    8.60    0.53
   4  -1  -7   10.04    0.46
  -1   4  -7    9.43    0.41
  -1  -4   7    8.58    0.37
   4   1   7    9.14    0.45
   4  -1  -7    9.36    0.44
  -1   4  -7    8.20    0.51
   1  -4  -7    8.65    0.39
  -4   1  -7    8.78    0.49
  -1  -4   7    8.85    0.46
   1   4   7    9.71    0.47
   1   4   7    9.97    0.52
  -4  -1   7    8.81    0.47
  -1  -4   7    8.42    0.28
   1   4   7    8.90    0.43
   1   4   9   30.57    1.09
  -4  -1   9   30.83    1.05
  -4   1  -9   30.84    1.07
   4   1   9   31.43    0.98
   1  -4  -9   28.70    1.10
  -4  -1   9   29.34    0.97
   4  -1  -9   30.85    1.02
  -1   4  -9   32.43    1.02
  -1  -4   9   31.23    0.85
  -1  -4   9   31.84    1.01
   1   4   9   31.49    1.04
   4  -1  -9   31.10    0.99
   1  -4  -9   31.02    0.93
  -1   4  -9   28.98    0.94
   1   4   9   30.87    0.99
  -1   4  -9   28.34    1.08
   1  -4  -9   31.06    0.94
  -4  -1   9   32.87    1.09
  -1  -4   9   28.24    0.71
   4   1   9   29.72    1.08
   1  -4 -11    9.27    0.51
  -1  -4  11    8.04    0.28
   1  -4 -11    9.23    0.66
   1  -4 -11    8.80    0.47
  -4  -1  11    8.92    0.53
   4  -1 -11    9.69    0.54
  -1   4 -11    9.37    0.54
  -4   1 -11    9.65    0.59
  -1  -4  11    9.50    0.38
  -1   4 -11    9.48    0.63
   1   4  11    8.04    0.58
  -4  -1  11    8.91    0.46
   4   1  11    8.61    0.48
   4   1  11    8.62    0.58
  -1  -4  11    9.47    0.54
  -1  -4  13    4.98    0.44
   1   4  13    4.29    0.48
   1  -4 -13    5.47    0.44
   4   1  13    5.10    0.40
  -1  -4  13    5.66    0.46
  -4  -1  13    5.19    0.45
   4   1  13    5.07    0.50
   1  -4 -13    5.48    0.41
  -1   4 -13    4.29    0.50
   1  -4 -13    5.31    0.60
  -4   1 -13    5.29    0.38
  -1   4 -13    4.95    0.47
  -4  -1  13    4.46    0.37
   4  -1 -13    4.54    0.43
  -4   1 -13    5.49    0.49
  -4   1 -13    5.47    0.55
  -1  -4  13    4.27    0.21
   1   4  15    2.23    0.39
  -1   4 -15    2.52    0.46
  -4   1 -15    2.70    0.29
   1  -4 -15    2.96    0.35
  -4   1 -15    2.18    0.45
  -1   4 -15    2.47    0.43
   4   1  15    2.24    0.41
   1  -4 -15    2.27    0.36
   4   1  15    2.75    0.34
  -4  -1  15    3.59    0.43
  -4   1 -15    3.63    0.44
  -1  -4  15    2.36    0.16
   1  -4 -15    2.92    0.54
   4  -1 -15    2.71    0.39
   1   4  17    1.03    0.35
  -1   4 -17    1.77    0.41
  -4   1 -17    1.62    0.24
   1  -4 -17    1.51    0.30
   4   1  17    1.50    0.38
   1  -4 -17    1.24    0.47
  -4  -1  17    1.65    0.36
   1  -4 -17    1.68    0.36
   4  -1 -17    1.28    0.34
  -1   4 -17    1.59    0.43
  -1  -4  17    1.46    0.13
  -4   1 -17    2.01    0.46
   4  -1 -19    4.92    0.55
   1  -4 -19    5.62    0.57
  -4   1 -19    4.64    0.38
  -1   4 -19    5.60    0.66
   1  -4 -19    4.83    0.66
  -4   1 -19    4.92    0.62
   1   4  19    4.80    0.59
  -4  -1  19    4.62    0.54
  -1   4 -19    4.65    0.55
   1  -4 -19    5.69    0.51
   4  -1 -21    0.36    0.33
  -1   4 -21    0.60    0.38
   1  -4 -21    0.08    0.42
  -4   1 -21    0.82    0.52
  -1   4 -21   -0.40    0.41
   1  -4 -21    0.39    0.33
  -4  -1  21    0.68    0.34
   1   4  21    0.61    0.40
  -4   1 -21   -0.06    0.38
  -4  -1  23    0.22    0.30
  -1   4 -23    0.03    0.37
  -4   1 -23    0.58    0.40
   1  -4 -23    1.11    0.37
   1  -4 -23   -0.54    0.46
   4  -1 -23    0.97    0.37
  -4   1 -23   -0.11    0.38
  -1   4 -23   -0.10    0.36
   1   4  23    0.78    0.38
   4  -1 -25   -0.15    0.36
  -4  -1  25    0.32    0.33
   1   4  25   -0.15    0.36
   1  -4 -25    0.11    0.32
  -4   1 -25   -0.42    0.43
   1  -4 -25   -0.08    0.46
  -1   4 -25   -0.28    0.42
  -4   1 -25    1.21    0.53
  -1   4 -25    0.01    0.41
  -4  -1  27    0.26    0.39
  -1   4 -27    0.28    0.44
   4  -1 -27    1.19    0.46
  -4  -2 -26   -0.18    0.41
   4   2 -26   -0.50    0.39
  -2  -4 -26   -0.50    0.42
  -4   2  26    0.38    0.37
   2   4 -26   -0.45    0.41
  -2  -4 -24   -0.53    0.49
   4   2 -24   -0.54    0.38
  -2  -4 -24    0.06    0.36
  -2   4  24   -0.13    0.34
  -4   2  24    0.10    0.31
   2   4 -24    0.95    0.43
  -4  -2 -24   -0.04    0.39
  -4  -2 -24    0.20    0.45
  -2   4  22    0.26    0.31
  -4   2  22    0.41    0.31
   4   2 -22    0.81    0.42
   2   4 -22   -0.01    0.34
  -4  -2 -22    0.91    0.44
  -2  -4 -22    0.43    0.34
  -4  -2 -22    1.38    0.55
  -2  -4 -22    0.32    0.30
  -2  -4 -22   -0.06    0.41
  -2  -4 -20    6.52    0.75
  -2  -4 -20    5.15    0.61
   4   2 -20    5.61    0.64
  -2  -4 -20    5.76    0.58
   2   4 -20    6.12    0.69
  -4  -2 -20    5.80    0.61
  -2   4  20    5.18    0.62
  -4   2  20    5.21    0.60
  -4  -2 -20    4.96    0.63
  -4  -2 -20    5.58    0.43
   4   2 -18    6.67    0.64
  -4  -2 -18    5.58    0.62
  -2  -4 -18    5.98    0.70
  -2  -4 -18    5.29    0.53
   2   4 -18    5.81    0.63
  -4   2  18    6.57    0.63
  -2   4  18    5.61    0.60
  -2  -4 -18    5.86    0.60
  -4  -2 -18    5.88    0.58
   2   4 -16    2.96    0.48
  -2  -4 -16    3.45    0.43
   2  -4  16    3.43    0.36
   4  -2  16    2.66    0.23
   4  -2  16    2.69    0.25
  -2  -4 -16    3.36    0.46
  -4   2  16    3.87    0.47
  -2   4  16    2.76    0.44
   4   2 -16    3.41    0.49
  -4  -2 -16    3.09    0.42
   4   2 -14    9.19    0.65
   2  -4  14    9.14    0.49
   2   4 -14   10.03    0.71
   4  -2  14    9.64    0.43
   4  -2  14    8.67    0.35
  -4   2  14    8.40    0.48
  -4   2  14    9.38    0.64
  -4  -2 -14    8.80    0.63
  -2  -4 -14    8.92    0.59
  -2   4  14    9.12    0.65
   4  -2  12   53.60    1.32
  -2   4  12   51.05    1.66
  -4   2  12   50.62    1.38
   2   4 -12   52.05    1.69
  -2  -4 -12   51.35    1.57
  -4  -2 -12   50.65    1.62
   2   4 -12   51.18    1.52
   2  -4  12   49.76    1.35
  -2   4  12   52.27    1.44
   4   2 -12   49.04    1.61
  -4   2  12   52.66    1.64
   2   4 -10   35.17    1.24
  -2  -4 -10   33.01    1.12
   4   2 -10   33.79    1.18
  -2   4  10   33.19    1.19
  -4   2  10   34.27    1.17
  -4  -2 -10   33.92    1.19
  -2   4  10   34.26    1.01
   2   4 -10   34.34    1.07
   4   2 -10   36.09    1.09
   4  -2  10   34.68    0.94
  -4   2  10   33.77    0.94
  -4   2  10   36.14    1.11
   2   4  -8    7.02    0.37
  -4   2   8    6.52    0.37
   2   4  -8    7.35    0.50
   4  -2   8    6.16    0.31
  -4   2   8    6.81    0.43
  -2  -4  -8    6.43    0.41
  -4  -2  -8    6.18    0.43
  -4   2   8    6.19    0.27
  -2   4   8    6.72    0.32
   4   2  -8    6.94    0.45
   2  -4   8    6.51    0.37
   4   2  -8    7.24    0.37
  -2   4   8    5.68    0.41
   2  -4   6   47.45    1.23
  -4  -2  -6   44.51    1.28
   2   4  -6   46.28    1.11
   4   2  -6   47.45    1.13
  -2   4   6   46.31    1.10
   2   4  -6   45.38    1.31
  -4   2   6   45.52    1.25
  -2   4   6   47.55    1.29
   2   4  -6   46.51    1.27
  -2  -4  -6   46.56    1.26
   4   2  -6   47.22    1.28
  -4   2   6   46.15    1.14
   2   4  -4   55.36    1.30
  -4   2   4   55.08    1.28
   2   4  -4   53.58    1.44
  -4  -2  -4   52.87    1.43
  -2  -4  -4   56.65    1.43
  -2  -4  -4   53.95    1.32
   2   4  -4   56.52    1.23
   2   4  -4   56.95    1.46
  -4   2   4   54.37    1.32
   4   2  -4   54.16    1.42
  -2   4   4   57.13    1.44
   4   2  -2   12.82    0.55
  -2  -4  -2   12.59    0.41
   2   4  -2   14.10    0.56
  -2  -4  -2   13.45    0.44
  -4  -2  -2   12.49    0.50
  -4  -2  -2   13.35    0.46
  -4   2   2   13.24    0.40
   2   4  -2   13.14    0.51
   4   2  -2   13.26    0.51
   4   2  -2   13.70    0.52
  -2   4   2   14.44    0.50
  -2  -4  -2   14.53    0.52
   2   4  -2   13.58    0.48
  -4   2   2   13.83    0.49
  -2   4   0    9.52    0.31
   4   2   0    9.51    0.43
  -4   2   0    9.44    0.34
   4   2   0    9.06    0.43
   4  -2   0   10.27    0.39
  -4   2   0    8.58    0.40
   2   4   0    9.15    0.29
   2   4   0    8.66    0.38
   4  -2   0    9.28    0.33
  -2  -4   0    9.33    0.28
  -4  -2   0    8.72    0.38
   2  -4   0    9.46    0.40
  -2   4  -2   12.85    0.48
   4   2   2   13.21    0.48
   4   2   2   13.93    0.55
   2   4   2   13.91    0.42
   2  -4  -2   13.53    0.51
   4  -2  -2   13.99    0.49
   2   4   2   13.51    0.46
  -4   2  -2   12.72    0.48
  -4   2  -2   14.35    0.54
  -4   2  -4   55.51    1.44
  -2   4  -4   53.04    1.41
   2  -4  -4   56.62    1.44
   4  -2  -4   54.78    1.31
   2   4   4   55.97    1.40
  -2  -4   4   54.47    1.30
   2  -4  -4   55.67    1.26
   4  -2  -4   55.51    1.26
  -4  -2   4   53.95    1.25
   4  -2  -4   56.21    1.39
  -4  -2   4   52.39    1.38
   2  -4  -4   53.20    1.39
  -4   2  -4   53.07    1.31
   2   4   4   56.51    1.31
  -4   2  -4   52.23    1.41
   4   2   4   55.79    1.44
  -2   4  -4   53.24    1.40
  -4   2  -6   46.94    1.26
   2  -4  -6   45.13    1.27
  -2  -4   6   43.46    1.26
  -4   2  -6   45.00    1.12
  -4   2  -6   42.73    1.28
  -2  -4   6   44.80    1.08
   4  -2  -6   44.50    1.12
   2  -4  -6   44.99    1.07
   2   4   6   44.98    1.29
   4   2   6   44.48    1.28
   2  -4  -6   44.41    1.32
   4  -2  -6   44.44    1.08
  -2  -4   6   46.13    1.16
  -2   4  -6   44.26    1.22
  -2   4  -6   43.28    1.30
   2   4   6   47.12    1.21
   4   2   6   43.64    1.25
  -4  -2   6   43.44    1.13
  -2   4  -6   44.63    1.12
   2  -4  -6   45.50    1.10
  -2   4  -8    7.45    0.43
  -2  -4   8    6.96    0.45
  -4  -2   8    6.93    0.38
  -4   2  -8    5.83    0.38
   2   4   8    6.71    0.41
  -2  -4   8    7.12    0.41
  -4  -2   8    6.07    0.42
   2   4   8    6.68    0.47
   2   4   8    7.96    0.43
   4  -2  -8    7.04    0.37
   2  -4  -8    6.76    0.35
  -2   4  -8    6.88    0.49
  -4   2  -8    6.47    0.46
   4   2   8    6.35    0.45
   2  -4  -8    6.37    0.52
  -2  -4   8    6.68    0.36
  -2   4  -8    6.80    0.34
  -2   4  -8    6.78    0.38
  -2  -4   8    6.46    0.28
  -4  -2   8    7.51    0.46
   4   2   8    7.04    0.43
   4  -2  -8    6.61    0.26
   4  -2  -8    7.14    0.42
   2  -4  -8    7.38    0.34
  -2   4 -10   34.08    1.24
  -2  -4  10   33.72    1.07
  -2  -4  10   36.12    1.18
  -4  -2  10   33.82    1.10
   4   2  10   33.53    1.21
  -4  -2  10   35.80    1.20
   4  -2 -10   34.44    1.08
  -4   2 -10   32.68    1.19
  -2   4 -10   34.40    1.04
  -2  -4  10   33.37    0.90
  -4   2 -10   32.71    1.06
  -2  -4  10   34.66    0.88
   2  -4 -10   35.20    1.05
   2  -4 -10   35.98    1.02
   2  -4 -10   35.66    1.28
   2   4  10   35.85    1.24
  -2   4 -10   36.74    1.19
   2   4  10   37.46    1.17
  -2   4 -12   47.45    1.63
  -2  -4  12   50.30    1.49
  -4  -2  12   50.44    1.45
   4   2  12   48.77    1.63
   2  -4 -12   48.71    1.38
   2  -4 -12   46.74    1.65
  -4  -2  12   50.34    1.51
  -4   2 -12   50.07    1.67
   2   4  12   50.52    1.65
   4  -2 -12   47.11    1.45
  -2  -4  12   48.96    1.19
   2  -4 -12   47.42    1.43
  -2   4 -12   49.46    1.37
  -4   2 -12   49.84    1.42
  -2  -4  12   48.43    1.19
  -2   4 -14    8.74    0.69
   2  -4 -14    9.25    0.75
  -2   4 -14    8.02    0.60
   4  -2 -14    8.90    0.58
   2  -4 -14    9.25    0.57
  -4   2 -14    8.57    0.49
  -4   2 -14    9.12    0.70
   2   4  14    8.92    0.67
  -4  -2  14   10.15    0.63
   4   2  14    9.39    0.69
   2  -4 -14    8.45    0.50
  -2  -4  14    9.15    0.59
  -2  -4  14    9.01    0.37
  -2   4 -16    4.44    0.51
  -2  -4  16    2.98    0.22
  -2  -4  16    3.34    0.42
  -4   2 -16    3.99    0.57
   2  -4 -16    3.48    0.37
   4   2  16    3.20    0.47
   4  -2 -16    2.86    0.39
  -4  -2  16    3.43    0.43
   2   4  16    3.07    0.46
  -4   2 -16    3.07    0.32
   2  -4 -16    3.61    0.58
   2  -4 -16    3.04    0.40
  -2   4 -16    3.19    0.50
   4   2  18    6.29    0.64
   2  -4 -18    6.05    0.68
  -4  -2  18    6.54    0.60
   2   4  18    6.01    0.63
   4  -2 -18    5.70    0.55
  -4   2 -18    5.42    0.41
   2  -4 -18    5.14    0.53
  -2  -4  18    6.06    0.56
  -2   4 -18    4.89    0.56
  -2   4 -18    5.55    0.65
  -4   2 -18    6.81    0.70
   2   4  20    5.96    0.67
  -4   2 -20    5.21    0.68
   4  -2 -20    5.18    0.59
   2  -4 -20    4.85    0.66
  -4  -2  20    5.17    0.58
   4   2  20    4.92    0.64
  -2   4 -20    6.28    0.66
  -4   2 -20    5.40    0.68
   2  -4 -20    5.98    0.60
  -2   4 -20    5.72    0.68
   2  -4 -22    0.11    0.46
  -4   2 -22    0.77    0.44
   4  -2 -22    0.68    0.37
   2   4  22    0.61    0.36
   2  -4 -22    0.53    0.33
  -4  -2  22    0.27    0.30
  -4   2 -22    1.52    0.51
  -2   4 -22    0.34    0.39
  -2   4 -22    1.22    0.43
   2  -4 -24    0.26    0.36
  -4  -2  24   -0.25    0.33
  -4   2 -24    0.53    0.44
  -2   4 -24    0.35    0.38
   2   4  24   -0.65    0.42
  -4   2 -24    0.42    0.45
   4  -2 -24    0.53    0.40
   2  -4 -24    0.08    0.45
  -2   4 -24    0.15    0.38
   4  -2 -26   -0.02    0.35
  -4  -2  26    0.24    0.33
  -4   2 -26   -0.75    0.51
  -2   4 -26   -0.74    0.55
  -3  -4 -27   -0.02    0.41
  -3   4  25   -0.42    0.41
   4   3 -25    0.15    0.37
  -4  -3 -25    0.41    0.53
  -4  -3 -25    0.19    0.36
  -3  -4 -25    0.02    0.48
   3   4 -25   -0.20    0.38
  -3  -4 -25    0.42    0.40
  -4   3  25    0.46    0.34
  -4  -3 -23    4.33    0.71
  -4  -3 -23    3.34    0.59
  -4  -3 -23    4.67    0.60
  -3   4  23    4.23    0.62
   3   4 -23    2.69    0.56
   4   3 -23    3.55    0.57
  -4   3  23    2.80    0.54
  -3  -4 -23    3.34    0.54
  -3  -4 -23    3.35    0.59
  -3  -4 -23    3.54    0.70
  -3  -4 -21    2.87    0.50
   4   3 -21    2.04    0.46
  -4  -3 -21    3.04    0.53
  -4  -3 -21    2.93    0.47
   3   4 -21    2.83    0.53
  -3  -4 -21    3.01    0.60
  -4  -3 -21    3.96    0.66
  -3  -4 -21    3.76    0.53
  -4   3  21    3.68    0.54
  -3   4  21    3.91    0.57
  -4  -3 -19    3.54    0.55
  -4   3  19    4.19    0.55
   4   3 -19    2.61    0.50
  -3   4  19    3.71    0.51
  -4  -3 -19    4.05    0.50
  -3  -4 -19    3.67    0.54
  -3  -4 -19    3.46    0.46
   3   4 -19    3.54    0.54
  -3  -4 -19    5.50    0.72
  -3   4  17   11.62    0.81
  -3  -4 -17   10.65    0.77
  -4  -3 -17   12.01    0.78
  -4   3  17   12.51    0.83
   3   4 -17   11.03    0.83
   4   3 -17   10.56    0.79
  -3  -4 -17   11.69    0.78
  -3   4  15   37.19    1.48
  -4  -3 -15   39.44    1.45
   3   4 -15   38.37    1.52
  -4   3  15   38.23    1.47
  -3  -4 -15   38.34    1.40
   4   3 -15   36.47    1.46
  -4   3  15   37.18    1.18
   4  -3  15   36.66    0.97
  -4  -3 -13   31.20    1.20
   4   3 -13   28.50    1.21
  -4   3  13   32.06    1.23
   3   4 -13   32.98    1.29
  -4   3  13   30.76    0.96
  -3   4  13   28.96    0.98
  -3   4  13   30.86    1.24
  -3  -4 -13   30.17    1.17
   4  -3  13   30.52    0.83
  -3  -4 -11    7.36    0.50
  -3   4  11    7.03    0.52
  -4  -3 -11    7.35    0.52
   4   3 -11    6.86    0.53
   3   4 -11    6.88    0.42
   4   3 -11    6.58    0.42
  -4   3  11    6.53    0.34
   3   4 -11    7.26    0.56
  -4   3  11    6.89    0.51
  -3   4  11    7.31    0.37
  -4   3   9   28.58    1.02
   4   3  -9   29.90    0.90
   4   3  -9   27.22    1.03
  -4   3   9   27.55    0.76
  -3   4   9   28.17    0.80
  -3   4   9   26.91    1.02
  -4   3   9   28.23    0.89
   3   4  -9   26.60    1.04
   3   4  -9   28.88    0.88
  -3  -4  -9   27.15    0.98
  -4  -3  -9   28.98    1.03
   3   4  -7   41.05    1.25
   4   3  -7   41.25    1.26
  -3   4   7   41.51    1.01
  -4   3   7   41.08    1.07
  -4  -3  -7   40.18    1.24
  -3   4   7   41.54    1.25
   4   3  -7   42.51    1.07
  -4   3   7   40.35    1.23
   3  -4   7   42.65    1.21
   3   4  -7   40.18    1.27
   3   4  -7   42.57    1.07
  -4   3   7   38.92    0.93
  -3  -4  -7   41.19    1.24
   3   4  -5    7.60    0.44
  -4  -3  -5    7.84    0.44
   3   4  -5    8.25    0.48
   3   4  -5    7.61    0.28
   3  -4   5    7.96    0.42
   4   3  -5    8.08    0.45
   4   3  -5    8.19    0.29
  -4   3   5    7.95    0.30
  -3  -4  -5    7.41    0.40
   3   4  -5    7.54    0.35
  -3  -4  -5    7.92    0.43
  -4   3   5    7.99    0.42
  -3   4   5    7.72    0.43
  -4  -3  -5    7.32    0.41
   3   4  -3   34.06    1.03
   4   3  -3   35.76    1.01
  -3  -4  -3   37.44    1.04
   3   4  -3   37.58    1.09
  -3  -4  -3   36.60    0.88
  -4   3   3   36.03    0.84
  -4   3   3   36.11    0.99
   4   3  -3   34.75    1.07
  -4  -3  -3   35.09    1.04
   3   4  -3   37.43    0.99
  -3  -4  -3   35.90    0.97
  -4  -3  -3   35.22    0.98
   4   3  -3   36.74    1.06
  -3   4   1   23.31    0.59
  -4  -3  -1   25.76    0.67
  -3  -4  -1   25.63    0.61
  -4  -3  -1   23.86    0.76
   3   4  -1   24.44    0.80
  -3  -4  -1   24.99    0.77
   4   3  -1   24.01    0.78
   4   3  -1   24.47    0.80
   4   3  -1   26.05    0.79
  -3  -4  -1   25.01    0.65
   3   4  -1   24.58    0.78
   4  -3   1   26.37    0.73
   3   4  -1   25.58    0.79
  -4   3   1   26.07    0.78
  -4   3  -1   25.39    0.80
   3   4   1   24.81    0.81
   4   3   1   25.76    0.82
   4  -3  -1   25.52    0.75
  -3   4  -1   24.60    0.69
  -3   4  -1   23.40    0.79
   4  -3  -1   25.31    0.64
   3   4   1   24.60    0.65
   4   3   1   24.54    0.77
   3  -4  -1   25.34    0.78
   3   4   3   35.89    0.85
  -4  -3   3   34.69    1.00
  -4  -3   3   33.54    0.78
   3  -4  -3   35.98    1.02
  -3   4  -3   35.37    1.04
  -3  -4   3   34.91    0.97
  -4   3  -3   37.63    1.05
   3  -4  -3   35.75    0.99
   4   3   3   35.44    0.96
   4  -3  -3   36.78    0.98
   4   3   3   34.67    1.04
  -3   4  -3   33.31    0.98
   4   3   3   35.54    0.81
   3   4   3   35.36    0.96
   4  -3  -3   35.03    0.99
  -3  -4   5    7.97    0.28
   4   3   5    7.62    0.45
   3  -4  -5    7.13    0.24
  -4  -3   5    7.32    0.29
   3   4   5    8.01    0.35
  -4   3  -5    7.49    0.33
   4  -3  -5    8.27    0.44
  -3   4  -5    8.09    0.42
   4  -3  -5    7.30    0.28
   3  -4  -5    8.39    0.28
   3   4   5    7.33    0.41
  -4   3  -5    8.15    0.43
  -3  -4   5    7.67    0.36
   4   3   5    8.10    0.42
  -4  -3   5    7.53    0.39
   3  -4  -5    7.57    0.42
  -3   4  -5    7.02    0.43
   4  -3  -5    7.40    0.34
   3  -4  -5    7.80    0.37
  -3  -4   7   43.13    1.16
  -4  -3   7   41.82    1.08
   3  -4  -7   40.91    1.02
  -4  -3   7   44.15    1.22
  -3   4  -7   40.35    1.19
   3   4   7   39.89    1.25
   4  -3  -7   41.47    1.05
  -3   4  -7   40.71    1.01
   3  -4  -7   40.01    1.23
  -3  -4   7   42.88    1.27
  -4   3  -7   42.22    1.02
  -3  -4   7   41.09    1.06
  -4   3  -7   39.98    1.19
   4  -3  -7   39.05    0.93
   3   4   7   43.19    1.15
   4  -3  -7   41.31    1.05
  -4   3  -7   38.18    0.91
  -3   4  -7   39.90    0.93
   3  -4  -7   40.17    1.28
   4   3   7   41.42    1.25
   3  -4  -7   42.33    1.00
  -3   4  -7   42.11    1.30
  -3  -4   7   40.63    1.06
  -4  -3   7   40.43    1.13
   3  -4  -9   30.09    0.88
  -3  -4   9   30.99    1.09
  -4  -3   9   30.39    1.09
  -3  -4   9   30.12    0.84
  -3   4  -9   32.22    1.06
   3   4   9   29.59    1.09
  -3   4  -9   28.41    1.09
   3  -4  -9   27.79    1.11
  -4   3  -9   29.08    0.98
  -4  -3   9   29.24    0.93
  -3   4  -9   27.57    0.95
  -3   4  -9   29.53    0.80
   4   3   9   28.96    1.07
  -3  -4   9   28.76    0.91
  -3  -4   9   29.41    0.98
  -4  -3   9   29.71    1.03
   3  -4  -9   31.01    0.85
   4  -3  -9   29.65    0.79
   4  -3  -9   30.72    0.91
  -4   3 -11    6.65    0.43
  -4  -3  11    6.73    0.44
   3  -4 -11    7.08    0.37
   4   3  11    7.35    0.54
  -3   4 -11    6.73    0.55
  -3   4 -11    6.45    0.41
  -4  -3  11    5.90    0.21
   3  -4 -11    5.88    0.57
  -3  -4  11    7.50    0.45
   3  -4 -11    7.05    0.42
   4  -3 -11    6.31    0.41
  -3  -4  11    6.57    0.34
   3   4  11    6.14    0.51
   4  -3 -11    7.12    0.28
  -4   3 -11    7.18    0.57
  -3  -4  11    6.84    0.28
   3  -4 -13   29.91    0.82
   4  -3 -13   28.48    1.25
   3   4  13   30.53    1.24
   4  -3 -13   30.41    1.06
   3  -4 -13   30.31    0.96
  -4   3 -13   29.51    1.02
   4   3  13   29.32    1.22
  -3  -4  13   31.28    1.10
  -4   3 -13   31.28    1.28
   4  -3 -13   26.54    0.69
  -3   4 -13   29.38    1.00
   3  -4 -13   28.76    1.28
  -3   4 -13   31.19    1.29
  -4  -3  13   30.29    1.10
   3  -4 -13   30.12    1.04
  -3  -4  13   30.17    0.87
   4  -3 -15   35.36    1.29
   3  -4 -15   38.37    1.20
   3  -4 -15   36.19    0.94
  -4   3 -15   34.72    1.19
  -3  -4  15   36.42    1.04
  -4  -3  15   39.96    1.38
   3  -4 -15   38.43    1.30
   4   3  15   36.99    1.50
  -3  -4  15   39.50    1.36
  -4   3 -15   39.46    1.55
   3   4  15   38.94    1.51
   4  -3 -15   36.45    1.52
   3  -4 -15   37.53    1.55
  -3   4 -15   36.88    1.18
  -3   4 -15   37.35    1.51
  -3  -4  17   11.38    0.49
  -3   4 -17   12.29    0.89
   4  -3 -17   11.40    0.86
  -3   4 -17   11.52    0.59
   4  -3 -17   11.39    0.72
  -4   3 -17   11.51    0.60
  -3   4 -17   12.11    0.81
   4   3  17   10.58    0.80
  -4  -3  17   11.44    0.74
   3   4  17   11.59    0.85
  -3  -4  17   12.27    0.76
   3  -4 -17   10.82    0.86
   3  -4 -17   11.94    0.73
  -4   3 -17   10.95    0.87
  -4  -3  19    3.74    0.48
  -4   3 -19    4.05    0.62
   3  -4 -19    3.80    0.47
   4  -3 -19    3.06    0.46
   3   4  19    3.75    0.56
  -4   3 -19    3.68    0.36
  -4   3 -19    4.57    0.60
  -3   4 -19    3.72    0.53
  -3   4 -19    3.31    0.58
   3  -4 -19    3.27    0.59
   4   3  19    3.13    0.50
  -3  -4  19    3.13    0.45
   3   4  21    3.70    0.57
  -3   4 -21    3.71    0.55
   3  -4 -21    4.03    0.52
  -4   3 -21    4.44    0.66
   3  -4 -21    2.73    0.58
   4   3  21    3.75    0.56
  -3  -4  21    4.24    0.54
  -4   3 -21    3.86    0.56
  -3   4 -21    3.54    0.59
  -4  -3  21    4.31    0.54
   4  -3 -21    3.63    0.49
  -3   4 -23    3.72    0.64
   3   4  23    3.35    0.58
  -4  -3  23    2.88    0.48
   3  -4 -23    2.94    0.50
   4  -3 -23    3.70    0.52
   3  -4 -23    3.09    0.64
   4   3  23    2.83    0.56
  -4   3 -23    4.47    0.69
  -4   3 -23    4.25    0.63
  -3   4 -23    3.29    0.57
  -4  -3  25    0.54    0.33
   3  -4 -25    0.08    0.33
   3   4  25    0.08    0.35
   4  -3 -25    0.21    0.35
  -3   4 -25    0.89    0.48
  -3   4 -25    0.38    0.40
  -4   3 -25   -0.31    0.44
  -4   3 -25    0.62    0.46
  -3   4 -27   -0.02    0.43
  -4   3 -27   -0.33    0.48
   4   4 -26    1.34    0.46
  -4  -4 -26    1.67    0.54
  -4   4  24    0.33    0.39
  -4  -4 -24    0.90    0.51
  -4  -4 -24    0.68    0.35
   4   4 -24    0.70    0.39
  -4  -4 -24    0.52    0.42
  -4  -4 -22    1.91    0.49
  -4  -4 -22    1.31    0.39
  -4   4  22    1.40    0.42
   4   4 -22    0.63    0.39
   4   4 -20    8.21    0.77
  -4  -4 -20    7.18    0.67
  -4   4  20    6.71    0.71
  -4  -4 -20    7.33    0.74
  -4  -4 -18   17.26    1.03
  -4   4  18   19.48    1.09
  -4  -4 -18   19.14    1.03
   4   4 -18   18.35    1.09
  -4  -4 -16    2.64    0.39
   4   4 -16    2.43    0.45
  -4   4  16    3.17    0.44
  -4   4  14    6.56    0.40
   4   4 -14    6.66    0.61
  -4   4  14    7.04    0.59
  -4  -4 -14    7.28    0.57
   4   4 -12   40.30    1.25
   4   4 -12   38.27    1.42
  -4   4  12   39.11    1.40
  -4  -4 -12   40.55    1.40
  -4   4  12   40.77    1.12
  -4  -4 -10   32.75    1.16
  -4   4  10   32.58    0.88
   4   4 -10   32.91    1.00
   4   4 -10   31.41    1.19
  -4   4  10   32.78    1.17
  -4   4   8   54.09    1.57
   4   4  -8   55.99    1.36
   4   4  -8   54.15    1.60
  -4  -4  -8   53.04    1.56
  -4   4   8   53.11    1.25
   4   4  -6   52.65    1.52
   4   4  -6   56.38    1.25
   4   4  -6   52.03    1.53
  -4   4   6   52.35    1.23
  -4  -4  -6   54.23    1.51
   4  -4   6   52.93    1.48
  -4  -4  -6   53.15    1.48
  -4   4   6   52.80    1.49
   4   4  -4   71.24    1.85
  -4  -4  -4   69.08    1.74
   4   4  -4   70.54    1.74
  -4  -4  -4   73.60    1.83
   4   4  -4   72.02    1.83
   4   4  -2   43.29    1.22
   4   4  -2   44.20    1.25
  -4  -4  -2   45.83    1.22
  -4  -4  -2   43.80    1.10
  -4   4   2   43.54    1.20
  -4  -4  -2   42.82    0.96
   4   4  -2   45.15    1.20
  -4   4   0    2.75    0.26
   4   4   0    2.79    0.28
   4  -4   0    2.92    0.26
  -4  -4   0    2.80    0.15
   4   4   0    2.97    0.31
   4   4   2   47.39    1.16
   4  -4  -2   48.62    1.27
   4   4   2   46.45    1.32
   4   4   2   46.33    1.02
  -4   4  -2   48.30    1.31
   4   4   4   70.19    1.54
   4  -4  -4   67.60    1.46
   4  -4  -4   69.11    1.69
  -4  -4   4   67.89    1.70
   4   4   4   68.94    1.70
  -4   4  -4   69.58    1.78
   4  -4  -4   70.22    1.74
   4  -4  -6   53.58    1.51
  -4  -4   6   56.12    1.28
   4   4   6   55.18    1.51
   4  -4  -6   55.18    1.24
   4   4   6   57.83    1.37
  -4   4  -6   54.37    1.51
  -4  -4   6   54.69    1.41
   4  -4  -6   53.07    1.20
  -4   4  -6   54.16    1.30
   4  -4  -6   54.79    1.39
   4  -4  -8   57.16    1.31
  -4   4  -8   56.44    1.31
  -4  -4   8   57.57    1.68
  -4  -4   8   55.00    1.42
  -4   4  -8   53.74    1.67
  -4   4  -8   56.93    1.30
  -4   4  -8   55.45    1.57
  -4  -4   8   59.31    1.57
  -4  -4   8   56.00    1.46
   4  -4  -8   58.63    1.38
   4   4   8   54.02    1.62
   4  -4  -8   57.93    1.42
   4  -4 -10   33.65    0.98
   4   4  10   32.48    1.20
   4  -4 -10   33.43    0.91
  -4   4 -10   31.20    1.22
   4  -4 -10   33.31    0.89
  -4  -4  10   33.04    1.03
  -4  -4  10   32.12    0.97
  -4   4 -10   30.31    1.06
  -4  -4  10   35.95    1.14
   4  -4 -10   33.82    1.26
  -4  -4  12   42.37    1.28
  -4  -4  12   37.44    0.94
   4  -4 -12   38.73    1.20
   4   4  12   39.44    1.43
   4  -4 -12   39.61    1.48
   4  -4 -12   40.18    1.03
   4  -4 -12   42.43    1.12
  -4   4 -12   39.17    1.25
  -4  -4  12   40.28    1.14
  -4   4 -12   38.54    1.46
   4  -4 -14    6.64    0.65
  -4  -4  14    6.75    0.40
   4  -4 -14    6.95    0.29
   4   4  14    7.12    0.60
  -4   4 -14    6.64    0.63
   4  -4 -14    6.18    0.46
  -4  -4  14    6.97    0.50
  -4   4 -14    6.38    0.45
  -4   4 -16    2.88    0.53
   4  -4 -16    2.31    0.36
   4   4  16    2.70    0.49
  -4  -4  16    3.52    0.41
   4  -4 -16    2.45    0.52
  -4  -4  16    2.65    0.28
  -4   4 -16    2.78    0.32
  -4   4 -18   17.49    0.80
   4  -4 -18   17.82    1.13
  -4  -4  18   21.17    1.02
  -4   4 -18   19.17    1.15
   4   4  18   19.36    1.11
   4  -4 -18   18.19    0.92
   4  -4 -20    6.40    0.60
   4   4  20    6.87    0.72
  -4  -4  20    6.65    0.63
  -4   4 -20    9.10    0.77
  -4   4 -20    9.25    0.85
   4  -4 -22    1.28    0.32
  -4  -4  22    1.65    0.39
   4   4  22    0.98    0.42
  -4   4 -22    1.28    0.45
  -4   4 -22    1.75    0.55
  -4   4 -24    0.90    0.45
  -4   4 -24    0.97    0.48
   4   4  24    1.38    0.48
   4  -4 -24    1.34    0.39
  -4   4 -26    1.10    0.48
  -5   0  -1    4.40    0.27
  -5   0   1    4.76    0.24
   0  -5  -1    5.48    0.31
   5   0  -1    5.08    0.24
   0   5  -1    5.34    0.29
   0  -5  -1    5.51    0.25
  -5   0  -1    5.19    0.30
   5   0  -1    5.58    0.24
   5   0   1    5.29    0.23
   5   0   1    5.55    0.29
   0  -5   1    5.43    0.29
  -5   0   1    5.07    0.24
   0   5   1    5.00    0.24
   0   5   1    5.21    0.27
  -5   0  -3   60.02    1.53
   5   0  -3   62.12    1.45
  -5   0   3   62.36    1.46
  -5   0   3   59.92    1.35
   0  -5  -3   61.57    1.48
   5   0  -3   62.21    1.49
  -5   0  -3   61.67    1.38
  -5   0   3   61.10    1.50
   0  -5  -3   61.90    1.38
   0   5   3   61.39    1.51
   5   0   3   60.70    1.54
   0  -5  -3   57.66    1.48
   0   5  -3   57.84    1.52
  -5   0   5   24.59    0.79
   0   5   5   27.81    0.84
   0  -5  -5   26.40    0.79
  -5   0  -5   26.10    0.83
   0   5   5   26.21    0.85
  -5   0  -5   25.07    0.86
  -5   0   5   24.63    0.77
   0   5  -5   25.45    0.88
   5   0  -5   25.98    0.80
  -5   0   5   25.53    0.81
   0  -5  -5   24.51    0.80
   5   0   5   26.27    0.83
   0   5  -5   26.43    0.84
  -5   0   7    7.46    0.43
  -5   0   7    7.99    0.43
   0  -5   7    6.77    0.37
  -5   0   7    7.14    0.28
  -5   0   7    7.04    0.39
   0  -5  -7    7.51    0.40
   0   5  -7    7.01    0.33
   0   5   7    6.43    0.44
   0   5   7    7.62    0.44
   0   5  -7    7.86    0.39
   5   0  -7    7.04    0.40
   5   0   7    7.44    0.40
  -5   0  -7    7.05    0.46
   0   5  -7    7.64    0.49
   0   5   7    7.07    0.38
   0   5  -7    8.11    0.43
   0  -5  -9   12.25    0.55
  -5   0   9   11.50    0.34
   5   0  -9   12.39    0.60
   0   5   9   12.80    0.66
  -5   0   9   13.76    0.62
   0   5  -9   13.27    0.58
  -5   0   9   12.74    0.47
  -5   0   9   13.82    0.61
   0   5   9   13.14    0.63
   0  -5   9   13.70    0.59
   0  -5   9   13.52    0.53
   0   5  -9   12.77    0.69
   5   0   9   13.00    0.56
  -5   0  -9   13.02    0.67
   0   5   9   13.90    0.58
   0   5  -9   12.62    0.54
   5   0  -9   13.35    0.59
   0   5  -9   12.49    0.57
   0   5 -11    0.63    0.19
   0  -5  11    1.33    0.27
   0   5 -11    0.89    0.30
   5   0 -11    1.07    0.26
   0  -5 -11    1.81    0.44
   0  -5  11    1.10    0.16
   0   5  11    0.90    0.19
  -5   0  11    1.12    0.17
  -5   0 -11    0.56    0.24
   0  -5 -11    1.28    0.23
   5   0  11    0.82    0.20
  -5   0  11    0.95    0.23
   0   5  11    1.05    0.28
   0   5 -11    0.80    0.24
  -5   0  13    0.60    0.17
   5   0  13    0.44    0.09
   5   0  13    0.34    0.20
   0  -5  13    1.32    0.30
   0   5 -13    0.64    0.28
  -5   0 -13    0.47    0.26
   0  -5 -13    0.51    0.23
   5   0 -13    0.76    0.27
   0   5 -13    0.79    0.35
   0  -5 -13    0.37    0.19
  -5   0  13    0.61    0.23
   0   5  13    0.71    0.29
   5   0  15   15.44    0.70
   5   0 -15   15.20    0.84
   0  -5 -15   16.36    0.79
  -5   0  15   16.52    0.87
   0   5 -15   14.56    0.79
   0   5 -15   15.83    0.93
   0   5  15   14.50    0.89
   0  -5 -15   15.93    0.99
   0  -5 -15   17.20    0.83
   5   0  15   14.33    0.49
  -5   0 -15   15.46    0.88
   0   5 -17    0.26    0.36
   0  -5 -17    0.06    0.22
   5   0 -17    0.43    0.30
   0   5  17   -0.16    0.33
  -5   0 -17    0.08    0.35
  -5   0 -17    0.50    0.30
   0  -5 -17    0.03    0.41
  -5   0 -17    0.02    0.17
   0  -5 -17    0.11    0.27
   0   5 -17    0.32    0.30
  -5   0  17   -0.14    0.25
   0   5 -19    7.87    0.67
   0  -5 -19    8.71    0.82
   0   5 -19    8.21    0.77
  -5   0 -19    8.67    0.80
   5   0 -19    7.71    0.68
   0   5  19    7.69    0.74
  -5   0 -19    8.34    0.71
  -5   0 -19    7.45    0.51
  -5   0  19    8.09    0.69
   0  -5 -19    8.63    0.69
   0  -5 -19    8.40    0.64
   0   5  21    3.22    0.54
   5   0 -21    2.78    0.48
   0  -5 -21    2.66    0.49
   0   5 -21    3.10    0.58
   0  -5 -21    2.62    0.41
  -5   0  21    2.88    0.49
   0   5 -21    2.93    0.49
  -5   0 -21    2.65    0.55
   0  -5 -21    2.64    0.58
   5   0 -23    1.21    0.41
   0  -5 -23    1.29    0.39
   0   5 -23    2.24    0.53
   0  -5 -23    1.86    0.56
  -5   0 -23    2.13    0.51
  -5   0  23    1.95    0.44
  -5   0 -23    2.68    0.65
   0   5  23    1.91    0.46
   0   5 -23    1.39    0.43
  -5   0 -25    1.83    0.58
   0  -5 -25    2.64    0.51
  -5   0 -25    1.94    0.59
  -5   0  25    1.84    0.46
   0   5 -25    1.26    0.51
   0  -5 -25    0.21    0.50
   0   5  25    1.29    0.46
   5   0 -25    2.45    0.52
   5   0 -27    3.41    0.64
   5   1 -26    1.33    0.48
  -5   1  26    0.70    0.39
  -1  -5 -26    1.20    0.47
  -5  -1 -26    0.37    0.48
  -5  -1 -24    1.21    0.53
  -5   1  24    0.18    0.32
  -5  -1 -24    0.37    0.40
   1   5 -24    0.57    0.43
   5   1 -24    0.55    0.38
  -1   5  24    0.61    0.39
  -1  -5 -24    0.56    0.36
  -1  -5 -24    0.99    0.52
   1   5 -22    0.58    0.36
  -1   5  22    0.63    0.37
  -5   1  22    1.19    0.37
   5   1 -22    1.48    0.42
  -1  -5 -22    1.06    0.50
  -5  -1 -22    0.90    0.43
  -1  -5 -22    1.63    0.42
  -1  -5 -22    1.43    0.36
  -1  -5 -20    2.91    0.43
  -1  -5 -20    3.07    0.62
  -5  -1 -20    2.72    0.33
  -5   1  20    2.81    0.46
  -1   5  20    3.48    0.53
   1   5 -20    3.91    0.60
   5   1 -20    2.56    0.45
  -1  -5 -20    3.07    0.49
  -5  -1 -20    2.79    0.48
  -5  -1 -20    2.65    0.50
  -1  -5 -18    0.25    0.30
   1   5 -18    0.29    0.35
   1   5 -18    0.05    0.35
  -5  -1 -18    0.06    0.35
   5   1 -18    0.16    0.28
  -5  -1 -18    0.36    0.27
  -1  -5 -18    0.49    0.43
  -1   5  18    0.61    0.34
  -5   1  18    0.44    0.31
  -1  -5 -18    0.20    0.25
  -1  -5 -16    3.30    0.40
  -1  -5 -16    4.21    0.48
  -5   1  16    4.45    0.50
  -1   5  16    3.96    0.50
   5  -1  16    4.14    0.36
  -1  -5 -16    3.81    0.61
  -5  -1 -16    5.03    0.53
   1   5 -16    3.86    0.46
   1   5 -16    4.85    0.58
   5   1 -16    4.73    0.53
  -5   1  14    3.99    0.32
  -1  -5 -14    3.69    0.42
   1  -5  14    4.74    0.42
  -1  -5 -14    4.46    0.42
   1   5 -14    3.35    0.49
   5  -1  14    4.41    0.35
   1   5 -14    3.43    0.40
   5   1 -14    3.39    0.43
  -1   5  14    4.13    0.49
  -1  -5 -14    5.84    0.64
  -5  -1 -14    5.13    0.50
  -5   1  14    3.85    0.43
   5  -1  12    0.80    0.20
   1   5 -12    0.54    0.19
  -5  -1 -12    1.46    0.31
   5   1 -12    0.80    0.28
  -5   1  12    0.74    0.15
  -5   1  12    0.70    0.25
  -1   5  12    0.81    0.27
  -1   5  12    0.87    0.19
  -1  -5 -12    1.06    0.26
   1   5 -12    1.41    0.35
   1   5 -12    0.97    0.27
  -1   5  10    5.77    0.46
  -1  -5 -10    6.02    0.41
  -1   5  10    5.77    0.36
  -5   1  10    5.26    0.40
   5   1 -10    5.20    0.42
   1  -5  10    5.00    0.34
  -5  -1 -10    6.00    0.48
   5  -1  10    6.06    0.36
   1   5 -10    5.36    0.48
   5   1 -10    6.64    0.41
  -5   1  10    5.90    0.41
  -5   1  10    5.56    0.30
   1   5 -10    6.05    0.39
  -1   5   8    2.86    0.32
  -5   1   8    2.44    0.17
  -5   1   8    2.70    0.28
   5  -1   8    2.65    0.25
   1  -5   8    2.73    0.25
   5   1  -8    2.48    0.30
   1   5  -8    2.82    0.25
  -1  -5  -8    2.61    0.27
   5   1  -8    2.71    0.24
  -5   1   8    2.82    0.27
  -5  -1  -8    3.07    0.34
   1   5  -8    2.85    0.36
  -1   5   8    2.57    0.23
   1   5  -8    2.70    0.31
  -5  -1  -6   21.48    0.81
   5  -1   6   22.86    0.74
  -5   1   6   22.58    0.76
  -1  -5  -6   22.84    0.76
   5   1  -6   22.84    0.79
  -1   5   6   22.56    0.82
   1   5  -6   23.08    0.68
   1  -5   6   22.45    0.75
   1   5  -6   22.94    0.80
  -5   1   6   21.16    0.54
   1   5  -6   22.15    0.59
  -5   1   6   22.75    0.64
  -5   1   6   23.15    0.74
   1   5  -6   22.86    0.85
  -5   1   4    6.46    0.35
  -1  -5  -4    6.25    0.34
  -5   1   4    6.38    0.31
  -5  -1  -4    6.30    0.38
  -1  -5  -4    7.01    0.37
   1   5  -4    6.08    0.39
   5   1  -4    6.68    0.38
  -5   1   4    6.45    0.33
   1   5  -4    7.15    0.41
  -1   5   4    7.07    0.38
  -1  -5  -4    6.62    0.35
   1   5  -4    7.05    0.30
   5  -1   2   41.28    1.06
   1  -5   2   42.19    1.06
  -1  -5  -2   36.98    1.00
  -5   1   2   38.45    1.01
  -1  -5  -2   42.57    1.01
  -1   5   2   40.25    1.06
   5   1  -2   39.08    1.08
  -5   1   2   37.94    0.90
  -5  -1  -2   38.12    1.06
  -5   1   2   37.95    1.01
   1   5  -2   38.78    1.07
  -5  -1  -2   40.26    1.01
  -1  -5  -2   38.74    1.00
   5  -1   0   33.42    0.85
  -5   1   0   32.15    0.85
  -5   1   0   33.05    0.85
   1   5   0   33.48    0.82
   5   1   0   32.48    0.75
  -1   5   0   31.72    0.82
   5   1   0   32.84    0.88
  -1  -5   0   33.39    0.89
   5  -1   0   34.36    0.86
  -5  -1   0   31.37    0.88
   1   5   0   31.75    0.88
   1  -5   0   33.03    0.92
  -5  -1   0   33.53    0.76
   1  -5   0   33.88    0.84
  -1  -5   0   31.69    0.87
   1  -5   0   32.78    0.79
   1  -5  -2   40.20    0.91
   5  -1  -2   39.78    0.91
   5  -1  -2   40.79    1.03
  -5   1  -2   39.92    1.07
   1  -5  -2   38.87    1.07
   5   1   2   41.21    1.14
  -5  -1   2   40.18    0.97
   5   1   2   39.64    1.03
   1   5   2   41.42    1.03
   1   5   2   40.62    1.03
  -1   5  -2   38.57    1.05
   1  -5  -2   39.32    1.04
  -5  -1   2   39.38    0.99
   1   5   4    6.73    0.37
   1   5   4    6.58    0.34
   5   1   4    6.49    0.38
  -5   1  -4    6.25    0.38
  -5   1  -4    6.03    0.23
  -1  -5   4    6.00    0.23
   5  -1  -4    6.36    0.35
  -5  -1   4    6.50    0.32
   1  -5  -4    6.08    0.31
   5  -1  -4    6.14    0.31
  -5   1  -4    5.77    0.35
   1  -5  -4    6.33    0.39
   5   1   4    5.75    0.27
  -1   5  -4    5.76    0.37
   1  -5  -4    5.86    0.35
   5   1   6   23.09    0.79
  -5   1  -6   20.05    0.80
   1   5   6   22.47    0.81
  -1   5  -6   20.47    0.81
   1   5   6   24.73    0.77
   1  -5  -6   23.10    0.79
   1  -5  -6   22.42    0.85
   5  -1  -6   21.93    0.71
  -1   5  -6   23.30    0.74
   1   5   6   23.04    0.76
   5   1   6   21.32    0.57
  -5  -1   6   20.95    0.70
  -5   1  -6   22.44    0.73
  -1   5  -6   21.35    0.61
   1  -5  -6   23.86    0.70
  -5  -1   6   21.55    0.78
   1  -5  -8    3.08    0.42
   1   5   8    3.07    0.33
  -1  -5   8    3.04    0.24
  -5   1  -8    2.96    0.33
   1   5   8    3.35    0.31
   5  -1  -8    2.76    0.28
  -1   5  -8    3.47    0.28
  -1   5  -8    3.47    0.31
  -1   5  -8    2.90    0.28
   1   5   8    3.56    0.29
  -1  -5   8    3.54    0.33
   5   1   8    3.32    0.31
  -5  -1   8    3.34    0.28
   1  -5  -8    2.73    0.24
  -1   5  -8    3.21    0.38
  -5  -1   8    3.55    0.33
  -5  -1   8    3.11    0.35
   1  -5 -10    5.91    0.37
   1   5  10    5.45    0.39
   5   1  10    5.81    0.41
  -1  -5  10    5.64    0.44
   5  -1 -10    5.43    0.40
  -1  -5  10    5.70    0.33
  -1   5 -10    5.45    0.37
  -5  -1  10    5.79    0.41
   1  -5 -10    5.49    0.56
  -5   1 -10    5.20    0.45
   1   5  10    5.79    0.47
  -1   5 -10    5.55    0.38
  -1   5 -10    4.91    0.48
  -1   5 -10    6.27    0.42
   1  -5 -10    6.26    0.39
   1  -5 -12    1.08    0.24
   5  -1 -12    0.44    0.22
  -1  -5  12    0.72    0.28
  -5  -1  12    1.09    0.25
   1  -5 -12    0.98    0.21
  -1   5 -12    1.33    0.36
  -5   1 -12    1.07    0.29
   1   5  12    0.58    0.28
   1  -5 -12    0.98    0.40
  -1   5 -12    1.26    0.29
   5   1  12    0.97    0.24
  -1  -5  12    0.77    0.14
  -5  -1  12    0.83    0.18
   1  -5 -14    3.80    0.40
  -5  -1  14    3.99    0.42
   5   1  14    3.69    0.38
   5  -1 -14    3.65    0.42
  -5   1 -14    4.14    0.37
   1  -5 -14    4.59    0.59
   1   5  14    4.04    0.49
  -5   1 -14    3.90    0.47
  -1   5 -14    4.06    0.49
   1  -5 -14    4.60    0.39
  -1   5 -14    3.96    0.45
  -5  -1  14    3.81    0.34
   5  -1 -16    3.94    0.47
   1   5  16    3.62    0.50
  -1   5 -16    4.10    0.49
  -5   1 -16    3.45    0.46
  -5   1 -16    4.85    0.41
  -5   1 -16    3.77    0.54
  -1   5 -16    4.14    0.56
   1  -5 -16    3.92    0.40
   1  -5 -16    4.10    0.61
  -5  -1  16    4.55    0.48
   1  -5 -16    3.95    0.44
  -1   5 -18    1.17    0.40
  -5   1 -18   -0.06    0.35
   1  -5 -18    0.76    0.46
  -5  -1  18   -0.08    0.25
   5  -1 -18    0.37    0.32
   1  -5 -18    0.26    0.25
  -5   1 -18    0.37    0.21
   1   5  18    0.12    0.29
   1  -5 -18    0.96    0.27
  -1   5 -18    0.39    0.33
   1   5  20    3.16    0.53
  -5   1 -20    2.83    0.54
  -5   1 -20    2.58    0.32
   1  -5 -20    2.70    0.39
   1  -5 -20    2.93    0.59
  -1   5 -20    3.00    0.54
  -5  -1  20    2.41    0.43
  -1   5 -20    2.27    0.45
   5  -1 -20    2.79    0.45
   1  -5 -20    2.99    0.45
  -5   1 -22    2.38    0.55
   5  -1 -22    1.12    0.39
  -5   1 -22    0.77    0.46
   1  -5 -22    1.37    0.39
  -1   5 -22    1.14    0.46
  -5  -1  22    0.85    0.35
  -1   5 -22    0.85    0.37
   1   5  22    0.46    0.35
   1  -5 -22    1.20    0.52
   1   5  24    0.99    0.42
   1  -5 -24    0.93    0.41
  -5  -1  24    0.85    0.37
  -5   1 -24    1.23    0.51
  -5   1 -24    1.37    0.57
   1  -5 -24    0.32    0.46
  -1   5 -24    0.58    0.38
  -1   5 -24   -0.02    0.41
   5  -1 -24    0.94    0.40
  -5  -1  26    0.60    0.35
   5  -1 -26   -0.17    0.40
  -2  -5 -27    0.86    0.44
   5   2 -27    0.54    0.45
   2   5 -25    0.27    0.43
  -5   2  25    0.63    0.36
   5   2 -25   -0.26    0.35
  -2   5  25   -0.24    0.40
  -2  -5 -25    0.53    0.39
  -5  -2 -25    0.56    0.48
  -2  -5 -25    0.23    0.50
  -5  -2 -25    1.25    0.55
  -2  -5 -23    1.34    0.54
  -2  -5 -23    0.42    0.32
  -2   5  23    0.74    0.38
  -5  -2 -23    1.23    0.55
   5   2 -23    0.34    0.34
  -5   2  23    0.56    0.41
   2   5 -23    0.11    0.37
  -5  -2 -23    1.30    0.49
  -2  -5 -23    0.35    0.36
   5   2 -21    0.62    0.37
  -5  -2 -21    0.09    0.36
  -5   2  21    0.06    0.27
  -5  -2 -21    0.09    0.27
  -2  -5 -21   -0.29    0.36
  -2  -5 -21    0.44    0.50
   2   5 -21    0.09    0.34
  -2  -5 -21    0.37    0.27
  -2   5  21   -0.25    0.31
  -5  -2 -19    0.37    0.33
  -2  -5 -19    1.91    0.41
   5   2 -19    0.97    0.38
  -2  -5 -19    1.08    0.33
   2   5 -19    1.62    0.47
  -2  -5 -19    2.47    0.56
  -2   5  19    1.48    0.42
  -5   2  19    1.27    0.36
  -5  -2 -19    0.69    0.33
  -2  -5 -17    3.33    0.46
  -2  -5 -17    3.75    0.44
   2   5 -17    2.58    0.48
  -2   5  17    3.84    0.52
  -5   2  17    3.29    0.48
  -5  -2 -17    3.16    0.45
  -2  -5 -17    4.19    0.64
   5   2 -17    2.71    0.46
  -2  -5 -15    3.34    0.41
   5  -2  15    3.15    0.28
  -5   2  15    3.44    0.45
  -5  -2 -15    2.66    0.41
   5   2 -15    2.85    0.43
  -2   5  15    3.41    0.46
  -5   2  15    2.92    0.28
   2   5 -15    2.94    0.48
  -5   2  13    5.05    0.47
   5  -2  13    5.06    0.33
  -5   2  13    5.15    0.33
   5   2 -13    5.57    0.53
   2   5 -13    5.79    0.56
  -2   5  13    4.34    0.47
  -2  -5 -13    5.33    0.45
  -5  -2 -13    4.58    0.47
  -2   5  13    4.98    0.37
  -5  -2 -11    3.88    0.41
  -2   5  11    3.07    0.27
   2   5 -11    4.24    0.46
   5   2 -11    4.15    0.43
  -2  -5 -11    3.94    0.37
  -2   5  11    4.10    0.42
  -5   2  11    3.83    0.25
   5  -2  11    3.62    0.28
  -5   2  11    3.69    0.34
  -5   2  11    4.25    0.40
   5   2 -11    4.37    0.35
   2   5 -11    4.00    0.34
  -5  -2  -9    4.92    0.42
   5   2  -9    6.03    0.36
   2  -5   9    5.46    0.36
  -2   5   9    4.93    0.43
  -2   5   9    5.49    0.32
  -5   2   9    5.88    0.42
  -5   2   9    5.38    0.36
   2   5  -9    6.03    0.44
  -5   2   9    5.12    0.24
   2   5  -9    5.99    0.35
   5  -2   9    5.67    0.33
  -2  -5  -9    6.07    0.41
   5   2  -9    5.12    0.42
   2   5  -9    5.29    0.46
   2   5  -7    2.09    0.20
   2  -5   7    2.00    0.23
   2   5  -7    1.91    0.30
   2   5  -7    1.77    0.29
  -5   2   7    1.58    0.10
  -5   2   7    2.22    0.22
  -5  -2  -7    2.39    0.29
  -2  -5  -7    1.71    0.24
   5   2  -7    2.11    0.28
  -2   5   7    2.30    0.29
  -5   2   7    1.64    0.24
   2  -5   5   14.23    0.58
  -5  -2  -5   13.62    0.61
  -5   2   5   12.27    0.48
   2   5  -5   14.03    0.43
  -5   2   5   13.62    0.56
  -2  -5  -5   13.89    0.57
  -2  -5  -5   13.62    0.57
   5   2  -5   13.36    0.58
  -5   2   5   13.92    0.49
  -2   5   5   13.13    0.58
   2   5  -5   13.78    0.61
   2   5  -5   13.77    0.47
  -2  -5  -5   14.16    0.52
   2   5  -5   13.45    0.61
  -2  -5  -3    8.60    0.42
   2   5  -3    8.11    0.44
   2   5  -3    8.78    0.47
  -2   5   3    9.02    0.43
  -2  -5  -3    8.66    0.38
  -5  -2  -3    8.28    0.39
  -2   5   3    9.10    0.44
   5   2  -3    9.08    0.44
   2   5  -3    7.93    0.37
  -5   2   3    8.40    0.34
  -5   2   3    8.25    0.38
   2  -5   3    8.65    0.42
  -2  -5  -3    8.29    0.35
  -5  -2  -3    8.38    0.43
  -5  -2  -1    2.86    0.27
  -5   2   1    2.46    0.21
   5   2  -1    2.45    0.27
   5  -2   1    2.61    0.22
  -5  -2  -1    2.91    0.25
  -2   5   1    2.65    0.14
   5   2  -1    2.64    0.26
   2   5  -1    2.64    0.24
  -2  -5  -1    2.53    0.22
   2   5  -1    2.57    0.13
   2  -5   1    2.81    0.22
  -2   5   1    2.51    0.21
  -2  -5  -1    2.83    0.17
  -2  -5  -1    2.61    0.19
  -5   2   1    2.63    0.17
  -5   2   1    2.43    0.24
   5  -2   1    2.70    0.22
   2  -5  -1    2.36    0.25
  -5  -2   1    2.24    0.13
   5   2   1    2.46    0.24
   5   2   1    2.36    0.27
   2   5   1    2.34    0.17
  -5  -2   1    2.31    0.21
  -5   2  -1    2.05    0.20
   5  -2  -1    2.45    0.16
  -2   5  -1    2.27    0.19
  -5   2  -1    2.52    0.26
   5  -2  -1    2.84    0.23
   2  -5  -1    2.25    0.14
   2  -5  -3    9.19    0.44
  -2   5  -3    8.73    0.42
  -5   2  -3    9.60    0.47
  -5   2  -3    8.96    0.44
   2   5   3    9.65    0.37
  -5   2  -3    8.57    0.42
   2  -5  -3    9.17    0.44
   2   5   3    9.64    0.41
   5   2   3    8.90    0.39
   5   2   3    8.70    0.46
   5  -2  -3    9.44    0.43
  -5   2  -5   14.09    0.61
   5  -2  -5   14.28    0.58
   2  -5  -5   12.86    0.38
  -2   5  -5   14.96    0.63
   5   2   5   15.18    0.63
   5  -2  -5   14.70    0.49
   5   2   5   14.09    0.48
   2  -5  -5   14.79    0.49
  -5  -2   5   13.82    0.47
  -5  -2   5   14.26    0.59
   2  -5  -5   14.69    0.64
  -5   2  -5   14.68    0.63
   2  -5  -5   14.97    0.60
  -5   2  -5   13.87    0.53
   2   5   5   15.44    0.54
   2   5   5   14.29    0.60
   2  -5  -7    2.49    0.29
  -5  -2   7    2.64    0.29
   2  -5  -7    2.79    0.21
  -2   5  -7    2.53    0.25
   2   5   7    2.58    0.30
   5  -2  -7    3.00    0.24
  -2  -5   7    2.61    0.32
   2   5   7    2.36    0.25
   2  -5  -7    2.76    0.36
  -2  -5   7    2.74    0.25
  -5   2  -7    2.43    0.25
  -2   5  -7    2.33    0.33
  -5   2  -7    2.31    0.26
  -5  -2   7    2.51    0.22
   2  -5  -7    2.54    0.19
  -5   2  -7    2.09    0.28
   5   2   7    2.42    0.29
   2   5   7    2.25    0.24
   2   5   9    5.43    0.39
  -2  -5   9    5.42    0.44
  -5   2  -9    5.54    0.40
   2   5   9    5.75    0.40
   2   5   9    4.98    0.45
   2  -5  -9    5.91    0.52
  -5  -2   9    5.50    0.45
   5   2   9    5.69    0.42
  -5   2  -9    5.50    0.44
  -5  -2   9    5.68    0.36
  -2  -5   9    5.50    0.26
   5  -2  -9    5.63    0.36
   2  -5  -9    5.43    0.33
   2  -5  -9    5.25    0.32
   5   2   9    4.82    0.43
  -2   5  -9    5.08    0.33
  -2   5  -9    5.86    0.42
  -2   5  -9    5.11    0.46
  -5  -2  11    4.05    0.35
  -5   2 -11    3.46    0.41
   2  -5 -11    4.15    0.34
  -2  -5  11    3.73    0.21
  -2   5 -11    4.21    0.46
   5   2  11    4.04    0.39
   5  -2 -11    3.90    0.35
   2  -5 -11    4.80    0.54
   5   2  11    3.94    0.42
  -5   2 -11    4.48    0.37
   2   5  11    3.65    0.42
  -2  -5  11    3.97    0.26
   2  -5 -11    4.24    0.32
   2  -5 -13    4.32    0.36
  -2   5 -13    4.70    0.52
   5  -2 -13    4.26    0.40
  -2  -5  13    4.17    0.22
  -5  -2  13    4.65    0.42
  -5   2 -13    5.42    0.52
  -2  -5  13    4.69    0.27
   2  -5 -13    3.83    0.36
   2  -5 -13    4.35    0.56
  -5  -2  13    5.05    0.39
   5   2  13    4.84    0.51
  -5   2 -13    4.58    0.38
  -2   5 -13    5.04    0.47
   2   5  13    5.25    0.53
  -2   5 -15    3.28    0.50
  -5   2 -15    2.83    0.50
  -2  -5  15    2.42    0.17
   5   2  15    3.09    0.46
   2  -5 -15    2.26    0.52
   2  -5 -15    3.19    0.37
  -5  -2  15    2.82    0.38
   2  -5 -15    2.41    0.30
   2   5  15    2.58    0.44
  -2   5 -15    2.48    0.41
  -5   2 -15    3.01    0.33
   5  -2 -15    3.28    0.41
   5  -2 -17    3.53    0.43
  -5   2 -17    3.51    0.35
  -5  -2  17    3.36    0.44
  -2   5 -17    3.42    0.48
  -2   5 -17    4.15    0.57
   2   5  17    2.56    0.46
   2  -5 -17    2.67    0.54
  -5   2 -17    3.99    0.57
   2  -5 -17    3.24    0.37
   2  -5 -17    3.33    0.42
   5   2  17    4.08    0.54
   2  -5 -19    1.07    0.28
  -5   2 -19    1.13    0.24
  -5   2 -19    1.25    0.42
   2  -5 -19    1.67    0.37
   5  -2 -19    0.77    0.32
  -2   5 -19    0.59    0.33
  -2   5 -19    1.77    0.46
  -5  -2  19    1.50    0.37
   2  -5 -19    1.03    0.48
   2   5  19    0.87    0.35
  -5   2 -21    0.19    0.40
   5  -2 -21   -0.23    0.29
  -2   5 -21    0.37    0.34
   2  -5 -21    0.34    0.31
  -2   5 -21    0.39    0.40
   2  -5 -21    0.03    0.43
  -5  -2  21    0.25    0.30
   2   5  21   -0.06    0.32
  -2   5 -23    0.35    0.36
  -2   5 -23    0.69    0.42
  -5  -2  23    0.62    0.37
  -5   2 -23   -0.27    0.40
   5  -2 -23    0.60    0.37
   2  -5 -23    0.78    0.37
   2  -5 -23   -0.05    0.49
  -5   2 -23    1.34    0.56
   2   5  23    0.53    0.43
  -2   5 -25    0.98    0.42
   5  -2 -25    0.39    0.34
  -2   5 -25    0.44    0.46
  -5   2 -25   -0.30    0.44
   2  -5 -25   -0.25    0.56
  -5  -2  25   -0.17    0.33
  -5   2 -25   -0.26    0.44
   2   5  25   -0.07    0.35
  -5  -2  27    0.44    0.36
  -3  -5 -26    0.63    0.42
  -5  -3 -26    0.62    0.49
   5   3 -26    0.21    0.40
  -3  -5 -24    0.56    0.51
  -3  -5 -24    0.72    0.44
  -5   3  24    0.92    0.41
   5   3 -24    0.16    0.37
  -5  -3 -24    1.41    0.59
  -5  -3 -24   -0.06    0.37
  -3   5  24    0.38    0.36
  -3  -5 -24    0.07    0.28
   3   5 -24   -0.13    0.39
  -3  -5 -22    2.44    0.49
  -5  -3 -22    3.08    0.57
  -5  -3 -22    2.20    0.46
  -3  -5 -22    2.28    0.43
   5   3 -22    2.97    0.54
  -3  -5 -22    2.54    0.62
   3   5 -22    3.45    0.61
  -5   3  22    1.68    0.45
  -3   5  22    2.52    0.51
  -3   5  20    2.27    0.48
  -5   3  20    1.33    0.37
   5   3 -20    1.74    0.44
  -3  -5 -20    1.58    0.42
   3   5 -20    1.14    0.45
  -3  -5 -20    2.12    0.59
  -3  -5 -20    1.32    0.33
  -5  -3 -20    2.01    0.43
  -5  -3 -20    1.15    0.40
  -5  -3 -18    6.98    0.64
  -3   5  18    8.05    0.73
  -3  -5 -18    8.16    0.70
   5   3 -18    6.63    0.66
  -3  -5 -18    8.19    0.66
   3   5 -18    7.11    0.70
  -5   3  18    7.17    0.67
   3   5 -16    0.93    0.40
  -3   5  16    0.65    0.31
  -3  -5 -16    1.08    0.30
  -5  -3 -16    0.63    0.30
   5   3 -16    0.60    0.33
  -5   3  16    0.82    0.31
  -3  -5 -14    3.83    0.42
   5   3 -14    3.42    0.46
  -5   3  14    3.99    0.46
  -5  -3 -14    3.79    0.44
  -3   5  14    3.40    0.31
  -3   5  14    3.67    0.44
   3   5 -14    4.19    0.52
  -5   3  14    3.84    0.30
  -3   5  12   23.46    1.04
   3   5 -12   23.63    1.08
   3   5 -12   24.94    0.91
  -5  -3 -12   24.96    1.05
   5   3 -12   25.04    0.91
   5   3 -12   25.02    1.06
  -3   5  12   24.65    0.82
  -5   3  12   22.93    1.01
  -3  -5 -12   24.31    1.00
  -5   3  12   24.28    0.75
  -5  -3 -10    9.45    0.58
   5   3 -10    9.78    0.61
  -3  -5 -10    9.57    0.56
  -5   3  10    9.44    0.36
  -5   3  10    9.55    0.49
   3   5 -10   10.64    0.49
   3   5 -10   10.49    0.65
  -3   5  10    9.92    0.43
  -5   3  10    9.46    0.57
   5   3 -10   10.04    0.49
  -3   5  10    9.57    0.60
   3   5  -8   12.35    0.63
  -3  -5  -8   12.88    0.63
   5   3  -8   13.79    0.66
   3   5  -8   13.36    0.69
   3   5  -8   13.06    0.49
  -5   3   8   11.54    0.34
   5   3  -8   13.38    0.50
  -3   5   8   13.29    0.66
  -5   3   8   14.04    0.64
   3  -5   8   12.34    0.58
  -5  -3  -8   13.13    0.65
  -5   3   8   12.97    0.51
  -5  -3  -6   19.63    0.75
  -3   5   6   19.00    0.75
   3   5  -6   18.82    0.77
  -5   3   6   18.05    0.57
   5   3  -6   17.46    0.74
  -3  -5  -6   18.18    0.72
  -5  -3  -6   17.69    0.74
   3   5  -6   19.20    0.77
  -5   3   6   18.79    0.73
   3   5  -6   18.24    0.54
   3   5  -6   18.67    0.61
   3  -5   6   18.45    0.72
  -3  -5  -6   18.11    0.73
  -3  -5  -4    5.75    0.29
   5   3  -4    5.71    0.39
  -5  -3  -4    5.69    0.38
   5   3  -4    5.69    0.42
  -5   3   4    6.23    0.26
  -5   3   4    5.54    0.32
  -5  -3  -4    5.96    0.35
   3   5  -4    6.08    0.44
  -3   5   4    5.77    0.37
  -3  -5  -4    6.17    0.39
   3   5  -4    5.38    0.32
   3   5  -4    5.40    0.38
  -3   5   4    6.63    0.41
  -3  -5  -4    6.07    0.34
   3   5  -2   25.75    0.81
   5   3  -2   25.54    0.84
  -5  -3  -2   25.02    0.74
  -5   3   2   24.96    0.82
  -5  -3  -2   25.75    0.84
  -3  -5  -2   25.44    0.72
   5   3  -2   25.33    0.87
   3   5  -2   27.35    0.90
   5   3  -2   26.34    0.85
  -3   5   2   24.94    0.78
   3   5  -2   24.12    0.83
  -3  -5  -2   26.82    0.85
  -3  -5  -2   25.50    0.68
   5  -3   2   26.91    0.80
  -3  -5  -2   26.64    0.81
  -3  -5   0    0.75    0.09
   5   3   0    0.59    0.21
  -3   5   0    0.76    0.13
   3   5   0    0.88    0.19
   5  -3   0    0.83    0.13
   3   5   0    0.84    0.11
  -5   3   0    0.88    0.19
  -5  -3   0    0.76    0.16
   3   5   0    1.00    0.23
   5   3   0    0.93    0.22
   3  -5   0    0.76    0.21
   5  -3   0    1.00    0.19
   3  -5  -2   24.97    0.82
   5   3   2   25.28    0.88
  -5   3  -2   26.20    0.87
   3   5   2   26.62    0.68
   5   3   2   24.53    0.79
   5  -3  -2   27.19    0.82
   5  -3  -2   27.51    0.84
   3   5   2   25.36    0.74
  -3   5  -2   25.67    0.77
   5  -3  -2   25.59    0.63
   3   5   4    6.83    0.31
   5  -3  -4    6.88    0.36
   3   5   4    6.99    0.38
   5   3   4    6.81    0.36
  -3   5  -4    6.33    0.41
  -5  -3   4    6.52    0.25
   5   3   4    6.62    0.42
  -5   3  -4    6.06    0.38
   3  -5  -4    6.47    0.39
   5  -3  -4    5.90    0.38
  -3   5  -4    6.91    0.40
  -5  -3   4    6.68    0.40
  -5   3  -4    6.12    0.41
  -5  -3   6   19.24    0.59
   3   5   6   18.90    0.74
  -3   5  -6   17.06    0.74
   5  -3  -6   19.14    0.57
   3  -5  -6   17.70    0.76
   5   3   6   19.87    0.78
   5  -3  -6   19.85    0.63
   3   5   6   19.18    0.64
  -3  -5   6   19.10    0.64
   5  -3  -6   19.01    0.74
  -5   3  -6   18.18    0.74
   3  -5  -6   19.39    0.56
   5   3   6   18.41    0.73
   3  -5  -6   19.45    0.75
  -5  -3   6   18.51    0.70
  -5   3  -6   19.18    0.63
  -3   5  -6   18.50    0.72
  -5   3  -6   19.21    0.77
   3  -5  -6   17.75    0.48
   3  -5  -8   13.11    0.47
  -3   5  -8   12.28    0.58
  -5  -3   8   13.55    0.53
  -5  -3   8   12.35    0.56
   3   5   8   12.06    0.64
   3  -5  -8   13.25    0.45
  -3   5  -8   13.03    0.68
  -5   3  -8   13.58    0.49
  -5   3  -8   13.32    0.62
   5  -3  -8   13.39    0.47
   3  -5  -8   13.11    0.64
  -3  -5   8   12.43    0.64
   5   3   8   12.60    0.65
   3   5   8   13.91    0.57
  -3   5  -8   11.43    0.34
  -3   5  -8   12.54    0.49
   5   3   8   12.86    0.63
  -3  -5   8   13.21    0.49
   3   5   8   12.31    0.60
   5  -3  -8   13.55    0.51
   3  -5  -8   13.08    0.70
  -3  -5   8   13.21    0.56
  -5  -3   8   14.40    0.65
  -5   3 -10   10.23    0.56
  -3   5 -10   10.63    0.45
  -5  -3  10   10.96    0.53
   5  -3 -10   10.69    0.50
   3   5  10   11.24    0.65
   5   3  10    9.98    0.63
   3  -5 -10    9.87    0.67
  -3   5 -10    9.85    0.65
   3  -5 -10   10.83    0.47
   3  -5 -10   11.18    0.46
   3   5  10   11.29    0.57
  -3  -5  10   10.48    0.50
  -3  -5  10   11.15    0.57
   5  -3 -10   10.58    0.39
  -3  -5  10   10.81    0.43
  -3   5 -10   10.05    0.54
   3   5  12   23.41    1.07
   5   3  12   24.80    1.08
   3  -5 -12   24.79    0.86
  -3   5 -12   22.95    0.89
   3  -5 -12   21.91    1.09
   3  -5 -12   25.86    0.84
  -3   5 -12   24.67    1.11
  -3  -5  12   25.28    0.92
  -5  -3  12   22.90    0.91
  -3  -5  12   24.61    0.74
  -5   3 -12   25.40    0.94
  -5   3 -12   24.79    1.12
  -3  -5  12   23.88    0.72
   5  -3 -12   23.88    0.89
  -3  -5  14    3.28    0.24
   3   5  14    4.19    0.50
   3  -5 -14    4.00    0.33
   5  -3 -14    3.63    0.38
  -3  -5  14    3.64    0.38
   5   3  14    3.16    0.47
   3  -5 -14    3.99    0.38
  -3   5 -14    3.58    0.51
  -5   3 -14    3.02    0.49
  -5  -3  14    3.33    0.37
  -5   3 -14    3.81    0.36
   3  -5 -14    4.04    0.57
  -3  -5  14    3.34    0.21
  -5  -3  16    1.20    0.30
   3  -5 -16    1.28    0.30
   5   3  16    0.41    0.32
  -3  -5  16    0.63    0.15
   3  -5 -16    1.08    0.23
   5  -3 -16    0.60    0.27
   3   5  16    1.09    0.37
   3  -5 -16    1.40    0.48
  -3  -5  16    0.59    0.26
  -3   5 -16    0.42    0.37
  -3   5 -16    1.18    0.42
  -5   3 -16    0.45    0.39
  -5   3 -16    0.98    0.25
  -3   5 -18    6.08    0.60
   3   5  18    6.94    0.69
   3  -5 -18    6.92    0.75
  -5   3 -18    8.78    0.79
  -5  -3  18    7.27    0.62
  -5   3 -18    8.06    0.54
   3  -5 -18    7.32    0.58
  -3   5 -18    7.53    0.74
   5  -3 -18    7.40    0.61
   5   3  18    8.39    0.75
  -5  -3  20    1.48    0.34
   5   3  20    1.63    0.43
   3  -5 -20    1.19    0.49
   3   5  20    2.71    0.53
  -5   3 -20    1.55    0.51
   3  -5 -20    1.56    0.36
   5  -3 -20    1.47    0.37
  -3   5 -20    1.50    0.42
  -5   3 -20    1.66    0.28
  -3   5 -20    1.46    0.46
  -5   3 -22    2.78    0.58
   3   5  22    1.73    0.45
  -3   5 -22    2.79    0.51
   3  -5 -22    1.15    0.50
  -3   5 -22    2.53    0.57
   5  -3 -22    1.98    0.42
   3  -5 -22    1.84    0.40
  -5   3 -22    2.34    0.57
  -5  -3  22    2.78    0.48
  -5   3 -24    0.40    0.43
  -3   5 -24    0.20    0.40
   3   5  24   -0.02    0.34
  -5  -3  24    0.60    0.34
   5  -3 -24   -0.13    0.32
  -5   3 -24    1.14    0.50
   3  -5 -24   -0.08    0.50
  -3   5 -24    0.65    0.40
  -5  -3  26    0.27    0.36
  -5   3 -26    0.18    0.52
  -4  -5 -27    1.25    0.51
  -5  -4 -25    2.13    0.53
  -4  -5 -25    1.99    0.46
  -4  -5 -25    2.46    0.55
  -5   4  25    1.54    0.49
   4   5 -25    2.26    0.53
  -4   5  25    2.03    0.52
   5   4 -25    1.15    0.43
  -5  -4 -25    2.40    0.50
  -5  -4 -23    7.50    0.75
  -4  -5 -23    7.53    0.75
  -5  -4 -23    6.82    0.77
  -5   4  23    6.97    0.77
  -4  -5 -23    7.97    0.91
   5   4 -23    8.75    0.87
   4   5 -23    6.86    0.80
  -4   5  23    7.63    0.81
  -4  -5 -23    7.99    0.79
  -5  -4 -23    8.33    0.90
   4   5 -21    0.18    0.35
  -5  -4 -21   -0.19    0.29
  -4   5  21   -0.07    0.31
  -5   4  21    0.49    0.34
  -4  -5 -21    1.30    0.56
  -5  -4 -21    0.38    0.35
  -4  -5 -21    0.26    0.29
  -4  -5 -21    0.34    0.37
   5   4 -21    0.64    0.38
   4   5 -19    6.26    0.69
  -4  -5 -19    6.16    0.64
  -5   4  19    6.39    0.65
  -4  -5 -19    7.08    0.64
  -5  -4 -19    6.35    0.63
   5   4 -19    5.32    0.64
  -4   5  19    6.98    0.68
  -4   5  17   15.40    0.96
  -5   4  17   14.92    0.95
   4   5 -17   15.71    0.98
   5   4 -17   13.45    0.92
  -4  -5 -17   16.26    0.92
  -5  -4 -17   15.70    0.93
  -5   4  15    6.72    0.60
  -4  -5 -15    8.06    0.62
   4   5 -15    6.85    0.65
  -4   5  15    7.07    0.43
  -5   4  15    6.73    0.40
   5   4 -15    5.92    0.61
  -4   5  15    6.63    0.62
  -5  -4 -15    7.99    0.62
   4   5 -13   22.72    1.08
  -5   4  13   22.74    1.04
  -5  -4 -13   20.61    0.98
   5   4 -13   22.43    0.88
   4   5 -13   21.93    0.86
  -4   5  13   22.69    1.04
  -5   4  13   22.55    0.73
   5   4 -13   23.00    1.06
  -4   5  13   22.02    0.76
  -4  -5 -13   22.90    1.01
  -5   4  11   25.26    1.07
  -5   4  11   26.08    0.75
   4   5 -11   25.46    1.12
   4   5 -11   26.47    0.90
  -5  -4 -11   27.27    1.09
  -4  -5 -11   27.99    1.08
  -4   5  11   27.82    1.10
   5   4 -11   27.72    1.12
   5   4 -11   27.69    0.92
  -4   5  11   27.92    0.82
   4   5  -9    0.31    0.26
  -5   4   9    0.30    0.14
  -4  -5  -9    0.52    0.22
  -5  -4  -9    0.04    0.19
  -5   4   9    0.11    0.18
   5   4  -9    0.39    0.23
   4   5  -9    0.24    0.12
  -5   4   9    0.16    0.06
   5   4  -9    0.25    0.12
  -4   5   9    0.31    0.19
   4   5  -7  119.09    3.00
  -5  -4  -7  123.64    2.98
  -5   4   7  121.77    2.67
   5   4  -7  120.83    2.99
  -5  -4  -7  121.82    2.99
  -4   5   7  118.60    2.96
  -5   4   7  120.90    2.96
   4   5  -7  125.98    2.65
   4   5  -7  118.32    2.99
   5   4  -7  126.43    2.67
  -4  -5  -7  122.61    2.96
   4  -5   7  122.77    2.95
  -4  -5  -7  122.79    2.97
  -5  -4  -5   60.85    1.57
  -4   5   5   61.59    1.63
  -5   4   5   59.89    1.31
   5   4  -5   56.89    1.64
   5   4  -5   59.07    1.61
  -4   5   5   58.27    1.59
  -4  -5  -5   57.98    1.54
   4   5  -5   52.91    1.23
   4   5  -5   55.75    1.60
   4   5  -5   60.66    1.65
  -5  -4  -5   60.03    1.61
  -4  -5  -5   60.70    1.61
   4   5  -5   60.26    1.49
   4   5  -3   47.97    1.38
   4   5  -3   49.89    1.43
  -5   4   3   47.45    1.33
  -5  -4  -3   49.56    1.38
   4   5  -3   50.33    1.33
  -4  -5  -3   49.34    1.38
  -5  -4  -3   49.77    1.29
  -4   5   3   51.50    1.37
   5   4  -3   48.53    1.38
   5  -4   3   51.51    1.35
  -4  -5  -3   49.45    1.27
   5   4  -3   49.54    1.43
  -4  -5  -3   48.92    1.14
   5   4  -3   49.92    1.35
  -5   4   3   47.88    1.11
   4   5  -1   61.89    1.66
   5   4  -1   58.57    1.62
   5   4  -1   58.15    1.63
   4   5  -1   64.69    1.64
  -4  -5  -1   63.07    1.37
   5   4  -1   63.03    1.64
  -4  -5  -1   62.03    1.44
  -5  -4  -1   62.59    1.46
  -4   5   1   61.26    1.39
  -4  -5  -1   63.82    1.63
   4   5  -1   62.55    1.63
  -5   4   1   62.47    1.64
   5  -4   1   64.10    1.54
   5  -4   1   67.55    1.61
  -5  -4  -1   62.53    1.62
   4  -5   1   64.96    1.63
  -4   5  -1   61.20    1.65
  -4   5  -1   60.59    1.48
   4  -5  -1   65.63    1.62
   5  -4  -1   64.89    1.59
   4   5   1   63.41    1.42
   4   5   1   61.32    1.62
  -5  -4   1   58.47    1.34
   5  -4  -1   63.44    1.44
   5   4   1   64.28    1.67
   4   5   1   64.11    1.67
  -5   4  -1   62.67    1.65
   5   4   1   61.38    1.61
   4   5   3   51.63    1.14
   5   4   3   45.99    1.30
   5  -4  -3   48.42    1.33
  -4   5  -3   50.25    1.40
  -5   4  -3   49.16    1.41
   4   5   3   49.01    1.26
   5   4   3   48.24    1.41
  -4  -5   3   49.69    1.34
   4  -5  -3   48.54    1.35
   5   4   3   46.47    1.06
   4  -5  -3   52.95    1.37
   5  -4  -3   52.05    1.35
  -4   5  -3   47.21    1.31
  -5  -4   3   49.71    1.36
  -5  -4   5   58.31    1.56
   4  -5  -5   61.78    1.56
   4   5   5   60.90    1.42
  -5  -4   5   57.49    1.33
  -4   5  -5   57.36    1.61
   5   4   5   60.44    1.58
   5  -4  -5   61.03    1.53
   5   4   5   57.91    1.66
  -5   4  -5   57.40    1.64
   5  -4  -5   57.75    1.59
  -4   5  -5   58.49    1.63
   5   4   5   60.50    1.38
   4   5   5   58.91    1.57
   4  -5  -5   59.92    1.33
   4  -5  -5   61.33    1.62
  -4  -5   5   58.00    1.52
  -4  -5   7  126.64    2.85
  -4   5  -7  123.34    2.69
  -4   5  -7  122.75    3.04
   5  -4  -7  126.87    2.70
   4  -5  -7  127.97    2.87
   4  -5  -7  125.06    3.00
   5  -4  -7  126.81    2.83
   4   5   7  122.63    3.00
   4   5   7  131.13    2.84
  -5  -4   7  121.93    2.88
  -5   4  -7  125.42    3.00
   4  -5  -7  127.75    2.67
  -5  -4   7  127.35    2.74
  -4  -5   7  123.14    2.70
   5   4   7  124.89    3.01
  -4   5  -7  123.40    2.98
  -5   4  -7  123.49    2.75
   4  -5  -7  123.65    2.64
   5  -4  -7  125.13    3.00
   5   4   7  121.10    3.04
  -5  -4   9   -0.17    0.24
  -5  -4   9    0.44    0.14
  -4  -5   9    0.13    0.16
  -5  -4   9    0.36    0.18
   4  -5  -9    0.23    0.14
   4   5   9    0.25    0.16
   5  -4  -9    0.16    0.13
  -5   4  -9    0.42    0.20
  -5   4  -9    0.22    0.14
   4   5   9    0.38    0.23
  -4  -5   9    0.50    0.15
  -4   5  -9    0.28    0.26
  -4   5  -9    0.72    0.21
  -5   4  -9    0.23    0.07
   4  -5  -9    0.29    0.11
  -4   5  -9    0.33    0.09
  -4  -5   9    0.07    0.19
   5   4   9    0.40    0.23
   4  -5  -9    0.26    0.12
   5  -4  -9    0.35    0.12
  -4   5  -9    0.14    0.15
   4   5  11   27.33    1.13
  -4   5 -11   27.57    1.01
   5  -4 -11   27.62    0.91
   4  -5 -11   27.88    0.88
  -5   4 -11   29.83    1.21
  -4  -5  11   27.76    0.87
  -5  -4  11   28.99    0.96
  -4  -5  11   27.90    0.93
   5   4  11   28.07    1.14
  -4   5 -11   28.15    1.17
   4  -5 -11   29.19    0.84
  -5  -4  11   26.65    0.93
   5  -4 -11   27.84    0.80
  -4  -5  11   28.27    1.03
   4  -5 -11   25.96    1.17
   4  -5 -11   28.78    0.87
  -5   4 -11   26.40    1.01
  -4  -5  13   21.68    0.64
   5  -4 -13   22.87    0.64
   4  -5 -13   23.05    1.13
   4  -5 -13   22.05    0.83
  -5  -4  13   23.08    0.83
  -4   5 -13   19.63    0.85
  -5   4 -13   23.72    1.12
  -4   5 -13   22.89    1.10
  -5  -4  13   23.01    0.90
  -5   4 -13   21.75    0.89
  -4  -5  13   23.42    0.89
   4  -5 -13   23.12    0.72
  -4  -5  13   23.58    0.76
   5  -4 -13   21.92    0.84
   4  -5 -13   23.15    0.76
   4   5  13   23.97    1.09
   5   4  13   22.60    1.06
   5  -4 -15    7.02    0.51
   4  -5 -15    6.57    0.70
   4  -5 -15    6.52    0.42
  -4   5 -15    6.89    0.68
  -5  -4  15    7.75    0.55
  -4   5 -15    6.58    0.48
  -5  -4  15    6.90    0.45
   5   4  15    6.26    0.62
  -4  -5  15    7.28    0.53
  -5   4 -15    7.26    0.51
   4   5  15    7.28    0.65
  -5   4 -15    6.63    0.68
  -4  -5  15    7.11    0.40
   4  -5 -15    7.25    0.50
   4  -5 -15    6.99    0.33
  -4   5 -17   14.58    0.73
  -4   5 -17   13.11    0.93
   4   5  17   13.59    0.92
   5   4  17   14.46    0.95
  -5   4 -17   14.55    0.98
   5  -4 -17   13.82    0.77
   4  -5 -17   13.17    0.96
   4  -5 -17   14.47    0.77
  -4  -5  17   15.51    0.83
  -5  -4  17   15.98    0.85
  -5  -4  17   14.84    0.67
  -4  -5  17   14.77    0.58
  -5   4 -17   13.69    0.72
   4  -5 -19    5.18    0.68
  -4   5 -19    6.21    0.71
  -4  -5  19    6.85    0.59
   4   5  19    5.71    0.67
   5   4  19    7.29    0.74
  -5  -4  19    6.55    0.59
  -5   4 -19    7.51    0.77
   5  -4 -19    6.26    0.55
  -4   5 -19    7.27    0.66
  -5   4 -19    5.49    0.46
   4  -5 -19    5.91    0.54
   4   5  21   -0.08    0.35
   4  -5 -21    0.25    0.28
  -4   5 -21   -0.02    0.38
   5   4  21    0.15    0.33
  -5  -4  21    0.21    0.25
  -5   4 -21    0.44    0.40
  -4   5 -21    1.07    0.43
   5  -4 -21    0.50    0.29
  -5   4 -21    1.20    0.50
   4   5  23    6.33    0.76
  -5  -4  23    7.50    0.73
  -5   4 -23    6.20    0.80
   5  -4 -23    7.01    0.69
  -5   4 -23    8.31    0.82
  -4   5 -23    5.99    0.69
  -4   5 -23    6.61    0.83
  -4   5 -25    1.76    0.54
  -5   4 -25    2.86    0.59
  -5  -5 -26    1.95    0.48
  -5  -5 -26    1.88    0.59
  -5   5  24    0.50    0.38
   5   5 -24    0.56    0.41
  -5  -5 -24    0.43    0.33
  -5  -5 -24    0.16    0.38
  -5  -5 -22   12.37    0.94
  -5  -5 -22   12.14    0.96
  -5   5  22   11.75    0.97
   5   5 -22   11.70    0.98
   5   5 -20    7.22    0.75
  -5  -5 -20    8.71    0.81
  -5  -5 -20    9.10    0.76
  -5   5  20    9.14    0.82
  -5  -5 -18    9.20    0.74
  -5   5  18    8.65    0.74
   5   5 -18    8.30    0.76
  -5   5  16   11.87    0.83
   5   5 -16   12.26    0.86
  -5  -5 -16   12.60    0.82
  -5   5  14   24.99    1.13
  -5   5  14   22.74    0.77
   5   5 -14   21.47    1.10
  -5  -5 -14   24.38    1.09
   5   5 -12    8.80    0.66
  -5   5  12    9.34    0.39
   5   5 -12    9.31    0.50
  -5   5  12    8.99    0.63
  -5  -5 -12    8.88    0.61
  -5  -5 -10   39.23    1.36
   5   5 -10   40.70    1.12
  -5   5  10   39.59    1.38
   5   5 -10   38.80    1.41
   5   5  -8   94.01    2.53
  -5   5   8   93.15    2.48
   5   5  -8  100.17    2.17
  -5  -5  -8   92.79    2.50
   5   5  -6    1.18    0.29
   5   5  -6    1.89    0.29
  -5   5   6    1.45    0.11
   5  -5   6    1.74    0.25
  -5   5   6    1.88    0.27
  -5  -5  -6    1.52    0.23
  -5  -5  -6    1.28    0.24
   5   5  -4   74.33    2.00
   5  -5   4   78.83    1.98
  -5  -5  -4   72.64    1.99
  -5  -5  -4   77.27    1.90
   5   5  -4   78.06    2.06
   5   5  -4   77.75    1.94
  -5   5   4   78.33    2.00
   5   5  -2   65.42    1.74
  -5  -5  -2   69.35    1.75
  -5  -5  -2   68.83    1.58
   5   5  -2   66.46    1.78
  -5  -5  -2   61.31    1.39
   5   5  -2   67.90    1.73
   5  -5   2   69.32    1.68
  -5  -5   0   14.59    0.44
  -5  -5   0   14.18    0.61
  -5  -5   0   14.80    0.40
   5   5   0   15.01    0.66
   5  -5   0   15.63    0.63
  -5   5   0   15.45    0.66
   5   5   0   15.30    0.66
   5   5   2   68.38    1.79
  -5   5  -2   64.24    1.75
   5   5   2   67.40    1.55
  -5  -5   2   62.75    1.72
   5  -5  -2   68.18    1.73
   5  -5  -2   61.62    1.68
   5   5   2   61.83    1.69
   5   5   4   75.88    1.86
   5   5   4   75.44    1.66
  -5   5  -4   75.02    1.99
   5   5   4   74.36    2.01
  -5  -5   4   76.51    1.93
   5  -5  -4   72.93    1.92
   5  -5  -4   76.86    1.92
  -5   5  -6    1.60    0.26
   5  -5  -6    1.93    0.22
   5   5   6    1.83    0.18
   5  -5  -6    1.46    0.10
  -5  -5   6    1.81    0.13
   5   5   6    1.72    0.25
   5  -5  -6    1.71    0.28
  -5  -5   6    1.67    0.26
   5  -5  -8   99.54    2.35
   5  -5  -8   99.25    2.16
  -5   5  -8  101.93    2.18
  -5  -5   8   97.90    2.38
   5   5   8   96.80    2.52
   5  -5  -8  100.12    2.53
   5  -5  -8   93.96    2.09
  -5   5  -8   95.43    2.58
  -5   5  -8   96.68    2.50
  -5   5  -8   98.61    2.20
  -5  -5   8   99.18    2.22
   5   5   8  103.41    2.34
   5   5  10   44.68    1.28
   5  -5 -10   42.49    1.11
  -5   5 -10   42.33    1.48
  -5  -5  10   41.80    1.17
  -5   5 -10   40.52    1.00
   5   5  10   40.89    1.41
  -5  -5  10   41.09    1.32
   5  -5 -10   40.83    1.15
   5  -5 -10   40.35    1.01
  -5  -5  10   40.36    1.20
  -5   5 -10   38.55    1.32
  -5   5 -12    8.81    0.55
  -5  -5  12    8.67    0.49
   5  -5 -12    8.90    0.41
  -5   5 -12    9.15    0.69
   5  -5 -12    8.80    0.46
   5   5  12    8.04    0.62
  -5  -5  12    8.53    0.48
   5  -5 -12    9.35    0.39
  -5  -5  14   24.08    0.94
  -5   5 -14   22.53    0.94
  -5   5 -14   22.00    1.13
  -5  -5  14   19.37    0.59
   5  -5 -14   23.02    0.70
  -5  -5  14   23.73    0.83
   5   5  14   24.41    1.14
   5  -5 -14   22.96    0.87
  -5  -5  16   12.38    0.58
   5   5  16   12.09    0.87
  -5   5 -16   12.78    0.70
   5  -5 -16   11.92    0.66
  -5  -5  16   12.73    0.72
  -5   5 -16   12.38    0.89
  -5   5 -18    8.05    0.79
   5  -5 -18    8.19    0.59
  -5  -5  18    9.92    0.68
  -5   5 -18    9.06    0.60
   5   5  18    9.28    0.80
   5  -5 -20    8.00    0.63
  -5   5 -20    8.64    0.74
  -5   5 -20    8.70    0.87
  -5  -5  20    8.62    0.69
   5   5  20    7.60    0.79
  -5   5 -22   13.52    1.11
   5   5  22   12.73    1.05
  -5   5 -22   13.49    0.97
  -5   5 -24    0.23    0.44
   5   5  24    0.63    0.44
  -5   5 -24    0.44    0.43
   6   0   0   75.59    1.72
  -6   0   0   73.25    1.74
   6   0   0   75.88    1.66
   0  -6   0   72.39    1.78
   0   6   0   72.61    1.72
   0  -6   0   75.37    1.73
  -6   0   2   50.42    1.23
   0  -6  -2   51.17    1.20
  -6   0   2   47.87    1.19
   0   6   2   50.79    1.29
   0  -6   2   52.16    1.32
   6   0  -2   50.19    1.22
  -6   0  -2   48.03    1.31
   0  -6  -2   48.19    1.29
   6   0   2   51.74    1.32
  -6   0   2   49.33    1.31
   0   6  -2   49.29    1.30
  -6   0  -2   51.34    1.26
   0   6   2   52.91    1.31
   0  -6  -4   20.70    0.59
   0   6   4   19.76    0.71
   0  -6  -4   18.62    0.69
   0  -6   4   20.51    0.75
  -6   0   4   19.26    0.55
   0   6  -4   20.55    0.75
   0   6   4   20.95    0.71
   0  -6  -4   19.56    0.68
  -6   0  -4   18.20    0.73
  -6   0   4   20.34    0.70
  -6   0  -4   20.80    0.58
   6   0   4   20.67    0.75
   0  -6  -4   19.51    0.70
   6   0  -4   20.14    0.69
  -6   0   4   20.18    0.68
  -6   0  -4   20.35    0.74
   0   6  -6   73.44    1.67
   0   6   6   76.41    1.97
  -6   0   6   73.51    1.86
  -6   0   6   77.01    1.92
   6   0  -6   77.42    1.90
   6   0   6   77.94    1.93
   0  -6  -6   79.18    1.88
  -6   0  -6   74.33    1.91
   0   6  -6   79.29    1.94
   0  -6  -6   73.86    1.90
   0   6  -6   76.15    2.01
  -6   0  -6   74.27    1.98
   0   6   6   80.03    1.94
  -6   0   6   77.39    1.91
  -6   0  -8    9.76    0.57
   0  -6   8    9.32    0.46
   6   0  -8    9.21    0.49
   0   6   8    9.33    0.52
   6   0   8    9.28    0.49
  -6   0   8    9.46    0.35
   0   6  -8    9.74    0.46
   0   6  -8    8.86    0.57
  -6   0   8    9.07    0.48
   0  -6  -8    9.45    0.47
   0   6   8    9.14    0.55
  -6   0   8    9.65    0.51
   0   6   8    9.24    0.47
  -6   0   8    9.57    0.52
   0   6  -8    9.06    0.51
  -6   0  10    8.54    0.53
   6   0  10    9.04    0.50
   0   6  10    8.42    0.48
   0  -6  10    9.18    0.46
  -6   0 -10    9.78    0.61
  -6   0  10    8.94    0.52
   0  -6 -10    9.32    0.50
   0   6  10   10.02    0.62
   0   6 -10    9.01    0.46
   0   6 -10    9.61    0.51
   0   6 -10    8.11    0.49
  -6   0  10    8.10    0.29
   0  -6 -10    9.55    0.70
  -6   0  10    9.60    0.40
   6   0 -10    8.76    0.53
   0   6 -10    9.32    0.63
   0  -6 -12   13.49    0.65
   6   0  12   13.13    0.63
   0   6  12   13.57    0.77
   0  -6  12   13.22    0.57
   0  -6 -12   14.21    0.86
   0   6 -12   11.61    0.76
   0   6 -12   12.04    0.60
  -6   0  12   12.35    0.66
   6   0 -12   11.35    0.66
  -6   0  12   12.47    0.53
  -6   0 -12   11.82    0.73
   0   6 -14    5.05    0.57
   6   0  14    4.59    0.41
   0   6  14    5.84    0.56
   0  -6 -14    4.47    0.43
  -6   0  14    5.13    0.48
  -6   0 -14    6.19    0.56
   0   6 -14    5.03    0.45
   6   0 -14    4.84    0.50
   0  -6 -14    5.51    0.67
  -6   0  14    4.52    0.35
   0  -6 -14    5.26    0.44
   0  -6 -16   23.57    1.03
   6   0 -16   21.63    1.05
  -6   0  16   22.46    1.07
   0   6  16   23.28    1.17
   0   6 -16   19.96    0.96
   0  -6 -16   23.24    1.22
   0   6 -16   21.18    1.15
  -6   0 -16   21.47    1.09
   0  -6 -16   23.20    1.00
   0   6  18   13.57    0.95
   0   6 -18   14.87    1.00
   0  -6 -18   15.98    0.87
  -6   0 -18   14.06    0.74
   0  -6 -18   14.39    1.02
   0   6 -18   13.49    0.82
  -6   0  18   14.35    0.91
   0  -6 -18   14.57    0.81
  -6   0 -18   12.75    0.88
  -6   0 -18   15.88    1.04
   6   0 -18   13.91    0.87
   0  -6 -20   -0.21    0.42
  -6   0 -20    0.39    0.20
   0   6 -20   -0.27    0.32
   6   0 -20   -0.37    0.32
   0   6  20   -0.27    0.32
   0  -6 -20    0.42    0.26
  -6   0 -20    0.37    0.38
  -6   0  20    0.09    0.28
   0   6 -20    0.76    0.41
   0  -6 -20   -0.09    0.30
   0  -6 -22    5.38    0.61
  -6   0  22    5.19    0.63
   0  -6 -22    5.98    0.59
   0   6  22    6.31    0.73
  -6   0 -22    5.63    0.74
   0   6 -22    5.37    0.72
   0  -6 -22    5.04    0.74
   6   0 -22    4.88    0.63
   0   6 -24    8.47    0.91
  -6   0 -24    7.63    0.89
   0  -6 -24    7.20    0.73
   0   6  24    6.79    0.80
   0  -6 -24    6.17    0.83
   6   0 -24    7.01    0.76
  -6   0 -24    8.43    0.93
  -6   0  24    8.34    0.80
  -6   0  26    0.94    0.43
   6   0 -26    1.69    0.50
   6   1 -27    3.57    0.64
   6   1 -25    2.80    0.57
  -6  -1 -25    3.11    0.65
   1   6 -25    2.19    0.59
  -6   1  25    2.17    0.53
  -6  -1 -25    3.05    0.70
  -1  -6 -25    2.27    0.50
   1   6 -23    0.81    0.46
  -1   6  23    1.11    0.39
  -6   1  23    0.63    0.35
   6   1 -23    1.38    0.47
  -1  -6 -23    2.06    0.63
  -1  -6 -23    2.06    0.41
  -6  -1 -23    0.82    0.46
  -1  -6 -23    1.39    0.43
  -1  -6 -21    3.87    0.49
  -6  -1 -21    4.34    0.64
  -1  -6 -21    2.91    0.47
  -6   1  21    2.95    0.49
  -1  -6 -21    4.12    0.69
   6   1 -21    3.27    0.52
  -1   6  21    4.36    0.60
  -6  -1 -21    4.82    0.60
   1   6 -21    3.20    0.58
   6   1 -19    6.96    0.68
  -6   1  19    5.76    0.60
   1   6 -19    5.29    0.66
  -1   6  19    6.55    0.70
  -6  -1 -19    5.00    0.59
  -1  -6 -19    5.82    0.59
  -1  -6 -19    6.43    0.73
  -6  -1 -19    5.73    0.48
  -6  -1 -19    6.64    0.72
  -1  -6 -19    6.09    0.57
  -6   1  17    5.39    0.56
  -6  -1 -17    4.22    0.53
  -1  -6 -17    3.97    0.45
   1   6 -17    4.39    0.62
  -1   6  17    4.15    0.54
  -1  -6 -17    6.04    0.71
   6   1 -17    4.85    0.54
  -1  -6 -17    3.77    0.46
  -1   6  15    9.68    0.72
  -6  -1 -15   11.06    0.74
  -6   1  15    9.70    0.67
  -1  -6 -15    9.39    0.63
   1   6 -15   10.31    0.78
   6  -1  15    9.33    0.53
  -1  -6 -15   10.19    0.66
  -6   1  15    9.05    0.49
   6   1 -15    9.12    0.67
  -1  -6 -15   10.81    0.86
   1   6 -13    4.42    0.52
   6   1 -13    6.05    0.51
  -6   1  13    5.37    0.46
  -1   6  13    5.77    0.53
   1  -6  13    5.42    0.38
  -1  -6 -13    5.50    0.45
  -6   1  13    4.98    0.32
   6  -1  13    4.72    0.37
  -6  -1 -13    5.34    0.51
  -6  -1 -11    9.32    0.63
   6   1 -11    9.53    0.53
   1   6 -11    9.20    0.52
  -1   6  11   10.47    0.53
  -1   6  11    9.71    0.64
   6   1 -11    9.02    0.58
   1   6 -11    9.63    0.67
  -1  -6 -11   10.15    0.57
   6  -1  11   10.72    0.53
   1  -6  11   10.20    0.51
  -6   1  11    9.97    0.59
  -6   1  11   10.10    0.42
  -6   1   9   31.22    1.03
  -1   6   9   30.70    0.97
  -6  -1  -9   31.01    1.13
  -6   1   9   29.93    0.80
   1  -6   9   31.56    1.01
   1   6  -9   29.01    1.04
  -6   1   9   30.96    1.05
  -6   1   9   30.17    0.80
  -1   6   9   30.41    1.12
   1   6  -9   30.82    1.16
   6  -1   9   32.73    1.00
  -1  -6  -9   30.97    1.03
   1   6  -9   32.64    0.98
   6   1  -9   29.92    1.06
   6   1  -7   25.65    0.90
  -6   1   7   27.16    0.87
  -6  -1  -7   25.05    0.95
   1   6  -7   26.37    0.94
   1  -6   7   25.89    0.88
   1   6  -7   28.63    1.02
  -1  -6  -7   25.80    0.88
  -6   1   7   25.81    0.89
  -1   6   7   27.36    0.97
   6  -1   7   25.78    0.87
  -6   1   7   28.33    0.95
   1   6  -7   26.69    0.69
  -1   6   7   29.18    0.96
  -6   1   7   26.43    0.75
   1   6  -7   28.45    0.81
  -6   1   7   24.52    0.64
   1  -6   5   70.85    1.77
  -6  -1  -5   63.57    1.74
  -6   1   5   67.58    1.63
   1  -6   5   65.91    1.70
  -6   1   5   68.76    1.69
   1   6  -5   67.83    1.73
  -1   6   5   65.90    1.71
   1   6  -5   67.81    1.53
  -1  -6  -5   65.80    1.64
  -6   1   5   59.01    1.38
  -1  -6  -5   66.79    1.68
   6   1  -5   67.39    1.69
  -1  -6  -5   68.40    1.70
  -6   1   5   65.50    1.58
   1   6  -5   66.52    1.75
  -6  -1  -5   66.35    1.72
  -6   1   3  139.61    3.08
  -6  -1  -3  134.47    3.15
  -6  -1  -3  142.10    3.02
  -1   6   3  139.87    3.14
   1   6  -3  133.90    3.14
  -6   1   3  135.36    2.90
  -1  -6  -3  144.03    3.14
   1  -6   3  143.57    3.15
  -6   1   3  139.76    3.08
  -1  -6  -3  136.16    3.08
  -1  -6  -3  134.22    3.06
   6   1  -3  143.68    3.15
   6  -1   3  144.03    3.15
  -1  -6  -3  145.32    3.03
  -6   1   1   41.20    1.06
   1  -6   1   44.04    1.12
  -1   6   1   42.39    1.04
   1   6  -1   40.80    1.14
   6  -1   1   44.52    1.09
  -1  -6  -1   45.29    1.13
  -6  -1  -1   44.27    1.17
  -6   1   1   44.12    1.11
   6   1  -1   43.43    1.02
  -6  -1  -1   42.35    1.16
  -1  -6  -1   44.77    1.15
   6  -1   1   44.77    1.14
   6   1  -1   44.08    1.10
  -6  -1   1   41.04    1.09
   6   1   1   41.67    1.22
   1  -6  -1   43.28    1.17
   1  -6  -1   41.53    1.05
   6  -1  -1   42.84    1.08
   1   6   1   40.73    1.09
   1   6   1   43.88    1.08
   6  -1  -1   43.22    1.03
   1  -6  -1   44.37    1.03
  -1  -6   1   44.57    1.15
   6   1   1   42.13    0.96
   6   1   1   42.53    1.13
  -6   1  -1   41.10    1.11
  -6  -1   1   40.92    1.00
  -1   6  -1   41.25    1.09
   6   1   3  138.12    3.18
  -1   6  -3  133.12    3.10
  -1  -6   3  144.33    3.16
   1  -6  -3  140.01    2.89
   6  -1  -3  137.81    3.05
   1   6   3  148.31    3.09
  -6   1  -3  135.77    3.13
   1  -6  -3  135.93    3.11
   1  -6  -3  139.09    3.09
   1   6   3  140.71    3.08
  -6  -1   3  137.35    3.00
  -6  -1   3  135.19    2.98
  -6   1  -3  135.36    3.12
   1   6   5   70.21    1.74
  -6  -1   5   66.96    1.61
  -6  -1   5   66.89    1.66
  -1   6  -5   65.53    1.76
  -6   1  -5   64.82    1.44
   1  -6  -5   66.87    1.76
   6   1   5   66.98    1.75
   1   6   5   68.53    1.68
   6  -1  -5   66.97    1.64
   6   1   5   68.07    1.53
  -6   1  -5   64.04    1.76
  -1  -6   5   64.74    1.46
  -6   1  -5   65.94    1.69
   1  -6  -5   67.03    1.72
  -6  -1   5   69.28    1.74
   1  -6  -5   67.05    1.63
  -6  -1   7   26.82    0.91
  -1   6  -7   26.83    1.00
   1  -6  -7   27.26    0.84
  -6  -1   7   28.06    0.94
  -1   6  -7   23.58    0.61
   1   6   7   29.86    0.93
   1   6   7   26.08    0.95
  -6  -1   7   27.24    0.85
   1  -6  -7   27.44    1.02
   1  -6  -7   26.90    0.94
  -6   1  -7   27.46    0.99
  -6   1  -7   27.65    0.88
  -1   6  -7   26.05    0.72
   6   1   7   27.10    0.68
   6   1   7   27.89    0.94
   1   6   7   27.86    0.91
   6  -1  -7   28.02    0.87
  -1   6  -7   29.27    0.90
  -6   1  -9   29.51    1.09
  -1  -6   9   29.07    0.91
   1   6   9   29.78    1.00
   6   1   9   29.70    1.01
  -6  -1   9   30.56    1.05
   1   6   9   27.84    1.07
  -6  -1   9   29.06    0.75
  -1   6  -9   29.90    1.12
   6  -1  -9   28.85    0.96
   1  -6  -9   30.79    0.94
  -1   6  -9   31.47    0.97
  -6  -1   9   29.99    0.97
  -1   6  -9   29.26    0.87
   1  -6  -9   30.95    1.15
   6   1   9   25.09    0.68
  -1   6  -9   31.78    1.01
  -6  -1  11   11.08    0.58
   6   1  11    8.08    0.28
   1  -6 -11    9.97    0.51
  -1   6 -11    9.23    0.65
   1  -6 -11    9.47    0.50
   6   1  11    9.57    0.55
   6  -1 -11    9.26    0.54
   1  -6 -11    9.03    0.70
  -6   1 -11   10.42    0.65
  -1   6 -11    9.19    0.50
  -1  -6  11    9.53    0.46
  -1   6 -11    9.22    0.51
   1   6  11   10.27    0.65
  -6  -1  11    9.83    0.46
   1  -6 -13    5.59    0.42
  -1   6 -13    5.36    0.44
   1   6  13    5.18    0.52
  -6   1 -13    5.00    0.42
  -6   1 -13    5.61    0.52
  -6  -1  13    5.60    0.46
   1  -6 -13    6.31    0.66
   6  -1 -13    4.83    0.44
  -1   6 -13    5.27    0.56
  -1  -6  13    4.86    0.33
  -6  -1  13    4.73    0.35
   1  -6 -13    5.65    0.43
   1  -6 -15   10.14    0.60
   6  -1 -15    9.27    0.64
  -1   6 -15   10.13    0.78
   1   6  15    9.27    0.74
   1  -6 -15   10.10    0.83
  -6   1 -15    8.64    0.57
  -6   1 -15    9.20    0.70
  -1   6 -15    8.19    0.60
  -6  -1  15   11.04    0.69
   1  -6 -15    9.90    0.61
   1  -6 -17    4.51    0.44
  -1   6 -17    4.57    0.61
   6  -1 -17    4.82    0.51
  -6  -1  17    4.13    0.49
  -6   1 -17    3.88    0.51
  -1   6 -17    5.05    0.51
  -6   1 -17    4.47    0.43
   1  -6 -17    4.34    0.63
  -6   1 -17    4.32    0.60
   1  -6 -17    4.50    0.47
   1   6  17    4.54    0.57
  -1   6 -19    6.56    0.70
   6  -1 -19    5.82    0.60
  -6   1 -19    6.50    0.72
   1   6  19    7.31    0.71
  -1   6 -19    5.71    0.57
   1  -6 -19    5.95    0.53
  -6  -1  19    6.31    0.61
  -6   1 -19    5.33    0.46
   1  -6 -19    6.02    0.74
   1  -6 -19    6.30    0.58
  -6   1 -21    3.00    0.59
  -1   6 -21    4.48    0.64
   6  -1 -21    3.10    0.49
   1  -6 -21    3.24    0.47
   1   6  21    4.12    0.59
  -1   6 -21    3.86    0.52
  -6  -1  21    3.73    0.53
   1  -6 -21    3.25    0.44
   1  -6 -21    2.36    0.56
  -1   6 -23    0.97    0.47
   6  -1 -23    1.38    0.42
  -6   1 -23    2.18    0.58
   1  -6 -23    1.10    0.38
   1  -6 -23    0.95    0.46
  -1   6 -23    0.59    0.36
  -6  -1  23    0.56    0.32
  -6   1 -23    1.25    0.50
   1   6  23    1.20    0.43
  -6  -1  25    0.96    0.38
   6  -1 -25    1.69    0.48
  -6   1 -25    2.51    0.63
  -6   1 -25    2.44    0.61
  -1   6 -25    1.03    0.51
  -6  -1  27    3.67    0.65
  -2  -6 -26    1.46    0.48
  -6   2  26    1.28    0.46
   6   2 -26    1.10    0.47
   6   2 -24    1.72    0.49
  -2  -6 -24    1.79    0.44
   2   6 -24    2.22    0.54
  -6  -2 -24    1.45    0.54
  -2  -6 -24    1.93    0.43
  -6   2  24    1.80    0.44
  -6  -2 -24    2.13    0.66
  -2  -6 -24    1.69    0.59
  -2   6  24    1.72    0.48
  -2   6  22    4.03    0.65
   6   2 -22    3.80    0.59
  -6  -2 -22    4.20    0.65
   2   6 -22    3.52    0.61
  -6   2  22    3.12    0.52
  -2  -6 -22    3.65    0.52
  -2  -6 -22    3.95    0.57
  -2  -6 -22    4.08    0.69
  -6  -2 -22    3.22    0.53
   6   2 -20    0.68    0.36
  -2   6  20    0.73    0.37
  -6   2  20    0.65    0.33
  -2  -6 -20    0.92    0.37
  -6  -2 -20    0.93    0.40
   2   6 -20    0.80    0.41
  -2  -6 -20    1.71    0.56
  -6  -2 -20    1.07    0.38
  -2  -6 -20    0.63    0.30
  -6   2  18    3.54    0.49
  -2  -6 -18    3.02    0.45
   2   6 -18    2.84    0.50
  -2  -6 -18    2.95    0.42
  -2   6  18    3.38    0.54
  -2  -6 -18    3.26    0.60
   6   2 -18    2.50    0.44
  -6  -2 -18    3.18    0.49
  -6   2  16    5.03    0.52
   2   6 -16    4.37    0.58
  -2   6  16    5.52    0.58
   6   2 -16    4.35    0.52
  -6  -2 -16    3.62    0.48
  -2  -6 -16    5.01    0.51
  -6  -2 -14    1.88    0.36
   2   6 -14    2.12    0.44
  -2   6  14    2.03    0.37
   6   2 -14    2.37    0.40
   6  -2  14    2.24    0.26
  -6   2  14    2.56    0.24
  -2  -6 -14    2.53    0.34
  -6   2  14    2.78    0.40
  -2   6  12    0.42    0.15
   6   2 -12    0.56    0.29
  -6   2  12    0.44    0.21
  -2   6  12    0.31    0.25
   2   6 -12    0.52    0.31
   2  -6  12    0.68    0.17
  -6  -2 -12    0.70    0.28
  -2  -6 -12    0.59    0.24
   2   6 -12    0.87    0.21
  -6   2  12    0.54    0.12
   6  -2  12    0.59    0.18
   2   6 -10    5.51    0.46
  -6   2  10    5.98    0.26
  -2   6  10    6.16    0.50
  -2   6  10    6.06    0.36
  -6   2  10    5.87    0.45
   2   6 -10    7.11    0.40
   2  -6  10    6.34    0.42
  -6   2  10    5.48    0.39
   6   2 -10    6.02    0.48
   6   2 -10    6.65    0.40
  -2  -6 -10    6.76    0.47
   6  -2  10    6.35    0.38
  -6  -2 -10    6.88    0.52
   2   6 -10    5.83    0.51
  -6   2   8   26.40    0.74
  -6   2   8   27.74    0.85
  -6   2   8   26.41    0.92
   2   6  -8   27.77    0.79
  -6  -2  -8   26.27    0.98
   6   2  -8   26.08    0.94
   2   6  -8   26.86    1.02
   2   6  -8   26.68    0.96
   2  -6   8   26.24    0.89
  -2   6   8   26.98    0.98
  -2  -6  -8   27.51    0.93
  -6   2   6   15.13    0.64
   2   6  -6   15.78    0.70
  -6  -2  -6   14.66    0.69
   2   6  -6   16.52    0.53
   6   2  -6   15.92    0.68
   2   6  -6   15.13    0.71
  -6   2   6   16.56    0.57
   2  -6   6   15.16    0.65
  -6   2   6   15.64    0.57
  -2  -6  -6   15.27    0.60
  -6   2   6   16.71    0.68
  -2  -6  -6   15.80    0.66
   2   6  -6   15.86    0.51
  -2  -6  -6   16.45    0.67
   2  -6   6   17.15    0.73
  -6  -2  -6   15.30    0.67
  -2   6   6   16.03    0.70
   6   2  -4   37.22    1.14
  -2   6   4   37.75    1.14
  -6  -2  -4   38.45    1.11
  -2  -6  -4   38.38    1.14
   2   6  -4   38.34    1.17
  -6   2   4   39.70    1.12
   2  -6   4   39.11    1.16
  -6   2   4   38.84    1.02
  -6   2   4   38.36    1.08
  -6  -2  -4   37.17    1.16
  -2  -6  -4   39.50    1.05
   6  -2   4   39.57    1.15
   2   6  -4   38.31    1.18
  -2  -6  -4   37.86    1.09
   2   6  -4   36.52    1.03
  -2  -6  -2   67.38    1.61
   2  -6   2   70.67    1.68
   2   6  -2   66.85    1.72
  -6   2   2   68.77    1.68
  -2   6   2   65.49    1.46
  -2  -6  -2   70.24    1.62
   6  -2   2   73.49    1.70
  -6  -2  -2   70.68    1.67
  -6   2   2   68.66    1.73
  -2  -6  -2   73.07    1.68
  -6  -2  -2   67.28    1.73
  -6   2   2   67.46    1.62
  -6   2   2   67.81    1.51
  -6   2   0   39.09    1.04
  -2  -6   0   43.24    1.13
   6  -2   0   43.15    1.04
  -2   6   0   42.05    1.00
   2   6   0   40.23    1.12
   6   2   0   38.65    1.16
   6   2   0   42.39    1.22
  -6  -2   0   39.91    1.11
  -6  -2   0   39.12    0.89
   2   6   0   41.27    0.99
   2  -6   0   40.54    1.02
  -2   6   0   40.07    1.00
   6   2   0   41.00    1.10
  -6  -2   0   42.61    1.17
   6  -2   0   41.40    1.08
  -6   2   0   39.97    1.18
   2  -6   0   40.64    1.15
  -2  -6   0   41.21    1.05
   2  -6  -2   68.41    1.63
   2   6   2   72.80    1.61
  -2   6  -2   69.73    1.65
   2  -6  -2   65.86    1.46
   6  -2  -2   70.64    1.49
   2   6   2   66.75    1.61
  -6  -2   2   67.65    1.63
   6  -2  -2   69.72    1.66
   6   2   2   68.07    1.42
   6   2   2   66.64    1.66
  -6  -2   2   68.32    1.52
  -2   6  -2   63.14    1.44
   2  -6  -2   67.43    1.71
  -6   2  -2   70.02    1.78
   6   2   2   70.76    1.78
  -6   2  -2   67.21    1.68
   6   2   4   38.20    1.16
   2   6   4   36.86    1.08
  -6  -2   4   37.84    1.01
  -6  -2   4   38.93    1.16
   6  -2  -4   38.90    1.10
   2   6   4   39.25    1.03
  -6   2  -4   35.35    1.12
  -2   6  -4   36.03    1.11
  -6   2  -4   39.00    1.19
  -6   2  -4   36.72    1.08
   6   2   4   36.23    1.01
   2  -6  -4   39.02    1.13
   2  -6  -4   37.54    1.12
  -6  -2   6   17.95    0.72
  -6   2  -6   16.96    0.72
  -6   2  -6   15.67    0.62
   2  -6  -6   15.62    0.68
   6  -2  -6   16.14    0.67
  -2  -6   6   16.70    0.54
   6  -2  -6   16.90    0.59
   2   6   6   16.54    0.67
   6   2   6   16.13    0.70
   2  -6  -6   17.05    0.74
  -6  -2   6   16.66    0.57
   2   6   6   17.75    0.64
   2  -6  -6   16.48    0.57
  -6   2  -6   16.35    0.71
   6   2   6   15.04    0.53
   2   6   6   15.37    0.67
  -2   6  -6   16.33    0.72
   2  -6  -8   27.96    1.06
  -2   6  -8   25.72    1.02
   2  -6  -8   26.56    0.98
  -6   2  -8   26.51    0.85
   2   6   8   24.70    0.97
   2   6   8   27.38    0.92
   6   2   8   27.10    0.98
  -2  -6   8   28.27    0.84
   2  -6  -8   27.20    0.76
  -6   2  -8   27.56    0.98
   6  -2  -8   26.26    0.85
   2   6   8   25.69    0.93
   6   2   8   25.13    0.72
  -6  -2   8   26.60    0.86
  -2  -6   8   25.93    0.97
  -6   2  -8   26.05    1.01
  -2   6  -8   28.47    0.88
   2  -6  -8   27.23    0.83
   2   6  10    6.89    0.53
   6   2  10    6.92    0.48
   6  -2 -10    6.45    0.42
   2  -6 -10    6.67    0.39
  -2   6 -10    7.11    0.42
  -2   6 -10    6.84    0.55
  -2   6 -10    7.15    0.42
   2  -6 -10    6.50    0.37
  -6   2 -10    6.59    0.46
  -2  -6  10    6.22    0.36
  -6   2 -10    6.69    0.52
  -6  -2  10    6.46    0.42
   2  -6 -10    6.73    0.58
   2   6  12    0.76    0.29
  -6   2 -12    0.70    0.23
   2  -6 -12    0.74    0.22
  -2  -6  12    0.78    0.16
   6  -2 -12    0.50    0.23
  -6   2 -12    0.90    0.30
  -2   6 -12    0.70    0.31
  -6  -2  12    0.77    0.23
  -2   6 -12    0.57    0.26
   2  -6 -12    0.52    0.19
   2  -6 -12    0.81    0.41
  -2  -6  14    2.38    0.22
  -2   6 -14    1.98    0.34
  -6   2 -14    2.72    0.42
   2  -6 -14    2.04    0.27
  -6  -2  14    1.77    0.30
   2   6  14    2.49    0.42
  -2   6 -14    2.05    0.44
   6  -2 -14    2.35    0.34
   2  -6 -14    2.44    0.32
   2  -6 -14    1.66    0.51
  -6   2 -14    1.94    0.28
   2  -6 -16    4.78    0.42
   2   6  16    3.96    0.54
  -2   6 -16    5.05    0.62
  -6  -2  16    4.45    0.49
  -6   2 -16    5.15    0.45
  -6   2 -16    6.01    0.66
  -2   6 -16    4.45    0.48
   6  -2 -16    4.36    0.46
   2  -6 -16    4.75    0.65
   2  -6 -16    4.79    0.45
   2  -6 -18    3.28    0.41
  -2   6 -18    3.05    0.46
   6  -2 -18    2.99    0.44
  -6   2 -18    3.73    0.59
   2  -6 -18    2.72    0.56
  -6  -2  18    2.71    0.42
   2  -6 -18    3.17    0.38
   2   6  18    2.90    0.51
  -6   2 -18    2.83    0.36
  -2   6 -18    2.95    0.54
  -6  -2  20    1.04    0.32
  -6   2 -20    1.26    0.43
  -6   2 -20    0.84    0.24
   6  -2 -20    0.37    0.29
  -2   6 -20    1.03    0.45
   2  -6 -20    0.32    0.23
   2   6  20    1.04    0.40
  -2   6 -20    1.05    0.36
   2  -6 -20    0.65    0.44
   2  -6 -20    0.98    0.31
   2   6  22    2.91    0.54
  -6  -2  22    3.94    0.57
  -6   2 -22    3.98    0.66
   2  -6 -22    3.41    0.66
   2  -6 -22    3.70    0.49
   6  -2 -22    3.24    0.49
  -2   6 -22    3.73    0.55
  -2   6 -22    3.56    0.64
  -6  -2  24    1.99    0.46
   6  -2 -24    1.87    0.44
   2   6  24    1.67    0.49
  -2   6 -24    2.34    0.57
  -6   2 -24    2.02    0.55
   2  -6 -24    0.48    0.48
  -6   2 -24    2.85    0.69
  -6   2 -26    2.14    0.59
  -6  -2  26    0.97    0.41
  -6   3  25    0.83    0.39
  -3  -6 -25    1.43    0.41
   6   3 -25    0.23    0.38
  -6  -3 -25    0.24    0.37
  -6  -3 -25    1.22    0.59
   3   6 -25    0.08    0.40
  -3  -6 -25    0.45    0.41
  -6  -3 -23    0.62    0.35
  -3  -6 -23    1.66    0.45
   3   6 -23    0.92    0.45
  -6   3  23    2.24    0.49
  -6  -3 -23    0.97    0.43
  -3   6  23    2.02    0.50
  -3  -6 -23    1.17    0.54
   6   3 -23    1.03    0.42
  -3  -6 -23    1.18    0.41
  -6   3  21    1.25    0.38
   3   6 -21    1.99    0.52
  -3  -6 -21    3.38    0.66
  -6  -3 -21    1.64    0.50
   6   3 -21    1.83    0.46
  -3  -6 -21    2.61    0.47
  -3   6  21    2.16    0.48
  -6  -3 -21    1.53    0.40
  -3  -6 -21    2.10    0.42
  -3   6  19    1.66    0.41
   6   3 -19    2.22    0.46
   3   6 -19    1.65    0.45
  -6   3  19    2.33    0.45
  -3  -6 -19    2.47    0.42
  -6  -3 -19    1.96    0.40
  -3  -6 -19    3.54    0.62
  -3  -6 -19    2.54    0.47
  -3  -6 -17    4.79    0.51
  -6   3  17    5.26    0.56
   3   6 -17    5.10    0.60
  -6  -3 -17    5.11    0.57
  -3   6  17    5.49    0.59
   6   3 -17    4.69    0.57
  -6  -3 -15    4.66    0.51
   6   3 -15    3.80    0.50
  -3  -6 -15    4.26    0.46
  -6   3  15    3.82    0.47
  -6   3  15    3.33    0.27
  -3   6  15    3.63    0.47
   3   6 -15    4.08    0.54
  -6   3  13    1.37    0.30
  -3   6  13    1.30    0.19
   6   3 -13    2.06    0.38
  -3   6  13    0.98    0.29
  -6  -3 -13    1.40    0.33
   3   6 -13    1.56    0.39
   3   6 -13    1.22    0.22
  -6   3  13    1.60    0.17
  -3  -6 -13    1.17    0.29
  -6   3  11    2.76    0.30
  -6   3  11    2.46    0.34
   3   6 -11    2.91    0.28
  -6   3  11    2.64    0.17
  -3   6  11    2.37    0.36
   6   3 -11    3.39    0.41
  -3   6  11    2.88    0.25
   3   6 -11    2.56    0.41
   6   3 -11    2.74    0.27
  -6  -3 -11    2.55    0.36
  -3  -6 -11    3.39    0.37
   6   3  -9    3.17    0.38
   3   6  -9    3.75    0.26
  -6  -3  -9    2.88    0.36
  -6   3   9    3.16    0.28
  -6   3   9    3.26    0.34
   3   6  -9    3.51    0.42
  -3  -6  -9    2.94    0.33
   3   6  -9    3.45    0.39
   3  -6   9    3.41    0.32
  -3   6   9    3.40    0.37
   3  -6   7   14.67    0.66
  -3  -6  -7   15.83    0.68
   3   6  -7   14.69    0.72
   3   6  -7   14.88    0.49
  -6   3   7   15.49    0.55
   6   3  -7   14.20    0.69
  -6   3   7   15.77    0.69
  -3   6   7   14.53    0.69
   3   6  -7   14.07    0.53
  -6  -3  -7   13.57    0.69
  -3  -6  -7   14.08    0.66
   3   6  -7   14.37    0.71
  -6  -3  -7   14.57    0.67
  -6  -3  -5    5.80    0.42
  -3  -6  -5    6.56    0.43
  -3  -6  -5    6.68    0.39
  -3  -6  -5    6.73    0.35
   3  -6   5    6.70    0.43
   3   6  -5    6.36    0.35
  -6   3   5    6.32    0.36
  -3   6   5    6.23    0.43
   3   6  -5    6.00    0.43
  -3   6   5    6.60    0.46
  -6   3   5    6.71    0.31
   6  -3   5    6.70    0.43
   3   6  -5    6.22    0.24
  -6  -3  -5    6.65    0.41
   6   3  -5    6.35    0.43
   3   6  -5    7.07    0.50
  -6  -3  -3   45.72    1.32
  -6   3   3   46.86    1.29
  -6  -3  -3   45.67    1.24
  -3  -6  -3   46.41    1.21
  -3  -6  -3   45.77    1.32
   3   6  -3   47.53    1.27
   6   3  -3   45.53    1.32
   6   3  -3   46.55    1.38
  -6   3   3   45.57    1.27
   3   6  -3   44.35    1.32
  -3   6   3   45.44    1.27
  -6   3   3   47.56    1.15
  -3  -6  -3   44.27    1.14
  -3  -6  -3   49.28    1.28
   3   6  -3   43.80    1.35
   6  -3   3   47.80    1.29
  -6  -3  -1    3.14    0.30
   6  -3   1    2.49    0.24
  -6  -3  -1    2.53    0.26
   3   6  -1    3.23    0.30
   6   3  -1    2.68    0.31
  -3  -6  -1    2.64    0.26
  -6   3   1    2.82    0.28
   3   6  -1    2.42    0.14
  -3   6   1    2.88    0.24
  -3   6   1    2.67    0.15
  -3  -6  -1    2.72    0.18
  -6   3   1    3.17    0.26
   3   6  -1    2.67    0.27
  -3  -6  -1    2.68    0.19
   6   3  -1    2.18    0.28
   3  -6   1    3.00    0.29
   6  -3   1    2.54    0.23
   6   3   1    3.10    0.30
  -6   3  -1    2.62    0.23
  -6  -3   1    2.79    0.25
   6  -3  -1    2.98    0.27
   6  -3  -1    2.85    0.19
   3   6   1    2.69    0.19
   6   3   1    2.94    0.32
  -3   6  -1    2.67    0.22
  -6  -3   1    2.41    0.13
  -6   3  -1    2.65    0.28
   3  -6  -1    3.13    0.29
   3   6   3   47.01    1.10
  -3   6  -3   43.17    1.20
  -6   3  -3   44.42    1.31
  -6   3  -3   40.99    1.21
   6   3   3   43.91    1.31
   3   6   3   44.41    1.17
   6  -3  -3   41.01    0.95
   3  -6  -3   42.80    1.24
   6   3   3   43.14    1.19
   6  -3  -3   45.09    1.21
  -6   3  -5    6.69    0.38
   3  -6  -5    6.25    0.30
   6   3   5    5.83    0.43
  -3   6  -5    5.75    0.40
   3   6   5    6.19    0.40
   6  -3  -5    6.23    0.40
  -6  -3   5    6.28    0.28
   3   6   5    6.48    0.33
  -6  -3   5    6.04    0.41
  -6   3  -5    5.93    0.42
   6   3   5    6.19    0.35
   3  -6  -5    6.33    0.42
  -6   3  -5    6.49    0.44
   3  -6  -5    5.36    0.41
   3   6   7   14.37    0.57
   3  -6  -7   13.81    0.65
   6   3   7   13.91    0.52
  -6  -3   7   13.59    0.63
  -3  -6   7   13.86    0.68
   3  -6  -7   12.93    0.69
   3   6   7   14.30    0.67
   3  -6  -7   14.89    0.50
  -6  -3   7   14.04    0.51
   6  -3  -7   13.40    0.65
   6   3   7   13.94    0.68
  -6   3  -7   14.42    0.67
  -3   6  -7   14.31    0.56
  -3  -6   7   14.05    0.54
   6  -3  -7   14.42    0.52
  -6   3  -7   13.52    0.68
  -3   6  -7   13.56    0.69
   3  -6  -7   13.02    0.40
  -6   3  -7   14.33    0.57
  -3   6  -9    3.05    0.39
   3  -6  -9    3.55    0.23
   3   6   9    3.44    0.32
   3   6   9    3.39    0.37
  -3  -6   9    3.39    0.26
  -6  -3   9    3.20    0.33
   3  -6  -9    3.84    0.38
  -6   3  -9    3.78    0.30
  -6   3  -9    3.13    0.33
   6  -3  -9    3.46    0.28
   3  -6  -9    3.26    0.44
  -3  -6   9    3.72    0.32
   3  -6  -9    3.45    0.25
  -3   6  -9    3.41    0.29
  -6  -3   9    3.26    0.27
  -6   3  -9    3.63    0.40
   6  -3 -11    3.65    0.33
  -3   6 -11    3.30    0.44
   3   6  11    3.12    0.41
   3  -6 -11    2.66    0.27
  -6   3 -11    3.24    0.34
  -3   6 -11    2.78    0.27
  -3  -6  11    3.03    0.24
   3  -6 -11    2.67    0.46
  -3  -6  11    3.08    0.25
  -6  -3  11    3.69    0.34
   3  -6 -11    3.40    0.27
   3  -6 -13    1.74    0.24
  -3   6 -13    1.65    0.42
   3   6  13    1.97    0.37
  -3  -6  13    1.85    0.19
   6   3  13    1.35    0.34
   6  -3 -13    0.79    0.23
  -6   3 -13    1.58    0.28
   3  -6 -13    1.38    0.43
  -3  -6  13    1.75    0.18
   3  -6 -13    1.36    0.24
  -6  -3  13    0.91    0.22
  -6   3 -15    4.33    0.57
  -6   3 -15    3.50    0.38
   6  -3 -15    2.82    0.37
  -6  -3  15    3.85    0.40
   3   6  15    3.48    0.49
   3  -6 -15    4.07    0.39
  -3  -6  15    3.37    0.22
   3  -6 -15    3.18    0.57
  -3   6 -15    3.32    0.44
  -3   6 -15    2.90    0.49
   3  -6 -15    3.66    0.34
   3  -6 -17    4.61    0.45
   3   6  17    4.95    0.60
  -6  -3  17    4.97    0.50
  -6   3 -17    4.84    0.64
   6  -3 -17    4.24    0.46
  -3   6 -17    4.13    0.60
  -6   3 -17    4.98    0.45
  -3   6 -17    4.70    0.51
   3  -6 -17    4.59    0.63
   3  -6 -17    5.06    0.42
   6  -3 -19    2.20    0.38
  -6   3 -19    2.07    0.32
   3  -6 -19    2.32    0.37
   3   6  19    2.53    0.49
  -6  -3  19    2.08    0.36
  -3   6 -19    1.92    0.50
   3  -6 -19    1.63    0.51
  -3   6 -19    1.66    0.40
  -6   3 -19    2.84    0.56
  -6  -3  21    2.04    0.42
  -3   6 -21    1.95    0.52
  -3   6 -21    2.73    0.48
  -6   3 -21    1.28    0.48
   3  -6 -21    2.02    0.39
   6  -3 -21    1.63    0.38
   3   6  21    1.17    0.42
   3  -6 -21    1.72    0.55
   3   6  23    1.59    0.50
   6  -3 -23    1.34    0.41
  -6   3 -23    0.93    0.47
  -3   6 -23    1.45    0.48
  -6  -3  23    1.83    0.44
   3  -6 -23    1.21    0.52
  -3   6 -23    1.24    0.43
  -6   3 -23    2.58    0.58
  -6  -3  25    0.36    0.31
  -6   3 -25    1.75    0.55
  -4  -6 -26    0.38    0.42
  -4  -6 -26   -0.02    0.29
  -4  -6 -24    0.22    0.41
  -6  -4 -24    0.96    0.63
  -6  -4 -24    0.07    0.33
  -6   4  24    0.31    0.34
  -4   6  24    1.41    0.49
  -6  -4 -24    0.40    0.40
   4   6 -24    1.02    0.47
  -4  -6 -24    0.74    0.57
   6   4 -24    0.41    0.39
  -4  -6 -24    0.55    0.37
   6   4 -22    9.23    0.86
  -4  -6 -22    9.51    0.98
  -6  -4 -22    9.87    0.93
  -4  -6 -22    9.68    0.81
  -6   4  22    9.07    0.85
  -4   6  22    8.59    0.86
  -4  -6 -22   10.60    0.88
   4   6 -22   10.22    0.91
  -6  -4 -22   10.59    0.87
   6   4 -20    1.56    0.44
  -4  -6 -20    1.64    0.45
   4   6 -20    1.92    0.49
  -6  -4 -20    2.36    0.44
  -6   4  20    2.10    0.44
  -4  -6 -20    1.74    0.40
  -4   6  20    1.39    0.42
  -4  -6 -18    3.77    0.49
   4   6 -18    3.56    0.55
  -4   6  18    3.67    0.53
  -6  -4 -18    3.20    0.48
  -6   4  18    3.11    0.47
   6   4 -18    3.04    0.49
  -4  -6 -16    4.26    0.49
   4   6 -16    4.02    0.55
   6   4 -16    5.18    0.58
  -4   6  16    3.97    0.51
  -6   4  16    4.27    0.50
  -6  -4 -16    4.75    0.52
   6   4 -14   12.07    0.79
  -4   6  14   12.32    0.79
   4   6 -14   12.37    0.83
  -4   6  14   12.28    0.55
  -6   4  14   12.30    0.77
  -6   4  14   12.01    0.48
  -6  -4 -14   12.63    0.79
  -4  -6 -14   12.71    0.76
  -4  -6 -12    4.73    0.45
  -6   4  12    3.62    0.21
   4   6 -12    3.39    0.47
  -6   4  12    3.43    0.40
  -4   6  12    3.67    0.44
  -4   6  12    3.51    0.26
   6   4 -12    4.30    0.48
   6   4 -12    4.09    0.33
   4   6 -12    3.91    0.32
  -6  -4 -12    3.84    0.45
  -6  -4 -10   10.37    0.65
  -4  -6 -10   12.29    0.68
   6   4 -10   10.29    0.66
  -6   4  10   12.00    0.66
   4   6 -10   11.21    0.49
  -4   6  10   11.11    0.66
   4   6 -10   10.31    0.67
   6   4 -10   12.10    0.51
  -6   4  10   11.40    0.51
  -6   4   8   55.15    1.36
  -4   6   8   53.19    1.62
  -6   4   8   52.69    1.59
  -4  -6  -8   53.91    1.61
   4   6  -8   53.49    1.30
   6   4  -8   52.96    1.62
   4   6  -8   55.39    1.66
  -6  -4  -8   53.69    1.63
   4   6  -8   50.16    1.63
   4   6  -6    5.63    0.45
  -6  -4  -6    6.56    0.43
  -6  -4  -6    5.79    0.44
  -4  -6  -6    6.39    0.45
   4   6  -6    6.01    0.49
   4   6  -6    5.64    0.22
  -6   4   6    6.29    0.29
  -4   6   6    6.20    0.48
   4  -6   6    6.37    0.43
  -6   4   6    5.25    0.40
   4   6  -6    6.12    0.36
  -4  -6  -6    6.55    0.42
   6   4  -6    5.87    0.45
  -4   6   6    6.38    0.45
   6  -4   6    6.99    0.47
  -6   4   4   30.23    0.98
  -4  -6  -4   31.05    1.04
  -6   4   4   31.64    0.80
   4   6  -4   28.94    1.03
   6  -4   4   31.39    1.02
  -6  -4  -4   28.51    1.02
  -6  -4  -4   31.50    0.97
   6   4  -4   30.68    1.09
   6   4  -4   29.51    1.03
  -4   6   4   31.38    1.02
   4   6  -4   30.80    0.96
  -4  -6  -4   32.00    0.84
   4   6  -4   30.65    1.08
  -4  -6  -4   30.34    0.94
   6  -4   2   88.27    2.04
  -4  -6  -2   83.49    2.11
  -6  -4  -2   81.05    1.94
  -4   6   2   87.05    2.03
   4   6  -2   78.60    2.08
  -6  -4  -2   81.92    2.09
   6   4  -2   80.86    2.09
  -4  -6  -2   80.82    1.83
   6   4  -2   82.83    2.11
   6   4  -2   82.36    2.14
  -4  -6  -2   83.70    1.91
   4   6  -2   85.22    2.09
  -4  -6  -2   88.18    2.08
   4   6  -2   81.32    2.13
  -6   4   2   82.82    2.08
  -6  -4   0   59.82    1.39
   4  -6   0   60.70    1.61
   4   6   0   60.81    1.35
  -4   6   0   59.23    1.40
  -6  -4   0   62.13    1.62
  -4  -6   0   59.20    1.33
  -6  -4   0   58.71    1.58
   4   6   0   57.52    1.58
   6   4   0   57.47    1.61
   6   4   0   62.96    1.67
   4   6   0   59.99    1.64
  -6   4   0   58.46    1.64
   6  -4   0   63.16    1.59
   4   6   0   59.13    1.64
   6  -4   0   61.87    1.47
  -4  -6   0   60.11    1.38
   4   6   2   83.25    1.93
   6  -4  -2   81.21    2.05
  -4   6  -2   82.73    1.98
   6   4   2   82.63    2.16
  -6   4  -2   85.98    2.16
   6  -4  -2   87.93    2.11
   6   4   2   80.12    2.06
   4  -6  -2   82.46    2.08
   6  -4  -2   85.57    1.85
  -4   6  -4   28.61    1.01
   6   4   4   27.87    0.90
  -6   4  -4   28.65    1.02
   6  -4  -4   30.73    0.94
   6  -4  -4   29.15    0.95
  -4   6  -4   28.36    0.94
  -6  -4   4   28.04    0.97
   4   6   4   28.71    0.90
   4  -6  -4   30.36    0.98
  -6  -4   4   27.45    0.69
   4  -6  -4   28.78    0.97
   4   6   4   30.12    0.79
   6   4   4   28.79    1.03
   6   4   4   28.18    0.69
   4  -6  -6    6.64    0.28
  -4  -6   6    6.09    0.40
   6  -4  -6    6.23    0.37
   6  -4  -6    5.95    0.43
  -6   4  -6    5.93    0.45
  -6   4  -6    6.53    0.37
  -4   6  -6    5.64    0.44
  -6  -4   6    6.09    0.28
   4  -6  -6    6.23    0.44
   6  -4  -6    6.44    0.29
   4   6   6    6.02    0.42
  -4   6  -6    5.84    0.43
   4   6   6    6.06    0.33
   4  -6  -6    5.90    0.39
  -6  -4   6    6.81    0.45
   4  -6  -8   53.22    1.60
  -6   4  -8   48.74    1.17
  -4   6  -8   52.87    1.64
   4  -6  -8   52.87    1.22
  -4  -6   8   55.54    1.43
   6   4   8   53.94    1.61
   6  -4  -8   53.27    1.59
   4   6   8   54.52    1.45
   4  -6  -8   55.76    1.31
  -6   4  -8   53.52    1.60
   4   6   8   52.79    1.60
   4  -6  -8   53.47    1.48
  -4   6  -8   52.70    1.57
  -6  -4   8   54.32    1.36
   6  -4  -8   55.63    1.42
   6  -4  -8   55.12    1.33
  -4   6  -8   52.40    1.25
  -4  -6   8   57.76    1.48
  -4   6  -8   57.01    1.39
  -6  -4   8   54.17    1.52
  -6   4  -8   56.12    1.40
  -4   6 -10   10.75    0.70
  -4   6 -10   11.18    0.47
   6   4  10   11.84    0.68
   6  -4 -10   11.65    0.50
   6  -4 -10   10.91    0.46
   4  -6 -10   11.29    0.45
   4  -6 -10   11.52    0.54
  -6  -4  10   10.80    0.57
   4   6  10   11.93    0.58
  -6  -4  10   10.76    0.51
  -4  -6  10   11.70    0.59
  -4   6 -10   10.75    0.60
  -6   4 -10   11.55    0.48
   4  -6 -10   11.19    0.44
  -6   4 -10   11.22    0.63
   4  -6 -10    9.98    0.70
  -4  -6  10   10.58    0.49
   4   6  10   10.89    0.66
   4  -6 -12    3.81    0.31
  -4   6 -12    3.27    0.37
   4   6  12    3.88    0.45
  -4  -6  12    4.64    0.33
   6   4  12    4.40    0.48
   4  -6 -12    4.45    0.33
  -4   6 -12    3.86    0.49
  -6   4 -12    4.23    0.52
  -6  -4  12    3.51    0.36
  -6   4 -12    3.80    0.39
   6  -4 -12    4.48    0.35
   4  -6 -12    3.58    0.52
   4  -6 -12    4.14    0.29
  -6  -4  12    3.38    0.34
  -4  -6  14   11.86    0.47
  -4   6 -14   12.66    0.85
   6  -4 -14   11.57    0.62
  -4  -6  14   13.20    0.53
   4  -6 -14   12.29    0.60
   4  -6 -14   12.31    0.56
   6   4  14   12.41    0.82
  -6  -4  14   13.21    0.68
  -6   4 -14   13.75    0.89
  -6   4 -14   11.67    0.67
   4  -6 -14   11.97    0.53
   4   6  14   11.75    0.80
   4  -6 -14   10.96    0.85
  -6  -4  14   11.28    0.61
  -6  -4  16    4.32    0.39
  -6   4 -16    5.24    0.63
   6  -4 -16    4.61    0.43
  -6   4 -16    4.36    0.43
  -4   6 -16    4.32    0.58
  -4  -6  16    4.57    0.30
  -6  -4  16    4.61    0.45
   4  -6 -16    4.54    0.42
   4   6  16    5.41    0.59
   4  -6 -16    4.97    0.38
   6   4  16    5.30    0.59
   4  -6 -16    4.27    0.62
  -6  -4  18    2.51    0.32
  -6   4 -18    3.26    0.56
  -6   4 -18    2.96    0.37
  -6  -4  18    3.19    0.43
   4   6  18    3.42    0.55
   4  -6 -18    3.95    0.61
  -4   6 -18    3.11    0.46
   6  -4 -18    3.42    0.42
   4  -6 -18    3.25    0.39
   6   4  18    3.34    0.54
  -4   6 -18    2.74    0.54
  -4   6 -20    2.04    0.53
  -6  -4  20    2.19    0.38
   4  -6 -20    1.78    0.55
   4  -6 -20    1.79    0.35
  -6   4 -20    2.09    0.50
   4   6  20    2.07    0.47
  -6   4 -20    2.20    0.33
   6  -4 -20    1.59    0.35
  -4   6 -20    2.33    0.45
  -6   4 -22    8.67    0.90
  -4   6 -22   10.00    0.95
   4   6  22    9.44    0.91
  -6   4 -22   11.49    0.93
   6  -4 -22   10.02    0.77
  -4   6 -22    8.59    0.78
  -6  -4  22   10.78    0.81
  -4   6 -24    0.06    0.43
  -6  -4  24    0.12    0.29
  -6   4 -24    0.63    0.45
   4   6  24    0.01    0.36
  -6   4 -24    0.12    0.42
  -6   4 -26    1.60    0.53
  -5  -6 -25    2.57    0.55
  -6  -5 -25    2.83    0.55
  -6  -5 -25    2.69    0.59
  -5  -6 -25    1.85    0.47
   6   5 -25    2.50    0.62
  -6  -5 -23    7.32    0.80
  -5   6  23    6.39    0.75
   6   5 -23    6.91    0.79
  -6   5  23    5.95    0.74
  -5  -6 -23    5.29    0.68
  -5  -6 -23    6.68    0.71
   5   6 -23    6.75    0.80
  -5  -6 -23    4.95    0.80
  -6  -5 -23    7.21    0.74
  -6  -5 -21    5.04    0.68
  -5  -6 -21    4.85    0.59
  -6   5  21    5.01    0.64
  -5   6  21    4.84    0.63
   5   6 -21    5.30    0.68
   6   5 -21    4.89    0.66
  -6  -5 -21    4.83    0.61
  -5  -6 -21    4.98    0.63
   5   6 -19    2.99    0.54
  -6   5  19    3.71    0.55
  -5  -6 -19    3.42    0.49
   6   5 -19    4.62    0.62
  -5   6  19    4.82    0.60
  -6  -5 -19    3.74    0.54
  -5   6  17   10.76    0.81
   6   5 -17   12.27    0.88
  -6  -5 -17   12.13    0.83
  -6   5  17   11.73    0.84
   5   6 -17   11.22    0.88
  -5  -6 -17   11.42    0.79
   5   6 -15    0.49    0.35
  -6   5  15    0.52    0.31
  -6  -5 -15   -0.05    0.25
  -5   6  15    0.45    0.30
  -5  -6 -15    0.52    0.28
   6   5 -15   -0.29    0.33
  -5   6  13   10.70    0.71
  -6  -5 -13   10.25    0.71
  -5  -6 -13   10.33    0.70
   6   5 -13   10.32    0.54
  -6   5  13   10.01    0.39
   5   6 -13   10.32    0.75
   5   6 -13   10.22    0.54
  -6   5  13    9.92    0.69
   6   5 -13   10.52    0.74
  -6  -5 -11   12.96    0.76
  -6   5  11   14.35    0.78
  -5   6  11   14.96    0.81
   5   6 -11   13.17    0.81
   6   5 -11   15.55    0.61
  -5  -6 -11   14.62    0.78
   6   5 -11   14.94    0.83
   5   6 -11   14.69    0.59
  -6   5   9   15.88    0.56
   5   6  -9   15.31    0.81
  -6  -5  -9   14.89    0.77
   5   6  -9   16.65    0.55
  -6   5   9   15.79    0.78
  -5  -6  -9   14.82    0.77
   6   5  -9   15.74    0.81
  -5   6   9   14.72    0.77
   6   5  -7   47.34    1.51
   5   6  -7   47.15    1.09
  -6   5   7   48.60    1.49
  -5  -6  -7   49.20    1.45
  -6  -5  -7   48.70    1.51
  -5   6   7   48.37    1.49
   5   6  -7   48.55    1.52
  -5  -6  -7   47.96    1.49
  -6   5   7   46.10    1.14
   5   6  -7   47.86    1.53
   6   5  -5   35.36    1.22
   6  -5   5   39.77    1.23
  -6   5   5   34.71    0.88
   5  -6   5   39.17    1.24
  -5  -6  -5   38.49    1.14
  -6  -5  -5   38.96    1.17
   5   6  -5   37.13    1.13
   6   5  -5   37.96    1.29
  -6  -5  -5   35.25    1.22
  -5   6   5   39.31    1.24
   5   6  -5   37.18    1.27
  -6   5   5   40.48    1.27
  -5  -6  -5   37.91    1.24
   5   6  -5   36.19    1.23
  -5  -6  -3   96.50    2.42
  -5  -6  -3   97.83    2.25
  -6  -5  -3   97.39    2.42
  -5  -6  -3   96.82    2.08
   6   5  -3   92.40    2.45
  -6   5   3   93.15    2.06
  -5   6   3  100.21    2.38
   5   6  -3   92.82    2.42
   6  -5   3  102.26    2.37
   5   6  -3   97.89    2.37
  -5  -6  -3  100.99    2.40
   5   6  -3   93.49    2.46
   6   5  -3   91.08    2.40
  -6  -5  -3   96.80    2.27
   6   5  -3   94.46    2.38
  -6   5   3   94.52    2.38
  -5  -6  -1   29.84    1.02
   6   5  -1   30.97    1.05
   5   6  -1   34.38    1.08
  -5   6   1   31.05    0.80
  -5  -6  -1   30.89    0.76
  -6  -5  -1   30.98    0.85
  -5  -6  -1   30.90    0.83
   5  -6   1   31.46    1.02
   6  -5   1   32.47    0.94
   6  -5   1   31.98    1.01
  -6   5   1   29.69    1.04
   6   5  -1   31.46    1.07
  -6  -5  -1   30.97    1.02
   5   6  -1   29.33    1.02
   5   6  -1   31.35    1.08
  -6   5  -1   31.65    1.05
   5   6   1   28.18    1.00
   6  -5  -1   30.21    0.97
  -6  -5   1   30.15    0.97
  -5   6  -1   30.11    1.05
  -6  -5   1   29.70    0.72
   5   6   1   31.22    0.79
   5  -6  -1   31.04    0.99
   6   5   1   29.84    1.01
   6   5   1   32.41    1.06
  -5   6  -1   29.02    0.85
   5   6   1   30.37    1.04
   6  -5  -1   33.09    0.84
  -5   6  -3   95.06    2.43
   6  -5  -3   95.73    2.37
   6   5   3   95.22    2.46
   6   5   3   93.32    2.33
  -5   6  -3   95.18    2.30
   5   6   3   97.36    2.23
  -6   5  -3   98.02    2.45
   5  -6  -3   96.80    2.37
   6   5   3   89.98    1.97
   5   6   3   97.02    2.47
   5  -6  -3   98.25    2.39
  -6  -5   3   98.45    2.40
   6  -5  -3   94.18    2.35
   6  -5  -3   96.89    2.07
   5   6   3  102.25    2.07
   6   5   5   38.69    0.90
  -6  -5   5   38.18    1.18
   5   6   5   38.66    0.95
  -5  -6   5   37.45    1.15
   5  -6  -5   39.17    1.20
   6   5   5   38.06    1.12
  -6   5  -5   37.70    1.23
   5   6   5   38.08    1.13
  -5   6  -5   37.00    1.23
  -5   6  -5   36.39    1.17
   6  -5  -5   39.51    1.14
   6  -5  -5   38.41    1.18
   5  -6  -5   37.89    1.15
   5  -6  -7   49.56    1.40
   5   6   7   45.66    1.44
   6  -5  -7   49.86    1.15
  -6   5  -7   47.89    1.29
   6  -5  -7   48.61    1.48
   6   5   7   48.17    1.46
   5   6   7   51.36    1.29
  -5   6  -7   47.98    1.51
  -6  -5   7   48.95    1.18
   6   5   7   52.26    1.27
   5  -6  -7   47.07    1.13
  -5   6  -7   48.10    1.51
  -5  -6   7   48.96    1.39
   5  -6  -7   49.85    1.50
  -6   5  -7   46.96    1.50
  -6  -5   7   48.16    1.42
   6  -5  -7   50.20    1.38
   5  -6  -9   15.25    0.64
   5   6   9   13.99    0.74
  -6  -5   9   14.64    0.67
   5   6   9   15.83    0.64
  -5  -6   9   16.89    0.72
   6  -5  -9   15.86    0.62
   5  -6  -9   15.78    0.77
   6   5   9   16.02    0.63
   5  -6  -9   15.85    0.49
  -5   6  -9   15.07    0.81
  -5   6  -9   14.82    0.75
   6  -5  -9   15.09    0.77
  -6  -5   9   15.62    0.57
  -5  -6   9   16.21    0.67
  -6   5  -9   16.09    0.47
   6   5   9   16.03    0.79
  -6   5  -9   15.45    0.76
   6  -5  -9   16.19    0.54
  -5   6  -9   15.23    0.51
  -5   6  -9   16.56    0.56
   5  -6  -9   15.80    0.49
  -6   5  -9   15.43    0.57
   6   5  11   15.61    0.68
  -5   6 -11   14.05    0.51
  -5   6 -11   14.33    0.73
   5  -6 -11   14.52    0.50
   6  -5 -11   14.66    0.58
   6   5  11   14.14    0.79
  -5  -6  11   14.56    0.63
   6  -5 -11   13.68    0.56
  -5   6 -11   14.54    0.83
   5  -6 -11   14.72    0.54
  -6  -5  11   15.11    0.62
   5   6  11   14.25    0.79
  -6   5 -11   14.25    0.74
  -6  -5  11   13.03    0.64
  -6   5 -11   13.49    0.83
   5  -6 -11   13.44    0.59
  -5  -6  11   14.16    0.59
   6   5  13    9.76    0.71
  -5   6 -13   10.44    0.64
  -6  -5  13   10.19    0.57
  -5   6 -13   10.14    0.77
  -6   5 -13   10.33    0.77
  -5  -6  13    9.94    0.55
   5  -6 -13   10.25    0.49
   6  -5 -13   10.65    0.45
   5  -6 -13   11.44    0.47
   5  -6 -13   10.95    0.52
   5   6  13   10.22    0.73
  -5  -6  13   10.23    0.52
  -6   5 -13   10.54    0.65
  -6  -5  13   11.11    0.58
   6  -5 -13   10.31    0.53
  -6  -5  15    0.22    0.20
  -5   6 -15    0.55    0.38
  -6   5 -15    0.26    0.35
  -5  -6  15    0.42    0.19
   6  -5 -15    0.33    0.20
   5   6  15    0.28    0.30
   6   5  15    0.20    0.29
  -6  -5  15    0.44    0.23
   5  -6 -15    0.34    0.19
  -6   5 -15    0.84    0.25
  -5  -6  15    0.20    0.21
  -5   6 -15    0.35    0.23
  -6   5 -17   11.71    0.70
  -5   6 -17   11.54    0.89
  -6   5 -17   11.26    0.89
   5  -6 -17   12.35    0.67
   6   5  17   12.19    0.89
   6  -5 -17   10.80    0.66
  -6  -5  17   11.31    0.70
  -6  -5  17   12.41    0.62
   5   6  17   11.88    0.87
  -6  -5  19    3.09    0.42
  -5   6 -19    3.26    0.57
   5   6  19    3.43    0.54
  -6   5 -19    3.84    0.62
  -5   6 -19    4.70    0.57
   6  -5 -19    4.18    0.45
   6   5  19    3.42    0.55
   5  -6 -19    4.32    0.45
  -6   5 -19    4.08    0.44
   5   6  21    6.12    0.74
  -6  -5  21    4.89    0.54
   6   5  21    4.58    0.64
  -5   6 -21    5.10    0.62
  -6   5 -21    5.90    0.68
  -5   6 -21    3.97    0.66
  -6   5 -21    4.25    0.69
  -6   5 -23    5.97    0.73
   5   6  23    7.41    0.82
  -5   6 -23    6.10    0.81
  -6   5 -23    6.36    0.83
  -5   6 -23    6.40    0.71
  -6  -6 -26    0.78    0.45
  -6   6  24    1.05    0.45
  -6  -6 -24    1.55    0.52
  -6  -6 -24    1.56    0.45
   6   6 -24    0.88    0.45
  -6  -6 -22   13.20    1.02
  -6   6  22   13.32    1.04
  -6  -6 -22   12.01    0.96
   6   6 -22   12.26    1.01
  -6   6  20    0.46    0.35
   6   6 -20    0.26    0.33
  -6  -6 -20    0.33    0.30
  -6  -6 -18    1.79    0.41
   6   6 -18    1.50    0.46
  -6   6  18    1.85    0.41
  -6   6  16   10.13    0.77
  -6  -6 -16    9.57    0.73
   6   6 -16    8.83    0.75
  -6  -6 -14    1.45    0.36
   6   6 -14    1.50    0.24
  -6   6  14    1.50    0.35
   6   6 -14    1.36    0.39
   6   6 -12    0.04    0.12
  -6  -6 -12    0.32    0.25
  -6   6  12    0.38    0.23
   6   6 -12    0.49    0.32
   6   6 -10    4.55    0.49
  -6   6  10    4.68    0.46
   6   6 -10    5.00    0.29
  -6  -6 -10    5.76    0.49
  -6  -6  -8   88.20    2.41
   6   6  -8   88.40    2.43
  -6   6   8   87.63    2.40
   6   6  -8   87.66    2.46
   6   6  -6   11.91    0.67
   6   6  -6   12.56    0.71
  -6   6   6   11.97    0.64
  -6  -6  -6   11.57    0.59
  -6  -6  -6   12.24    0.66
  -6   6   4   40.87    1.27
   6   6  -4   37.62    1.21
   6   6  -4   37.23    1.26
  -6  -6  -4   37.71    1.14
   6   6  -4   39.29    1.33
   6  -6   4   40.11    1.24
  -6  -6  -4   38.71    1.27
  -6  -6  -2   78.25    1.99
   6   6  -2   76.67    1.99
   6  -6   2   78.56    1.96
   6   6  -2   74.51    2.03
  -6  -6  -2   79.03    1.76
   6  -6   2   82.99    1.91
   6   6  -2   80.03    1.99
   6   6   0   67.03    1.85
  -6  -6   0   65.01    1.43
  -6  -6   0   65.35    1.80
  -6  -6   0   66.06    1.50
  -6   6   0   66.56    1.86
   6  -6   0   68.21    1.81
   6   6   0   67.37    1.84
  -6   6  -2   76.04    2.10
   6  -6  -2   79.55    2.03
   6   6   2   76.70    2.04
   6  -6  -2   80.84    2.07
  -6  -6   2   74.04    2.05
   6   6   4   40.99    1.17
   6  -6  -4   38.91    1.27
   6   6   4   38.00    1.23
  -6   6  -4   40.23    1.33
  -6  -6   4   38.90    1.27
   6   6   4   41.73    0.97
   6  -6  -4   40.91    1.26
  -6   6  -6   10.99    0.64
  -6   6  -6   12.18    0.65
   6  -6  -6   12.07    0.63
   6   6   6   11.08    0.57
   6   6   6   12.66    0.44
  -6  -6   6   11.97    0.61
   6  -6  -6   13.29    0.60
   6  -6  -6   11.13    0.34
   6  -6  -8   83.52    2.26
  -6  -6   8   85.80    2.14
   6   6   8   90.99    1.99
   6  -6  -8   88.17    2.11
  -6  -6   8   85.37    1.83
  -6   6  -8   88.11    1.97
   6  -6  -8   82.53    1.76
  -6   6  -8   85.18    2.31
   6   6   8   84.71    2.23
  -6   6  -8   84.52    2.26
   6  -6 -10    4.53    0.20
  -6   6 -10    5.36    0.31
  -6   6 -10    5.40    0.46
   6  -6 -10    5.27    0.37
  -6  -6  10    5.14    0.31
   6   6  10    5.71    0.38
   6   6  10    4.90    0.46
   6  -6 -10    5.21    0.27
  -6  -6  10    5.55    0.42
  -6   6 -10    5.59    0.29
  -6   6 -10    5.35    0.53
   6  -6 -12    0.01    0.13
  -6   6 -12   -0.08    0.20
   6   6  12    0.37    0.29
  -6  -6  12    0.02    0.21
  -6  -6  12    0.12    0.15
   6  -6 -12    0.19    0.15
  -6   6 -12   -0.23    0.31
  -6   6 -14    1.25    0.42
   6  -6 -14    1.97    0.22
  -6  -6  14    2.15    0.29
  -6  -6  14    1.30    0.27
   6  -6 -14    1.60    0.24
   6   6  14    1.93    0.40
  -6   6 -14    1.89    0.34
  -6  -6  16    8.67    0.52
   6  -6 -16   10.16    0.57
  -6  -6  16    9.27    0.59
   6   6  16    9.75    0.79
  -6   6 -16   10.40    0.84
  -6   6 -16    9.97    0.66
  -6  -6  18    2.13    0.35
  -6   6 -18    1.15    0.43
   6  -6 -18    1.75    0.31
   6   6  18    1.32    0.40
  -6   6 -18    1.49    0.32
  -6   6 -20    0.35    0.42
   6   6  20    1.59    0.45
   6   6  22   12.29    1.02
  -6   6 -22   13.67    0.96
  -6   6 -22   11.56    1.06
  -7   0  -1   16.58    0.62
   0  -7   1   16.31    0.46
   7   0  -1   17.19    0.56
   0  -7  -1   17.72    0.57
   0   7   1   18.01    0.61
   0  -7  -1   16.79    0.64
  -7   0   1   17.50    0.55
   0   7   1   16.75    0.56
   0  -7   1   18.07    0.63
   7   0   1   17.46    0.62
  -7   0  -1   18.40    0.65
  -7   0   1   16.58    0.57
  -7   0   1   16.48    0.64
   7   0   1   17.53    0.53
   0   7  -1   17.02    0.61
   7   0  -1   17.46    0.55
  -7   0  -3   82.53    2.10
  -7   0   3   84.65    2.00
   0  -7  -3   87.45    1.93
   0  -7  -3   85.37    2.07
  -7   0   3   83.91    1.91
  -7   0  -3   86.24    1.97
   7   0  -3   85.88    1.99
   0  -7   3   86.49    2.11
   0   7  -3   84.13    2.09
   0   7   3   89.77    2.09
   0   7   3   83.81    2.06
  -7   0   3   84.36    2.08
   7   0   3   87.19    2.11
   0  -7  -5   66.45    1.51
  -7   0   5   65.13    1.68
   7   0  -5   63.05    1.65
   0  -7  -5   65.63    1.65
  -7   0  -5   64.55    1.46
   0  -7   5   66.26    1.76
   0  -7  -5   65.55    1.68
   0   7   5   66.16    1.68
   7   0   5   63.16    1.72
  -7   0   5   62.40    1.62
   0   7  -5   62.38    1.70
  -7   0   5   60.90    1.44
   0  -7  -5   63.75    1.69
   0   7  -5   62.45    1.73
   0   7   5   61.90    1.69
  -7   0  -5   62.72    1.71
  -7   0  -5   60.57    1.73
   0   7  -7    6.90    0.51
   0  -7   7    6.99    0.43
  -7   0  -7    8.02    0.49
  -7   0   7    7.12    0.44
  -7   0   7    8.16    0.46
   7   0  -7    6.83    0.43
   0  -7  -7    7.84    0.47
   0  -7  -7    7.32    0.42
  -7   0   7    7.48    0.36
   0   7  -7    7.85    0.49
  -7   0   7    6.86    0.40
   0   7   7    7.18    0.45
   7   0   7    7.54    0.47
  -7   0  -7    7.45    0.50
   0   7  -7    7.31    0.29
   0   7   7    6.34    0.45
   0   7   9   28.29    0.96
   0   7  -9   26.52    1.09
  -7   0   9   26.77    0.76
   0  -7  -9   27.79    1.12
   0   7  -9   26.94    0.99
  -7   0   9   28.71    0.98
   0  -7  -9   25.51    0.92
   0   7   9   28.15    1.07
   7   0   9   26.77    0.97
  -7   0  -9   25.98    1.06
   0   7  -9   29.14    0.94
   0  -7   9   26.21    0.93
  -7   0   9   26.92    0.99
   7   0  -9   26.05    0.96
   0   7  11    3.69    0.42
   0  -7  11    3.41    0.31
  -7   0  11    3.40    0.18
   7   0 -11    3.54    0.38
   0   7 -11    4.28    0.37
  -7   0 -11    3.09    0.41
  -7   0  11    3.66    0.25
   0  -7 -11    3.28    0.34
   7   0  11    3.36    0.34
  -7   0  11    3.73    0.37
   0   7 -11    3.25    0.46
   0  -7 -11    3.56    0.55
   0   7 -11    4.05    0.39
   7   0 -13    1.79    0.32
   0  -7 -13    1.83    0.28
   0   7  13    1.75    0.36
   0  -7  13    2.25    0.26
  -7   0  13    2.14    0.31
   0   7 -13    2.74    0.46
   0  -7 -13    2.48    0.52
  -7   0 -13    2.02    0.38
  -7   0  13    1.94    0.22
   7   0 -15    8.99    0.65
   0   7  15    9.16    0.71
  -7   0  15    9.89    0.68
   0   7 -15    8.49    0.74
   0  -7 -15    9.50    0.61
   0  -7 -15   10.68    0.85
  -7   0 -15   10.48    0.75
  -7   0  15    9.36    0.50
   0  -7 -15    9.28    0.61
   7   0 -17    0.01    0.30
   0  -7 -17    0.19    0.22
   0  -7 -17   -0.08    0.26
  -7   0 -17    0.30    0.33
   0   7 -17   -0.02    0.36
   0  -7 -17    0.03    0.42
   0   7  17   -0.12    0.33
  -7   0 -17   -0.07    0.20
  -7   0  17    0.14    0.25
  -7   0 -19    6.84    0.74
   0  -7 -19    6.33    0.57
   0  -7 -19    6.27    0.58
   0   7 -19    6.44    0.73
   0   7  19    7.15    0.70
  -7   0 -19    6.86    0.55
   7   0 -19    6.07    0.61
  -7   0 -19    6.92    0.69
  -7   0  19    6.89    0.65
   0  -7 -19    5.92    0.74
   7   0 -21    5.48    0.63
   0   7 -21    6.43    0.76
  -7   0  21    6.19    0.67
   0  -7 -21    5.02    0.55
  -7   0 -21    5.89    0.52
   0   7  21    5.00    0.65
  -7   0 -21    5.56    0.75
   0  -7 -21    6.11    0.61
   0  -7 -21    5.97    0.78
  -7   0  23    0.14    0.30
   7   0 -23    0.02    0.30
   0   7 -23   -0.66    0.42
   0   7  23   -0.29    0.36
   0  -7 -23    0.03    0.33
   0  -7 -23    0.08    0.28
   0  -7 -23   -0.14    0.49
  -7   0 -23   -0.40    0.40
  -7   0  25    4.52    0.63
  -7   0 -25    3.64    0.70
   7   0 -25    3.67    0.59
  -7   0 -25    4.80    0.77
   7   1 -26    1.66    0.51
  -7   1  26    2.28    0.54
  -7   1  24    1.78    0.45
   7   1 -24    2.09    0.50
  -1  -7 -24    1.83    0.62
  -7  -1 -24    1.10    0.47
  -1   7  24    1.46    0.48
  -1  -7 -24    1.64    0.40
  -1  -7 -24    1.82    0.48
   1   7 -24    2.13    0.57
  -7  -1 -22    2.45    0.48
  -7  -1 -22    2.76    0.60
  -1   7  22    2.45    0.53
   7   1 -22    2.51    0.50
  -1  -7 -22    1.79    0.40
  -7   1  22    1.96    0.45
  -1  -7 -22    1.68    0.57
  -1  -7 -22    2.44    0.48
   1   7 -22    3.34    0.62
  -7  -1 -20    2.00    0.44
   1   7 -20    2.02    0.49
  -1  -7 -20    1.98    0.41
  -7  -1 -20    1.91    0.50
  -7   1  20    1.41    0.37
  -1   7  20    1.06    0.40
  -7  -1 -20    1.85    0.33
  -1  -7 -20    1.37    0.34
  -1  -7 -20    1.58    0.52
   7   1 -20    1.04    0.36
  -1  -7 -18    1.08    0.34
  -7  -1 -18    1.73    0.40
  -1  -7 -18    1.92    0.53
   1   7 -18    1.34    0.44
  -1  -7 -18    1.65    0.36
  -1   7  18    1.07    0.38
  -7   1  18    1.03    0.32
   7   1 -18    1.91    0.40
   1   7 -16   11.00    0.83
   7   1 -16   10.78    0.75
  -1  -7 -16   10.35    0.69
  -1  -7 -16   10.85    0.88
  -1   7  16    9.76    0.77
  -1  -7 -16   10.91    0.69
  -7   1  16    9.82    0.71
  -7  -1 -16   10.68    0.78
   7   1 -14    5.69    0.54
  -7  -1 -14    6.22    0.57
   1   7 -14    5.92    0.61
  -1  -7 -14    5.98    0.49
   7  -1  14    5.29    0.42
  -1  -7 -14    7.92    0.74
  -7   1  14    6.62    0.54
  -1   7  14    5.63    0.57
  -7   1  14    5.67    0.35
  -7  -1 -12    3.56    0.44
   7  -1  12    3.93    0.36
   1   7 -12    3.17    0.41
  -1  -7 -12    3.80    0.37
  -1   7  12    4.33    0.47
   1  -7  12    3.99    0.35
   7   1 -12    3.08    0.39
   1   7 -12    4.41    0.51
  -7   1  12    4.46    0.41
   1   7 -12    3.35    0.33
  -7   1  12    3.55    0.24
  -7   1  10    8.29    0.52
   1  -7  10    8.01    0.48
  -7   1  10    8.72    0.35
   1   7 -10    7.91    0.60
  -1   7  10    8.26    0.58
  -7   1  10    8.97    0.52
  -1   7  10    8.62    0.47
  -7   1  10    7.96    0.33
   7   1 -10    9.13    0.56
   7  -1  10    8.90    0.50
   1   7 -10    8.58    0.47
  -1  -7 -10    7.89    0.50
   1   7 -10    8.43    0.54
  -7  -1 -10    8.69    0.60
  -1   7   8   44.12    1.42
  -7   1   8   44.34    1.15
   1   7  -8   45.17    1.21
  -7   1   8   45.20    1.31
   1   7  -8   43.82    1.44
   7   1  -8   44.62    1.35
  -7  -1  -8   43.25    1.43
   1   7  -8   43.61    1.05
   1   7  -8   45.03    1.38
  -1  -7  -8   45.66    1.33
   7  -1   8   45.89    1.32
  -7   1   8   41.51    1.01
  -7   1   8   42.61    1.31
   1  -7   8   45.06    1.33
  -7  -1  -6   45.37    1.38
   1   7  -6   45.26    1.36
  -7   1   6   40.25    0.98
   1   7  -6   46.43    1.13
  -1  -7  -6   45.45    1.33
  -7  -1  -6   43.91    1.34
  -1   7   6   48.60    1.36
  -7   1   6   45.38    1.29
   1   7  -6   44.02    1.38
  -7   1   6   46.88    1.32
  -1  -7  -6   45.05    1.30
   1  -7   6   47.04    1.40
  -7   1   6   45.51    1.20
   1  -7   6   44.74    1.32
  -1   7   6   44.41    1.35
  -7  -1  -6   44.78    1.35
  -1  -7  -6   45.85    1.28
  -7   1   6   46.57    1.27
   7   1  -6   43.90    1.31
  -1  -7  -4   47.03    1.18
  -7  -1  -4   43.93    1.31
  -7   1   4   45.29    1.24
   7  -1   4   46.67    1.32
  -1  -7  -4   43.64    1.23
  -1   7   4   45.68    1.30
  -7   1   4   45.71    1.25
  -1  -7  -4   44.25    1.28
  -1  -7  -4   42.57    1.24
  -7   1   4   43.70    1.24
  -7   1   4   43.54    1.03
  -7  -1  -4   46.40    1.15
   1   7  -4   43.98    1.31
   1  -7   4   46.70    1.32
  -1   7   4   48.72    1.32
   7   1  -4   44.47    1.28
  -7  -1  -4   44.44    1.34
   1   7  -4   44.45    1.33
  -7   1   2   57.65    1.37
  -1   7   2   56.37    1.34
   1   7  -2   56.47    1.52
  -7   1   2   60.04    1.47
  -1  -7  -2   57.80    1.48
  -1   7   2   58.72    1.52
   7  -1   2   60.72    1.52
  -1  -7  -2   60.98    1.46
  -7  -1  -2   55.38    1.53
  -7   1   2   55.87    1.49
  -7  -1  -2   60.31    1.49
   7  -1   2   59.38    1.43
   1  -7   2   60.46    1.51
  -1  -7   0   96.24    2.18
  -7  -1   0   95.84    2.25
  -1   7   0   90.29    2.09
   1   7   0   92.90    2.08
   7  -1   0   93.27    2.10
   7  -1   0   95.40    2.12
   1  -7   0   92.65    2.10
   1   7   0   90.01    2.16
   7   1   0   91.60    2.00
   1  -7   0   93.90    2.02
   7   1   0   95.75    2.16
  -7  -1   0   90.76    2.17
   1  -7   0   91.96    2.22
  -1  -7   0   89.83    2.16
  -7   1   0   88.41    2.12
  -7  -1   2   56.71    1.43
   7   1   2   59.26    1.62
   1  -7  -2   56.97    1.53
  -1  -7   2   57.83    1.54
   1   7   2   58.60    1.47
  -7  -1   2   57.08    1.38
   7  -1  -2   58.41    1.35
   7  -1  -2   57.96    1.44
   7   1   2   59.76    1.32
   7   1   2   59.43    1.53
   1  -7  -2   59.17    1.35
  -7   1  -2   56.30    1.51
   1  -7  -2   59.59    1.46
  -7  -1   2   57.31    1.56
  -1   7  -2   58.45    1.49
   1  -7  -4   45.49    1.31
  -1   7  -4   44.03    1.31
   1  -7  -4   45.49    1.31
  -7  -1   4   46.50    1.32
  -7  -1   4   43.71    1.15
  -7   1  -4   44.34    1.31
   7  -1  -4   45.67    1.25
   1   7   4   46.10    1.27
   1  -7  -4   46.46    1.08
   7   1   4   47.89    1.39
  -7   1  -4   47.66    1.14
  -1  -7   4   48.91    1.36
   1   7   4   46.16    1.29
  -7  -1   4   46.18    1.21
  -7   1  -4   44.45    1.33
  -7  -1   6   45.74    1.34
  -7  -1   6   44.44    1.27
  -7   1  -6   43.86    1.31
  -1   7  -6   45.23    1.39
   1  -7  -6   44.57    1.38
  -7   1  -6   44.94    1.39
   1  -7  -6   47.18    1.26
  -1   7  -6   44.88    1.31
  -7   1  -6   43.24    1.02
   7   1   6   46.71    1.38
  -7  -1   6   44.58    1.22
   1   7   6   45.70    1.36
   7  -1  -6   46.46    1.27
   1   7   6   47.63    1.31
   1  -7  -6   46.46    1.34
   1  -7  -8   43.71    1.24
   7  -1  -8   44.37    1.27
  -7  -1   8   45.87    1.38
  -7   1  -8   44.95    1.30
   1   7   8   46.35    1.34
  -7  -1   8   45.26    1.26
  -7  -1   8   47.01    1.35
  -7   1  -8   44.13    1.42
  -1   7  -8   44.44    1.08
   1  -7  -8   44.06    1.45
   1  -7  -8   44.56    1.36
  -1   7  -8   45.38    1.44
  -1   7  -8   38.56    0.95
   7   1   8   46.12    1.37
   1   7   8   44.39    1.40
  -1   7  -8   44.91    1.30
   1   7  10    7.92    0.57
  -7   1 -10    8.62    0.59
  -7  -1  10    8.14    0.32
   7   1  10    8.16    0.52
   7  -1 -10    8.53    0.50
  -1   7 -10    8.76    0.50
   1  -7 -10    8.04    0.64
  -7  -1  10    8.17    0.48
  -1  -7  10    8.91    0.47
  -1   7 -10    8.34    0.61
  -1   7 -10    8.33    0.50
  -1   7 -10    8.52    0.41
   1  -7 -10    9.16    0.48
  -1  -7  12    3.57    0.30
   1   7  12    3.45    0.43
   1  -7 -12    3.10    0.31
  -1   7 -12    2.58    0.30
  -1   7 -12    3.02    0.35
  -7   1 -12    3.31    0.42
   7  -1 -12    2.68    0.35
  -1   7 -12    3.55    0.48
   1  -7 -12    3.41    0.54
   1  -7 -12    3.14    0.31
  -7  -1  12    3.38    0.35
  -7  -1  12    3.14    0.27
  -1  -7  14    4.75    0.35
   1  -7 -14    5.53    0.44
  -1   7 -14    5.14    0.44
  -7   1 -14    5.63    0.47
   1   7  14    5.48    0.57
   7  -1 -14    6.10    0.52
  -1   7 -14    5.66    0.60
  -7  -1  14    5.78    0.49
   1  -7 -14    5.85    0.68
  -7   1 -14    5.74    0.56
  -7  -1  14    5.52    0.39
   1  -7 -14    4.98    0.42
   1  -7 -16   10.18    0.64
   7  -1 -16    9.02    0.65
  -7   1 -16    9.81    0.64
   1   7  16   11.62    0.83
  -7  -1  16    9.65    0.69
  -1   7 -16    9.87    0.80
  -7   1 -16   11.76    0.81
  -1   7 -16    8.72    0.61
   1  -7 -16   10.00    0.86
   1  -7 -16    9.82    0.62
   1  -7 -18    1.25    0.31
  -7   1 -18    1.29    0.45
   1  -7 -18    1.25    0.47
  -7   1 -18    1.37    0.36
   7  -1 -18    1.08    0.33
   1   7  18    1.50    0.41
  -7  -1  18    1.22    0.34
  -7   1 -18    1.38    0.29
  -1   7 -18    1.14    0.32
  -1   7 -18    2.07    0.47
   1  -7 -18    1.03    0.27
   1   7  20    1.56    0.43
   7  -1 -20    2.06    0.39
  -7   1 -20    1.24    0.47
   1  -7 -20    2.14    0.38
  -7   1 -20    1.38    0.29
  -7  -1  20    1.77    0.40
  -1   7 -20    1.80    0.41
   1  -7 -20    1.54    0.52
  -1   7 -20    1.32    0.46
   1  -7 -20    1.12    0.30
  -1   7 -22    2.65    0.58
  -7   1 -22    1.71    0.56
   1  -7 -22    2.69    0.45
  -7  -1  22    3.29    0.53
   1  -7 -22    0.96    0.51
   1  -7 -22    2.44    0.40
   1   7  22    2.02    0.47
   7  -1 -22    3.31    0.54
   1   7  24    2.56    0.55
  -7   1 -24    1.56    0.54
  -1   7 -24    2.63    0.61
  -7  -1  24    1.21    0.39
   1  -7 -24    1.83    0.60
   7  -1 -24    1.96    0.48
  -7  -1  26    2.65    0.56
   7   2 -25    3.02    0.60
  -7  -2 -25    1.78    0.61
  -7   2  25    1.91    0.49
  -2  -7 -25    1.88    0.45
  -7  -2 -23    1.53    0.55
  -2   7  23    0.77    0.41
  -7   2  23    1.11    0.40
  -2  -7 -23    0.44    0.35
   7   2 -23    1.02    0.46
   2   7 -23    0.86    0.45
  -2  -7 -23    1.25    0.55
  -7  -2 -23    0.61    0.37
  -2  -7 -23    1.08    0.38
  -7   2  21    2.68    0.48
   7   2 -21    3.05    0.52
   2   7 -21    2.63    0.54
  -2   7  21    2.68    0.52
  -7  -2 -21    2.52    0.47
  -7  -2 -21    2.63    0.56
  -7  -2 -21    2.54    0.37
  -2  -7 -21    3.97    0.54
  -2  -7 -21    2.20    0.42
  -2  -7 -21    2.88    0.63
  -2  -7 -19    2.18    0.39
  -2   7  19    1.80    0.44
  -2  -7 -19    2.28    0.43
  -7  -2 -19    1.64    0.40
  -7   2  19    2.03    0.41
  -2  -7 -19    2.66    0.63
   7   2 -19    2.51    0.47
   2   7 -19    1.79    0.47
  -7  -2 -17    9.82    0.78
   7   2 -17   12.30    0.83
  -2  -7 -17   11.64    0.77
  -2   7  17   11.29    0.86
  -7   2  17   10.89    0.80
  -2  -7 -17   11.41    0.75
   2   7 -17   10.18    0.84
  -2  -7 -17   11.36    0.91
  -2   7  15    0.31    0.28
   2   7 -15    1.06    0.40
   7   2 -15    0.68    0.33
  -7   2  15    0.54    0.27
   7  -2  15    0.52    0.20
  -7  -2 -15    0.82    0.34
  -2  -7 -15    0.63    0.26
  -2  -7 -13   11.43    0.66
   2   7 -13   10.55    0.77
  -2   7  13   11.53    0.75
   7  -2  13   10.07    0.54
   7   2 -13   10.68    0.70
  -7   2  13    9.94    0.42
  -7  -2 -13   10.87    0.74
  -7   2  13    9.96    0.65
  -7   2  11    3.75    0.20
  -2   7  11    4.37    0.45
  -7   2  11    4.65    0.39
   7   2 -11    4.25    0.45
  -7  -2 -11    4.18    0.45
   2   7 -11    4.37    0.34
  -7   2  11    5.02    0.44
   2   7 -11    4.27    0.47
   2   7 -11    4.18    0.48
  -2  -7 -11    4.30    0.41
  -7   2   9    5.68    0.31
  -7   2   9    5.87    0.39
  -2   7   9    5.47    0.46
   2  -7   9    6.53    0.44
  -2  -7  -9    6.62    0.46
   2   7  -9    5.77    0.35
  -7   2   9    5.42    0.42
   7   2  -9    5.93    0.46
   2   7  -9    6.00    0.50
   2   7  -9    5.73    0.51
  -7  -2  -9    5.22    0.46
  -2  -7  -7   48.44    1.42
   2  -7   7   46.91    1.41
  -7   2   7   48.01    1.41
  -2   7   7   46.76    1.45
  -2  -7  -7   48.85    1.36
  -7   2   7   48.74    1.32
   2   7  -7   49.22    1.22
  -7  -2  -7   45.45    1.47
   2   7  -7   46.82    1.50
   7   2  -7   48.51    1.44
   2   7  -7   47.30    1.21
   2   7  -7   47.97    1.47
  -7   2   7   46.68    1.26
   7  -2   5   54.86    1.52
  -7   2   5   53.99    1.38
  -2  -7  -5   52.35    1.39
  -7  -2  -5   52.37    1.48
   2   7  -5   51.65    1.53
   2  -7   5   56.59    1.55
   2   7  -5   53.86    1.36
  -7  -2  -5   53.85    1.54
  -7   2   5   52.08    1.41
  -7  -2  -5   54.77    1.56
   7   2  -5   50.73    1.48
  -2  -7  -5   51.51    1.44
   2  -7   5   49.32    1.49
  -2  -7  -5   51.82    1.49
  -2   7   5   51.88    1.50
   2   7  -5   52.77    1.54
  -7   2   5   52.12    1.46
  -2  -7  -3   96.19    2.18
  -7   2   3   89.56    2.22
  -2  -7  -3   93.05    2.16
  -2   7   3   91.69    2.25
  -7  -2  -3   92.75    2.28
  -2  -7  -3   91.96    2.27
  -7   2   3   93.37    2.15
  -2  -7  -3   89.08    2.13
   7  -2   3   96.60    2.25
   7   2  -3   90.78    2.26
   2   7  -3   87.13    2.30
   2   7  -3   89.46    2.26
  -7  -2  -3   93.13    2.15
  -7   2   3   92.93    2.19
  -7   2   3   87.99    1.96
   2  -7   3   95.13    2.24
   2  -7   1   91.70    2.27
   2  -7   1   95.00    2.16
   2   7  -1   91.42    2.24
  -7   2   1   93.81    2.30
  -7   2   1   92.22    2.09
  -2   7   1   90.90    2.04
  -7   2   1   92.23    2.18
  -7  -2  -1   90.21    2.24
  -2  -7  -1   96.49    2.22
   7  -2   1   95.08    2.17
  -2  -7  -1   93.79    2.16
   7  -2   1   96.29    2.18
  -7  -2  -1   96.46    2.26
   2   7  -1   92.78    2.04
   2   7   1   89.57    2.15
  -7  -2   1   96.83    2.27
   7   2   1   81.90    1.88
  -7  -2   1   89.53    2.14
   2   7   1   93.41    2.06
  -2  -7   1   95.13    2.20
  -2   7  -1   92.51    2.09
   7  -2  -1   93.86    2.03
  -7  -2   1   90.67    1.94
   7  -2  -1   95.00    2.13
   7   2   1   95.82    2.18
  -7   2  -1   90.26    2.28
   7   2   1   93.82    2.31
  -7   2  -1   90.59    2.13
   2  -7  -1   92.37    2.01
   2  -7  -1   94.26    2.24
  -7  -2   3   88.70    2.00
  -2   7  -3   87.70    2.15
  -7   2  -3   90.67    2.29
   7  -2  -3   88.80    1.90
   7   2   3   88.67    2.20
  -7  -2   3   87.86    2.08
  -2  -7   3   91.80    2.23
   7  -2  -3   88.86    2.13
   2   7   3   92.20    2.13
  -7   2  -3   89.85    2.21
   2  -7  -3   89.12    2.20
   2  -7  -3   92.54    2.14
   7   2   3   89.44    2.27
   2  -7  -3   85.42    1.88
   2   7   3   92.28    2.09
  -7   2  -3   87.86    2.18
   7   2   3   89.34    2.12
   2  -7  -5   50.22    1.47
   2  -7  -5   55.76    1.37
  -7  -2   5   54.83    1.52
   2  -7  -5   52.70    1.50
   2  -7  -5   48.29    1.13
   7  -2  -5   52.96    1.44
  -7  -2   5   54.21    1.37
   7   2   5   53.00    1.33
  -7  -2   5   52.12    1.51
  -7  -2   5   51.92    1.31
  -7   2  -5   52.44    1.51
   2   7   5   55.91    1.40
  -7   2  -5   51.64    1.43
  -2   7  -5   53.32    1.50
   7   2   5   53.45    1.54
   2   7   5   51.57    1.45
   7   2   7   46.31    1.19
   2  -7  -7   46.23    1.42
  -7   2  -7   47.92    1.35
  -7  -2   7   47.71    1.36
   2  -7  -7   48.95    1.28
  -7  -2   7   47.52    1.27
   7   2   7   48.44    1.46
  -2   7  -7   50.50    1.36
  -2  -7   7   50.19    1.20
   7  -2  -7   50.18    1.30
   2   7   7   49.49    1.36
  -2   7  -7   47.63    1.48
   2  -7  -7   45.70    1.46
  -7   2  -7   48.84    1.48
  -2   7  -7   43.15    1.11
   2   7   7   47.61    1.44
  -7   2  -7   46.91    1.47
  -7   2  -9    5.59    0.48
   7  -2  -9    5.71    0.38
  -7  -2   9    5.27    0.36
  -7   2  -9    6.12    0.42
   2  -7  -9    6.36    0.37
   7   2   9    5.53    0.28
  -2   7  -9    5.55    0.40
   2  -7  -9    6.02    0.47
  -7   2  -9    5.71    0.46
   2   7   9    5.92    0.48
   2  -7  -9    5.91    0.31
  -2   7  -9    5.85    0.50
  -2   7  -9    5.75    0.33
   2  -7  -9    5.26    0.53
  -2  -7  11    3.87    0.31
   2  -7 -11    3.07    0.29
   7  -2 -11    3.99    0.36
  -7   2 -11    3.72    0.39
   2  -7 -11    3.71    0.29
   2  -7 -11    4.57    0.56
  -2   7 -11    4.76    0.50
  -7  -2  11    3.31    0.32
   2   7  11    3.76    0.43
  -2   7 -11    3.95    0.33
  -7   2 -11    3.80    0.43
  -2   7 -11    3.67    0.35
   7   2  11    4.00    0.23
  -2  -7  13   11.61    0.53
   7   2  13   10.07    0.37
  -7  -2  13   10.54    0.54
   2  -7 -13   10.58    0.55
   7  -2 -13   10.02    0.59
  -7   2 -13   11.22    0.66
  -7  -2  13   11.70    0.64
  -7   2 -13   10.99    0.74
   2  -7 -13   11.16    0.57
   2  -7 -13   11.32    0.82
  -2   7 -13   10.40    0.57
   2   7  13   10.74    0.74
  -2   7 -13   10.36    0.76
   2  -7 -15    0.57    0.24
  -2   7 -15    0.78    0.36
   2  -7 -15    1.10    0.23
   7  -2 -15    0.20    0.25
   2   7  15    0.67    0.31
  -7   2 -15    1.03    0.34
  -7  -2  15    0.52    0.23
   2  -7 -15    0.61    0.47
  -2   7 -15    0.60    0.29
  -7   2 -15    0.51    0.22
  -2   7 -17   10.47    0.85
  -7  -2  17   11.13    0.74
   2  -7 -17   10.65    0.65
  -7   2 -17   10.21    0.66
   2  -7 -17   11.46    0.67
   2   7  17   11.29    0.85
  -2   7 -17    9.65    0.67
  -7   2 -17   12.12    0.92
   2  -7 -17   11.54    0.92
   7  -2 -17   10.36    0.70
   2  -7 -19    2.02    0.35
  -2   7 -19    2.16    0.40
  -7   2 -19    2.20    0.53
   2   7  19    2.15    0.48
  -7   2 -19    1.82    0.31
   7  -2 -19    1.94    0.39
   2  -7 -19    1.79    0.52
  -2   7 -19    1.91    0.50
  -7  -2  19    1.98    0.37
   2  -7 -19    1.90    0.33
   7  -2 -21    2.93    0.47
  -2   7 -21    1.93    0.50
  -7   2 -21    3.42    0.62
  -2   7 -21    2.87    0.47
   2   7  21    2.05    0.47
  -7  -2  21    2.93    0.47
   2  -7 -21    1.10    0.50
   2  -7 -21    3.03    0.40
   2  -7 -21    2.69    0.44
  -2   7 -23    1.58    0.53
   7  -2 -23    1.06    0.37
  -7   2 -23    0.71    0.44
   2   7  23    0.78    0.43
  -7  -2  23    0.59    0.33
   2  -7 -23    0.11    0.48
  -7  -2  25    1.95    0.48
  -7   2 -25    2.04    0.61
   7   3 -26    0.24    0.40
  -3  -7 -26    1.59    0.44
   7   3 -24    0.62    0.44
  -7  -3 -24    0.73    0.44
   3   7 -24    0.09    0.42
  -3   7  24    1.40    0.47
  -3  -7 -24    0.15    0.29
  -7  -3 -24    0.39    0.34
  -7   3  24    0.92    0.44
  -3  -7 -24    1.22    0.44
  -3  -7 -24    0.93    0.56
  -3  -7 -22    4.19    0.58
   7   3 -22    5.24    0.67
  -3   7  22    4.06    0.62
   3   7 -22    4.62    0.69
  -3  -7 -22    5.79    0.78
  -7   3  22    3.77    0.57
  -7  -3 -22    3.28    0.61
  -7  -3 -22    4.50    0.62
  -3  -7 -22    5.18    0.60
  -7   3  20    0.20    0.29
   7   3 -20    0.33    0.34
  -3  -7 -20    0.36    0.31
  -3   7  20    1.01    0.40
   3   7 -20    0.91    0.42
  -3  -7 -20    0.90    0.52
  -7  -3 -20    0.18    0.29
  -3  -7 -20    0.25    0.26
  -3  -7 -18    3.06    0.43
   7   3 -18    4.05    0.55
   3   7 -18    2.77    0.51
  -3   7  18    2.51    0.47
  -7   3  18    3.30    0.48
  -7  -3 -18    3.11    0.50
  -7  -3 -16    0.78    0.31
   7   3 -16    0.46    0.34
  -7   3  16    1.07    0.30
  -3  -7 -16    1.19    0.32
  -3   7  16    0.91    0.33
   3   7 -16    0.71    0.38
   3   7 -14    0.09    0.34
  -7   3  14    0.20    0.09
  -3   7  14    0.34    0.14
  -7  -3 -14    0.12    0.24
   7   3 -14    0.50    0.31
  -3   7  14    0.61    0.28
  -7   3  14    0.26    0.26
  -3  -7 -14    0.56    0.26
  -7   3  12    3.25    0.18
  -7  -3 -12    4.21    0.46
   3   7 -12    3.44    0.32
  -3  -7 -12    3.46    0.39
  -7   3  12    4.26    0.38
  -3   7  12    3.92    0.45
  -7   3  12    3.62    0.41
   7   3 -12    3.93    0.46
   3   7 -12    3.40    0.48
  -3   7  10    1.15    0.27
  -7  -3 -10    0.84    0.26
   7   3 -10    1.36    0.30
   3   7 -10    0.88    0.31
  -7   3  10    1.22    0.22
   3   7 -10    1.25    0.19
  -7   3  10    1.39    0.27
  -3  -7 -10    1.43    0.29
   3   7 -10    0.90    0.32
  -7   3   8   23.58    0.79
   7   3  -8   22.25    0.93
   3   7  -8   24.02    0.71
  -3  -7  -8   21.96    0.90
  -3   7   8   23.64    0.95
   3   7  -8   23.56    0.99
  -7   3   8   22.71    0.91
   3   7  -8   23.24    0.96
  -7  -3  -8   22.84    0.96
  -7   3   6    0.92    0.18
   3   7  -6    1.03    0.12
   3   7  -6    1.19    0.20
  -7  -3  -6    1.37    0.27
  -7  -3  -6    0.93    0.21
  -3  -7  -6    0.94    0.24
  -7   3   6    1.14    0.18
   3  -7   6    1.05    0.22
   3   7  -6    0.88    0.27
  -3  -7  -6    1.14    0.21
  -3  -7  -6    1.05    0.19
   7   3  -6    1.04    0.25
  -3   7   6    1.18    0.24
   3   7  -6    0.88    0.30
  -7  -3  -4   27.46    0.92
  -7   3   4   28.55    0.93
  -3  -7  -4   27.55    0.83
   7   3  -4   28.64    1.00
   3   7  -4   27.87    1.00
  -7  -3  -4   27.17    0.99
   3   7  -4   28.92    1.04
   3   7  -4   28.55    0.91
  -3   7   4   29.78    1.00
  -7   3   4   30.10    0.96
  -3  -7  -4   29.63    0.91
   3   7  -4   26.62    0.66
  -7   3   4   29.42    0.84
  -3  -7  -4   28.20    0.98
  -3  -7  -4   30.83    0.94
   7  -3   4   30.42    0.99
   7  -3   2   34.74    1.02
   3   7  -2   34.59    1.08
  -7   3   2   33.79    1.08
   3   7  -2   33.16    1.12
  -3   7   2   32.21    0.78
  -7  -3  -2   33.65    1.07
  -7   3   2   33.91    0.94
  -3   7   2   34.32    1.00
  -7  -3  -2   34.89    1.03
   3   7  -2   35.12    1.07
   3   7  -2   31.75    0.77
  -3  -7  -2   34.02    0.92
  -7   3   2   33.61    1.02
  -3  -7  -2   33.44    0.92
   7  -3   2   35.91    1.02
  -3  -7  -2   37.03    1.05
  -3   7   0   11.71    0.45
   7  -3   0   12.52    0.47
   7   3   0   11.39    0.57
  -7  -3   0   12.05    0.55
  -3  -7   0   13.35    0.57
  -7   3   0   12.15    0.59
   7  -3   0   12.87    0.54
   3   7   0   12.00    0.41
   3   7   0   11.94    0.55
  -3   7   0   11.86    0.43
   7   3   0   11.65    0.60
  -7   3   0   11.71    0.47
   3  -7   0   11.59    0.57
  -3  -7   0   11.87    0.46
  -7  -3   0   11.60    0.56
  -3  -7   2   35.69    1.09
  -7   3  -2   33.03    1.11
  -7  -3   2   32.87    1.00
   7   3   2   33.29    1.04
  -7  -3   2   33.53    0.83
   7   3   2   33.70    1.05
   3  -7  -2   33.50    1.07
  -3   7  -2   34.11    0.98
   3   7   2   33.39    0.94
   7   3   2   33.17    1.12
  -7   3  -2   32.55    1.01
   7  -3  -2   34.80    1.03
   7  -3  -2   34.68    0.85
   7   3   4   30.33    1.05
   7   3   4   27.37    0.89
  -3   7  -4   26.88    0.94
   7  -3  -4   28.54    0.94
  -7   3  -4   27.94    1.04
   3  -7  -4   28.84    0.98
   3   7   4   28.66    0.92
  -7  -3   4   28.09    0.82
  -7  -3   4   29.97    1.02
  -7   3  -4   28.35    0.95
   3   7   4   30.48    0.87
  -7   3  -4   27.87    0.97
  -7   3  -6    1.09    0.24
  -7  -3   6    0.65    0.23
  -7   3  -6    1.26    0.25
   7  -3  -6    1.21    0.18
   7  -3  -6    1.00    0.25
   3  -7  -6    1.13    0.17
  -3   7  -6    0.99    0.25
   3  -7  -6    1.15    0.26
   7   3   6    1.03    0.21
  -7  -3   6    0.87    0.15
   3  -7  -6    1.05    0.28
   3   7   6    1.02    0.18
   3   7   6    0.97    0.22
  -7   3  -6    1.03    0.26
   3  -7  -8   22.22    0.98
   7  -3  -8   23.94    0.77
   3  -7  -8   22.02    0.61
  -3   7  -8   24.51    0.83
   7   3   8   21.91    0.72
  -7   3  -8   23.24    0.95
   3   7   8   24.31    0.84
  -7   3  -8   24.75    0.83
   3   7   8   21.95    0.93
   3  -7  -8   22.07    0.92
  -7  -3   8   21.47    0.89
  -7  -3   8   23.91    0.77
  -3  -7   8   24.94    0.78
  -7   3  -8   23.75    0.97
   3  -7  -8   23.70    0.74
  -3   7  -8   22.44    0.96
  -7   3 -10    0.87    0.27
   3  -7 -10    1.04    0.35
   3  -7 -10    1.50    0.18
   7   3  10    1.90    0.22
   3  -7 -10    1.39    0.19
  -7  -3  10    0.67    0.25
  -7   3 -10    1.42    0.27
  -7  -3  10    1.19    0.20
  -7   3 -10    1.37    0.25
   7  -3 -10    1.16    0.22
  -3   7 -10    0.91    0.23
  -3  -7  10    1.59    0.28
   3   7  10    1.19    0.28
  -3   7 -10    1.49    0.34
   7  -3 -12    3.77    0.35
  -7   3 -12    4.02    0.46
  -7  -3  12    4.16    0.37
  -3  -7  12    3.36    0.29
   3  -7 -12    3.64    0.30
  -3   7 -12    4.43    0.52
  -7   3 -12    3.91    0.41
   3   7  12    4.50    0.49
   3  -7 -12    3.61    0.53
  -3   7 -12    4.05    0.35
   3  -7 -12    4.21    0.32
   3  -7 -14    0.49    0.18
  -3   7 -14    0.88    0.39
   7  -3 -14    0.28    0.22
   3  -7 -14   -0.24    0.46
   3  -7 -14    0.44    0.21
  -3   7 -14    0.97    0.32
  -7  -3  14    0.16    0.21
  -7   3 -14    0.11    0.18
   3   7  14    0.41    0.29
  -3  -7  14    0.35    0.13
  -7   3 -16    1.00    0.44
   3  -7 -16    0.71    0.24
   7  -3 -16    1.21    0.30
  -7   3 -16    0.59    0.25
  -7  -3  16    1.06    0.26
   3   7  16    0.89    0.35
   3  -7 -16    0.33    0.43
  -3   7 -16    0.78    0.36
  -3   7 -16    1.17    0.33
   3  -7 -16    1.14    0.24
   3   7  18    2.70    0.50
  -7  -3  18    2.84    0.41
  -7   3 -18    2.68    0.38
   7  -3 -18    2.73    0.41
   3  -7 -18    2.54    0.36
  -7   3 -18    3.24    0.58
   3  -7 -18    2.43    0.56
  -3   7 -18    2.47    0.42
  -3   7 -18    2.80    0.52
   3  -7 -18    3.60    0.37
  -3   7 -20    0.47    0.39
   3  -7 -20    0.40    0.28
   7  -3 -20    0.33    0.25
  -7  -3  20    0.00    0.23
  -7   3 -20    0.04    0.20
   3   7  20    0.41    0.32
  -7   3 -20   -0.03    0.39
   3  -7 -20    0.40    0.45
  -3   7 -20    0.69    0.34
   3  -7 -20    0.66    0.25
   7  -3 -22    3.99    0.53
  -7  -3  22    3.47    0.50
   3  -7 -22    3.15    0.67
  -3   7 -22    4.80    0.69
  -7   3 -22    4.32    0.69
   3   7  22    4.49    0.66
   3  -7 -24   -0.30    0.55
   3   7  24    0.50    0.39
  -3   7 -24    1.44    0.53
  -7  -3  24    1.01    0.39
  -7   3 -24    1.52    0.58
  -7   3 -24    1.25    0.56
  -7   3 -26    1.88    0.62
   7   4 -25    0.29    0.43
  -7  -4 -25   -0.19    0.43
  -4  -7 -25    0.57    0.36
  -7  -4 -25    0.54    0.39
  -4  -7 -25    0.66    0.43
  -4   7  23    1.33    0.49
  -7   4  23    2.00    0.48
  -4  -7 -23    1.86    0.47
   4   7 -23    2.41    0.59
  -4  -7 -23    1.17    0.56
   7   4 -23    2.23    0.52
  -7  -4 -23    2.29    0.51
  -4  -7 -23    2.36    0.46
  -7  -4 -23    1.72    0.55
   4   7 -21    2.40    0.54
  -4  -7 -21    2.52    0.49
  -4   7  21    2.15    0.48
  -7   4  21    2.37    0.48
  -4  -7 -21    1.08    0.36
  -4  -7 -21    3.54    0.68
   7   4 -21    2.24    0.54
  -7  -4 -21    1.43    0.42
  -4   7  19    0.67    0.31
  -4  -7 -19    0.92    0.33
   4   7 -19    1.05    0.43
  -7   4  19    0.84    0.33
   7   4 -19    0.98    0.37
  -7  -4 -19    1.26    0.37
   7   4 -17    4.88    0.59
   4   7 -17    5.68    0.66
  -7   4  17    4.94    0.56
  -7  -4 -17    5.73    0.60
  -4   7  17    6.14    0.64
  -4  -7 -17    4.87    0.56
  -4  -7 -15    1.36    0.33
   4   7 -15    1.16    0.39
  -7   4  15    0.86    0.29
   7   4 -15    1.30    0.37
  -7  -4 -15    1.28    0.34
  -4   7  15    1.04    0.35
  -4  -7 -13    2.39    0.36
  -7  -4 -13    2.22    0.39
   7   4 -13    1.73    0.24
  -4   7  13    2.35    0.40
   4   7 -13    1.61    0.40
  -7   4  13    1.20    0.28
  -7   4  13    1.56    0.13
   4   7 -13    2.15    0.26
   7   4 -13    1.80    0.38
  -7   4  13    2.26    0.30
   4   7 -11    2.53    0.24
   7   4 -11    2.24    0.40
  -7  -4 -11    2.39    0.37
  -4   7  11    1.93    0.34
  -7   4  11    2.68    0.36
  -4  -7 -11    2.79    0.36
   4   7 -11    2.46    0.42
  -7   4  11    2.44    0.27
  -7   4   9   10.68    0.47
   7   4  -9    9.37    0.62
   4   7  -9   10.52    0.42
  -7  -4  -9    9.66    0.63
  -7   4   9   10.19    0.61
   4   7  -9   10.10    0.66
   4   7  -9    9.63    0.66
  -4   7   9    9.93    0.63
  -4  -7  -9    9.19    0.59
   4   7  -7   10.32    0.36
  -7  -4  -7   11.21    0.64
   4   7  -7   11.10    0.65
  -7   4   7   11.58    0.45
  -7   4   7   11.25    0.61
  -4   7   7   10.87    0.62
   4   7  -7   11.17    0.50
  -4  -7  -7   10.23    0.59
   4   7  -7   12.33    0.69
   7   4  -7   10.67    0.62
  -7   4   5   15.58    0.52
  -7  -4  -5   14.62    0.64
  -4  -7  -5   14.58    0.55
   4   7  -5   14.56    0.71
   7  -4   5   15.60    0.70
  -4  -7  -5   14.85    0.63
  -7  -4  -5   14.78    0.71
  -4   7   5   15.54    0.71
  -4   7   5   15.17    0.71
   7   4  -5   14.74    0.71
   4   7  -5   14.45    0.74
   4   7  -5   15.49    0.63
  -7   4   5   14.58    0.64
  -4  -7  -5   15.69    0.71
   4   7  -3   73.90    2.07
   4   7  -3   72.56    2.01
   7   4  -3   76.41    2.04
   7   4  -3   75.54    2.09
   4   7  -3   76.33    1.97
  -4  -7  -3   78.26    1.87
  -7  -4  -3   78.61    1.91
  -4  -7  -3   78.22    2.04
  -4  -7  -3   76.17    1.78
  -4   7   3   77.81    1.97
   7   4  -3   76.84    2.04
  -7   4   3   75.39    1.99
  -7   4   3   80.31    2.01
  -7   4   3   75.84    1.78
  -7  -4  -3   75.47    2.03
  -4  -7  -3   82.38    2.00
   7  -4   3   80.70    1.99
   7  -4   1    2.99    0.29
  -4   7   1    2.51    0.25
  -7   4   1    2.79    0.30
  -4   7   1    3.20    0.18
  -4  -7  -1    3.11    0.29
  -7  -4  -1    2.98    0.31
  -7  -4  -1    2.63    0.21
   4   7  -1    2.42    0.14
   4   7  -1    3.17    0.34
  -7  -4  -1    3.58    0.34
   7   4  -1    2.83    0.32
   4  -7   1    2.37    0.29
   4   7  -1    2.95    0.31
  -4  -7  -1    3.07    0.19
   7  -4   1    3.12    0.25
  -4  -7  -1    2.45    0.19
   4   7  -1    3.17    0.39
   7   4  -1    2.91    0.34
  -7   4   1    2.90    0.28
   7   4   1    2.66    0.32
  -7  -4   1    2.89    0.33
  -4   7  -1    2.62    0.23
  -7  -4   1    2.03    0.11
  -7   4  -1    2.57    0.31
   4   7   1    2.83    0.21
   7   4   1    3.10    0.34
  -7  -4   1    2.73    0.28
  -4  -7   1    2.86    0.30
   7  -4  -1    2.66    0.28
   4  -7  -1    2.57    0.30
   7  -4  -1    2.83    0.20
   7  -4  -3   75.02    1.63
   4  -7  -3   77.24    2.01
  -7   4  -3   73.58    2.04
   7  -4  -3   76.73    1.96
  -4   7  -3   74.04    1.88
   7  -4  -3   75.20    1.93
   4  -7  -3   72.31    1.96
   4   7   3   76.40    1.85
   7   4   3   71.50    1.91
   4   7   3   77.84    1.75
  -7  -4   3   73.48    1.99
   4  -7  -5   15.71    0.69
  -4   7  -5   15.46    0.69
  -7   4  -5   14.58    0.72
   7  -4  -5   15.07    0.67
   4  -7  -5   15.04    0.71
   7   4   5   15.08    0.45
   7  -4  -5   15.48    0.65
  -7  -4   5   15.25    0.47
   4   7   5   15.90    0.56
   4   7   5   15.21    0.65
  -7  -4   5   14.72    0.69
   7   4   5   14.70    0.62
  -7   4  -5   15.00    0.64
   4  -7  -7   11.80    0.58
   4   7   7   10.72    0.59
   7  -4  -7    9.88    0.59
  -4   7  -7   10.05    0.61
  -7   4  -7   11.64    0.64
   7   4   7   10.77    0.51
   4  -7  -7   11.67    0.63
   7  -4  -7   11.06    0.43
   4   7   7   12.01    0.51
  -7   4  -7   10.84    0.51
  -7  -4   7   10.51    0.59
   4  -7  -7   11.04    0.42
  -7  -4   7   10.38    0.42
  -4   7  -9   10.73    0.51
   4  -7  -9    9.32    0.33
  -4   7  -9    9.45    0.34
   7  -4  -9   10.82    0.46
  -7   4  -9   10.17    0.50
   4  -7  -9   10.06    0.42
  -4   7  -9    9.94    0.65
   4  -7  -9   10.50    0.63
   4   7   9   10.10    0.62
  -7  -4   9   10.15    0.46
   4   7   9   10.73    0.52
  -7   4  -9   10.34    0.62
   4  -7  -9    9.88    0.67
  -4  -7   9    9.64    0.51
  -7  -4   9    9.10    0.56
   4  -7 -11    2.88    0.24
   4  -7 -11    2.92    0.23
   4   7  11    2.34    0.37
  -7  -4  11    2.61    0.34
  -7   4 -11    2.63    0.34
  -4   7 -11    2.74    0.29
   4  -7 -11    2.48    0.29
  -7  -4  11    2.69    0.28
  -4   7 -11    3.21    0.44
   4  -7 -11    1.93    0.42
   7  -4 -11    2.43    0.26
  -4  -7  11    3.28    0.37
  -4   7 -13    2.42    0.44
   4  -7 -13    2.18    0.25
   7  -4 -13    2.57    0.30
  -4  -7  13    2.22    0.23
   4  -7 -13    1.86    0.23
  -7   4 -13    2.75    0.36
   4   7  13    1.88    0.38
  -7  -4  13    1.84    0.28
  -7   4 -13    2.05    0.44
   4  -7 -13    2.15    0.26
  -7  -4  13    2.72    0.35
   4  -7 -13    1.27    0.48
  -7  -4  15    1.16    0.28
   4  -7 -15    1.10    0.23
  -7  -4  15    0.99    0.26
  -7   4 -15    1.06    0.27
  -4   7 -15    1.30    0.43
  -7   4 -15    1.65    0.45
   4   7  15    0.57    0.31
   4  -7 -15    0.29    0.43
   4  -7 -15    0.96    0.20
   7  -4 -15    0.87    0.26
  -7   4 -17    5.11    0.49
  -7   4 -17    6.92    0.73
  -4   7 -17    4.03    0.59
  -7  -4  17    4.97    0.45
   4   7  17    5.12    0.60
  -4   7 -17    6.49    0.57
   4  -7 -17    4.52    0.63
   4  -7 -17    5.46    0.41
   7  -4 -17    6.22    0.51
  -7  -4  17    5.98    0.52
   4  -7 -17    5.84    0.46
   4   7  19    0.61    0.37
  -7   4 -19    1.07    0.29
   7  -4 -19    0.61    0.29
  -7   4 -19    0.85    0.40
   4  -7 -19    0.61    0.25
  -4   7 -19    1.03    0.42
  -7  -4  19    0.96    0.30
   4  -7 -19    0.07    0.44
  -4   7 -19    0.98    0.36
  -4   7 -21    1.65    0.49
  -4   7 -21    1.98    0.43
  -7   4 -21    2.61    0.60
   4   7  21    1.88    0.48
   7  -4 -21    1.72    0.37
  -7  -4  21    2.20    0.40
  -7   4 -23    2.59    0.61
  -7  -4  23    2.68    0.47
   4   7  23    2.00    0.49
  -4   7 -23    2.38    0.60
  -7   4 -23    3.37    0.63
  -7   4 -25    0.59    0.52
  -5  -7 -26    0.18    0.39
  -5  -7 -26    0.74    0.40
   7   5 -24    0.14    0.34
  -7  -5 -24    0.66    0.42
  -7   5  24    0.49    0.35
  -5  -7 -24    0.70    0.44
   5   7 -24    0.58    0.43
  -5  -7 -24    0.81    0.38
  -7  -5 -24    0.32    0.34
   5   7 -22    9.30    0.91
   7   5 -22    8.24    0.86
  -5   7  22    9.95    0.93
  -7  -5 -22    7.72    0.86
  -7   5  22    8.05    0.82
  -5  -7 -22    9.16    0.85
  -5  -7 -22    9.84    0.98
  -7  -5 -22    8.83    0.84
  -5  -7 -22    9.61    0.82
  -5  -7 -20   -0.03    0.26
   5   7 -20   -0.28    0.38
  -7  -5 -20    0.45    0.32
  -7   5  20    0.51    0.33
  -5   7  20    0.39    0.38
   7   5 -20    0.07    0.35
  -7  -5 -18    2.02    0.43
  -5  -7 -18    0.93    0.33
  -7   5  18    0.68    0.33
  -5   7  18    1.21    0.38
   5   7 -18    1.20    0.42
   7   5 -18    0.64    0.38
  -7  -5 -16    3.13    0.49
   7   5 -16    3.51    0.50
  -5   7  16    3.57    0.50
   5   7 -16    2.59    0.49
  -7   5  16    4.16    0.51
  -5  -7 -16    3.19    0.46
  -7   5  14    2.55    0.41
   5   7 -14    2.42    0.29
   5   7 -14    2.49    0.47
  -5  -7 -14    2.68    0.41
  -5   7  14    2.75    0.43
  -7  -5 -14    2.80    0.43
   7   5 -14    2.52    0.45
  -5  -7 -12    3.63    0.43
  -5   7  12    3.09    0.42
  -7  -5 -12    3.24    0.43
   7   5 -12    3.77    0.48
   5   7 -12    3.50    0.28
  -7   5  12    3.35    0.42
   5   7 -12    3.34    0.48
   5   7 -10    0.04    0.28
   5   7 -10   -0.05    0.34
  -7   5  10    0.27    0.14
  -7  -5 -10    0.20    0.23
   5   7 -10    0.30    0.12
   7   5 -10    0.33    0.27
  -5  -7 -10    0.13    0.23
  -5   7  10    0.30    0.21
  -7   5  10    0.34    0.23
   5   7  -8   30.15    1.22
  -5   7   8   33.59    1.22
   5   7  -8   31.22    1.22
  -7  -5  -8   33.16    1.23
  -5  -7  -8   32.51    1.20
  -7   5   8   31.79    1.19
  -7   5   8   33.48    0.90
   5   7  -8   31.66    0.81
   7   5  -8   34.11    1.24
  -7   5   6    2.10    0.17
  -7  -5  -6    1.99    0.30
  -5  -7  -6    2.12    0.27
   5   7  -6    2.04    0.39
   5   7  -6    1.97    0.26
  -5   7   6    2.27    0.31
   7   5  -6    2.11    0.32
  -5  -7  -6    1.88    0.28
   5   7  -6    1.89    0.33
  -7  -5  -6    2.07    0.27
   5   7  -4    2.88    0.34
   7   5  -4    3.22    0.35
  -7  -5  -4    2.99    0.33
  -7   5   4    3.18    0.20
  -5  -7  -4    3.18    0.34
  -7   5   4    3.41    0.32
   5   7  -4    3.15    0.42
  -5  -7  -4    2.88    0.26
  -7  -5  -4    3.07    0.28
  -5   7   4    3.77    0.37
  -5  -7  -4    3.09    0.21
  -5  -7  -4    3.09    0.32
   7   5  -4    2.96    0.39
   7   5  -4    3.00    0.34
   7  -5   4    3.18    0.31
   5   7  -4    2.85    0.30
   5  -7   2   45.87    1.36
   5   7  -2   45.58    1.36
  -5   7   2   40.93    0.99
  -7  -5  -2   43.57    1.18
  -7   5   2   43.79    1.35
   7   5  -2   40.91    1.34
  -7  -5  -2   45.52    1.36
  -5  -7  -2   44.20    1.07
   7   5  -2   44.89    1.38
  -5  -7  -2   44.81    1.15
   7   5  -2   42.93    1.39
  -5  -7  -2   47.71    1.36
  -5   7   2   46.91    1.30
  -5  -7  -2   43.39    1.35
   5   7  -2   42.18    1.35
   7  -5   2   46.18    1.28
  -7   5   2   45.67    1.33
   7  -5   2   45.27    1.31
   5   7  -2   42.41    1.40
   7  -5   0   29.60    0.89
  -5  -7   0   30.27    0.75
  -7  -5   0   29.55    1.01
   5   7   0   28.92    1.07
   7   5   0   29.24    1.06
  -5  -7   0   32.07    1.06
   5   7   0   30.70    0.76
  -5  -7   0   30.68    0.80
  -5   7   0   30.05    0.84
   7  -5   0   28.67    0.99
   5  -7   0   30.35    1.05
   5   7   0   31.16    1.08
  -7   5   0   30.79    1.07
  -7  -5   0   29.77    0.81
   5   7   2   45.89    1.17
   7   5   2   45.24    1.36
  -7  -5   2   42.82    1.30
   7  -5  -2   46.03    1.37
   5  -7  -2   45.55    1.39
  -5   7  -2   42.68    1.22
   5  -7  -2   44.70    1.36
   7  -5  -2   43.66    1.31
  -7  -5   2   41.85    1.38
  -7   5  -2   42.97    1.40
   7  -5  -2   45.93    1.12
   5  -7  -4    2.95    0.33
  -7   5  -4    3.22    0.36
   7  -5  -4    3.11    0.31
  -5   7  -4    3.07    0.32
  -7  -5   4    2.84    0.14
   7  -5  -4    3.06    0.33
   7  -5  -4    2.68    0.14
   5   7   4    3.50    0.22
   7   5   4    3.05    0.34
   5  -7  -4    3.46    0.34
   5   7   4    3.32    0.28
   7   5   4    2.48    0.13
  -7  -5   4    3.03    0.37
  -5   7  -6    2.21    0.33
   7  -5  -6    1.86    0.24
  -7   5  -6    1.70    0.31
   7   5   6    2.05    0.16
  -7   5  -6    2.21    0.27
   5   7   6    2.21    0.20
   5   7   6    1.77    0.26
  -7  -5   6    2.15    0.15
   7  -5  -6    2.24    0.31
   5  -7  -6    1.65    0.29
  -7  -5   6    2.17    0.32
   5  -7  -6    1.64    0.24
   7   5   6    2.39    0.30
   5  -7  -6    1.86    0.16
  -5   7  -6    2.04    0.32
  -5   7  -8   31.92    1.20
   5   7   8   33.66    1.01
   5  -7  -8   32.31    1.18
  -7  -5   8   32.34    0.90
  -5   7  -8   31.22    1.20
   5  -7  -8   32.18    1.09
   7  -5  -8   32.70    0.88
   7   5   8   34.04    0.96
  -5  -7   8   32.64    1.07
   7  -5  -8   33.24    1.05
  -7  -5   8   32.16    1.13
   5   7   8   32.33    1.17
  -7   5  -8   32.25    1.21
  -7   5  -8   32.54    1.00
   7  -5  -8   31.71    1.17
   5  -7  -8   33.69    0.87
  -5   7 -10    0.42    0.20
   7  -5 -10    0.21    0.14
  -5  -7  10    0.20    0.21
   5  -7 -10    0.22    0.10
   5  -7 -10    0.12    0.14
  -5   7 -10    0.30    0.29
  -7   5 -10    0.48    0.25
   5   7  10    0.43    0.24
   7   5  10    0.26    0.15
  -5   7 -10    0.03    0.10
  -5   7 -10    0.36    0.22
   7   5  10    0.63    0.27
  -7   5 -10    0.15    0.18
  -7  -5  10    0.07    0.13
   5  -7 -10    0.14    0.08
   5  -7 -10   -0.02    0.27
   7  -5 -10    0.34    0.14
  -7  -5  10    0.51    0.24
  -5  -7  10    0.09    0.23
   5   7  10    0.10    0.16
  -5   7 -12    2.63    0.36
  -5   7 -12    3.01    0.45
  -5   7 -12    3.24    0.28
  -7   5 -12    3.54    0.48
  -7   5 -12    3.40    0.41
   7   5  12    2.59    0.41
  -7  -5  12    3.09    0.30
   5   7  12    3.26    0.44
   5  -7 -12    3.15    0.24
   5  -7 -12    3.10    0.31
   7  -5 -12    2.98    0.28
   5  -7 -12    3.59    0.25
  -5  -7  12    3.49    0.33
  -7  -5  12    3.16    0.37
   7  -5 -14    2.65    0.31
  -5   7 -14    2.44    0.46
  -7   5 -14    1.99    0.34
   7   5  14    3.27    0.48
  -7  -5  14    2.60    0.32
   5  -7 -14    2.68    0.28
   5   7  14    2.40    0.43
   5  -7 -14    2.69    0.25
  -5  -7  14    2.90    0.30
  -7  -5  14    2.45    0.34
   5  -7 -14    2.86    0.28
  -7   5 -14    2.97    0.50
   7  -5 -16    3.20    0.36
   5   7  16    3.84    0.53
  -7   5 -16    2.82    0.39
   7   5  16    4.07    0.55
   5  -7 -16    3.77    0.35
  -7  -5  16    3.05    0.36
  -7  -5  16    2.62    0.35
   5  -7 -16    3.77    0.31
  -7   5 -16    3.61    0.56
  -5   7 -16    3.59    0.56
  -7   5 -18    1.08    0.43
   5  -7 -18    1.40    0.27
  -5   7 -18    2.25    0.45
   5   7  18    1.06    0.42
  -5   7 -18    1.25    0.46
  -7  -5  18    0.80    0.27
   7  -5 -18    1.25    0.28
  -7   5 -18    0.94    0.27
  -7   5 -20    0.64    0.43
  -7   5 -20    0.06    0.21
  -7  -5  20    0.25    0.25
  -5   7 -20    0.28    0.37
   5   7  20    0.28    0.36
  -5   7 -20    0.86    0.36
   5   7  22    8.85    0.88
  -7   5 -22    8.92    0.93
  -5   7 -22    9.61    0.96
  -7   5 -24    0.60    0.47
  -6  -7 -25    0.80    0.49
  -7  -6 -25    0.90    0.51
  -6  -7 -25    1.51    0.44
  -6  -7 -23    3.34    0.65
   7   6 -23    4.44    0.71
  -6   7  23    3.05    0.59
  -7  -6 -23    3.15    0.61
  -7   6  23    2.34    0.51
  -6  -7 -23    3.38    0.59
   6   7 -23    2.28    0.55
  -7  -6 -23    2.48    0.52
   7   6 -21    4.01    0.61
  -6   7  21    4.32    0.63
   6   7 -21    4.02    0.66
  -7   6  21    4.70    0.63
  -6  -7 -21    6.14    0.68
  -7  -6 -21    4.25    0.60
  -6  -7 -19    2.03    0.41
   6   7 -19    2.64    0.50
  -7  -6 -19    2.36    0.49
   7   6 -19    1.36    0.43
  -6   7  19    2.40    0.49
  -7   6  19    1.62    0.43
  -6  -7 -17    3.83    0.51
  -7  -6 -17    3.76    0.51
   6   7 -17    5.09    0.63
  -7   6  17    4.69    0.58
  -6   7  17    5.32    0.62
   7   6 -17    5.62    0.65
  -6   7  15    2.50    0.43
  -6  -7 -15    2.91    0.44
   6   7 -15    2.48    0.47
   7   6 -15    1.49    0.40
  -7   6  15    2.28    0.40
  -7  -6 -15    2.65    0.43
  -6  -7 -13    5.80    0.56
  -7  -6 -13    4.72    0.51
   7   6 -13    5.70    0.59
  -7   6  13    5.49    0.55
  -6   7  13    4.63    0.52
   7   6 -13    6.02    0.38
   6   7 -13    5.39    0.59
   6   7 -13    5.00    0.35
   7   6 -11    3.65    0.48
  -6   7  11    4.57    0.47
   6   7 -11    4.24    0.27
  -6  -7 -11    4.49    0.47
  -7  -6 -11    4.64    0.48
   6   7 -11    3.35    0.47
  -7   6  11    3.68    0.42
   6   7  -9   18.81    0.98
  -7  -6  -9   20.94    0.97
   7   6  -9   19.20    0.95
   6   7  -9   20.22    0.97
  -7   6   9   20.92    0.95
  -6   7   9   19.79    0.94
  -6  -7  -9   21.01    0.96
   6   7  -7   10.96    0.67
  -6  -7  -7   10.96    0.66
  -6   7   7    9.34    0.61
  -7  -6  -7   11.02    0.66
   7   6  -7   10.76    0.70
   6   7  -7   11.59    0.72
  -7   6   7   11.09    0.65
  -7   6   7   10.55    0.35
   7   6  -7   11.09    0.67
   6   7  -5    6.02    0.53
  -6  -7  -5    5.68    0.46
  -7   6   5    5.73    0.23
  -7  -6  -5    5.75    0.47
  -6  -7  -5    6.61    0.41
  -7  -6  -5    6.74    0.42
   7   6  -5    6.44    0.46
   6   7  -5    5.85    0.42
   7   6  -5    5.17    0.49
   6   7  -5    6.11    0.49
   7   6  -5    5.86    0.49
  -7   6   3   73.37    1.90
  -7   6   3   72.62    1.50
   7   6  -3   72.03    1.92
  -6  -7  -3   71.84    1.68
  -6  -7  -3   70.19    1.48
  -7  -6  -3   71.50    1.70
   6   7  -3   73.78    1.99
  -6   7   3   76.64    1.87
   7   6  -3   70.72    1.96
  -7  -6  -3   70.14    1.89
   7  -6   3   74.51    1.83
   6   7  -3   73.04    1.87
   6   7  -3   68.16    1.89
  -6  -7  -3   74.02    1.92
   7  -6   1    0.83    0.24
   6  -7   1    0.75    0.24
  -7  -6  -1    0.73    0.21
   7   6  -1    0.63    0.31
   6   7  -1    1.28    0.32
  -6  -7  -1    0.72    0.23
  -7  -6  -1    0.86    0.14
  -6  -7  -1    1.00    0.13
  -6  -7  -1    0.78    0.10
   6   7  -1    1.06    0.27
  -6   7   1    0.87    0.14
  -7   6   1    0.66    0.23
   7  -6   1    0.86    0.18
   7   6   1    1.53    0.33
  -7   6  -1    1.22    0.28
  -6   7  -1    1.11    0.19
   6   7   1    0.73    0.31
  -7  -6   1    0.85    0.10
  -6  -7   1    0.80    0.07
  -7  -6   1    0.78    0.20
   7  -6  -1    1.09    0.16
   7  -6  -1    1.10    0.27
   6  -7  -1    0.67    0.24
   7   6   3   69.63    1.97
  -7  -6   3   73.56    2.03
   6   7   3   70.81    1.98
  -7   6  -3   71.92    2.07
  -6   7  -3   70.10    1.88
  -6   7  -3   76.65    2.09
   6   7   3   75.47    1.81
   7  -6  -3   73.50    1.98
   7  -6  -3   74.99    1.69
   6  -7  -3   75.16    2.00
   7  -6  -5    5.99    0.42
  -6   7  -5    5.98    0.44
   7   6   5    6.24    0.25
   6  -7  -5    6.00    0.43
  -6   7  -5    5.53    0.47
   6   7   5    5.45    0.39
   7  -6  -5    6.04    0.46
   6  -7  -5    6.19    0.46
  -7   6  -5    6.38    0.50
  -6  -7   5    5.65    0.46
   7   6   5    5.37    0.43
   6   7   5    6.97    0.30
   7  -6  -5    5.32    0.21
  -7  -6   5    6.07    0.47
   7   6   7   10.92    0.60
   6  -7  -7   11.40    0.37
  -6  -7   7   11.26    0.61
   7  -6  -7   10.80    0.63
  -7  -6   7   10.02    0.34
  -7   6  -7   10.18    0.52
  -7  -6   7   11.31    0.63
   6  -7  -7   11.40    0.65
   6   7   7   11.38    0.47
   7   6   7   11.95    0.44
   6   7   7   11.10    0.61
  -6   7  -7   11.84    0.67
   6  -7  -7   11.71    0.60
  -6   7  -7   11.21    0.67
   7  -6  -7   11.95    0.59
  -7   6  -7   10.91    0.66
   7   6   9   18.86    0.89
   7   6   9   20.91    0.72
  -7   6  -9   20.19    0.97
   7  -6  -9   20.18    0.59
   6   7   9   21.42    0.75
  -7  -6   9   19.51    0.85
   7  -6  -9   19.58    0.91
   6  -7  -9   19.11    0.55
  -6   7  -9   18.66    0.91
   6   7   9   18.32    0.88
   6  -7  -9   21.00    0.94
   7  -6  -9   19.85    0.78
  -6   7  -9   19.97    0.67
  -7   6  -9   21.65    0.95
  -7   6  -9   19.86    0.71
  -6   7  -9   20.34    0.96
   6  -7  -9   19.48    0.80
  -6  -7   9   19.89    0.82
  -7  -6   9   19.44    0.62
  -6   7 -11    4.57    0.52
  -6  -7  11    3.71    0.37
   7   6  11    4.46    0.47
  -7   6 -11    3.88    0.50
  -7   6 -11    3.34    0.19
   6   7  11    4.50    0.48
  -7   6 -11    3.71    0.41
   7  -6 -11    4.45    0.34
  -6   7 -11    4.04    0.29
  -6   7 -11    4.05    0.25
  -7  -6  11    4.49    0.31
   7  -6 -11    4.18    0.27
   7   6  11    3.79    0.34
   6  -7 -11    4.13    0.23
  -6   7 -11    4.04    0.42
  -7  -6  11    3.90    0.39
  -7   6 -11    4.60    0.31
   6  -7 -11    3.96    0.22
   6  -7 -11    3.89    0.34
   7   6  13    5.48    0.56
  -7  -6  13    4.68    0.44
  -7   6 -13    5.23    0.50
  -6  -7  13    5.50    0.43
   7  -6 -13    5.50    0.35
   6  -7 -13    5.13    0.38
   6   7  13    5.42    0.57
  -7   6 -13    4.91    0.59
   7  -6 -13    5.04    0.35
  -7  -6  13    4.98    0.37
  -6   7 -13    4.91    0.48
  -6   7 -13    4.66    0.57
   6  -7 -13    4.71    0.27
   6  -7 -13    5.68    0.33
  -6  -7  15    2.50    0.31
  -7   6 -15    2.73    0.39
  -6   7 -15    2.73    0.49
   6  -7 -15    2.74    0.28
   7  -6 -15    2.53    0.28
  -7  -6  15    2.60    0.33
   6   7  15    2.35    0.43
  -7  -6  15    2.82    0.35
  -6   7 -15    2.04    0.36
   7   6  15    2.07    0.44
  -7   6 -15    2.67    0.50
  -7   6 -17    4.87    0.51
   7  -6 -17    5.29    0.43
  -7   6 -17    4.55    0.63
  -7  -6  17    4.48    0.43
   6   7  17    5.09    0.62
  -6   7 -17    5.52    0.67
   7   6  17    4.90    0.60
   6  -7 -17    4.56    0.39
   7   6  19    2.29    0.50
  -7   6 -19    2.04    0.52
  -6   7 -19    1.90    0.51
  -7  -6  19    1.94    0.34
   6   7  19    2.42    0.53
  -7   6 -19    1.31    0.32
  -6   7 -21    3.88    0.56
  -6   7 -21    4.63    0.68
  -7   6 -21    4.81    0.71
   6   7  21    5.13    0.69
  -7   6 -23    3.05    0.66
   6   7  23    4.08    0.68
  -6   7 -23    2.19    0.58
  -7  -7 -24    0.37    0.40
  -7  -7 -24    0.82    0.38
  -7   7  22    9.75    0.94
   7   7 -22   10.41    0.97
  -7  -7 -22   10.76    0.92
  -7  -7 -20    6.19    0.69
  -7   7  20    6.47    0.72
   7   7 -20    5.48    0.73
  -7  -7 -18    1.23    0.37
   7   7 -18    1.19    0.42
  -7   7  18    1.04    0.36
   7   7 -16   16.57    1.06
  -7  -7 -16   16.04    0.98
  -7   7  16   16.03    1.00
  -7  -7 -14   24.87    1.20
  -7   7  14   23.87    1.19
   7   7 -14   23.45    1.21
  -7  -7 -12    9.14    0.70
  -7   7  12    9.12    0.68
   7   7 -12    8.36    0.70
   7   7 -10   19.19    1.00
  -7  -7 -10   21.10    1.00
  -7   7  10   19.01    0.95
  -7  -7  -8   57.77    1.85
  -7   7   8   59.61    1.84
   7   7  -8   57.69    1.90
   7   7  -8   56.43    1.84
   7   7  -6    1.25    0.32
  -7  -7  -6    0.89    0.27
   7   7  -6    0.63    0.33
   7   7  -4   16.98    0.81
  -7  -7  -4   17.14    0.80
  -7  -7  -4   18.11    0.68
  -7   7   4   15.40    0.41
   7   7  -4   18.28    0.89
  -7  -7  -2   97.44    2.54
  -7  -7  -2   96.76    2.25
   7   7  -2   94.45    2.57
   7   7  -2   95.84    2.54
   7  -7   2   97.72    2.42
   7  -7   2   96.51    2.49
  -7   7   0   18.76    0.85
  -7  -7   0   18.45    0.80
  -7  -7   0   17.64    0.54
  -7  -7   0   17.77    0.48
   7  -7   0   18.63    0.81
   7  -7   0   19.46    0.70
   7   7   0   17.59    0.84
   7   7   2   93.72    2.48
  -7   7  -2   94.36    2.55
   7  -7  -2   96.16    2.45
   7  -7  -4   18.39    0.82
   7   7   4   19.06    0.84
  -7   7  -4   18.97    0.89
  -7  -7   4   19.23    0.86
  -7   7  -6    1.11    0.29
  -7   7  -6    1.25    0.28
  -7  -7   6    1.18    0.31
   7  -7  -6    0.87    0.09
   7  -7  -6    0.86    0.26
   7   7   6    1.25    0.24
   7   7   6    1.08    0.14
  -7   7  -8   56.42    1.81
  -7   7  -8   54.75    1.79
  -7   7  -8   59.01    1.55
   7   7   8   57.76    1.46
   7  -7  -8   57.39    1.77
   7   7   8   56.57    1.73
  -7  -7   8   56.20    1.69
  -7   7 -10   17.91    0.96
   7  -7 -10   18.69    0.92
  -7   7 -10   18.01    0.92
   7  -7 -10   18.30    0.79
  -7   7 -10   21.52    0.66
   7   7  10   17.63    0.90
  -7  -7  10   19.50    0.86
  -7   7 -10   19.42    0.69
   7   7  10   20.41    0.75
  -7   7 -12    8.99    0.73
  -7  -7  12    8.38    0.57
   7  -7 -12    8.04    0.49
   7  -7 -12    8.92    0.38
   7   7  12    8.62    0.67
  -7   7 -12    8.38    0.35
  -7   7 -12    9.08    0.40
  -7   7 -12    9.33    0.66
  -7   7 -14   25.50    1.26
   7   7  14   23.61    1.17
   7  -7 -14   23.37    0.78
  -7  -7  14   23.10    0.94
  -7   7 -14   22.73    1.07
  -7   7 -16   15.75    1.05
   7   7  16   16.36    1.02
   7  -7 -16   15.57    0.67
  -7  -7  16   16.15    0.75
  -7   7 -16   16.34    0.90
   7   7  18    1.08    0.40
  -7   7 -18    0.20    0.40
  -7   7 -18    1.48    0.33
  -7   7 -20    6.97    0.80
   7   7  20    5.00    0.67
  -7   7 -22   10.43    1.02
  -8   0   0    5.35    0.33
   8   0   0    4.47    0.26
   0   8   0    4.50    0.31
   8   0   0    4.63    0.30
   0  -8   0    4.79    0.31
  -8   0   0    4.10    0.35
   0  -8   0    4.63    0.34
   0  -8   0    4.78    0.26
  -8   0  -2    0.15    0.17
  -8   0   2    0.30    0.14
   0  -8  -2    0.23    0.13
  -8   0   2    0.09    0.16
   0   8  -2    0.18    0.16
   8   0  -2    0.20    0.11
   8   0  -2    0.20    0.14
   8   0   2    0.08    0.14
   0   8   2    0.10    0.15
   0  -8   2    0.06    0.17
   0  -8  -2    0.16    0.21
  -8   0  -2    0.16    0.17
  -8   0   2    0.39    0.14
   8   0   2    0.21    0.13
  -8   0   4   12.35    0.57
   8   0   4   12.02    0.59
   0  -8  -4   12.49    0.46
   0   8  -4   11.79    0.59
  -8   0   4   11.85    0.43
   0  -8   4   11.43    0.59
   0   8   4   12.76    0.57
  -8   0  -4   12.49    0.63
   0   8   4   12.22    0.57
   0  -8  -4   11.62    0.56
  -8   0   4   11.96    0.52
  -8   0  -4   12.04    0.48
  -8   0  -4   11.03    0.59
  -8   0  -6    1.17    0.25
   8   0  -6    1.31    0.23
  -8   0  -6    0.90    0.26
  -8   0   6    1.11    0.12
  -8   0   6    0.96    0.22
   0  -8  -6    1.03    0.15
   0  -8  -6    1.24    0.21
   0   8  -6    1.53    0.31
   0  -8  -6    1.09    0.22
   0   8   6    0.72    0.20
  -8   0   6    1.16    0.20
   0   8  -6    0.97    0.26
   0   8   6    0.87    0.20
   8   0   6    1.16    0.24
  -8   0  -8    0.44    0.24
   0  -8  -8    0.56    0.24
   0  -8   8    0.48    0.17
  -8   0   8    0.53    0.14
  -8   0   8    0.43    0.19
   0   8  -8    0.59    0.27
   0   8  -8    0.77    0.29
   0  -8  -8    0.70    0.19
   8   0   8    0.49    0.24
   0   8   8    0.46    0.22
   0   8  -8    0.49    0.11
  -8   0   8    0.55    0.17
   8   0  -8    0.62    0.23
   0  -8  -8    1.08    0.40
  -8   0  -8    1.25    0.30
  -8   0  10   26.00    0.76
  -8   0  10   24.79    0.95
   0  -8 -10   24.65    0.93
   0   8  10   23.15    1.04
   8   0 -10   24.76    0.96
   0   8 -10   25.66    0.91
   0   8 -10   24.48    0.98
   0  -8 -10   23.61    1.11
   0   8 -10   27.13    1.13
  -8   0 -10   25.04    1.08
   0   8  12    3.10    0.43
   0   8 -12    4.15    0.50
   0  -8 -12    3.31    0.34
   0   8 -12    3.77    0.42
  -8   0  12    3.69    0.38
  -8   0  12    4.00    0.26
   8   0 -12    3.56    0.39
   0  -8 -12    3.77    0.58
  -8   0 -12    3.70    0.45
   0   8 -14    4.22    0.56
   0  -8 -14    4.99    0.44
   0  -8 -14    6.03    0.47
  -8   0 -14    4.68    0.54
   8   0 -14    5.80    0.53
   0   8  14    5.41    0.56
  -8   0  14    5.62    0.50
   0  -8 -14    5.53    0.68
  -8   0  14    5.33    0.35
   0  -8 -16    3.20    0.39
   8   0 -16    2.98    0.45
  -8   0 -16    2.68    0.48
  -8   0  16    2.39    0.38
   0  -8 -16    2.54    0.37
   0   8  16    3.16    0.50
   0   8 -16    3.23    0.53
   0  -8 -16    3.19    0.60
   0  -8 -18    0.00    0.21
   8   0 -18    0.00    0.29
  -8   0 -18   -0.05    0.22
   0   8  18    0.11    0.30
   0  -8 -18    0.07    0.24
   0   8 -18   -0.32    0.40
  -8   0  18    0.15    0.23
   0  -8 -18   -0.27    0.46
  -8   0 -18    0.51    0.36
   8   0 -20    0.55    0.31
  -8   0 -20    1.59    0.33
   0  -8 -20    1.37    0.35
   0   8 -20    1.95    0.49
  -8   0 -20    1.02    0.43
   0  -8 -20    1.42    0.34
   0   8  20    1.63    0.46
  -8   0  20    1.02    0.36
   0  -8 -20    1.80    0.55
  -8   0 -20    1.02    0.39
  -8   0 -22    1.57    0.52
   0   8  22    2.02    0.51
   0  -8 -22    1.87    0.59
  -8   0  22    0.98    0.35
   0   8 -22    1.42    0.51
   8   0 -22    0.74    0.34
   0  -8 -22    1.86    0.40
   0   8 -24    1.08    0.47
   8   0 -24    1.35    0.44
  -8   0 -24    0.55    0.45
  -8   0  24    1.58    0.43
  -8   0  26    0.64    0.44
   8   1 -25    1.72    0.51
  -8   1  25    2.71    0.55
  -1  -8 -23    2.87    0.47
  -1   8  23    2.08    0.54
  -8   1  23    2.71    0.53
   1   8 -23    2.76    0.60
  -8  -1 -23    3.39    0.64
   8   1 -23    3.40    0.56
  -1  -8 -23    3.60    0.69
  -1   8  21    2.15    0.50
  -1  -8 -21    1.40    0.39
   8   1 -21    1.70    0.44
  -1  -8 -21    1.35    0.53
  -8   1  21    1.35    0.40
  -8  -1 -21    1.86    0.33
  -8  -1 -21    2.12    0.48
   1   8 -21    1.72    0.50
  -1  -8 -21    1.27    0.36
  -8  -1 -21    1.61    0.53
   1   8 -19    1.39    0.46
  -1  -8 -19    1.08    0.35
  -1  -8 -19    1.49    0.36
  -1   8  19    1.35    0.41
  -8   1  19    1.05    0.35
  -8  -1 -19    1.02    0.34
  -1  -8 -19    0.92    0.51
   8   1 -19    0.99    0.37
   8   1 -17   11.14    0.80
  -8  -1 -17   11.24    0.84
  -1   8  17   10.83    0.85
   1   8 -17   11.00    0.88
  -1  -8 -17   12.23    0.96
  -1  -8 -17   11.37    0.72
  -8   1  17   11.76    0.80
  -1  -8 -17   10.52    0.71
  -1   8  15   12.17    0.84
  -1  -8 -15   11.24    0.69
  -8   1  15   11.06    0.74
  -1  -8 -15   12.52    0.92
   8   1 -15   10.53    0.74
   1   8 -15   12.39    0.87
  -8  -1 -15   11.84    0.82
  -1  -8 -13    7.21    0.53
   1   8 -13    6.66    0.64
  -8   1  13    6.90    0.53
  -1   8  13    6.46    0.58
   1   8 -13    6.93    0.55
   8   1 -13    6.84    0.56
  -1  -8 -13    8.83    0.77
  -8  -1 -13    6.88    0.60
  -8   1  13    6.37    0.33
  -1  -8 -11    3.05    0.34
   8   1 -11    3.00    0.38
  -1   8  11    2.75    0.39
  -8  -1 -11    2.61    0.39
   1   8 -11    2.94    0.30
  -8   1  11    3.07    0.35
   1   8 -11    2.26    0.39
   1   8 -11    2.35    0.39
  -8   1  11    2.61    0.18
   8  -1  11    2.96    0.34
   1   8  -9    5.20    0.47
  -8  -1  -9    5.45    0.48
   8   1  -9    6.00    0.46
  -1  -8  -9    5.39    0.41
  -8   1   9    5.22    0.40
  -1   8   9    5.93    0.49
  -8   1   9    5.92    0.43
   1   8  -9    5.19    0.25
  -8   1   9    5.27    0.22
   1   8  -9    5.14    0.49
  -8   1   9    5.76    0.32
   8  -1   9    5.40    0.42
   1   8  -9    6.02    0.37
   1   8  -7   45.91    1.14
   8   1  -7   42.14    1.33
  -8   1   7   39.72    0.97
  -8   1   7   44.73    1.22
  -1  -8  -7   43.78    1.32
  -1  -8  -7   43.96    1.32
  -1   8   7   47.81    1.42
  -8   1   7   45.29    1.31
  -8  -1  -7   44.25    1.43
   1   8  -7   43.38    1.39
  -8   1   7   43.89    1.31
  -8  -1  -7   47.52    1.42
   1   8  -7   43.74    1.43
   8  -1   5   52.13    1.50
   1   8  -5   49.03    1.49
  -8   1   5   47.90    1.15
  -8   1   5   51.54    1.41
   1   8  -5   49.96    1.52
  -1  -8  -5   50.15    1.45
  -8  -1  -5   47.23    1.49
  -8   1   5   49.98    1.39
  -1  -8  -5   49.56    1.40
   1  -8   5   53.37    1.52
   8   1  -5   48.45    1.44
  -1   8   5   49.53    1.46
  -8   1   5   52.23    1.42
  -1  -8  -5   54.22    1.33
  -1  -8  -5   50.44    1.43
  -8  -1  -5   51.66    1.52
  -1   8   5   50.58    1.47
  -8  -1  -3    0.99    0.22
   8  -1   3    1.22    0.20
  -1   8   3    1.13    0.22
  -8  -1  -3    1.13    0.21
  -8   1   3    1.23    0.20
   1  -8   3    1.27    0.25
  -1   8   3    1.05    0.21
   1   8  -3    0.91    0.24
  -8   1   3    1.42    0.15
  -8   1   3    1.43    0.21
  -1  -8  -3    1.23    0.22
  -1  -8  -3    1.42    0.19
  -8   1   1   43.49    1.17
  -8  -1  -1   44.16    1.27
   1  -8   1   46.28    1.23
  -1  -8  -1   47.54    1.23
   8   1  -1   44.11    1.09
   1   8  -1   42.39    1.25
   8  -1   1   44.17    1.22
   8   1  -1   45.09    1.20
  -1   8   1   43.92    1.14
  -8  -1  -1   48.53    1.30
   8  -1   1   45.69    1.17
  -1  -8  -1   44.44    1.26
  -8   1   1   44.39    1.19
   1  -8   1   44.99    1.31
  -1  -8   1   45.53    1.26
   1  -8  -1   46.33    1.14
  -8  -1   1   42.76    1.20
   8  -1  -1   44.74    1.14
   8   1   1   45.23    1.25
  -1   8  -1   43.46    1.20
   1   8   1   44.54    1.18
   8  -1  -1   43.03    1.16
   8   1   1   44.30    1.06
  -8  -1   1   45.42    1.33
   1   8   1   43.79    1.21
   1  -8  -1   46.09    1.14
  -8   1  -1   43.26    1.23
   1  -8  -1   44.42    1.30
  -8  -1   1   41.96    1.29
  -8  -1   1   43.04    1.09
   1   8   3    1.34    0.21
  -8   1  -3    1.03    0.22
   8  -1  -3    1.06    0.19
  -8  -1   3    0.80    0.22
  -8   1  -3    1.19    0.20
   8   1   3    1.08    0.20
   1  -8  -3    1.30    0.14
  -1  -8   3    1.09    0.22
   1   8   3    1.08    0.20
  -8  -1   3    1.36    0.17
  -8  -1   3    0.98    0.16
   1  -8  -3    0.96    0.22
   8   1   3    1.24    0.26
  -8   1  -3    1.31    0.30
   1  -8  -3    1.46    0.26
  -1   8  -3    0.94    0.20
   1  -8  -5   51.42    1.48
   8  -1  -5   50.27    1.42
  -8  -1   5   51.55    1.30
   1  -8  -5   51.95    1.42
   1  -8  -5   50.26    1.48
   1  -8  -5   53.29    1.23
   1   8   5   48.89    1.46
  -1   8  -5   50.00    1.50
   8   1   5   52.61    1.56
  -8   1  -5   52.42    1.51
  -8   1  -5   52.14    1.26
  -8  -1   5   51.38    1.39
   1   8   5   54.41    1.46
  -8   1  -5   50.59    1.53
  -8  -1   5   52.86    1.51
  -1  -8   5   52.61    1.54
   1  -8  -7   45.02    1.28
  -8  -1   7   44.52    1.31
   1  -8  -7   45.04    1.37
  -1   8  -7   43.72    1.43
  -8   1  -7   45.27    1.36
   1   8   7   46.44    1.35
  -8  -1   7   43.82    1.26
  -1   8  -7   42.73    1.34
   1  -8  -7   44.42    1.43
   8  -1  -7   42.71    1.28
  -8   1  -7   43.52    1.43
   1   8   7   42.97    1.38
  -1  -8   9    5.15    0.39
  -8   1  -9    6.99    0.48
  -8  -1   9    5.32    0.38
   1  -8  -9    6.10    0.47
  -1   8  -9    5.13    0.43
   1   8   9    5.34    0.47
   1  -8  -9    6.75    0.59
  -1   8  -9    6.26    0.53
   1  -8  -9    5.25    0.37
  -1   8  -9    4.64    0.17
   8  -1  -9    5.43    0.41
  -8   1  -9    5.19    0.48
  -1   8 -11    3.41    0.39
  -1   8 -11    2.45    0.41
   1  -8 -11    3.03    0.31
  -1  -8  11    2.76    0.29
   1   8  11    2.76    0.39
  -8  -1  11    2.49    0.19
  -8   1 -11    2.32    0.38
  -8  -1  11    2.25    0.29
   1  -8 -11    2.85    0.51
   8  -1 -11    2.72    0.33
   1  -8 -13    7.09    0.48
  -8  -1  13    6.52    0.50
   1   8  13    7.44    0.63
   8  -1 -13    5.56    0.48
  -1   8 -13    7.31    0.67
   1  -8 -13    8.32    0.49
  -1   8 -13    6.76    0.51
  -1  -8  13    6.59    0.44
   1  -8 -13    7.35    0.70
  -8  -1  13    6.54    0.40
  -8   1 -13    7.32    0.62
  -1   8 -13    6.32    0.43
   8  -1 -15   10.75    0.69
   1  -8 -15   12.70    0.92
  -8   1 -15   10.69    0.69
   1   8  15   11.88    0.83
  -8  -1  15   12.15    0.73
  -1   8 -15   11.68    0.86
   1  -8 -15   11.85    0.64
  -1   8 -15   10.41    0.60
  -8   1 -15   12.08    0.82
   1  -8 -15   11.46    0.66
   8  -1 -17   11.14    0.74
   1  -8 -17   10.51    0.88
   1  -8 -17   10.58    0.65
   1   8  17   11.18    0.85
  -8   1 -17   11.12    0.71
  -8  -1  17   11.00    0.75
  -1   8 -17   10.88    0.66
  -1   8 -17   10.24    0.85
   1  -8 -17   10.94    0.68
  -8   1 -17   12.00    0.87
  -8   1 -19    0.95    0.46
  -8  -1  19    1.22    0.35
  -8   1 -19    1.13    0.29
   1   8  19    0.43    0.35
  -1   8 -19    1.18    0.42
   1  -8 -19    1.06    0.31
   1  -8 -19    1.56    0.32
   8  -1 -19    0.53    0.32
   1  -8 -19    1.21    0.52
  -8   1 -19    0.98    0.38
   1  -8 -21    2.20    0.39
   8  -1 -21    1.09    0.39
   1  -8 -21    1.65    0.53
  -8   1 -21    1.64    0.36
   1   8  21    2.04    0.49
  -8   1 -21    1.95    0.57
  -1   8 -21    1.92    0.53
  -8  -1  21    0.98    0.36
  -1   8 -23    3.47    0.65
   1  -8 -23    2.02    0.59
  -8  -1  23    3.45    0.53
   1   8  23    3.54    0.60
  -8   1 -23    3.20    0.62
   8  -1 -23    3.38    0.53
  -8  -1  25    3.13    0.58
   8   2 -26    2.74    0.57
   2   8 -24    0.08    0.42
  -8  -2 -24    0.11    0.42
  -8   2  24    0.29    0.37
   8   2 -24    0.01    0.39
  -8  -2 -24    0.68    0.39
  -2  -8 -24    0.89    0.36
   8   2 -22    0.90    0.38
  -2  -8 -22    1.09    0.37
  -8  -2 -22    0.88    0.40
  -2   8  22   -0.09    0.38
  -8   2  22    0.77    0.33
  -8  -2 -22    0.83    0.49
  -2  -8 -22    0.96    0.51
  -2  -8 -22    0.46    0.32
   2   8 -22    0.69    0.41
  -2  -8 -20    3.53    0.48
   2   8 -20    2.42    0.52
   8   2 -20    3.35    0.52
  -2   8  20    2.83    0.53
  -8   2  20    3.11    0.49
  -2  -8 -20    4.15    0.53
  -2  -8 -20    2.88    0.64
  -8  -2 -20    2.50    0.49
  -8   2  18    5.54    0.59
  -2   8  18    5.75    0.66
  -2  -8 -18    5.81    0.58
   8   2 -18    5.26    0.59
   2   8 -18    6.44    0.71
  -2  -8 -18    4.54    0.69
  -2  -8 -18    5.14    0.53
  -8  -2 -18    5.68    0.63
   8   2 -16    7.96    0.67
   2   8 -16   10.49    0.82
  -2   8  16    9.43    0.76
  -8   2  16    9.48    0.72
  -2  -8 -16   10.04    0.86
  -8  -2 -16    9.30    0.76
  -2  -8 -16    9.82    0.68
  -8   2  14    8.20    0.61
   2   8 -14    8.13    0.72
   8   2 -14    7.54    0.62
  -2  -8 -14    8.81    0.61
  -2   8  14    8.57    0.69
  -8  -2 -14    7.78    0.66
   2   8 -12   11.91    0.73
  -2  -8 -12   11.69    0.67
   2   8 -12   12.24    0.59
   2   8 -12   12.26    0.80
  -8   2  12   10.66    0.37
  -2   8  12   11.61    0.75
   8   2 -12   12.12    0.73
  -8   2  12   12.03    0.70
  -8  -2 -12   12.92    0.79
   2   8 -10   23.35    1.06
   8   2 -10   21.15    0.95
  -2  -8 -10   22.56    0.93
   2   8 -10   23.11    0.80
  -2   8  10   23.01    1.02
  -8   2  10   22.96    0.88
   2   8 -10   22.79    0.99
  -8   2  10   22.44    0.94
  -8  -2 -10   23.43    1.04
  -8  -2  -8   39.25    1.38
  -8   2   8   41.06    1.22
   8   2  -8   37.87    1.30
  -2   8   8   37.62    1.32
   2   8  -8   41.25    1.10
   2   8  -8   36.55    1.37
  -2  -8  -8   39.76    1.29
  -8   2   8   39.06    1.28
  -8   2   8   39.18    1.13
   2   8  -8   41.26    1.07
   2   8  -8   40.51    1.36
   2   8  -6    2.76    0.36
   2   8  -6    3.04    0.21
  -2  -8  -6    3.48    0.33
  -8   2   6    2.76    0.27
   2  -8   6    3.31    0.36
   2   8  -6    2.73    0.37
  -2   8   6    3.04    0.33
   2   8  -6    2.73    0.25
  -2  -8  -6    2.96    0.30
  -2  -8  -6    2.75    0.28
  -8   2   6    2.74    0.26
  -8  -2  -6    4.13    0.44
   8   2  -6    2.79    0.33
  -8  -2  -6    2.87    0.34
  -8  -2  -4   71.84    1.99
   2   8  -4   74.64    2.04
   8  -2   4   78.25    1.97
  -8   2   4   77.91    1.92
  -8   2   4   75.72    1.93
  -8   2   4   76.73    1.87
   8   2  -4   73.15    1.97
  -2  -8  -4   81.07    1.89
  -2   8   4   76.56    1.98
  -2  -8  -4   74.42    1.86
   2   8  -4   75.69    2.01
   2  -8   4   79.14    1.98
   2   8  -4   74.92    1.87
  -2  -8  -4   73.85    1.97
  -8  -2  -4   78.69    1.84
  -2  -8  -4   75.48    1.89
  -8   2   4   68.53    1.62
  -2  -8  -2   29.74    0.91
   2   8  -2   27.79    0.96
   2  -8   2   29.97    0.91
  -2   8   2   27.69    0.73
  -2  -8  -2   26.63    0.86
   8  -2   2   27.58    0.90
  -8  -2  -2   26.67    0.94
  -8   2   2   27.93    0.90
  -8   2   2   28.62    0.78
   8  -2   2   27.77    0.86
  -8  -2  -2   28.16    0.91
  -8   2   2   26.68    0.87
  -8   2   2   27.90    0.98
  -8   2   0    0.18    0.13
   2  -8   0    0.10    0.19
  -2  -8   0    0.21    0.15
  -2   8   0    0.13    0.12
  -8   2   0    0.10    0.18
  -8  -2   0    0.07    0.13
   8  -2   0    0.07    0.11
  -2  -8   0    0.08    0.15
   8   2   0    0.15    0.07
   8   2   0    0.17    0.12
  -8  -2   0   -0.12    0.22
   2   8   0    0.26    0.11
   8  -2   0    0.18    0.16
   2   8   0    0.15    0.15
   2  -8   0    0.26    0.14
  -8   2  -2   27.93    0.93
  -2   8  -2   29.97    0.92
   8   2   2   29.88    0.96
  -8  -2   2   28.67    0.90
  -2  -8   2   30.60    0.99
   2  -8  -2   30.10    0.77
  -8  -2   2   28.52    0.77
  -8   2  -2   27.92    1.03
   2   8   2   29.04    0.88
   8  -2  -2   28.91    0.90
  -8   2  -2   28.24    1.02
   8   2   2   29.97    1.06
   8   2   2   26.95    0.68
  -8  -2   2   29.53    1.05
   2  -8  -2   28.54    0.87
   2  -8  -2   30.57    1.00
   8  -2  -2   30.06    0.78
  -8  -2   4   74.49    1.82
   2  -8  -4   74.06    1.97
  -2  -8   4   77.66    2.01
  -2   8  -4   74.73    1.95
   8   2   4   78.06    1.99
   8   2   4   75.51    1.87
   2  -8  -4   69.88    1.61
  -8  -2   4   76.66    2.00
  -8  -2   4   75.17    1.79
   2   8   4   74.39    1.90
   2  -8  -4   76.11    1.93
  -8   2  -4   77.03    1.98
   2   8   4   81.95    1.89
  -8   2  -4   74.08    1.97
   8  -2  -4   74.49    1.88
  -8  -2   6    2.90    0.24
   2  -8  -6    2.89    0.15
   2  -8  -6    3.19    0.27
   2   8   6    3.02    0.32
  -2   8  -6    2.82    0.33
  -8  -2   6    2.81    0.26
   8  -2  -6    3.23    0.28
   8  -2  -6    2.88    0.32
   2  -8  -6    2.82    0.32
  -8   2  -6    2.96    0.19
  -2  -8   6    2.81    0.19
   2   8   6    2.87    0.28
   8   2   6    2.77    0.25
  -8  -2   6    2.65    0.35
  -8   2  -6    2.57    0.30
  -8   2  -6    3.16    0.35
   2  -8  -6    3.27    0.38
   2  -8  -8   39.02    1.15
  -8  -2   8   39.39    1.15
  -2   8  -8   41.71    1.25
  -8   2  -8   40.88    1.37
   2  -8  -8   41.19    1.32
  -2   8  -8   39.87    1.37
  -8   2  -8   40.36    1.24
   2   8   8   42.62    1.25
  -8   2  -8   38.73    1.36
   8   2   8   39.21    1.04
  -2   8  -8   36.50    0.95
   2  -8  -8   39.88    1.38
   2   8   8   38.16    1.31
   8  -2  -8   38.80    1.17
   2  -8 -10   21.40    1.03
  -8   2 -10   21.29    0.98
   8   2  10   20.13    0.62
  -2   8 -10   21.27    0.69
   2  -8 -10   22.25    0.96
  -2   8 -10   20.43    0.99
   2  -8 -10   24.16    0.72
  -8   2 -10   22.55    0.97
   2   8  10   22.85    1.00
  -8  -2  10   21.88    0.83
  -8   2 -10   22.81    0.86
  -2   8 -10   21.77    0.86
   2  -8 -10   20.97    0.79
   8  -2 -10   20.47    0.81
  -8  -2  12   12.32    0.41
   2  -8 -12   13.53    0.63
  -2  -8  12   11.69    0.58
  -2   8 -12   11.93    0.55
  -2   8 -12   13.01    0.82
   2   8  12   12.95    0.78
  -8   2 -12   12.46    0.77
  -8   2 -12   13.08    0.74
  -8  -2  12   13.05    0.66
   8  -2 -12   11.90    0.63
   2  -8 -12   14.01    0.57
   2  -8 -12   12.88    0.85
   8   2  12   10.53    0.38
  -2   8 -12   12.72    0.65
   2  -8 -14    9.77    0.56
  -2   8 -14    8.27    0.72
  -8   2 -14    9.02    0.70
  -2  -8  14    7.72    0.47
  -2   8 -14    7.99    0.52
   2   8  14    9.17    0.71
   2  -8 -14    8.67    0.51
  -8  -2  14    9.40    0.60
   8  -2 -14    8.62    0.58
   2  -8 -14    9.14    0.78
  -8  -2  14    8.25    0.49
  -8   2 -14    9.50    0.64
  -2   8 -16    8.36    0.77
   2  -8 -16    9.16    0.57
  -8  -2  16    9.08    0.65
   8  -2 -16    9.51    0.65
  -8   2 -16   10.25    0.68
  -8   2 -16    9.93    0.77
   2   8  16    9.89    0.78
  -2   8 -16   10.10    0.61
   2  -8 -16    9.29    0.86
   2  -8 -16    9.74    0.60
   2  -8 -18    5.62    0.49
   2  -8 -18    5.64    0.49
   8  -2 -18    4.97    0.54
  -8   2 -18    5.95    0.53
  -8   2 -18    5.78    0.70
  -8  -2  18    5.58    0.55
  -2   8 -18    5.38    0.67
   2  -8 -18    5.23    0.71
   2   8  18    6.20    0.69
  -2   8 -18    4.19    0.46
  -2   8 -20    2.67    0.54
   2   8  20    3.11    0.56
  -8   2 -20    3.75    0.45
   8  -2 -20    3.42    0.48
  -8  -2  20    2.91    0.45
  -2   8 -20    1.86    0.39
   2  -8 -20    1.69    0.55
  -8   2 -20    3.26    0.60
   2  -8 -20    2.82    0.39
   2  -8 -20    2.28    0.38
   2   8  22    1.38    0.46
  -2   8 -22    1.26    0.47
  -8  -2  22    0.60    0.31
   8  -2 -22    0.23    0.31
  -8   2 -22    1.61    0.51
   2  -8 -22    0.58    0.48
  -8   2 -24   -0.03    0.45
  -8  -2  24    0.41    0.30
   8   3 -25    0.84    0.46
  -8   3  25    0.59    0.37
  -3  -8 -25    0.55    0.34
   3   8 -23    0.80    0.47
   8   3 -23    0.14    0.38
  -3  -8 -23    0.25    0.33
  -8  -3 -23    1.58    0.55
  -3   8  23    0.63    0.44
  -8   3  23    0.52    0.38
  -3  -8 -23    1.52    0.62
  -8  -3 -23    0.92    0.39
  -3  -8 -23    0.37    0.31
  -8   3  21    1.13    0.37
   8   3 -21    0.60    0.38
  -3  -8 -21    0.08    0.30
   3   8 -21    0.70    0.41
  -3   8  21    0.53    0.32
  -3  -8 -21    1.23    0.55
  -8  -3 -21    0.61    0.37
  -3  -8 -21    0.64    0.31
  -3  -8 -19    0.36    0.25
   3   8 -19    0.47    0.40
  -8  -3 -19    0.05    0.28
   8   3 -19    0.15    0.31
  -3   8  19   -0.10    0.29
  -3  -8 -19    0.42    0.34
  -8   3  19    0.35    0.29
  -3  -8 -19    0.23    0.52
   8   3 -17    8.48    0.72
  -3   8  17    8.17    0.73
  -8   3  17    8.21    0.70
   3   8 -17    8.87    0.81
  -8  -3 -17    7.61    0.70
  -3  -8 -17    9.19    0.69
  -8  -3 -15    5.28    0.57
   8   3 -15    4.64    0.54
   3   8 -15    5.34    0.62
  -3   8  15    5.03    0.56
  -3  -8 -15    4.48    0.48
  -8   3  15    5.21    0.53
  -3  -8 -13   15.53    0.82
   3   8 -13   14.84    0.92
   3   8 -13   14.34    0.67
  -3   8  13   14.37    0.87
  -8  -3 -13   15.15    0.88
  -8   3  13   14.85    0.83
   8   3 -13   14.65    0.86
  -8   3  11    2.19    0.33
   3   8 -11    2.69    0.44
   8   3 -11    2.03    0.35
   3   8 -11    2.43    0.25
  -3  -8 -11    2.17    0.32
  -3   8  11    2.18    0.33
  -8  -3 -11    2.01    0.36
  -8   3  11    2.33    0.28
   3   8 -11    2.06    0.41
   8   3  -9   10.49    0.64
   3   8  -9   10.03    0.44
  -8   3   9    9.88    0.60
  -3  -8  -9    9.88    0.61
   3   8  -9   10.25    0.68
  -8   3   9   10.25    0.51
  -8  -3  -9    9.90    0.65
  -3   8   9   10.67    0.64
   3   8  -9    8.98    0.63
  -8  -3  -7   33.50    1.24
   8   3  -7   32.38    1.20
   3   8  -7   37.57    1.30
  -3  -8  -7   35.09    1.21
  -3   8   7   37.80    1.27
  -8   3   7   35.23    1.09
   3   8  -7   36.04    0.92
  -8   3   7   34.93    1.20
   3   8  -7   34.72    1.26
   3   8  -7   35.51    1.04
  -8   3   7   36.56    1.06
   3   8  -5   10.09    0.34
   3   8  -5   10.99    0.52
  -3  -8  -5   11.32    0.60
  -8   3   5   11.22    0.49
   3   8  -5   11.57    0.63
  -8  -3  -5   10.90    0.56
   8  -3   5   12.28    0.61
  -3  -8  -5   10.34    0.49
  -3  -8  -5   12.19    0.55
  -3   8   5   10.72    0.59
   8   3  -5   10.52    0.60
  -8   3   5   10.65    0.53
  -3  -8  -5   11.43    0.54
  -8  -3  -5   10.61    0.61
   3   8  -5   10.55    0.64
  -3  -8  -3    6.63    0.40
  -3  -8  -3    6.63    0.36
   3   8  -3    5.66    0.42
  -8  -3  -3    6.21    0.43
  -3  -8  -3    6.20    0.43
   3   8  -3    6.11    0.51
   8  -3   3    6.45    0.41
  -8   3   3    5.99    0.43
  -8   3   3    6.59    0.36
  -8  -3  -3    6.38    0.38
   3   8  -3    6.05    0.23
  -3  -8  -3    6.19    0.35
   3   8  -3    6.21    0.42
  -8   3   3    6.51    0.41
  -8  -3  -1   19.24    0.75
   8  -3   1   19.37    0.68
  -8  -3  -1   17.49    0.74
  -8   3   1   19.20    0.72
   3  -8   1   19.17    0.67
  -8   3   1   19.07    0.79
  -8   3   1   18.77    0.61
  -3  -8  -1   19.65    0.74
   3   8  -1   19.11    0.55
  -3   8   1   18.64    0.56
  -3   8   1   18.63    0.65
  -3  -8  -1   19.32    0.66
   8  -3   1   18.94    0.71
   3  -8   1   18.94    0.77
   3   8  -1   17.54    0.74
  -8   3  -1   18.59    0.81
   8   3   1   18.52    0.71
  -3  -8   1   18.38    0.74
   8  -3  -1   19.76    0.61
  -3   8  -1   17.59    0.63
  -8  -3   1   17.92    0.49
   3   8   1   18.39    0.61
   8   3   1   17.14    0.75
   8  -3  -1   18.90    0.70
   3  -8  -1   19.71    0.58
  -3   8  -1   18.40    0.56
   3  -8  -1   18.70    0.77
  -8  -3   1   18.96    0.79
  -8  -3   1   18.39    0.71
  -8   3  -1   17.84    0.67
  -8   3  -3    5.72    0.39
  -3  -8   3    5.75    0.42
   8   3   3    6.08    0.41
  -8  -3   3    5.70    0.36
   8  -3  -3    5.57    0.23
   3   8   3    6.26    0.37
  -8  -3   3    5.39    0.27
   8  -3  -3    5.49    0.39
   8   3   3    5.17    0.38
   3  -8  -3    5.36    0.42
  -3   8  -3    4.99    0.21
  -3   8  -3    5.99    0.39
  -8   3  -3    6.09    0.46
   3   8   5   11.27    0.56
  -3   8  -5   11.52    0.60
  -8  -3   5    9.90    0.61
  -8  -3   5   10.96    0.48
  -8   3  -5   10.07    0.61
   3  -8  -5   11.84    0.61
   8  -3  -5   11.51    0.57
  -8  -3   5   10.92    0.43
   8   3   5   10.26    0.51
   3  -8  -5   10.88    0.58
  -8   3  -5   11.97    0.60
   3   8   5   11.53    0.50
  -8   3  -5   11.07    0.59
   3  -8  -7   36.40    1.02
  -3   8  -7   35.00    1.24
   3   8   7   34.85    1.19
   8  -3  -7   37.02    1.04
  -8   3  -7   35.25    1.25
  -8  -3   7   35.91    1.10
   8  -3  -7   35.06    1.18
  -8   3  -7   32.12    0.83
   3   8   7   36.34    1.09
  -8  -3   7   34.41    1.21
   3  -8  -7   36.55    1.22
   8   3   7   33.03    1.01
   3  -8  -7   34.58    1.22
  -3  -8   7   36.79    0.97
  -8  -3   7   34.64    1.00
  -8   3  -7   34.03    1.22
  -8   3  -7   35.23    1.12
  -3   8  -9   10.19    0.55
  -8  -3   9   10.36    0.62
   3  -8  -9    9.90    0.47
   3  -8  -9    9.34    0.35
  -3   8  -9    9.39    0.65
  -8   3  -9   10.74    0.64
  -8   3  -9   10.72    0.66
   3   8   9   10.75    0.65
   3  -8  -9   10.15    0.63
  -8   3  -9   10.78    0.55
  -8  -3   9   10.81    0.50
   3  -8  -9    9.56    0.66
  -3  -8   9   10.95    0.49
   8   3   9   10.19    0.45
   8  -3  -9    9.82    0.49
   8   3  11    2.51    0.24
   3  -8 -11    2.59    0.26
   3   8  11    2.83    0.40
   3  -8 -11    2.64    0.22
  -3   8 -11    2.36    0.32
  -3   8 -11    3.06    0.45
  -8  -3  11    2.54    0.29
  -8   3 -11    2.95    0.37
  -3   8 -11    3.32    0.31
   3  -8 -11    1.61    0.41
   8  -3 -11    3.02    0.31
  -8  -3  11    2.84    0.37
  -8   3 -11    2.52    0.40
   3  -8 -13   15.22    0.67
  -8   3 -13   15.03    0.80
  -8  -3  13   13.30    0.44
  -8   3 -13   14.95    0.88
  -8  -3  13   15.48    0.74
  -3   8 -13   14.44    0.90
  -3  -8  13   14.01    0.63
   3  -8 -13   14.94    0.94
  -3   8 -13   14.45    0.66
   3  -8 -13   14.83    0.61
  -8  -3  13   14.94    0.78
   8  -3 -13   14.36    0.69
  -3   8 -13   14.86    0.68
   3   8  13   16.13    0.91
   8   3  13   13.48    0.50
   3   8  15    6.17    0.61
  -3   8 -15    5.33    0.62
  -8   3 -15    4.73    0.46
   8  -3 -15    4.85    0.44
  -8  -3  15    4.52    0.44
   3  -8 -15    4.47    0.63
  -3   8 -15    4.64    0.43
   3  -8 -15    4.94    0.39
   3  -8 -15    4.85    0.40
   8  -3 -17    8.26    0.61
  -8   3 -17    7.80    0.79
  -8   3 -17    8.42    0.63
   3  -8 -17    7.72    0.52
  -3   8 -17    8.61    0.80
   3   8  17    7.71    0.71
  -3   8 -17    6.95    0.55
   3  -8 -17    7.71    0.78
  -8  -3  17    7.78    0.61
   3  -8 -17    9.11    0.56
   3  -8 -19   -0.06    0.22
  -8   3 -19   -0.27    0.41
  -8   3 -19    0.31    0.25
  -8  -3  19    0.00    0.23
   3   8  19    0.30    0.35
   3  -8 -19   -0.20    0.43
  -3   8 -19    0.13    0.28
   8  -3 -19    0.25    0.25
  -3   8 -19   -0.11    0.37
   3  -8 -19    0.11    0.18
  -3   8 -21    0.54    0.43
  -8   3 -21    0.23    0.38
   8  -3 -21   -0.11    0.27
   3   8  21    0.41    0.36
  -8  -3  21    0.63    0.33
   3  -8 -21    0.35    0.44
  -8   3 -21    0.86    0.30
  -3   8 -23    1.44    0.55
  -8   3 -23    1.52    0.53
   3  -8 -23   -0.03    0.52
   3   8  23    0.87    0.42
  -8  -3  23    0.61    0.35
  -8   3 -25    2.21    0.62
  -4  -8 -26    0.34    0.33
  -4  -8 -24    0.08    0.35
  -8  -4 -24    0.14    0.39
  -4  -8 -24    0.16    0.34
  -8   4  24   -0.21    0.39
   8   4 -24    0.33    0.40
  -8  -4 -24    0.97    0.42
  -8   4  22    1.73    0.43
  -4   8  22    1.67    0.47
   8   4 -22    1.22    0.45
   4   8 -22    1.92    0.53
  -4  -8 -22    1.95    0.66
  -8  -4 -22    1.21    0.37
  -4  -8 -22    1.33    0.41
  -4  -8 -22    1.51    0.39
  -4  -8 -20    0.50    0.27
   8   4 -20    1.02    0.39
  -4   8  20    1.01    0.38
  -4  -8 -20    1.14    0.37
   4   8 -20    1.73    0.49
  -8  -4 -20    1.02    0.38
  -8   4  20    0.95    0.38
  -4  -8 -20    2.42    0.66
   4   8 -18    6.34    0.71
  -8   4  18    5.97    0.64
  -4   8  18    5.55    0.66
   8   4 -18    6.60    0.69
  -8  -4 -18    6.46    0.67
  -4  -8 -18    6.27    0.62
  -8  -4 -16    0.30    0.30
  -8   4  16    0.14    0.24
   4   8 -16    0.22    0.33
  -4   8  16   -0.34    0.34
  -4  -8 -16    0.36    0.25
   8   4 -16    0.42    0.31
  -8  -4 -14    1.09    0.32
   8   4 -14    1.30    0.38
   4   8 -14    1.44    0.23
  -4   8  14    0.97    0.34
  -8   4  14    1.45    0.35
  -4  -8 -14    1.48    0.32
   4   8 -14    1.67    0.43
  -4  -8 -12   12.50    0.75
   8   4 -12   12.80    0.80
   4   8 -12   12.85    0.84
  -4   8  12   14.04    0.83
   4   8 -12   14.00    0.60
  -8   4  12   14.45    0.80
  -8   4  12   12.58    0.62
  -8  -4 -12   13.47    0.82
  -8  -4 -10    2.18    0.36
  -4   8  10    2.73    0.38
   4   8 -10    1.65    0.37
  -8   4  10    2.25    0.25
   4   8 -10    2.20    0.21
  -4  -8 -10    2.32    0.33
  -8   4  10    1.75    0.31
   4   8 -10    1.74    0.40
   8   4 -10    1.98    0.37
  -8  -4  -8    5.99    0.52
   8   4  -8    5.80    0.50
   4   8  -8    6.55    0.55
  -8   4   8    6.99    0.38
   4   8  -8    6.23    0.28
  -8   4   8    6.50    0.49
   4   8  -8    6.49    0.57
  -4   8   8    6.78    0.51
   4   8  -8    6.50    0.39
  -4  -8  -8    6.09    0.48
   4   8  -6    0.34    0.30
  -8   4   6    1.45    0.18
  -8   4   6    0.96    0.20
  -4  -8  -6    0.64    0.21
  -4  -8  -6    0.87    0.18
   8   4  -6    0.83    0.27
   4   8  -6    0.52    0.24
   4   8  -6    0.55    0.07
  -4  -8  -6    1.34    0.22
   4   8  -6    0.99    0.21
  -4   8   6    0.75    0.22
  -8  -4  -6    1.05    0.25
  -8   4   4    3.62    0.33
   4   8  -4    3.43    0.32
   4   8  -4    3.50    0.37
  -8  -4  -4    3.36    0.35
  -4  -8  -4    3.49    0.36
   4   8  -4    3.06    0.40
  -8  -4  -4    3.02    0.29
  -4  -8  -4    3.91    0.27
  -4  -8  -4    3.47    0.28
   8   4  -4    3.13    0.34
  -4   8   4    3.90    0.39
  -8   4   4    3.76    0.25
   8  -4   4    3.50    0.33
  -4  -8  -4    3.84    0.33
   4   8  -2   12.68    0.71
   4   8  -2   14.36    0.66
   4   8  -2   13.41    0.65
  -8  -4  -2   12.77    0.64
   8   4  -2   14.21    0.71
  -4  -8  -2   13.13    0.65
  -4   8   2   12.80    0.37
  -8  -4  -2   12.97    0.53
   8  -4   2   13.29    0.59
  -4  -8  -2   13.21    0.49
  -4  -8  -2   13.84    0.50
  -4   8   2   13.13    0.57
  -4  -8  -2   14.31    0.64
  -8   4   2   14.22    0.62
   8  -4   2   14.56    0.60
  -8   4   2   12.45    0.64
  -4  -8   0    1.76    0.19
   4   8   0    1.36    0.25
   8  -4   0    1.92    0.20
   4   8   0    1.52    0.29
  -8  -4   0    1.60    0.29
  -8  -4   0    1.82    0.25
  -4   8   0    1.66    0.18
  -8   4   0    1.82    0.29
  -4  -8   0    1.77    0.26
   4   8   0    1.54    0.15
  -4   8   0    1.50    0.21
   8   4   0    2.06    0.32
   8  -4   0    1.43    0.24
   4  -8   0    1.17    0.27
   8  -4  -2   14.82    0.47
  -4   8  -2   13.17    0.55
  -8   4  -2   12.46    0.68
  -8  -4   2   14.26    0.62
   4   8   2   13.78    0.53
  -8  -4   2   12.55    0.40
  -4  -8   2   13.47    0.66
   8  -4  -2   13.11    0.61
   8   4   2   13.50    0.64
   4  -8  -2   13.42    0.65
  -8  -4   4    3.26    0.37
  -8   4  -4    3.45    0.37
   4   8   4    3.68    0.31
  -4   8  -4    3.91    0.34
   8   4   4    3.26    0.32
  -8  -4   4    3.71    0.24
   4  -8  -4    3.72    0.37
   4   8   4    3.68    0.26
   8  -4  -4    3.83    0.34
   8   4   6    0.85    0.23
  -8   4  -6    1.15    0.25
   8  -4  -6    0.97    0.24
  -8  -4   6    1.04    0.14
  -4   8  -6    1.15    0.26
   4  -8  -6    0.93    0.16
  -8   4  -6    0.76    0.25
   4  -8  -6    0.77    0.23
   4   8   6    1.17    0.24
  -8  -4   6    0.56    0.25
   4   8   6    1.11    0.19
  -8   4  -8    5.83    0.42
   4   8   8    6.00    0.48
  -4   8  -8    5.92    0.51
   4  -8  -8    6.38    0.34
   4  -8  -8    5.44    0.47
   8  -4  -8    6.23    0.48
   8  -4  -8    6.79    0.36
   4   8   8    6.58    0.40
  -4  -8   8    6.63    0.39
  -8  -4   8    4.67    0.44
  -8  -4   8    6.40    0.34
   8   4   8    5.67    0.39
  -8   4  -8    6.99    0.53
   4  -8 -10    1.89    0.14
  -8  -4  10    2.54    0.37
  -4   8 -10    2.07    0.30
  -8  -4  10    2.33    0.25
  -4   8 -10    2.59    0.42
  -8   4 -10    2.56    0.32
  -8   4 -10    1.85    0.33
   8   4  10    2.31    0.28
   4   8  10    2.30    0.36
   4  -8 -10    1.82    0.35
   4  -8 -10    2.07    0.22
   4  -8 -10    2.07    0.42
   8  -4 -10    2.33    0.24
  -4  -8  10    2.82    0.32
  -4   8 -10    1.73    0.12
   4  -8 -12   14.18    0.59
  -8  -4  12   14.53    0.66
   4  -8 -12   13.87    0.51
   8  -4 -12   13.70    0.62
   8   4  12   13.00    0.56
  -4   8 -12   13.10    0.62
  -8  -4  12   13.29    0.73
   4  -8 -12   13.65    0.89
   4   8  12   13.17    0.81
  -8   4 -12   12.69    0.75
  -4   8 -12   13.46    0.87
   4  -8 -14    1.44    0.22
   4  -8 -14    1.50    0.26
  -8  -4  14    1.75    0.33
   8  -4 -14    2.04    0.29
   4  -8 -14    1.80    0.24
  -8   4 -14    1.56    0.33
   4   8  14    1.74    0.40
  -8  -4  14    1.59    0.28
  -4   8 -14    2.33    0.36
   8   4  14    1.75    0.25
   4  -8 -14    1.60    0.46
  -4   8 -14    1.83    0.44
  -4   8 -16   -0.16    0.35
  -8   4 -16    0.30    0.24
  -8   4 -16    0.01    0.36
  -8  -4  16    0.12    0.19
  -8  -4  16   -0.02    0.22
   4  -8 -16    0.51    0.19
   4  -8 -16    0.22    0.17
   4   8  16    0.28    0.30
   8  -4 -16    0.49    0.24
   4  -8 -16    0.03    0.42
  -4   8 -16    1.02    0.30
  -4   8 -18    6.14    0.72
  -8   4 -18    7.21    0.77
   8  -4 -18    6.45    0.54
  -8  -4  18    6.41    0.56
  -4   8 -18    6.17    0.55
   4  -8 -18    5.48    0.70
   4   8  18    7.07    0.71
  -8  -4  18    5.75    0.50
   4  -8 -18    6.27    0.46
  -8   4 -18    5.51    0.53
  -8  -4  20    0.58    0.26
  -8   4 -20    1.52    0.51
   4   8  20    0.82    0.37
   4  -8 -20    0.86    0.51
  -4   8 -20    1.40    0.49
  -8   4 -20    0.90    0.27
   8  -4 -20    0.28    0.25
   4   8  22    1.40    0.48
  -4   8 -22    1.58    0.49
  -8   4 -22    1.48    0.53
  -5  -8 -25   -0.61    0.48
  -5  -8 -25    0.51    0.38
  -8  -5 -23    1.00    0.50
  -5  -8 -23    0.40    0.40
   8   5 -23    0.95    0.46
  -5   8  23    0.35    0.35
   5   8 -23    1.58    0.56
  -8   5  23    1.60    0.44
  -5  -8 -23    2.08    0.70
  -8  -5 -23    1.50    0.46
  -5  -8 -23    1.11    0.38
  -5  -8 -21    0.20    0.28
   8   5 -21    0.43    0.45
   5   8 -21    0.64    0.41
  -8   5  21    0.17    0.35
  -5   8  21    0.91    0.40
  -8  -5 -21    0.19    0.38
  -8  -5 -19   -0.16    0.31
  -5  -8 -19   -0.47    0.31
   5   8 -19    0.26    0.38
  -8   5  19   -0.03    0.27
  -5   8  19    0.36    0.32
   8   5 -19    0.10    0.33
   8   5 -17    6.07    0.66
  -8  -5 -17    6.88    0.67
  -5   8  17    7.43    0.70
  -8   5  17    6.71    0.66
   5   8 -17    6.84    0.71
  -5  -8 -17    7.39    0.67
  -8  -5 -15    2.41    0.46
   5   8 -15    1.49    0.41
   8   5 -15    2.10    0.44
  -5   8  15    1.52    0.38
  -8   5  15    1.21    0.34
  -5  -8 -15    1.63    0.36
   8   5 -13   10.70    0.77
  -5  -8 -13    9.91    0.70
  -8  -5 -13   10.35    0.75
  -8   5  13   11.21    0.74
   5   8 -13   10.29    0.51
  -5   8  13   10.57    0.75
   5   8 -13   10.91    0.84
  -5  -8 -11    2.20    0.36
   5   8 -11    2.93    0.48
   5   8 -11    1.79    0.40
  -8   5  11    2.24    0.25
   5   8 -11    2.32    0.21
  -5   8  11    2.09    0.37
  -8   5  11    2.83    0.38
  -8  -5 -11    2.19    0.38
   8   5 -11    1.85    0.38
  -8  -5  -9    0.74    0.28
  -5  -8  -9    1.69    0.32
  -5   8   9    0.59    0.25
  -8   5   9    0.62    0.16
   5   8  -9    0.37    0.26
   5   8  -9    0.81    0.11
  -8   5   9    0.94    0.26
   8   5  -9    0.73    0.31
   5   8  -9    0.68    0.37
   5   8  -7   13.71    0.77
  -8   5   7   13.34    0.72
  -8  -5  -7   13.59    0.75
  -5  -8  -7   13.92    0.74
   5   8  -7   14.21    0.64
   5   8  -7   14.59    0.80
  -5   8   7   15.53    0.78
  -8   5   7   14.57    0.52
   8   5  -7   14.74    0.77
   5   8  -5    0.21    0.22
  -8   5   5    0.43    0.12
  -8  -5  -5    0.00    0.19
  -5  -8  -5    0.08    0.17
  -5  -8  -5    0.27    0.13
  -8  -5  -5    0.30    0.15
   8   5  -5    0.32    0.22
  -5  -8  -5    0.24    0.14
  -5   8   5    0.32    0.19
   5   8  -5    0.72    0.22
  -8   5   5    0.37    0.18
   5   8  -5    0.26    0.30
  -8   5   3    5.04    0.41
  -8  -5  -3    4.49    0.40
   5   8  -3    3.76    0.45
  -5  -8  -3    4.64    0.41
   5   8  -3    5.00    0.42
  -8  -5  -3    4.19    0.31
   8   5  -3    4.47    0.43
  -5  -8  -3    4.97    0.31
  -5  -8  -3    4.85    0.27
  -5   8   3    4.56    0.37
  -8   5   3    4.60    0.27
   8   5  -3    3.70    0.42
   8  -5   3    4.58    0.36
   8  -5   3    4.94    0.40
   5   8  -3    4.74    0.42
  -8  -5  -1   12.16    0.62
  -5   8   1   11.97    0.41
  -5  -8  -1   11.53    0.62
   5   8  -1   12.01    0.63
   8   5  -1   11.79    0.66
  -5  -8  -1   12.61    0.45
  -5   8   1   12.50    0.55
  -8  -5  -1   11.28    0.47
  -5  -8  -1   12.62    0.43
  -8   5   1   12.96    0.66
   8  -5   1   12.46    0.60
   5  -8   1   13.15    0.65
   5   8  -1   10.61    0.34
   8  -5   1   12.21    0.54
   5   8  -1   12.03    0.68
  -5   8  -1   12.08    0.50
  -8  -5   1   12.29    0.61
   5   8   1   13.05    0.46
  -8   5  -1   13.36    0.70
   8  -5  -1   13.08    0.62
   8   5   1   12.48    0.66
   5  -8  -1   12.23    0.65
   8  -5  -1   12.44    0.49
  -8  -5   3    3.96    0.41
   8  -5  -3    4.97    0.23
  -8   5  -3    4.37    0.41
   8   5   3    3.85    0.39
  -5   8  -3    4.47    0.35
   5  -8  -3    3.98    0.39
   5   8   3    4.34    0.31
   8  -5  -3    4.58    0.39
  -8  -5   3    4.90    0.37
   5  -8  -5    0.42    0.24
  -8  -5   5    0.18    0.25
  -8   5  -5    0.28    0.23
   5   8   5    0.58    0.14
  -5   8  -5    0.47    0.21
   8  -5  -5    0.19    0.15
   8  -5  -5    0.20    0.21
  -8  -5   5    0.36    0.08
   8   5   5    0.39    0.07
   8   5   5    0.17    0.23
   5   8   5    0.45    0.19
   8   5   7   13.67    0.64
   5  -8  -7   14.82    0.52
  -5   8  -7   14.43    0.75
   8  -5  -7   14.76    0.66
   8   5   7   14.85    0.50
   8  -5  -7   14.15    0.72
  -8  -5   7   13.78    0.48
  -8   5  -7   15.10    0.78
  -8  -5   7   14.79    0.75
   5  -8  -7   15.05    0.76
   5   8   7   14.65    0.58
  -8   5  -7   14.54    0.66
   5   8   7   13.07    0.69
  -8   5  -9    0.74    0.23
   8  -5  -9    0.86    0.16
   5  -8  -9    0.69    0.14
  -5   8  -9    0.82    0.32
   8   5   9    1.00    0.26
   8   5   9    0.57    0.15
   5   8   9    0.94    0.27
  -8   5  -9    0.55    0.27
   8  -5  -9    0.87    0.28
  -5   8  -9    1.52    0.29
  -8  -5   9    0.88    0.15
   5  -8  -9    0.75    0.29
   5   8   9    0.77    0.19
  -5  -8   9    0.94    0.23
  -8  -5   9    0.10    0.25
   5  -8 -11    2.46    0.22
  -5   8 -11    1.89    0.41
  -8  -5  11    1.95    0.24
   8   5  11    2.76    0.33
  -5   8 -11    1.56    0.12
  -5   8 -11    1.59    0.25
   5   8  11    2.52    0.40
   5  -8 -11    1.74    0.36
  -8   5 -11    1.94    0.35
   5  -8 -11    2.03    0.14
  -8  -5  11    2.21    0.36
  -8   5 -11    1.92    0.28
  -5  -8  11    2.27    0.34
   8  -5 -11    2.11    0.23
  -8   5 -13   10.02    0.80
  -5   8 -13   10.67    0.79
   5  -8 -13    9.74    0.56
  -8   5 -13   10.02    0.68
   5   8  13   11.04    0.76
  -8  -5  13   10.46    0.56
   8  -5 -13   10.53    0.54
   5  -8 -13   10.05    0.43
  -5   8 -13   10.39    0.51
  -8  -5  13    9.65    0.63
   5  -8 -13   10.17    0.48
  -8  -5  15    1.68    0.29
  -8  -5  15    1.38    0.30
   5  -8 -15    2.01    0.24
   5   8  15    2.02    0.43
  -5   8 -15    1.64    0.45
  -8   5 -15    1.57    0.33
  -8   5 -15    1.63    0.44
   8  -5 -15    1.90    0.27
   5  -8 -15    1.56    0.22
  -5   8 -17    6.99    0.59
  -8  -5  17    6.45    0.51
  -5   8 -17    4.90    0.64
   5   8  17    6.41    0.68
  -8  -5  17    6.92    0.54
  -8   5 -17    7.39    0.76
   8  -5 -17    7.18    0.52
  -8   5 -17    6.58    0.58
   5   8  19   -0.09    0.30
  -8   5 -19   -0.03    0.24
  -8   5 -19    0.35    0.40
  -8  -5  19    0.10    0.22
  -5   8 -19    0.26    0.40
  -5   8 -19    0.81    0.36
   5   8  21    0.18    0.39
  -8   5 -21   -0.24    0.44
  -5   8 -21    0.66    0.49
   5   8  23    0.68    0.40
  -8   5 -23    0.68    0.48
  -5   8 -23    1.28    0.52
  -8  -6 -24    0.32    0.47
  -6  -8 -24    0.58    0.43
   8   6 -24    0.23    0.45
  -8  -6 -24    0.15    0.33
  -6  -8 -24    0.01    0.31
   6   8 -22    1.98    0.54
   8   6 -22    1.66    0.53
  -6   8  22    1.48    0.48
  -6  -8 -22    2.77    0.53
  -8   6  22    2.39    0.52
  -8  -6 -22    2.66    0.53
  -8  -6 -20    1.59    0.42
  -6  -8 -20    2.25    0.50
   6   8 -20    3.34    0.59
  -6   8  20    2.00    0.46
  -8   6  20    2.86    0.52
   8   6 -20    2.56    0.53
  -8  -6 -18    3.89    0.58
   6   8 -18    3.53    0.59
  -6  -8 -18    2.67    0.45
   8   6 -18    3.21    0.54
  -6   8  18    2.57    0.52
  -8   6  18    3.86    0.54
  -8  -6 -16    1.84    0.41
   8   6 -16    1.80    0.44
  -6  -8 -16    1.97    0.39
  -8   6  16    2.14    0.40
   6   8 -16    1.80    0.46
  -6   8  16    2.34    0.44
  -8   6  14    6.40    0.60
   6   8 -14    5.54    0.63
   8   6 -14    6.40    0.64
  -8  -6 -14    4.56    0.54
  -6   8  14    6.25    0.60
  -6  -8 -14    6.99    0.62
   6   8 -12   14.65    0.93
   8   6 -12   14.06    0.88
   6   8 -12   14.39    0.56
  -8  -6 -12   15.79    0.91
  -6  -8 -12   14.52    0.86
  -8   6  12   15.72    0.89
  -6   8  12   15.13    0.88
   8   6 -10    3.85    0.49
  -6  -8 -10    3.86    0.44
  -8  -6 -10    3.01    0.41
  -8   6  10    3.05    0.24
  -6   8  10    3.43    0.43
   6   8 -10    3.45    0.20
  -8   6  10    3.39    0.41
   6   8 -10    2.72    0.47
   6   8 -10    4.12    0.50
  -8   6   8   10.53    0.67
  -8  -6  -8   11.30    0.71
   6   8  -8   11.69    0.76
  -6   8   8   11.11    0.68
   8   6  -8   11.74    0.72
  -6  -8  -8   11.34    0.70
   6   8  -8   10.85    0.71
  -8   6   8   11.00    0.41
   6   8  -6    2.61    0.42
  -8  -6  -6    2.63    0.35
   8   6  -6    2.57    0.38
   6   8  -6    2.90    0.33
  -6  -8  -6    3.08    0.37
   6   8  -6    2.74    0.38
  -6   8   6    3.61    0.39
   8   6  -6    2.51    0.43
  -8   6   6    2.62    0.18
  -8   6   4    3.24    0.20
   6   8  -4    2.13    0.40
  -8  -6  -4    3.37    0.38
   8   6  -4    2.96    0.42
   6   8  -4    2.80    0.36
  -8  -6  -4    2.77    0.28
  -6  -8  -4    3.01    0.27
  -8   6   4    3.19    0.36
  -6  -8  -4    3.13    0.36
   8   6  -4    3.13    0.37
  -6  -8  -2   34.75    1.23
  -8  -6  -2   33.97    1.21
  -8  -6  -2   34.47    1.02
  -6  -8  -2   34.67    0.89
  -6  -8  -2   33.99    0.97
   6   8  -2   32.86    1.20
   8   6  -2   34.52    1.27
  -6   8   2   38.28    1.17
   6  -8   2   37.30    1.23
   8  -6   2   35.90    1.18
   8  -6   2   37.89    1.14
  -6   8   2   33.55    0.84
   6   8  -2   36.76    1.30
  -8   6   2   36.08    1.24
  -8   6   0    0.55    0.23
   8   6   0    0.36    0.28
  -6  -8   0    0.45    0.08
  -8  -6   0    0.62    0.21
   6   8   0    0.47    0.30
  -8  -6   0    0.59    0.12
  -6   8   0    0.70    0.16
   8  -6   0    0.86    0.26
  -6  -8   0    0.69    0.12
   6  -8   0    0.55    0.25
   8  -6   0    0.69    0.16
   6   8   2   33.12    1.22
  -8  -6   2   30.01    0.81
   8  -6  -2   35.80    0.95
  -8  -6   2   33.41    1.14
   6   8   2   35.29    0.96
  -8  -6   2   33.86    1.22
   8  -6  -2   36.17    1.17
   8   6   2   34.48    1.21
   6  -8  -2   35.83    1.20
  -6   8  -2   34.53    1.04
  -8   6  -2   34.87    1.25
  -6   8  -4    2.98    0.32
  -8   6  -4    3.72    0.40
  -8  -6   4    3.88    0.42
   6   8   4    3.37    0.29
   8  -6  -4    3.11    0.36
   6  -8  -4    3.31    0.37
   8  -6  -4    3.12    0.17
   8   6   4    3.28    0.38
  -8  -6   6    3.05    0.41
   6   8   6    3.01    0.33
  -6   8  -6    2.88    0.37
   6   8   6    3.06    0.24
   8   6   6    2.62    0.35
  -8  -6   6    2.46    0.14
   8  -6  -6    3.29    0.38
   6  -8  -6    3.40    0.41
   6  -8  -6    3.19    0.21
  -8   6  -6    2.42    0.36
   8   6   6    2.92    0.18
  -8  -6   8   10.71    0.40
   8  -6  -8   11.75    0.68
  -8   6  -8   11.66    0.71
  -8  -6   8   10.32    0.64
   6  -8  -8   11.27    0.69
   8   6   8   11.63    0.62
   8  -6  -8   11.26    0.59
   6   8   8   11.00    0.65
   8   6   8   11.20    0.45
   6  -8  -8   11.62    0.41
   6   8   8   11.76    0.51
  -6   8  -8   10.65    0.69
  -8   6  -8   11.78    0.58
   6  -8 -10    3.51    0.22
  -6  -8  10    3.49    0.38
   8   6  10    3.52    0.29
  -6   8 -10    3.89    0.34
  -6   8 -10    3.37    0.45
   8  -6 -10    2.93    0.30
  -8   6 -10    3.84    0.43
  -8  -6  10    3.22    0.39
  -8   6 -10    4.14    0.35
  -8  -6  10    3.72    0.26
   8  -6 -10    3.41    0.44
   6   8  10    3.12    0.40
   6  -8 -10    3.35    0.43
  -8   6 -10    3.54    0.21
   6   8  10    3.26    0.30
  -6   8 -10    3.13    0.24
   8  -6 -12   13.43    0.55
  -6   8 -12   14.12    0.89
  -8   6 -12   13.77    0.90
   6   8  12   13.77    0.84
   6  -8 -12   13.43    0.44
  -8  -6  12   14.13    0.61
   8  -6 -12   14.02    0.63
  -8   6 -12   15.23    0.61
  -6   8 -12   14.55    0.59
  -6  -8  12   13.71    0.67
  -8   6 -12   14.52    0.82
   6  -8 -12   14.23    0.51
  -8  -6  12   12.67    0.73
  -8  -6  14    4.97    0.48
  -6  -8  14    6.28    0.44
   6   8  14    6.23    0.61
  -8   6 -14    7.16    0.70
  -6   8 -14    5.59    0.62
   8  -6 -14    5.64    0.38
  -8  -6  14    5.93    0.43
  -8   6 -14    5.84    0.54
   6  -8 -14    6.08    0.33
   6  -8 -14    6.29    0.34
  -8  -6  16    2.22    0.34
   8  -6 -16    1.76    0.27
  -8  -6  16    2.34    0.32
  -8   6 -16    2.13    0.37
   6   8  16    2.27    0.45
  -8   6 -16    2.14    0.48
  -6   8 -16    1.89    0.45
  -8   6 -18    4.03    0.49
   6   8  18    5.00    0.63
  -6   8 -18    3.11    0.58
  -8   6 -18    4.53    0.66
  -8   6 -20    2.15    0.39
  -6   8 -20    1.89    0.53
   6   8  20    3.01    0.56
  -8   6 -20    1.99    0.53
  -6   8 -22    2.87    0.64
  -8   6 -22    2.76    0.62
   6   8  22    1.97    0.52
  -7  -8 -25    0.83    0.50
   8   7 -23    6.98    0.87
  -7  -8 -23    6.67    0.80
   7   8 -23    5.84    0.81
  -8   7  23    6.36    0.78
  -8  -7 -23    6.92    0.78
  -7  -8 -23    6.80    0.78
  -8  -7 -21    0.26    0.33
  -7  -8 -21    0.64    0.36
   7   8 -21    0.11    0.39
   8   7 -21    0.29    0.43
  -7   8  21    0.28    0.35
  -8   7  21    0.23    0.35
   8   7 -19   12.62    1.00
  -7   8  19   13.34    0.99
   7   8 -19   12.91    1.02
  -8   7  19   12.64    0.97
  -8  -7 -19   12.29    0.95
  -7  -8 -19   12.40    0.92
   8   7 -17   15.98    1.07
   7   8 -17   16.14    1.09
  -8  -7 -17   15.00    0.99
  -7   8  17   14.37    1.00
  -8   7  17   15.96    1.03
  -7  -8 -17   16.33    1.02
   8   7 -15    3.15    0.54
  -7   8  15    3.37    0.48
  -8   7  15    3.68    0.52
  -7  -8 -15    3.18    0.46
  -8  -7 -15    3.19    0.48
   7   8 -15    2.43    0.51
  -8  -7 -13   27.00    1.27
  -7  -8 -13   28.23    1.27
  -8   7  13   27.24    1.26
  -7   8  13   27.69    1.28
   7   8 -13   28.44    1.34
   8   7 -13   25.28    1.27
   7   8 -11   47.56    1.77
   8   7 -11   48.59    1.78
  -7   8  11   49.72    1.77
  -8   7  11   47.51    1.74
  -8  -7 -11   51.44    1.79
  -7  -8 -11   53.34    1.80
   7   8  -9    1.41    0.36
  -8  -7  -9    1.28    0.31
   8   7  -9    1.25    0.36
  -7   8   9    1.64    0.32
  -8   7   9    1.14    0.28
   7   8  -9    1.41    0.42
  -7  -8  -9    1.41    0.33
   7   8  -7   47.55    1.62
   8   7  -7   47.31    1.56
  -7  -8  -7   50.67    1.58
   7   8  -7   45.61    1.55
   8   7  -7   47.96    1.63
  -7   8   7   49.09    1.57
  -8   7   7   50.28    1.57
  -8  -7  -7   48.67    1.57
  -7  -8  -5   33.12    1.09
  -8   7   5   31.08    0.78
  -7  -8  -5   33.17    1.25
   7   8  -5   32.40    1.25
  -8  -7  -5   34.17    1.26
  -8  -7  -5   33.98    1.11
   8   7  -5   32.09    1.30
   8   7  -5   34.23    1.27
   7   8  -5   33.49    1.31
   7   8  -3   21.50    0.95
  -7   8   3   20.24    0.52
  -8  -7  -3   22.66    0.95
  -7   8   3   18.66    0.52
  -7  -8  -3   21.22    0.93
  -8  -7  -3   21.92    0.76
   8   7  -3   21.43    0.94
  -7  -8  -3   22.74    0.75
   8   7  -3   22.14    1.01
   7   8  -3   20.37    0.98
  -8   7   3   21.28    0.60
   8  -7   3   22.03    0.90
   7  -8   3   22.48    0.94
  -7  -8  -1   47.58    1.18
  -8   7   1   47.94    1.55
  -7  -8  -1   48.21    1.52
   8   7  -1   45.65    1.56
  -8  -7  -1   46.30    1.21
  -7   8   1   46.60    1.18
  -7  -8  -1   44.33    1.08
   8  -7   1   47.80    1.37
  -8  -7  -1   46.67    1.50
   8  -7   1   47.63    1.48
   7  -8   1   49.54    1.51
   7   8  -1   49.08    1.59
   7   8   1   45.05    1.48
  -8  -7   1   45.73    1.43
  -8  -7   1   41.46    1.02
  -8   7  -1   45.52    1.51
   8  -7  -1   49.13    1.44
   7  -8  -1   46.30    1.44
   8   7   1   43.49    1.46
   8  -7  -1   45.76    1.22
  -7  -8   1   48.61    1.09
  -7   8  -1   45.00    1.23
  -8  -7   1   44.49    0.99
  -8   7  -3   24.01    1.03
  -7   8  -3   22.71    1.01
   7   8   3   21.51    0.97
   7  -8  -3   23.02    0.95
  -7   8  -3   21.89    0.84
  -8  -7   3   24.16    1.01
   8  -7  -3   22.01    0.93
   8  -7  -3   23.61    0.71
   8   7   3   21.85    0.95
   8   7   5   33.38    1.20
  -8  -7   5   33.79    1.24
   7   8   5   33.51    1.22
  -7   8  -5   32.67    1.17
   8  -7  -5   33.50    1.21
  -7   8  -5   34.20    1.30
   7   8   5   34.07    1.10
   7  -8  -5   35.30    1.24
  -8   7  -5   34.45    1.30
   8  -7  -5   31.36    0.82
   7   8   5   34.78    0.88
  -8   7  -7   48.19    1.65
  -7   8  -7   48.00    1.58
   7  -8  -7   46.93    1.14
   8  -7  -7   50.45    1.60
   7  -8  -7   47.93    1.58
  -7   8  -7   51.13    1.67
   7   8   7   50.79    1.26
  -7  -8   7   45.98    1.52
   8   7   7   44.57    1.48
  -8  -7   7   47.02    1.55
   8   7   7   49.07    1.20
   7   8   7   47.62    1.50
   7  -8  -9    1.24    0.11
  -8   7  -9    1.53    0.26
  -7  -8   9    1.30    0.34
  -7   8  -9    2.08    0.38
  -8  -7   9    1.75    0.36
  -8   7  -9    1.88    0.36
   8  -7  -9    1.69    0.36
   7  -8  -9    0.94    0.33
   8   7   9    1.99    0.22
   7   8   9    1.85    0.33
   7   8   9    1.81    0.23
  -7   8  -9    1.89    0.25
  -8   7  -9    1.21    0.34
  -7   8  -9    1.61    0.35
  -7   8 -11   50.64    1.27
  -7   8 -11   48.56    1.74
  -8   7 -11   49.80    1.18
  -7  -8  11   49.95    1.53
   8   7  11   49.02    1.39
  -8   7 -11   49.01    1.77
   8   7  11   47.42    1.66
   7   8  11   49.08    1.68
  -8  -7  11   47.68    1.56
  -8   7 -11   50.54    1.35
   7   8  11   50.39    1.42
  -8  -7  11   49.51    1.25
  -7   8 -11   48.82    1.69
   7  -8 -11   49.81    1.72
  -8   7 -11   48.88    1.69
  -7   8 -11   52.33    1.31
  -8   7 -13   24.56    1.26
  -7  -8  13   26.47    1.02
  -7   8 -13   25.03    1.27
  -7   8 -13   26.17    1.18
   8  -7 -13   27.22    0.82
   8   7  13   25.37    1.22
  -8  -7  13   26.43    0.89
  -8  -7  13   25.81    1.06
  -8   7 -13   26.18    1.18
   7  -8 -13   26.32    0.74
  -7   8 -13   26.93    0.79
   7   8  13   25.69    1.22
  -7  -8  15    3.50    0.37
  -8   7 -15    2.96    0.44
   8   7  15    2.33    0.45
  -7   8 -15    1.99    0.47
  -8   7 -15    3.04    0.53
  -8  -7  15    3.05    0.33
   7   8  15    2.36    0.47
  -8  -7  15    2.78    0.37
  -8   7 -17   14.20    0.88
  -8   7 -17   15.08    1.08
   7   8  17   16.12    1.05
  -7   8 -17   16.24    1.11
  -8   7 -19   11.04    0.98
  -7   8 -19   13.36    1.05
   7   8  19   12.99    1.01
  -8   7 -19   12.11    0.82
  -7   8 -21    0.23    0.38
   7   8  21    0.29    0.40
  -8   7 -21    0.44    0.42
  -8  -8 -24    0.06    0.44
  -8   8  22    7.93    0.86
   8   8 -22    6.51    0.84
  -8  -8 -22    8.63    0.85
  -8   8  20   13.93    1.05
   8   8 -20   12.75    1.07
  -8  -8 -20   12.29    0.97
  -8  -8 -18    2.92    0.50
  -8   8  18    3.60    0.55
   8   8 -18    3.50    0.61
  -8  -8 -16   11.20    0.84
   8   8 -16   11.27    0.90
  -8   8  16   10.58    0.84
  -8   8  14   37.88    1.59
  -8  -8 -14   39.46    1.62
   8   8 -14   36.94    1.62
  -8  -8 -12   11.62    0.81
  -8   8  12   13.20    0.85
   8   8 -12   11.28    0.84
  -8  -8 -10   48.26    1.72
  -8   8  10   48.92    1.72
   8   8 -10   43.42    1.69
  -8  -8  -8   69.03    2.16
   8   8  -8   68.73    2.17
   8   8  -8   70.02    2.24
  -8   8   8   69.75    2.16
  -8  -8  -6    0.86    0.27
   8   8  -6    1.48    0.35
   8   8  -6    1.18    0.41
  -8  -8  -4   32.61    1.20
   8   8  -4   29.72    1.17
  -8  -8  -4   30.88    0.98
  -8   8   4   28.76    0.66
   8   8  -4   30.49    1.24
  -8  -8  -2   94.53    2.60
  -8  -8  -2   96.35    2.26
   8   8  -2   94.44    2.66
   8  -8   2   98.77    2.47
   8  -8   2   95.68    2.55
   8   8   0    2.62    0.42
  -8  -8   0    2.64    0.18
  -8  -8   0    2.89    0.35
  -8  -8   0    2.30    0.13
   8  -8   0    2.61    0.27
   8  -8   0    2.64    0.36
  -8   8  -2   97.52    2.43
   8  -8  -2  100.64    2.34
   8  -8  -2   99.01    2.60
  -8   8  -2   98.17    2.71
   8   8   2   93.89    2.63
  -8   8  -4   32.71    1.14
  -8   8  -4   33.06    1.29
   8   8   4   30.10    1.19
   8  -8  -4   32.03    0.90
   8  -8  -4   31.95    1.20
   8   8   6    0.88    0.12
  -8   8  -6    0.91    0.31
  -8   8  -6    1.34    0.30
   8  -8  -6    0.90    0.10
   8   8   6    1.61    0.38
   8  -8  -6    1.02    0.32
   8  -8  -6    1.06    0.11
  -8  -8   6    0.97    0.33
  -8   8  -8   71.51    2.13
   8   8   8   67.90    2.01
   8  -8  -8   68.16    2.09
   8   8   8   70.14    1.69
  -8  -8   8   70.46    2.05
  -8   8  -8   69.40    2.16
  -8  -8  10   46.29    1.54
   8   8  10   47.23    1.32
  -8   8 -10   45.83    1.67
   8   8  10   44.53    1.59
   8  -8 -10   46.64    1.65
  -8   8 -10   49.16    1.36
  -8   8 -10   44.88    1.69
   8   8  12   11.92    0.80
  -8   8 -12   12.29    0.48
  -8   8 -12   11.89    0.84
  -8   8 -12   12.74    0.54
  -8   8 -12   11.64    0.78
  -8  -8  12   12.82    0.73
  -8   8 -14   35.58    1.59
   8   8  14   36.42    1.54
  -8   8 -14   36.74    1.50
  -8  -8  14   39.00    1.34
  -8   8 -16   11.78    0.95
   8   8  16   10.92    0.87
  -8   8 -16   11.99    0.82
  -8   8 -18    4.31    0.65
   8   8  18    4.24    0.60
  -8   8 -20   12.35    1.05
   9   0  -1    6.12    0.34
  -9   0  -1    5.90    0.39
   9   0  -1    6.15    0.32
   0   9   1    6.10    0.35
   0  -9  -1    6.73    0.36
   0   9  -1    6.19    0.38
  -9   0   1    7.05    0.48
   9   0   1    6.54    0.38
  -9   0  -1    6.49    0.42
  -9   0   1    5.52    0.40
   0  -9  -1    6.34    0.36
   0   9   1    6.93    0.38
   9   0   1    6.56    0.32
   0  -9   1    6.32    0.39
   0  -9  -1    6.19    0.42
   0  -9   1    6.46    0.26
  -9   0   1    6.83    0.34
   0  -9   1    6.05    0.41
  -9   0   1    6.24    0.36
  -9   0  -3   17.39    0.73
  -9   0   3   16.98    0.71
   0  -9  -3   17.52    0.59
   9   0   3   17.64    0.71
   0  -9   3   17.11    0.72
  -9   0  -3   16.42    0.77
   0  -9  -3   16.56    0.70
   0   9  -3   16.70    0.70
   0   9   3   15.29    0.66
   9   0  -3   16.44    0.61
  -9   0   3   15.42    0.57
  -9   0  -3   16.65    0.64
   0  -9  -3   17.05    0.68
  -9   0   3   16.62    0.61
   9   0   3   16.48    0.57
   0   9   3   17.55    0.71
   0   9  -5    3.82    0.37
  -9   0   5    4.96    0.34
   0  -9  -5    4.96    0.29
  -9   0   5    4.95    0.38
  -9   0  -5    4.63    0.43
   0  -9  -5    4.43    0.36
  -9   0   5    4.54    0.25
   0  -9  -5    4.79    0.37
   0  -9  -5    4.79    0.44
   0   9   5    4.44    0.37
  -9   0  -5    4.78    0.30
  -9   0  -5    4.98    0.41
   0  -9  -7   20.75    0.67
   0  -9  -7   19.06    0.83
   0   9  -7   21.42    0.90
   0  -9  -7   20.08    0.80
  -9   0   7   20.04    0.60
   0   9   7   19.54    0.86
  -9   0  -7   21.63    0.90
   9   0  -7   19.75    0.81
  -9   0   7   17.99    0.75
   0   9  -7   18.93    0.89
   0  -9  -7   19.67    0.91
  -9   0  -7   19.79    0.90
   0  -9  -9   34.66    1.15
   0  -9  -9   34.20    1.21
  -9   0   9   32.75    1.00
   0   9  -9   33.88    1.08
   9   0  -9   32.05    1.15
   0   9  -9   32.28    0.85
   0   9   9   33.89    1.26
  -9   0   9   33.13    1.13
  -9   0  -9   34.18    1.21
   0  -9  -9   34.62    1.32
   0   9  -9   34.00    1.31
   0   9  -9   32.62    1.21
  -9   0  -9   35.48    1.31
   0   9 -11    3.22    0.42
   0   9 -11    3.90    0.50
  -9   0  11    3.94    0.26
   0  -9 -11    3.83    0.37
  -9   0  11    3.94    0.39
   0  -9 -11    3.74    0.58
  -9   0  11    4.22    0.25
   0   9  11    3.33    0.42
   9   0 -11    3.66    0.40
  -9   0 -11    3.95    0.47
  -9   0  13    3.21    0.25
   9   0 -13    3.13    0.42
   0  -9 -13    3.72    0.39
   0   9 -13    3.30    0.50
   0   9  13    4.17    0.52
  -9   0  13    2.96    0.37
   0   9 -13    2.71    0.41
   0  -9 -13    2.96    0.58
  -9   0 -13    4.17    0.51
   0  -9 -15   46.87    1.56
   9   0 -15   44.35    1.60
   0   9  15   46.68    1.78
  -9   0  15   42.51    1.58
   0   9 -15   47.68    1.83
   0  -9 -15   46.10    1.82
  -9   0 -15   46.98    1.77
   0  -9 -15   45.61    1.48
   0  -9 -17    1.95    0.34
   0  -9 -17    1.76    0.34
  -9   0 -17    1.28    0.32
   0   9 -17    1.40    0.44
   0   9  17    1.87    0.44
  -9   0  17    1.95    0.37
   9   0 -17    1.77    0.40
   0  -9 -17    1.73    0.52
  -9   0 -17    1.27    0.38
   0  -9 -19    0.19    0.25
   0   9 -19    0.11    0.40
   9   0 -19    0.41    0.31
   0   9  19   -0.28    0.35
  -9   0  19    0.21    0.27
  -9   0 -19   -0.05    0.24
   0  -9 -19    0.14    0.25
   0  -9 -19    0.52    0.50
  -9   0 -19    0.26    0.30
   9   0 -21    3.23    0.51
  -9   0 -21    2.79    0.59
   0   9  21    2.09    0.49
  -9   0 -21    3.06    0.42
   0   9 -21    2.98    0.62
  -9   0  21    3.18    0.51
   0  -9 -21    1.88    0.59
  -9   0 -21    3.29    0.55
   0  -9 -21    2.90    0.44
   0  -9 -23    0.76    0.51
   9   0 -23    0.42    0.36
  -9   0 -23    0.81    0.47
   0   9 -23    0.54    0.47
   0   9  23    1.63    0.50
  -9   0  23    1.14    0.41
  -9   0  25    0.48    0.36
   9   1 -24    0.50    0.39
  -9   1  24    0.04    0.34
   9   1 -22    0.71    0.37
  -9   1  22    0.13    0.31
   1   9 -22   -0.33    0.47
  -1  -9 -22    1.25    0.56
  -1   9  22    0.74    0.44
  -9  -1 -22   -0.16    0.36
  -9  -1 -22   -0.05    0.40
  -1  -9 -22    0.21    0.25
   9   1 -20    7.59    0.72
   1   9 -20    7.79    0.84
  -9  -1 -20    8.60    0.67
  -1   9  20    8.41    0.82
  -9   1  20    8.54    0.77
  -1  -9 -20    8.26    0.68
  -1  -9 -20    8.15    0.89
  -9  -1 -20    7.78    0.77
  -1  -9 -20    7.42    0.67
  -9  -1 -18   14.29    0.97
   9   1 -18   12.93    0.88
   1   9 -18   12.85    0.98
  -9   1  18   14.59    0.92
  -1   9  18   12.35    0.94
  -1  -9 -18   16.16    1.11
  -1  -9 -18   13.43    0.83
  -1  -9 -18   13.53    0.81
  -1  -9 -16   16.94    0.89
   1   9 -16   15.08    1.02
  -1   9  16   16.94    1.03
  -9   1  16   15.49    0.91
  -1  -9 -16   16.64    1.10
  -9  -1 -16   17.57    1.03
   9   1 -16   15.99    0.92
  -1  -9 -14   22.37    1.01
   1   9 -14   21.53    1.17
  -9   1  14   21.97    1.03
  -1   9  14   21.81    1.13
   9   1 -14   21.96    1.04
  -1  -9 -14   24.01    1.25
  -9  -1 -14   23.67    1.17
  -1   9  12   21.28    1.05
  -1  -9 -12   21.55    0.93
   9   1 -12   21.77    0.98
   1   9 -12   21.60    1.09
   1   9 -12   21.98    0.86
   1   9 -12   23.95    1.03
  -9   1  12   22.05    0.96
  -1  -9 -12   23.24    1.15
  -9  -1 -12   20.53    1.04
  -9   1  12   19.47    0.60
   1   9 -10   44.16    1.57
  -1   9  10   46.26    1.54
  -1  -9 -10   46.31    1.41
  -9   1  10   45.95    1.20
   1   9 -10   47.21    1.29
  -9   1  10   46.51    1.43
   1   9 -10   46.15    1.49
  -9   1  10   38.95    0.98
  -9  -1 -10   45.19    1.56
   9   1 -10   45.30    1.44
  -9  -1  -8   14.83    0.79
  -9   1   8   14.82    0.61
  -9   1   8   16.46    0.72
  -1   9   8   15.04    0.77
  -1  -9  -8   15.34    0.72
   1   9  -8   15.45    0.54
  -9   1   8   13.70    0.41
   9   1  -8   15.00    0.73
  -9  -1  -8   16.74    0.80
   1   9  -8   17.20    0.63
  -1  -9  -8   15.40    0.71
   1   9  -8   15.78    0.82
   1   9  -8   15.36    0.78
  -9  -1  -6   10.37    0.61
  -9   1   6    9.33    0.33
  -9   1   6   10.27    0.54
   1   9  -6   10.37    0.61
  -9   1   6    9.98    0.51
   1   9  -6    9.86    0.63
  -1  -9  -6   11.28    0.59
   1   9  -6    9.59    0.46
  -9   1   6   11.09    0.56
   9   1  -6    9.92    0.56
  -1  -9  -6   11.20    0.48
  -9  -1  -6   10.21    0.62
  -1  -9  -6    9.41    0.52
  -1   9   6    9.17    0.55
  -1   9   4   55.86    1.58
   9  -1   4   55.90    1.59
  -9  -1  -4   53.74    1.61
  -9   1   4   55.05    1.32
  -9   1   4   54.24    1.53
  -1  -9  -4   57.71    1.45
  -9  -1  -4   58.89    1.69
  -1  -9  -4   53.69    1.58
   1  -9   4   54.26    1.59
  -9   1   4   54.74    1.57
   1   9  -4   52.20    1.59
  -1  -9  -4   54.69    1.53
  -9   1   4   55.19    1.50
  -9  -1  -4   55.79    1.45
  -9   1   2   12.76    0.50
  -9   1   2   12.04    0.58
   1   9  -2   12.59    0.60
   1  -9   2   13.04    0.59
  -1  -9  -2   13.30    0.55
  -1   9   2   12.90    0.58
  -1   9   2   12.12    0.47
  -9  -1  -2   12.04    0.60
   9   1  -2   12.86    0.48
  -1  -9  -2   12.87    0.58
  -9  -1  -2   12.25    0.58
   9  -1   2   13.35    0.58
   9  -1   2   13.01    0.51
  -9   1   2   12.68    0.53
   1   9   0    6.15    0.39
  -9  -1   0    5.51    0.42
  -1  -9   0    5.90    0.37
   1  -9   0    5.90    0.35
   9   1   0    6.25    0.37
  -1   9   0    6.21    0.35
   9   1   0    6.26    0.28
  -9  -1   0    5.29    0.37
   9  -1   0    5.97    0.34
   1   9   0    5.82    0.33
   1  -9   0    6.16    0.29
   9  -1   0    5.88    0.34
   1  -9   0    6.70    0.44
  -1  -9   0    5.82    0.38
  -9   1   0    6.23    0.37
  -9  -1   2   11.76    0.60
  -1   9  -2   11.92    0.55
   1  -9  -2   13.13    0.48
   9  -1  -2   11.76    0.51
   9   1   2   12.80    0.58
  -1  -9   2   13.19    0.61
   9  -1  -2   12.10    0.46
   1   9   2   12.95    0.55
   1  -9  -2   12.29    0.60
  -9  -1   2   13.50    0.69
   9   1   2   12.61    0.43
   1  -9  -2   13.21    0.54
  -9  -1   2   12.42    0.47
  -9   1  -2   12.01    0.58
  -9  -1   2   11.87    0.52
  -9  -1   4   54.05    1.41
   1  -9  -4   56.76    1.33
   1   9   4   53.98    1.53
  -1  -9   4   58.22    1.63
  -9  -1   4   55.79    1.44
   9  -1  -4   52.85    1.47
   1  -9  -4   53.71    1.58
  -9   1  -4   56.97    1.43
   1  -9  -4   56.04    1.55
  -1   9  -4   54.65    1.58
  -9   1  -4   55.33    1.63
   1   9   4   57.67    1.55
  -9   1  -4   53.50    1.60
  -9   1  -6   11.13    0.62
  -9  -1   6   10.54    0.43
   1  -9  -6   11.12    0.54
  -1   9  -6   10.93    0.62
   1  -9  -6   11.55    0.41
   1  -9  -6    9.55    0.56
  -9  -1   6    9.77    0.50
   1  -9  -6   10.45    0.62
  -9   1  -6   10.21    0.40
   1   9   6    9.68    0.56
  -9   1  -6   10.90    0.62
   1  -9  -8   15.74    0.53
   1  -9  -8   15.64    0.83
   1  -9  -8   14.78    0.74
   1  -9  -8   15.68    0.67
   1   9   8   15.50    0.77
  -9  -1   8   15.78    0.66
  -1   9  -8   15.32    0.75
  -9   1  -8   15.20    0.74
  -1   9  -8   14.53    0.79
   9  -1  -8   14.26    0.67
  -9   1  -8   13.79    0.76
   9  -1 -10   44.85    1.40
  -1   9 -10   44.54    1.59
   1   9  10   42.58    1.53
  -9  -1  10   45.54    1.22
   1  -9 -10   46.13    1.51
   1  -9 -10   45.65    1.38
  -9  -1  10   45.10    1.39
   1  -9 -10   43.64    1.58
  -1   9 -10   45.00    1.45
  -9   1 -10   44.22    1.57
   9  -1 -12   21.28    0.92
  -1   9 -12   21.05    1.07
   1  -9 -12   21.49    0.88
   1   9  12   20.41    1.03
  -9  -1  12   22.10    0.92
  -9  -1  12   20.34    0.64
  -1   9 -12   23.00    0.95
   1  -9 -12   19.86    1.07
  -9   1 -12   20.24    1.03
  -9   1 -14   21.72    1.04
   1  -9 -14   21.80    0.93
   9  -1 -14   21.33    0.97
   1  -9 -14   22.84    0.87
   1   9  14   21.66    1.11
  -9  -1  14   21.49    0.98
   1  -9 -14   22.40    1.21
  -1   9 -14   20.41    1.13
  -9   1 -14   21.35    1.11
  -1   9 -14   21.45    0.96
  -1   9 -16   16.99    1.06
   1  -9 -16   15.12    0.75
   1  -9 -16   14.81    1.05
   1   9  16   15.88    1.02
  -9  -1  16   16.27    0.89
   9  -1 -16   15.10    0.86
  -9   1 -16   15.28    0.87
  -9   1 -16   15.90    0.99
   1  -9 -16   16.02    0.82
   9  -1 -18   13.06    0.83
  -1   9 -18   12.76    0.97
   1  -9 -18   12.54    0.76
   1  -9 -18   13.36    0.75
  -9   1 -18   12.84    0.81
   1   9  18   12.41    0.94
  -9  -1  18   12.77    0.83
   1  -9 -18   13.00    1.03
  -9   1 -18   12.17    0.91
   1  -9 -20    9.19    0.67
  -9   1 -20    8.05    0.66
   1   9  20    8.13    0.81
  -9  -1  20    7.40    0.68
   9  -1 -20    8.50    0.72
  -1   9 -20    9.02    0.87
  -9   1 -20    7.86    0.86
   1  -9 -20    8.14    0.91
   1  -9 -22    0.19    0.49
  -1   9 -22    0.33    0.40
  -9   1 -22    0.18    0.41
   1   9  22    0.13    0.35
  -9  -1  22    0.16    0.28
   9  -1 -22   -0.06    0.33
  -9  -1  24    0.91    0.40
   9   2 -25    1.33    0.45
  -9   2  25    1.13    0.43
   9   2 -23    1.67    0.49
  -2  -9 -23    2.35    0.45
   2   9 -23    2.25    0.57
  -9  -2 -23    2.39    0.58
  -2   9  23    2.15    0.52
  -2  -9 -23    3.18    0.69
  -9  -2 -23    2.42    0.51
  -9   2  23    1.94    0.45
  -2  -9 -21    2.97    0.47
  -2   9  21    2.27    0.52
  -2  -9 -21    3.32    0.49
   2   9 -21    3.32    0.62
  -9   2  21    2.76    0.50
   9   2 -21    3.39    0.56
  -9  -2 -21    2.81    0.42
  -2  -9 -21    4.36    0.70
  -9  -2 -21    3.85    0.59
  -2  -9 -19    0.63    0.27
  -2  -9 -19    0.61    0.33
  -2   9  19    0.81    0.40
  -9   2  19    0.76    0.34
   2   9 -19    0.51    0.42
  -2  -9 -19    1.14    0.55
  -9  -2 -19    0.62    0.36
   9   2 -19    0.92    0.36
  -9   2  17    7.19    0.64
   2   9 -17    5.60    0.67
   9   2 -17    7.71    0.67
  -2   9  17    7.74    0.73
  -2  -9 -17    7.25    0.81
  -9  -2 -17    6.88    0.69
  -2  -9 -17    6.70    0.59
  -2  -9 -15   18.45    0.95
   9   2 -15   20.50    1.05
  -2   9  15   21.75    1.14
  -9   2  15   19.80    1.02
   2   9 -15   21.39    1.17
  -9  -2 -15   21.60    1.14
   9   2 -13   11.93    0.77
  -9  -2 -13   12.03    0.81
  -2   9  13   11.63    0.79
  -9   2  13   12.15    0.74
   2   9 -13   12.82    0.79
  -2  -9 -13   12.30    0.72
   2   9 -13   10.71    0.81
  -9  -2 -11    2.58    0.39
   2   9 -11    3.20    0.47
  -2   9  11    2.28    0.38
  -2  -9 -11    2.52    0.35
   2   9 -11    2.86    0.29
  -9   2  11    3.02    0.36
   9   2 -11    2.79    0.39
   2   9 -11    3.13    0.44
   9   2  -9   21.93    0.96
  -2  -9  -9   24.33    0.97
   2   9  -9   22.20    1.04
  -9   2   9   22.63    0.80
   2   9  -9   25.45    0.80
   2   9  -9   23.00    0.73
  -2   9   9   23.04    1.01
  -9   2   9   22.72    0.95
   2   9  -9   23.88    1.04
  -9   2   9   24.19    0.91
  -9  -2  -9   21.44    1.01
  -9  -2  -7   48.60    1.59
  -9   2   7   49.62    1.42
  -2  -9  -7   48.95    1.52
   2   9  -7   50.12    1.34
  -9   2   7   51.15    1.44
   9   2  -7   49.10    1.55
   2   9  -7   51.85    1.29
  -2  -9  -7   48.84    1.46
   2   9  -7   50.40    1.62
  -2   9   7   49.58    1.57
  -9   2   7   48.19    1.50
  -9  -2  -7   51.49    1.62
   2   9  -7   50.91    1.61
  -9   2   5   51.46    1.46
  -9  -2  -5   48.95    1.54
  -9  -2  -5   51.98    1.59
  -9   2   5   52.04    1.42
   2   9  -5   49.92    1.38
   2  -9   5   51.84    1.53
  -2  -9  -5   50.99    1.50
  -2  -9  -5   51.03    1.40
   2   9  -5   50.33    1.58
  -2   9   5   49.93    1.50
  -2  -9  -5   49.38    1.43
  -2  -9  -5   51.35    1.38
   2   9  -5   49.17    1.54
  -9   2   5   45.15    1.10
   9   2  -5   47.89    1.49
  -9   2   5   51.67    1.46
  -9   2   3    7.13    0.42
  -9  -2  -3    6.59    0.42
  -2  -9  -3    7.91    0.43
   9  -2   3    7.40    0.44
   2  -9   3    7.53    0.46
  -2   9   3    6.93    0.45
  -9   2   3    7.22    0.46
  -9  -2  -3    7.33    0.48
   2   9  -3    6.22    0.45
  -2  -9  -3    7.68    0.43
  -9   2   3    7.54    0.43
  -9   2   3    7.06    0.32
   9  -2   3    7.88    0.42
  -9  -2  -1   33.50    1.11
   2   9  -1   34.89    0.94
   9  -2   1   34.26    1.04
  -9   2   1   34.25    1.18
   2  -9   1   34.44    1.03
   2   9  -1   33.75    1.10
  -2  -9  -1   36.95    1.09
   9  -2   1   34.67    1.03
  -2   9   1   34.31    0.94
  -2  -9  -1   33.52    1.05
  -9  -2  -1   36.38    1.14
  -9   2   1   33.90    0.99
   2  -9   1   35.03    1.15
  -9   2   1   34.48    1.04
  -2   9  -1   34.62    1.01
  -2  -9   1   36.12    1.12
   9  -2  -1   34.86    0.96
   2  -9  -1   35.49    0.96
   9   2   1   34.65    1.09
  -9  -2   1   35.24    1.08
  -9   2  -1   33.45    1.20
   9   2   1   32.79    0.81
   2   9   1   34.47    0.99
   9  -2  -1   33.43    1.03
  -9  -2   1   34.53    1.18
  -9  -2   1   34.91    0.87
  -9   2  -1   34.41    1.06
   2   9   1   34.70    1.07
  -2  -9   1   35.05    1.07
   2  -9  -1   34.89    1.15
  -2  -9   3    6.76    0.46
  -2   9  -3    6.25    0.41
  -9  -2   3    6.95    0.39
   2   9   3    6.44    0.39
   9   2   3    7.01    0.27
  -9   2  -3    7.25    0.45
  -9  -2   3    6.65    0.33
   9  -2  -3    7.14    0.41
   2  -9  -3    6.93    0.46
  -9   2  -3    7.24    0.50
   9  -2  -3    7.18    0.29
   2  -9  -3    6.87    0.29
   2  -9  -3    6.60    0.42
   2  -9  -5   47.83    1.13
   9  -2  -5   47.84    1.43
   2   9   5   50.11    1.47
  -9  -2   5   50.61    1.35
  -9  -2   5   50.15    1.34
   2  -9  -5   49.65    1.51
  -9   2  -5   52.66    1.29
  -9  -2   5   47.72    1.56
   2  -9  -5   49.35    1.48
  -9   2  -5   50.81    1.51
  -2   9  -5   51.43    1.51
   2   9   5   53.13    1.43
  -9   2  -5   49.66    1.53
  -2   9  -7   48.13    1.57
   2  -9  -7   49.05    1.14
   2  -9  -7   50.09    1.39
  -9  -2   7   48.82    1.58
  -9   2  -7   51.50    1.52
  -9  -2   7   50.76    1.43
   2  -9  -7   50.52    1.54
  -9  -2   7   48.97    1.36
   2  -9  -7   48.45    1.56
   2   9   7   50.81    1.45
  -9   2  -7   48.47    1.15
  -9   2  -7   50.57    1.59
   2   9   7   48.30    1.52
  -2   9  -9   23.47    0.94
  -9   2  -9   24.64    0.95
  -9  -2   9   23.82    0.86
   2  -9  -9   23.44    0.85
  -9   2  -9   23.84    1.04
   2  -9  -9   23.38    1.00
  -2   9  -9   23.56    1.05
   2   9   9   24.62    1.03
   2  -9  -9   24.43    1.08
  -9   2  -9   23.86    1.04
   9  -2  -9   21.84    0.85
   2  -9 -11    3.06    0.31
   2   9  11    2.43    0.39
  -2   9 -11    2.57    0.36
   9  -2 -11    2.90    0.33
  -2   9 -11    2.52    0.24
   2  -9 -11    2.59    0.24
  -9  -2  11    2.03    0.27
  -9   2 -11    2.46    0.38
  -2   9 -11    2.50    0.43
   2  -9 -11    2.91    0.52
  -9   2 -11    3.05    0.42
   2  -9 -13   11.91    0.62
   9  -2 -13   12.44    0.68
  -9  -2  13   11.28    0.41
  -2   9 -13   11.92    0.83
   2  -9 -13   12.49    0.56
  -9   2 -13   11.04    0.72
   2   9  13   11.44    0.80
  -9  -2  13   12.96    0.69
  -2   9 -13   12.01    0.68
  -2   9 -13   10.92    0.53
   2  -9 -13   10.59    0.84
  -9   2 -13   12.60    0.82
   2  -9 -15   20.09    0.81
  -9   2 -15   20.55    1.01
   2   9  15   20.22    1.12
  -9  -2  15   21.08    0.97
  -2   9 -15   19.73    1.13
   9  -2 -15   19.26    0.92
   2  -9 -15   20.39    1.17
  -9   2 -15   20.54    1.11
  -2   9 -15   18.69    0.80
   2  -9 -15   21.36    0.90
  -2   9 -17    8.70    0.80
   2  -9 -17    7.12    0.51
  -9   2 -17    7.02    0.60
   2   9  17    7.31    0.71
  -9  -2  17    7.23    0.60
   9  -2 -17    6.16    0.56
  -2   9 -17    6.10    0.49
   2  -9 -17    5.81    0.72
  -9   2 -17    7.55    0.71
   2  -9 -17    6.93    0.53
  -2   9 -19    0.26    0.38
  -9   2 -19    0.28    0.42
   9  -2 -19    0.47    0.28
  -9   2 -19    0.14    0.23
   2   9  19    0.61    0.36
  -9  -2  19    0.40    0.26
   2  -9 -19    0.37    0.46
   2  -9 -19    0.93    0.28
   2  -9 -21    2.87    0.62
  -9  -2  21    2.70    0.46
  -9   2 -21    2.64    0.62
  -2   9 -21    3.89    0.63
  -9   2 -21    2.46    0.40
   2   9  21    3.18    0.58
   9  -2 -21    1.74    0.40
   2   9  23    2.41    0.56
  -2   9 -23    2.97    0.65
  -9   2 -23    2.69    0.61
   2  -9 -23    1.26    0.59
  -9  -2  23    2.15    0.44
   9   3 -24   -0.16    0.39
  -9   3  24    0.09    0.33
  -3  -9 -24    0.33    0.33
  -9  -3 -24    0.09    0.44
   9   3 -22   -0.17    0.34
  -9   3  22    0.22    0.30
  -3  -9 -22   -0.20    0.32
  -3   9  22   -0.62    0.41
   3   9 -22   -0.11    0.40
  -3  -9 -22    1.03    0.54
  -3  -9 -22   -0.04    0.27
  -9  -3 -22    0.68    0.38
  -3  -9 -20    2.68    0.47
  -3   9  20    2.39    0.50
  -3  -9 -20    2.61    0.47
  -9   3  20    3.43    0.54
   3   9 -20    2.97    0.59
   9   3 -20    2.08    0.48
  -9  -3 -20    3.12    0.53
  -3  -9 -20    2.63    0.62
  -3   9  18    5.72    0.67
   9   3 -18    6.62    0.67
   3   9 -18    6.43    0.72
  -3  -9 -18    6.34    0.80
  -9  -3 -18    6.92    0.69
  -9   3  18    6.61    0.65
  -3  -9 -18    5.28    0.57
  -9  -3 -16    1.19    0.36
   9   3 -16    0.51    0.32
   3   9 -16    0.43    0.35
  -9   3  16    0.65    0.28
  -3   9  16    0.81    0.34
  -3  -9 -16    0.92    0.30
  -9  -3 -14    1.99    0.43
   9   3 -14    1.81    0.39
  -3  -9 -14    2.09    0.34
  -3   9  14    1.97    0.39
  -9   3  14    1.39    0.32
   3   9 -14    1.08    0.40
   3   9 -12   24.39    0.87
   9   3 -12   23.94    1.10
  -9   3  12   24.84    1.08
  -3  -9 -12   22.70    1.04
  -3   9  12   25.56    1.16
   3   9 -12   22.44    1.15
   3   9 -12   25.28    1.13
  -9  -3 -12   24.03    1.14
  -9  -3 -10   12.09    0.78
  -9   3  10   13.58    0.74
   3   9 -10   12.59    0.81
  -3  -9 -10   13.18    0.73
  -9   3  10   14.05    0.65
   3   9 -10   13.62    0.55
  -3   9  10   13.39    0.79
   3   9 -10   13.39    0.81
   9   3 -10   12.85    0.75
   3   9  -8    0.46    0.12
  -9  -3  -8    0.82    0.26
  -9   3   8    0.82    0.20
  -9   3   8    0.47    0.17
   3   9  -8    0.54    0.16
  -3  -9  -8    0.46    0.20
   3   9  -8    0.10    0.35
  -3   9   8    0.60    0.24
  -9   3   8    0.37    0.20
   3   9  -8    0.57    0.26
   9   3  -8    0.45    0.26
  -9  -3  -6    9.03    0.59
   9   3  -6    7.81    0.55
  -3  -9  -6    8.76    0.55
  -9   3   6    9.40    0.51
   3   9  -6    9.58    0.61
   3   9  -6    9.36    0.49
   3   9  -6    8.91    0.34
  -3  -9  -6    9.08    0.50
  -9   3   6    9.09    0.47
  -3   9   6    8.51    0.56
  -3  -9  -6    9.39    0.49
   3   9  -6    8.55    0.62
   9  -3   4   10.15    0.56
  -3  -9  -4   10.53    0.53
  -3  -9  -4   10.38    0.49
   3   9  -4    9.43    0.59
  -9   3   4   11.00    0.58
  -3  -9  -4   10.30    0.59
  -9  -3  -4    9.73    0.53
   3   9  -4   10.61    0.55
   3   9  -4   11.37    0.68
  -3   9   4   10.07    0.57
   3  -9   4   10.03    0.56
  -9  -3  -4   10.71    0.62
  -9   3   4   11.01    0.51
  -3  -9  -4   10.14    0.50
  -9   3   2    1.29    0.21
   9  -3   2    1.21    0.21
  -9  -3  -2    1.18    0.25
   3  -9   2    1.56    0.24
  -9  -3  -2    1.53    0.28
  -9   3   2    1.25    0.25
  -3   9   2    1.34    0.13
  -9   3   2    1.31    0.20
   3   9  -2    1.22    0.13
  -3  -9  -2    1.69    0.24
  -3  -9  -2    1.17    0.20
   3   9  -2    0.88    0.23
  -9   3   2    1.33    0.16
   9  -3   2    1.29    0.22
  -3  -9   0   12.16    0.60
   9  -3   0   12.80    0.51
  -9  -3   0   12.14    0.60
  -9   3   0   11.97    0.64
   3   9   0   12.33    0.46
   3   9   0   10.86    0.57
   3  -9   0   11.94    0.49
   9  -3   0   11.97    0.55
  -3   9   0   12.71    0.48
   3  -9   0   11.21    0.61
  -3  -9   0   11.86    0.52
  -9   3   0   11.58    0.51
  -9  -3   0   12.53    0.64
  -9  -3   2    1.05    0.12
  -3   9  -2    1.30    0.20
   3   9   2    1.25    0.18
  -9   3  -2    1.17    0.26
   9  -3  -2    1.15    0.14
  -9  -3   2    1.54    0.22
   3  -9  -2    1.25    0.14
   9   3   2    1.39    0.27
   9  -3  -2    1.39    0.24
   3  -9  -2    1.28    0.25
  -3  -9   2    1.45    0.25
  -9   3  -2    1.14    0.21
  -9   3  -4   10.27    0.64
  -9  -3   4   10.56    0.51
   9  -3  -4    9.82    0.53
   9   3   4    9.89    0.54
  -9   3  -4   10.07    0.60
  -3   9  -4   10.83    0.56
  -9  -3   4   10.19    0.43
  -9  -3   4    9.64    0.61
   3   9   4   10.80    0.53
  -9   3  -4   10.14    0.57
   3  -9  -4   11.24    0.61
   9   3   4    9.99    0.32
   3   9   4   10.91    0.50
   9  -3  -6    8.99    0.53
  -3   9  -6    8.30    0.54
   3  -9  -6    9.06    0.45
  -9   3  -6    9.20    0.61
   3   9   6    8.94    0.53
  -9  -3   6    8.88    0.45
   9   3   6    8.81    0.48
   3  -9  -6    9.61    0.58
  -9  -3   6    8.45    0.41
   3  -9  -6    8.77    0.56
  -9  -3   6    9.20    0.59
   3   9   6   10.11    0.50
  -9   3  -6    9.17    0.56
  -9   3  -6    9.09    0.57
  -9  -3   8    0.16    0.25
  -3   9  -8    0.45    0.26
   3  -9  -8    0.82    0.17
  -9   3  -8    0.31    0.24
  -3   9  -8    0.96    0.30
  -9   3  -8    0.44    0.25
   3  -9  -8    0.15    0.22
  -9  -3   8    0.72    0.15
   3   9   8    0.51    0.24
   9  -3  -8    0.52    0.18
   3  -9  -8    0.41    0.33
  -3  -9   8    0.68    0.18
  -9   3  -8    0.38    0.07
  -3   9  -8    0.55    0.10
   9   3   8    0.61    0.19
  -9   3  -8    0.47    0.23
  -3   9 -10   11.59    0.75
  -9   3 -10   12.27    0.72
   3  -9 -10   11.93    0.72
   3   9  10   12.59    0.74
   9  -3 -10   11.05    0.56
  -9  -3  10   12.95    0.58
   3  -9 -10   11.45    0.40
  -9  -3  10   12.44    0.73
   9   3  10   12.53    0.50
   3  -9 -10   12.91    0.57
   3  -9 -10   12.62    0.79
  -3   9 -10   12.17    0.45
  -9   3 -10   11.81    0.74
  -9   3 -10   13.67    0.66
  -3   9 -10   12.94    0.65
   3  -9 -12   23.87    0.88
  -9   3 -12   23.59    1.07
  -9  -3  12   23.57    0.93
   3   9  12   24.17    1.13
  -3   9 -12   23.23    0.80
  -3   9 -12   24.10    1.17
  -9  -3  12   23.70    1.05
   9   3  12   23.25    0.73
   9  -3 -12   23.55    0.91
  -3   9 -12   23.49    0.94
   3  -9 -12   22.07    1.15
   3  -9 -12   25.01    0.76
  -9   3 -12   24.13    1.14
  -3   9 -14    1.46    0.43
   3   9  14    1.61    0.38
  -9   3 -14    1.88    0.36
  -9  -3  14    1.57    0.29
   9  -3 -14    1.81    0.31
  -3   9 -14    1.16    0.29
   3  -9 -14    1.85    0.50
  -3   9 -14    2.07    0.30
   3  -9 -14    1.87    0.27
  -9   3 -14    1.13    0.35
   3  -9 -14    1.84    0.24
  -9  -3  14    1.33    0.33
   3  -9 -16    0.49    0.20
   9  -3 -16    1.02    0.30
   3  -9 -16    0.55    0.41
   3  -9 -16    0.66    0.21
  -3   9 -16    0.90    0.39
  -9   3 -16    0.46    0.26
   3   9  16    0.74    0.35
  -9  -3  16    0.56    0.24
  -9  -3  16    0.41    0.26
  -3   9 -16    0.53    0.24
   9  -3 -18    6.49    0.56
   3   9  18    5.82    0.66
  -9   3 -18    6.08    0.74
  -9  -3  18    4.76    0.51
   3  -9 -18    6.41    0.49
  -3   9 -18    6.10    0.72
   3  -9 -18    4.69    0.69
  -9  -3  18    4.85    0.51
  -9   3 -18    5.38    0.54
   9  -3 -20    3.18    0.47
  -3   9 -20    1.69    0.52
  -9   3 -20    1.46    0.48
  -9   3 -20    2.89    0.43
   3   9  20    1.76    0.45
  -9  -3  20    2.96    0.44
   3  -9 -20    1.94    0.53
   3   9  22    0.00    0.34
  -3   9 -22    0.09    0.42
  -9   3 -22    0.18    0.43
   3  -9 -22    0.40    0.49
   9   4 -25    0.51    0.44
  -4  -9 -25   -0.11    0.29
   9   4 -23    1.10    0.46
  -4  -9 -23    0.66    0.43
   4   9 -23    1.54    0.54
  -9   4  23    0.77    0.39
  -9  -4 -23    0.57    0.43
  -9  -4 -23    0.79    0.43
  -4  -9 -23    0.44    0.32
  -4  -9 -21    1.46    0.38
  -4   9  21    1.98    0.49
   4   9 -21    0.59    0.43
  -4  -9 -21    0.94    0.37
   9   4 -21    1.38    0.47
  -4  -9 -21    2.10    0.67
  -9  -4 -21    1.10    0.39
  -9   4  21    1.71    0.44
   9   4 -19    1.88    0.44
  -4  -9 -19    1.62    0.38
  -4   9  19    1.92    0.45
  -9   4  19    1.49    0.39
   4   9 -19    1.84    0.50
  -9  -4 -19    1.49    0.42
  -9  -4 -17    6.19    0.65
   4   9 -17    5.93    0.70
   9   4 -17    6.47    0.67
  -9   4  17    6.37    0.63
  -4   9  17    5.79    0.65
  -4  -9 -17    5.86    0.58
   9   4 -15    3.71    0.53
  -9  -4 -15    4.55    0.56
  -4   9  15    4.14    0.52
   4   9 -15    3.89    0.56
  -9   4  15    3.16    0.45
  -4  -9 -15    3.83    0.48
  -4  -9 -13    9.95    0.68
   4   9 -13    9.28    0.76
   4   9 -13    8.78    0.49
  -4   9  13    8.59    0.69
  -9   4  13   11.01    0.72
   9   4 -13    9.28    0.72
  -9  -4 -13    8.86    0.70
  -9  -4 -11    8.47    0.65
   4   9 -11    7.80    0.67
  -4   9  11    7.48    0.61
  -9   4  11    7.26    0.47
  -4  -9 -11    7.67    0.59
   9   4 -11    8.74    0.65
  -9   4  11    8.50    0.60
   4   9 -11    7.26    0.39
   4   9 -11    7.63    0.65
  -9  -4  -9   10.88    0.70
  -9   4   9   11.08    0.53
   4   9  -9   10.12    0.72
  -4  -9  -9   11.53    0.68
  -4   9   9   11.03    0.69
  -9   4   9   11.11    0.67
   9   4  -9    9.71    0.66
   4   9  -9   10.94    0.74
   4   9  -9   11.09    0.53
   4   9  -9   10.48    0.41
   9   4  -7    4.23    0.45
   4   9  -7    5.11    0.52
  -4  -9  -7    5.39    0.46
   4   9  -7    4.86    0.22
  -4   9   7    5.44    0.47
  -9  -4  -7    5.38    0.48
  -9   4   7    5.79    0.36
   4   9  -7    6.05    0.41
  -9   4   7    6.18    0.42
   4   9  -7    5.93    0.53
   4   9  -5    3.53    0.45
  -9   4   5    3.32    0.27
  -9  -4  -5    3.07    0.36
  -4  -9  -5    3.21    0.36
  -4  -9  -5    3.33    0.28
  -9   4   5    3.31    0.34
   4   9  -5    2.99    0.32
  -4  -9  -5    3.49    0.31
  -4  -9  -5    3.50    0.33
  -4   9   5    3.04    0.34
   9   4  -5    2.92    0.37
   4   9  -5    3.37    0.39
  -4  -9  -3    0.32    0.19
   9  -4   3    0.47    0.18
  -4  -9  -3    0.43    0.20
  -4   9   3    1.07    0.27
  -9   4   3    0.34    0.20
  -9  -4  -3    0.47    0.16
   4   9  -3    0.52    0.35
   9  -4   3    0.57    0.21
  -9   4   3    0.22    0.13
   4   9  -3    0.34    0.22
  -4  -9  -3    0.55    0.15
  -4  -9  -3    0.33    0.13
   4   9  -3    0.35    0.21
   4   9  -3    0.20    0.05
  -9  -4  -3    0.15    0.18
  -4  -9  -1    7.33    0.47
   9  -4   1    6.68    0.39
  -9  -4  -1    7.99    0.51
  -4   9   1    7.29    0.31
  -9   4   1    7.09    0.50
  -9  -4  -1    6.96    0.48
   4   9  -1    7.16    0.48
   4   9  -1    6.75    0.29
   9   4  -1    6.27    0.51
  -4   9   1    7.20    0.40
  -4  -9  -1    7.23    0.38
   9  -4   1    7.15    0.45
   4  -9   1    6.07    0.47
   9  -4  -1    7.74    0.36
  -9   4  -1    7.35    0.52
   4   9   1    7.01    0.35
   9  -4  -1    7.40    0.45
   9   4   1    7.50    0.52
  -4   9  -1    7.64    0.36
   4  -9  -1    7.25    0.50
  -9  -4   1    6.54    0.22
  -4   9  -1    7.17    0.38
  -9  -4   1    7.15    0.45
  -4  -9   1    7.63    0.39
  -4   9  -3    0.57    0.20
  -9  -4   3    0.08    0.27
   9  -4  -3    0.48    0.21
  -9  -4   3    0.46    0.16
  -9   4  -3    0.23    0.17
  -9   4  -3    0.50    0.22
   4   9   3    0.57    0.17
  -9  -4   3    0.43    0.11
   9  -4  -3    0.34    0.08
  -4   9  -3    0.32    0.11
   4  -9  -3    0.75    0.25
   9   4   3    0.45    0.24
   9   4   5    3.16    0.34
  -9   4  -5    3.22    0.37
  -9  -4   5    2.94    0.29
   4   9   5    3.04    0.31
  -9   4  -5    2.84    0.37
   9  -4  -5    2.64    0.32
  -4   9  -5    3.28    0.35
  -9  -4   5    3.05    0.25
  -9  -4   5    3.34    0.22
   4  -9  -5    3.27    0.38
  -9  -4   5    2.87    0.39
  -9   4  -5    3.75    0.36
   4   9   5    3.26    0.27
   4  -9  -7    6.72    0.37
  -4   9  -7    6.07    0.49
  -9  -4   7    6.05    0.39
  -9   4  -7    6.53    0.53
   4   9   7    5.89    0.46
   9  -4  -7    5.15    0.45
   4  -9  -7    5.59    0.48
  -9  -4   7    6.21    0.33
   9   4   7    5.24    0.40
   4   9   7    6.06    0.39
  -9   4  -7    6.30    0.46
  -9  -4   7    5.54    0.50
  -9   4  -7    5.88    0.49
  -4   9  -9   11.24    0.60
   4  -9  -9   10.46    0.48
  -9   4  -9   10.37    0.58
   4   9   9   10.04    0.65
   4  -9  -9   10.15    0.66
  -9  -4   9   10.94    0.49
  -4   9  -9   10.94    0.71
  -4  -9   9   11.43    0.52
   9   4   9    9.57    0.51
  -9  -4   9    9.93    0.65
  -9   4  -9    9.94    0.67
   9  -4  -9   10.80    0.51
   4  -9 -11    8.09    0.43
  -9   4 -11    6.43    0.55
   9  -4 -11    7.17    0.44
   4  -9 -11    6.25    0.27
  -4   9 -11    6.97    0.62
  -9   4 -11    8.02    0.51
   4   9  11    7.49    0.59
   4  -9 -11    7.29    0.59
  -9  -4  11    6.91    0.56
  -9  -4  11    8.22    0.47
  -4  -9  11    8.49    0.49
   9   4  11    6.82    0.41
  -4   9 -11    8.03    0.51
   4  -9 -11    7.49    0.66
   4  -9 -13    9.19    0.49
   4   9  13    8.06    0.67
   4  -9 -13    9.20    0.40
  -4   9 -13    8.37    0.72
   9  -4 -13    9.35    0.54
  -9  -4  13    9.22    0.55
  -9  -4  13    9.07    0.64
   4  -9 -13    8.02    0.75
  -4   9 -13   10.18    0.54
  -4   9 -13    9.53    0.56
  -9   4 -13    9.97    0.68
   9   4  13    8.62    0.44
  -9  -4  15    3.84    0.40
  -4   9 -15    4.00    0.55
   4  -9 -15    3.84    0.31
  -9   4 -15    3.61    0.44
   4   9  15    4.55    0.56
   9  -4 -15    3.97    0.39
   4  -9 -15    2.59    0.51
  -4   9 -15    3.71    0.38
  -9  -4  15    4.56    0.47
   4  -9 -15    4.48    0.36
   9  -4 -17    5.68    0.49
  -9  -4  17    7.02    0.56
  -9   4 -17    6.31    0.58
  -9   4 -17    5.97    0.71
   4   9  17    6.79    0.70
  -9  -4  17    5.58    0.53
  -4   9 -17    5.93    0.50
   4  -9 -17    7.46    0.79
   4  -9 -17    6.62    0.47
  -4   9 -17    6.45    0.71
   9  -4 -19    1.92    0.34
  -4   9 -19    1.86    0.49
  -9   4 -19    1.99    0.36
  -9   4 -19    1.71    0.50
   4   9  19    1.84    0.45
  -9  -4  19    1.64    0.35
   4  -9 -19    1.79    0.56
   4   9  21    0.89    0.41
  -9   4 -21    0.95    0.31
  -9   4 -21    0.63    0.46
  -4   9 -21    0.82    0.45
   4   9  23    0.78    0.40
  -9  -5 -24    0.46    0.47
   9   5 -24    0.23    0.43
  -5  -9 -24   -0.18    0.29
  -5  -9 -22    1.19    0.41
  -5  -9 -22    0.97    0.41
   5   9 -22    0.74    0.43
  -5   9  22    0.40    0.40
  -9   5  22    1.27    0.48
   9   5 -22    0.89    0.46
  -5  -9 -22    1.21    0.58
  -9  -5 -22    1.42    0.44
  -5  -9 -20    3.16    0.51
  -5   9  20    2.63    0.54
  -9   5  20    3.80    0.57
   5   9 -20    2.80    0.55
   9   5 -20    3.10    0.55
  -9  -5 -20    2.29    0.51
  -9  -5 -18    3.39    0.56
   5   9 -18    4.28    0.65
  -5  -9 -18    3.98    0.54
   9   5 -18    3.97    0.58
  -9   5  18    3.98    0.55
  -5   9  18    4.44    0.60
  -9  -5 -16    3.98    0.54
  -9   5  16    3.46    0.48
   9   5 -16    2.88    0.49
  -5   9  16    2.69    0.49
  -5  -9 -16    3.94    0.49
   5   9 -16    3.22    0.54
  -5  -9 -14    2.59    0.41
  -5   9  14    3.24    0.47
  -9   5  14    2.73    0.43
  -9  -5 -14    3.85    0.51
   9   5 -14    2.97    0.48
   5   9 -14    3.47    0.55
  -9  -5 -12   18.43    1.01
   5   9 -12   20.25    1.07
   5   9 -12   19.73    0.68
  -5   9  12   20.19    1.05
  -9   5  12   16.89    0.73
  -5  -9 -12   20.89    1.02
  -9   5  12   18.26    0.97
   5   9 -12   21.87    1.12
   9   5 -12   18.39    1.01
  -9  -5 -10    9.97    0.70
  -9   5  10    9.26    0.64
  -5  -9 -10    9.11    0.65
  -9   5  10    9.08    0.47
   5   9 -10    9.42    0.72
   5   9 -10    8.93    0.36
  -5   9  10    9.20    0.66
   5   9 -10    8.39    0.67
   9   5 -10    9.27    0.69
  -5  -9  -8    6.36    0.52
   9   5  -8    7.00    0.58
   5   9  -8    6.62    0.58
  -9  -5  -8    6.89    0.56
   5   9  -8    7.64    0.65
   5   9  -8    6.78    0.45
  -9   5   8    7.83    0.56
  -5   9   8    7.58    0.57
  -9   5   8    6.74    0.37
  -5   9   6   17.47    0.86
   5   9  -6   18.47    0.90
  -5  -9  -6   18.87    0.89
  -9   5   6   18.68    0.81
   5   9  -6   18.04    0.77
   9   5  -6   18.42    0.88
  -9  -5  -6   19.56    0.91
   5   9  -6   18.70    0.95
  -9   5   6   18.99    0.64
   9   5  -4   11.71    0.68
  -9  -5  -4   11.97    0.68
  -9   5   4   12.14    0.65
  -9  -5  -4   11.73    0.58
  -5  -9  -4   12.36    0.68
  -5  -9  -4   11.39    0.48
  -5  -9  -4   11.95    0.55
  -9   5   4   12.30    0.50
  -5   9   4   12.04    0.63
   5   9  -4   12.85    0.70
   5   9  -4   11.33    0.72
  -5   9   2    7.11    0.26
  -9  -5  -2    8.19    0.53
  -5  -9  -2    8.22    0.54
  -9  -5  -2    7.52    0.41
   5   9  -2    7.43    0.52
   5   9  -2    7.49    0.59
   9   5  -2    7.06    0.56
  -5  -9  -2    8.09    0.38
  -5  -9  -2    7.60    0.37
  -9   5   2    7.70    0.53
  -5   9   2    7.60    0.47
   9  -5   2    8.49    0.51
   5  -9   2    7.60    0.53
   9  -5   2    8.09    0.46
   9  -5   0   26.98    0.85
  -9  -5   0   26.14    0.98
   5   9   0   24.83    1.06
  -9  -5   0   24.86    0.78
   5   9   0   25.39    0.71
  -9   5   0   24.36    1.03
   9   5   0   25.77    1.03
  -5   9   0   26.88    0.86
   9  -5   0   26.71    0.96
   5  -9   0   27.35    1.03
  -5  -9   0   25.09    0.80
  -5   9   0   27.36    0.79
   9  -5  -2    8.26    0.35
  -9  -5   2    7.71    0.59
  -5   9  -2    8.53    0.45
  -9   5  -2    7.76    0.55
  -9  -5   2    7.04    0.26
  -9  -5   2    7.81    0.48
   9  -5  -2    7.29    0.49
   9   5   2    8.30    0.55
   5   9   2    7.45    0.38
   5  -9  -2    7.78    0.52
   9  -5  -4   10.88    0.35
  -5   9  -4   11.62    0.60
  -9  -5   4   12.06    0.71
  -9   5  -4   11.05    0.69
   5   9   4   11.90    0.56
  -9  -5   4   11.55    0.45
   9  -5  -4   12.92    0.65
   5  -9  -4   12.10    0.66
   9   5   4   12.62    0.64
  -9  -5   4   11.46    0.59
  -9   5  -6   18.84    0.81
  -9   5  -6   17.83    0.90
  -5   9  -6   18.33    0.83
  -9  -5   6   17.76    0.87
   5   9   6   18.04    0.77
   9   5   6   15.94    0.48
   5  -9  -6   16.62    0.82
   5  -9  -6   18.67    0.64
   9   5   6   17.63    0.77
   5   9   6   19.28    0.68
  -9  -5   6   17.47    0.55
   9  -5  -6   18.28    0.82
  -9  -5   8    6.44    0.33
   5  -9  -8    5.86    0.33
  -9   5  -8    7.01    0.57
   9   5   8    6.65    0.33
  -5   9  -8    5.53    0.51
   5   9   8    6.14    0.49
   9  -5  -8    6.04    0.50
   5  -9  -8    5.40    0.50
   5   9   8    6.22    0.39
   9   5   8    5.97    0.44
  -9   5  -8    7.12    0.48
  -9  -5   8    5.47    0.51
  -5   9 -10    8.67    0.52
  -5   9 -10    8.60    0.67
  -9   5 -10    9.05    0.54
   5   9  10    8.22    0.61
   5  -9 -10    8.32    0.63
  -9  -5  10    8.22    0.43
  -9   5 -10    8.93    0.65
  -5   9 -10    8.37    0.36
   5  -9 -10    8.93    0.42
  -5  -9  10    8.48    0.50
  -9  -5  10    8.86    0.61
   9   5  10    8.21    0.50
   9   5  12   18.32    0.74
   5  -9 -12   20.18    0.70
  -9   5 -12   19.02    0.77
  -9   5 -12   19.53    0.99
  -5   9 -12   19.51    0.78
   5   9  12   17.15    0.97
  -9  -5  12   19.51    0.76
   9  -5 -12   19.63    0.73
  -9  -5  12   19.30    0.91
  -5  -9  12   18.86    0.82
  -5   9 -12   17.36    1.00
   5  -9 -12   16.08    0.48
  -9  -5  14    3.74    0.43
   5  -9 -14    3.68    0.25
  -5   9 -14    2.98    0.50
   9   5  14    3.75    0.33
  -9   5 -14    3.36    0.45
  -9  -5  14    3.56    0.36
   5   9  14    3.62    0.50
  -9   5 -14    3.76    0.56
  -5   9 -14    3.10    0.32
   5  -9 -14    3.91    0.30
   9  -5 -14    3.82    0.34
  -5   9 -16    3.28    0.54
  -9   5 -16    3.84    0.60
   5   9  16    4.07    0.57
  -9  -5  16    2.94    0.41
  -9  -5  16    3.01    0.36
  -9   5 -16    3.25    0.44
   9  -5 -16    3.11    0.34
  -5   9 -16    3.84    0.42
  -5   9 -18    3.65    0.60
  -9   5 -18    2.88    0.43
  -9   5 -18    4.56    0.66
   5   9  18    3.15    0.52
  -9  -5  18    3.76    0.43
  -9   5 -20    2.99    0.44
  -5   9 -20    3.05    0.61
  -9   5 -20    2.88    0.57
   5   9  20    2.85    0.54
  -5   9 -22    0.61    0.44
   5   9  22    0.91    0.46
  -9   5 -22    1.49    0.53
   9   6 -23   -0.14    0.38
  -6  -9 -23    1.12    0.46
  -9   6  23    0.75    0.43
  -9  -6 -23    0.82    0.41
  -6  -9 -23    0.44    0.37
  -6  -9 -21   -0.13    0.29
  -6   9  21    0.77    0.40
   9   6 -21   -0.20    0.41
   6   9 -21    0.92    0.49
  -9   6  21   -0.14    0.33
  -9  -6 -21    0.45    0.37
  -9  -6 -19   -0.04    0.30
  -6  -9 -19    0.42    0.31
   9   6 -19   -0.03    0.35
   6   9 -19    0.60    0.43
  -6   9  19    0.69    0.37
  -9   6  19   -0.20    0.33
  -6  -9 -17    7.03    0.67
  -9   6  17    6.37    0.66
  -6   9  17    8.05    0.76
   9   6 -17    5.96    0.72
   6   9 -17    5.91    0.72
  -9  -6 -17    7.00    0.70
  -6   9  15    0.84    0.34
  -6  -9 -15    0.88    0.33
  -9   6  15    1.56    0.37
   9   6 -15    0.93    0.38
   6   9 -15    1.46    0.43
  -9  -6 -15    1.23    0.36
  -9  -6 -13    8.35    0.71
  -6  -9 -13    8.40    0.69
   6   9 -13    8.82    0.76
  -6   9  13    7.82    0.67
  -9   6  13    9.04    0.70
   9   6 -13    8.12    0.71
   9   6 -11    6.37    0.62
  -9  -6 -11    6.15    0.59
  -6  -9 -11    5.50    0.54
   6   9 -11    6.15    0.62
  -9   6  11    5.87    0.36
  -6   9  11    6.62    0.59
  -9   6  11    6.10    0.56
   6   9 -11    5.53    0.28
   6   9 -11    5.51    0.63
  -6  -9  -9    4.52    0.47
  -9   6   9    4.93    0.30
  -6   9   9    5.02    0.50
   6   9  -9    4.49    0.51
  -9   6   9    5.11    0.49
   6   9  -9    4.10    0.55
   9   6  -9    4.96    0.53
  -9  -6  -9    4.92    0.50
  -6  -9  -7   11.56    0.71
  -9   6   7   10.96    0.44
  -9  -6  -7   11.78    0.73
   6   9  -7   11.62    0.73
  -6   9   7   12.92    0.75
   6   9  -7   11.12    0.76
   9   6  -7   10.56    0.70
   9   6  -5    0.82    0.29
  -9   6   5    0.46    0.12
  -6  -9  -5    0.50    0.17
  -9  -6  -5    0.60    0.25
   6   9  -5    0.98    0.39
  -6  -9  -5    0.41    0.25
   6   9  -5    0.42    0.25
   9   6  -5    0.10    0.34
  -9   6   5    0.45    0.21
   9  -6   3    0.06    0.21
   9  -6   3    0.22    0.15
   6  -9   3    0.23    0.24
  -9   6   3    0.22    0.18
  -9  -6  -3    0.26    0.14
  -9  -6  -3    0.15    0.20
   6   9  -3   -0.01    0.32
   6   9  -3    0.50    0.27
  -6  -9  -3    0.42    0.23
  -6  -9  -3    0.11    0.10
  -6  -9  -3    0.26    0.12
  -9   6   3    0.33    0.13
  -6   9   3    0.35    0.22
   9   6  -3    0.20    0.29
   6   9  -1   11.76    0.74
   6   9  -1   11.24    0.66
  -9  -6  -1   11.54    0.49
  -6   9   1   11.37    0.58
  -6  -9  -1   11.58    0.66
  -9   6   1   11.64    0.68
  -6   9   1   11.59    0.42
  -6  -9  -1   11.86    0.43
  -6  -9  -1   11.63    0.44
   9   6  -1   10.86    0.69
  -9  -6  -1   11.66    0.66
   9  -6   1   11.08    0.63
   6  -9   1   11.74    0.67
   9  -6   1   11.80    0.56
  -9  -6   1   10.97    0.71
   6   9   1   10.32    0.69
   6   9   1   11.61    0.44
  -9  -6   1   11.15    0.42
   9  -6  -1   10.66    0.62
   9   6   1   10.67    0.67
  -6   9  -1   10.85    0.49
   6  -9  -1   12.17    0.67
  -9   6  -1   11.01    0.69
  -6  -9   1   11.48    0.46
   9  -6  -1   12.62    0.51
  -9  -6   1   11.29    0.62
   9   6   3   -0.05    0.26
  -6   9  -3    0.31    0.20
  -9   6  -3    0.51    0.25
  -9  -6   3    0.35    0.17
   9  -6  -3    0.26    0.10
   6   9   3    0.34    0.15
  -9  -6   3    0.44    0.28
   9  -6  -3    0.18    0.21
   6  -9  -3    0.32    0.25
   6  -9  -5    0.55    0.27
   9  -6  -5    0.21    0.25
  -6   9  -5    0.20    0.21
   6   9   5    0.19    0.19
   9   6   5    0.20    0.26
  -9  -6   5    0.37    0.07
  -9   6  -5    0.59    0.26
  -9  -6   5    0.13    0.27
   6   9   7   10.62    0.62
   6  -9  -7   11.69    0.44
  -9   6  -7   10.79    0.71
  -9  -6   7    9.09    0.35
   9  -6  -7    9.60    0.63
  -6   9  -7   10.22    0.66
   6  -9  -7   10.77    0.67
   9   6   7   10.50    0.38
  -9   6  -7   12.04    0.63
   6   9   7   10.55    0.48
  -9  -6   7   10.91    0.69
   9   6   7   10.29    0.60
   9   6   9    4.94    0.43
   6  -9  -9    5.24    0.28
  -6   9  -9    4.94    0.52
  -9   6  -9    4.39    0.48
  -9  -6   9    4.30    0.49
  -9  -6   9    4.58    0.27
   6   9   9    4.26    0.44
   9   6   9    4.93    0.30
   6  -9  -9    4.52    0.47
   6   9   9    5.22    0.37
   9  -6  -9    4.63    0.49
  -9   6  -9    5.28    0.43
  -9   6 -11    5.97    0.44
   6  -9 -11    6.10    0.32
  -6   9 -11    5.08    0.57
   9   6  11    6.18    0.48
   6  -9 -11    5.75    0.56
   6   9  11    5.59    0.54
  -9  -6  11    5.72    0.35
   9   6  11    6.09    0.40
  -9   6 -11    5.44    0.55
  -9  -6  11    5.44    0.52
  -6   9 -11    5.44    0.29
  -6   9 -11    5.11    0.40
  -9  -6  13    7.66    0.60
   9  -6 -13    7.55    0.43
  -9   6 -13    7.75    0.72
  -9   6 -13    7.72    0.62
   9   6  13    6.90    0.49
  -6   9 -13    6.91    0.68
   6   9  13    8.44    0.70
  -6   9 -13    7.58    0.46
  -9  -6  13    8.20    0.47
   6  -9 -13    7.78    0.39
  -6   9 -15    1.39    0.41
  -9   6 -15    1.52    0.45
   6   9  15    0.80    0.32
  -9  -6  15    0.96    0.22
  -9   6 -15    0.91    0.29
   9  -6 -15    0.94    0.22
  -9  -6  15    0.94    0.30
  -9   6 -17    6.13    0.59
  -9   6 -17    6.73    0.75
   6   9  17    6.19    0.68
  -6   9 -17    5.94    0.71
  -9   6 -19    0.29    0.26
  -6   9 -19    0.08    0.36
  -9   6 -19    0.25    0.43
   6   9  19    0.06    0.34
  -9   6 -21   -0.17    0.29
  -6   9 -21   -0.07    0.41
  -9   6 -21    0.27    0.41
   6   9  21    0.20    0.38
  -7  -9 -24    0.23    0.40
  -7  -9 -22    3.90    0.60
   7   9 -22    3.23    0.63
  -7   9  22    3.67    0.65
  -9   7  22    2.61    0.54
   9   7 -22    3.01    0.62
  -9  -7 -22    2.36    0.53
  -9  -7 -20    5.16    0.66
  -7  -9 -20    3.55    0.58
  -7   9  20    4.28    0.63
  -9   7  20    4.11    0.60
   9   7 -20    4.68    0.68
   7   9 -20    4.18    0.65
  -9  -7 -18    2.36    0.50
   7   9 -18    1.01    0.43
  -9   7  18    1.70    0.44
  -7  -9 -18    0.58    0.35
  -7   9  18    1.10    0.40
   9   7 -18    1.09    0.44
  -9  -7 -16    3.10    0.51
   7   9 -16    3.05    0.55
  -7  -9 -16    2.46    0.45
  -7   9  16    3.37    0.52
  -9   7  16    1.97    0.42
   9   7 -16    3.17    0.54
  -9  -7 -14   10.80    0.81
  -7  -9 -14   11.56    0.82
  -7   9  14    9.83    0.78
  -9   7  14    8.86    0.74
   9   7 -14   10.04    0.82
   7   9 -14    9.43    0.81
  -9  -7 -12   10.64    0.78
  -7  -9 -12   10.97    0.79
   7   9 -12   10.42    0.82
  -9   7  12   12.27    0.81
   9   7 -12   11.65    0.84
  -7   9  12   11.24    0.80
   9   7 -10   16.45    0.94
   7   9 -10   14.67    0.92
  -7  -9 -10   15.83    0.90
  -9  -7 -10   16.67    0.96
  -7   9  10   15.87    0.92
   7   9 -10   15.55    0.97
  -9   7  10   18.02    0.95
   9   7  -8   17.13    0.92
  -7  -9  -8   17.45    0.90
   7   9  -8   16.21    0.90
  -9  -7  -8   15.54    0.88
  -9   7   8   14.19    0.47
  -7   9   8   16.94    0.90
  -9   7   8   16.18    0.87
   7   9  -8   16.34    0.95
  -7  -9  -6    2.73    0.39
   7   9  -6    2.86    0.51
   9   7  -6    2.61    0.40
  -9  -7  -6    3.04    0.41
  -9   7   6    2.40    0.17
   7   9  -6    3.27    0.45
  -7   9   6    2.75    0.40
   9   7  -6    1.92    0.43
   9   7  -4    7.77    0.60
  -9  -7  -4    7.82    0.58
  -7  -9  -4    8.13    0.59
  -9  -7  -4    7.41    0.46
  -7  -9  -4    6.73    0.41
   9   7  -4    8.19    0.65
   7   9  -4    7.73    0.66
   7   9  -4    6.23    0.55
  -9   7   4    8.09    0.34
   9  -7   4    7.64    0.54
  -7   9   2   22.77    0.63
  -9  -7  -2   23.69    1.00
  -7  -9  -2   22.67    0.99
  -9  -7  -2   22.02    0.78
  -7  -9  -2   22.80    0.74
   9   7  -2   23.77    1.06
  -9   7   2   25.62    1.05
  -7  -9  -2   22.39    0.64
  -7   9   2   22.76    0.91
   9  -7   2   22.85    0.95
   7   9  -2   21.89    1.05
   7  -9   2   22.52    0.97
   9  -7   2   24.12    0.90
   7   9  -2   22.26    0.99
   9   7   0    2.57    0.42
  -9   7   0    3.77    0.43
  -7  -9   0    3.74    0.19
  -9  -7   0    3.46    0.24
  -7   9   0    3.57    0.27
   7   9   0    4.16    0.51
  -9  -7   0    3.59    0.38
  -7  -9   0    3.68    0.40
  -7  -9   0    4.04    0.24
   9  -7   0    4.10    0.42
   9  -7   0    3.68    0.31
   7  -9   0    4.06    0.43
   7   9   2   21.38    1.01
  -9  -7   2   24.08    0.96
  -9   7  -2   22.34    1.02
  -9  -7   2   19.93    0.58
  -9  -7   2   23.32    1.03
   9  -7  -2   23.05    0.95
  -7   9  -2   23.14    0.83
   9   7   2   22.42    1.00
   9  -7  -2   24.64    0.76
   7  -9  -2   23.93    0.99
   7   9   4    8.22    0.46
  -9   7  -4    8.48    0.63
   9  -7  -4    8.33    0.57
  -9  -7   4    7.34    0.59
   7   9   4    8.32    0.63
   7  -9  -4    7.37    0.56
   9   7   4    8.16    0.60
  -7   9  -4    7.99    0.51
   9  -7  -4    7.87    0.33
  -9   7  -6    2.43    0.40
   9   7   6    2.39    0.38
  -7   9  -6    3.09    0.38
   7   9   6    2.98    0.34
  -9  -7   6    2.37    0.41
   7  -9  -6    2.40    0.39
   9  -7  -6    2.76    0.38
   9   7   6    2.52    0.14
   7   9   6    2.66    0.22
   9   7   8   14.07    0.74
  -9  -7   8   17.69    0.86
  -9   7  -8   16.63    0.89
   7  -9  -8   16.01    0.49
  -7   9  -8   16.14    0.86
   9  -7  -8   16.90    0.85
   7  -9  -8   15.29    0.83
   7   9   8   15.80    0.78
   9   7   8   15.80    0.51
  -9   7  -8   16.74    0.74
   7   9   8   16.09    0.60
   7  -9 -10   15.82    0.51
  -9   7 -10   15.83    0.91
   9   7  10   16.04    0.79
   9  -7 -10   16.86    0.90
  -9  -7  10   15.55    0.52
  -9   7 -10   16.45    0.95
   7   9  10   14.90    0.83
   7  -9 -10   15.74    0.90
  -9  -7  10   14.96    0.84
   9   7  10   16.25    0.62
   7   9  10   16.02    0.68
  -7   9 -10   17.28    0.65
  -9   7 -10   17.58    0.74
  -7   9 -10   15.58    0.91
  -9   7 -12    9.78    0.73
  -9  -7  12   10.07    0.68
  -9  -7  12   11.59    0.49
   7   9  12   10.46    0.75
  -7   9 -12   10.46    0.43
   7  -9 -12   11.80    0.79
   9   7  12   11.62    0.66
  -9   7 -12   11.18    0.56
  -7   9 -12   10.69    0.52
  -7   9 -12   11.51    0.83
  -9   7 -12    9.93    0.79
   7  -9 -12    9.25    0.37
  -9   7 -14   10.53    0.85
  -9  -7  14    9.40    0.65
  -7   9 -14    8.59    0.77
   7   9  14   10.04    0.77
   9   7  14    9.26    0.59
  -9   7 -14    9.51    0.71
  -7   9 -16    2.23    0.51
   7   9  16    2.11    0.43
  -9   7 -16    3.42    0.59
  -9  -7  16    2.99    0.40
  -9   7 -16    2.61    0.45
  -9   7 -18    1.95    0.38
  -7   9 -18    1.21    0.48
  -9   7 -18    1.42    0.49
   7   9  18    1.35    0.48
  -9   7 -20    3.61    0.65
  -9   7 -20    3.24    0.48
  -7   9 -20    3.43    0.65
   7   9  20    3.61    0.59
   7   9  22    3.38    0.61
  -9  -8 -21    0.07    0.33
  -8  -9 -21    0.55    0.38
  -9   8  21   -0.03    0.32
   9   8 -21   -0.45    0.43
   8   9 -21    0.19    0.45
  -8   9  21    0.33    0.36
  -8  -9 -19    5.70    0.69
  -8   9  19    6.26    0.72
   8   9 -19    6.67    0.79
   9   8 -19    4.58    0.68
  -9   8  19    5.36    0.67
  -9  -8 -19    6.66    0.73
  -8  -9 -17    6.38    0.70
   8   9 -17    7.72    0.79
  -8   9  17    7.50    0.75
  -9   8  17    6.47    0.69
   9   8 -17    6.79    0.74
  -9  -8 -17    7.67    0.75
   8   9 -15    5.04    0.63
  -8  -9 -15    4.69    0.57
  -8   9  15    5.38    0.62
  -9   8  15    4.46    0.57
  -9  -8 -15    5.16    0.62
   9   8 -15    4.08    0.59
  -9  -8 -13   12.67    0.88
  -8  -9 -13   12.83    0.87
  -9   8  13   13.29    0.88
   8   9 -13   11.00    0.88
  -8   9  13   12.70    0.87
   9   8 -13   12.26    0.89
  -9  -8 -11   24.55    1.19
  -8  -9 -11   22.78    1.15
   8   9 -11   22.19    1.16
   9   8 -11   22.31    1.16
  -9   8  11   22.18    1.13
  -8   9  11   21.41    1.12
   8   9  -9    1.75    0.39
  -8  -9  -9    2.50    0.41
  -9  -8  -9    1.65    0.37
  -8   9   9    1.81    0.38
  -9   8   9    1.71    0.34
   8   9  -9    2.46    0.51
   9   8  -9    2.35    0.45
  -9  -8  -7   17.90    0.95
   9   8  -7   17.90    0.96
  -8  -9  -7   19.19    0.97
   8   9  -7   16.45    0.99
   9   8  -7   16.87    0.99
  -8   9   7   19.38    0.96
  -9   8   7   18.61    0.95
   8   9  -7   16.03    0.94
   9   8  -5   19.44    0.97
  -9  -8  -5   20.09    0.98
   8   9  -5   18.94    0.97
  -8  -9  -5   19.27    0.80
   9   8  -5   20.47    1.06
   8   9  -5   22.29    1.10
  -8  -9  -5   20.23    0.98
   9  -8   3    2.31    0.35
   8  -9   3    1.87    0.36
  -8  -9  -3    2.05    0.22
  -9  -8  -3    2.27    0.35
  -8  -9  -3    2.81    0.37
  -8   9   3    2.28    0.13
   8   9  -3    1.72    0.41
  -9   8   3    2.10    0.18
  -9  -8  -3    2.20    0.25
   8   9  -3    2.34    0.37
  -8   9   3    2.09    0.13
   9   8  -3    2.28    0.46
  -9   8   1   31.01    1.24
  -9  -8  -1   30.50    1.18
  -8  -9  -1   30.39    1.19
  -9  -8  -1   29.14    0.87
  -8  -9  -1   26.84    0.72
   9   8  -1   31.87    1.28
  -8  -9  -1   30.67    0.84
   9  -8   1   32.46    1.19
   8  -9   1   32.24    1.21
   8   9  -1   30.27    1.26
   8  -9   1   30.25    1.06
   9  -8   1   29.50    1.03
  -8   9   1   30.63    0.87
   8   9   1   28.56    1.20
  -8   9  -1   30.17    0.95
  -9   8  -1   31.32    1.25
  -9  -8   1   30.19    1.15
  -9  -8   1   26.55    0.72
  -8  -9   1   29.95    1.16
   9  -8  -1   30.92    1.15
   8  -9  -1   30.56    1.15
  -9  -8   1   26.29    0.67
   9   8   1   28.62    1.19
  -8  -9   1   30.60    0.78
   9  -8  -1   30.91    0.96
   9   8   3    2.57    0.42
  -9   8  -3    2.39    0.37
  -8   9  -3    2.48    0.32
   8   9   3    2.20    0.44
  -9  -8   3    1.99    0.30
   9  -8  -3    3.29    0.41
   8  -9  -3    2.06    0.36
   9  -8  -3    2.92    0.24
   8  -9  -5   21.12    0.97
   8   9   5   21.27    1.00
  -9   8  -5   19.67    1.01
  -9  -8   5   19.41    0.98
   9  -8  -5   20.23    0.95
  -8   9  -5   20.92    0.90
   9  -8  -5   20.23    0.60
   9   8   5   21.17    0.96
  -8   9  -7   17.33    0.95
   9   8   7   17.54    0.87
  -9  -8   7   17.04    0.90
  -8   9  -7   16.50    0.86
  -9   8  -7   17.70    0.91
   8   9   7   17.89    0.82
   9  -8  -7   16.74    0.89
   8  -9  -7   17.54    0.91
  -9   8  -7   16.38    0.93
   8   9   7   18.26    0.91
   9   8   7   16.96    0.53
   8   9   7   18.35    0.60
   8  -9  -7   16.98    0.52
  -9  -8   9    2.38    0.41
   8  -9  -9    1.72    0.12
  -8   9  -9    2.17    0.39
  -9   8  -9    2.34    0.43
  -9   8  -9    2.37    0.42
   9   8   9    1.83    0.38
   8  -9  -9    2.76    0.44
   9  -8  -9    2.11    0.39
  -8   9  -9    2.04    0.28
  -9   8  -9    2.30    0.32
   9   8   9    2.45    0.22
   8   9   9    1.95    0.34
   8   9   9    2.17    0.23
  -8   9  -9    2.20    0.41
  -9   8 -11   22.56    0.84
  -9   8 -11   22.71    0.71
  -8   9 -11   20.80    1.09
  -8   9 -11   21.64    1.12
   9   8  11   20.43    0.95
  -9   8 -11   20.66    1.11
  -9   8 -11   21.43    1.09
   9  -8 -11   21.52    1.08
   8  -9 -11   21.79    1.09
  -8   9 -11   22.95    0.80
   8   9  11   21.80    1.06
  -8   9 -11   22.43    0.79
  -9  -8  11   21.25    1.01
  -9   8 -13   13.26    0.57
  -8   9 -13   12.07    0.89
  -9   8 -13   12.75    0.90
   8   9  13   12.78    0.85
  -8  -9  13   13.65    0.74
  -9  -8  13   11.78    0.73
  -9   8 -13   12.92    0.85
  -8   9 -15    4.53    0.60
   8   9  15    4.35    0.58
  -9   8 -15    4.66    0.64
  -9  -8  15    4.99    0.50
  -9   8 -15    6.14    0.60
  -9   8 -17    8.29    0.71
  -8   9 -17    6.78    0.77
  -9   8 -17    6.96    0.78
   8   9  17    7.11    0.73
  -9   8 -19    4.96    0.73
   8   9  19    5.93    0.72
  -8   9 -19    6.22    0.77
  -8   9 -21    0.44    0.43
  -9   8 -21   -0.40    0.43
  -9  -9 -20    1.73    0.45
  -9   9  20    1.02    0.41
   9   9 -20    1.75    0.55
   9   9 -18    0.54    0.39
  -9  -9 -18    1.14    0.39
  -9   9  18    1.37    0.45
   9   9 -16   -0.15    0.37
  -9   9  16   -0.03    0.30
  -9  -9 -16    0.67    0.32
   9   9 -14    5.83    0.65
  -9   9  14    4.97    0.59
  -9  -9 -14    4.97    0.60
   9   9 -12    1.46    0.42
  -9   9  12    1.82    0.41
  -9  -9 -12    2.15    0.42
  -9  -9 -10    9.97    0.75
   9   9 -10    9.34    0.75
  -9   9  10    9.84    0.75
   9   9  -8   11.62    0.81
  -9  -9  -8   12.22    0.81
  -9   9   8   12.71    0.82
   9   9  -8   11.62    0.87
  -9  -9  -6    0.30    0.26
   9   9  -6    0.48    0.29
   9   9  -6   -0.12    0.42
   9  -9   4    3.62    0.44
   9   9  -4    3.36    0.44
  -9  -9  -4    2.64    0.39
  -9   9   4    2.47    0.13
  -9  -9  -4    2.86    0.29
  -9   9   4    2.81    0.13
   9   9  -4    3.17    0.51
  -9  -9  -2    6.63    0.55
  -9   9   2    7.05    0.34
  -9  -9  -2    7.09    0.38
   9   9  -2    7.04    0.65
   9  -9   2    7.67    0.58
  -9  -9   0   29.32    1.14
  -9   9   0   27.85    0.87
  -9  -9   0   28.59    0.71
   9   9   0   27.38    1.20
   9  -9   0   30.64    1.15
   9  -9   0   30.40    0.98
  -9   9  -2    7.67    0.48
  -9  -9   2    7.26    0.55
   9  -9  -2    7.72    0.58
   9  -9  -2    7.14    0.42
   9   9   2    7.29    0.63
  -9   9  -4    2.87    0.36
  -9   9  -4    3.71    0.47
   9   9   4    3.23    0.46
   9  -9  -4    3.31    0.41
   9  -9  -4    3.41    0.25
  -9   9  -6    0.36    0.28
   9   9   6    0.32    0.36
   9  -9  -6    0.20    0.26
  -9   9  -6    0.19    0.26
   9  -9  -6    0.19    0.09
  -9   9  -8   12.28    0.82
   9   9   8   11.98    0.76
  -9  -9   8   12.60    0.80
  -9   9  -8   11.75    0.77
   9  -9  -8   12.12    0.77
   9   9   8   12.14    0.47
   9   9  10   10.74    0.71
  -9   9 -10    9.55    0.74
   9  -9 -10    8.79    0.69
  -9   9 -10    9.03    0.73
  -9   9 -10   11.25    0.59
  -9  -9  10    9.51    0.68
  -9   9 -12    1.58    0.37
  -9   9 -12    1.72    0.25
  -9   9 -12    1.57    0.40
   9  -9 -12    1.82    0.42
  -9  -9  12    2.06    0.38
  -9   9 -14    6.14    0.67
  -9  -9  14    5.17    0.50
  -9   9 -14    4.84    0.57
  -9   9 -16    1.15    0.43
  -9   9 -18    1.01    0.46
  -9   9 -20    1.53    0.55
 -10   0   0    5.11    0.36
 -10   0   0    4.85    0.43
  10   0   0    5.68    0.35
   0 -10   0    5.70    0.37
   0  10   0    5.72    0.37
  10   0   0    5.84    0.32
   0 -10   0    6.20    0.31
   0 -10   0    6.14    0.43
 -10   0   2    0.33    0.13
 -10   0   2    0.38    0.14
   0  10  -2    0.70    0.21
   0 -10  -2    0.59    0.16
  10   0  -2    0.42    0.16
   0 -10   2    0.31    0.20
  10   0   2    0.50    0.16
   0 -10  -2    1.04    0.25
   0  10   2    0.37    0.16
   0 -10  -2    0.49    0.22
  10   0   2    0.54    0.15
 -10   0  -2    0.33    0.21
 -10   0  -2    0.24    0.15
 -10   0  -4   48.42    1.54
 -10   0   4   46.26    1.24
   0  10  -4   46.51    1.45
   0 -10  -4   48.71    1.26
   0  10   4   46.19    1.41
 -10   0   4   48.42    1.33
   0 -10  -4   47.34    1.44
 -10   0  -4   47.56    1.31
   0 -10  -4   45.35    1.39
  10   0   4   47.78    1.25
 -10   0  -4   45.68    1.46
   0  10  -6   15.83    0.81
   0 -10  -6   15.87    0.57
   0  10  -6   15.42    0.77
 -10   0  -6   15.41    0.79
   0  10   6   13.64    0.69
 -10   0   6   13.98    0.64
   0 -10  -6   14.66    0.71
   0 -10  -6   13.45    0.67
   0 -10  -6   16.79    0.79
 -10   0  -6   14.90    0.55
 -10   0   6   14.84    0.51
 -10   0  -6   14.32    0.76
 -10   0  -8    1.26    0.30
   0 -10  -8    1.30    0.20
 -10   0  -8    1.49    0.36
   0  10  -8    1.41    0.35
  10   0  -8    1.07    0.27
 -10   0   8    1.06    0.13
   0 -10  -8    0.79    0.21
   0  10  -8    1.08    0.36
 -10   0   8    0.99    0.19
   0  10   8    0.90    0.25
 -10   0   8    0.68    0.19
   0 -10  -8    2.33    0.44
   0  10  -8    0.99    0.19
   0 -10  -8    0.48    0.24
   0 -10 -10   42.25    1.37
   0  10 -10   42.29    1.56
 -10   0  10   40.22    1.04
   0  10 -10   42.42    1.30
   0 -10 -10   42.90    1.44
   0  10  10   40.95    1.50
 -10   0  10   42.19    1.20
 -10   0  10   42.54    1.37
   0  10 -10   40.54    1.01
   0 -10 -10   41.53    1.54
   0  10 -10   42.91    1.47
  10   0 -10   39.31    1.38
 -10   0 -10   42.35    1.54
 -10   0  12    8.82    0.58
 -10   0  12    7.92    0.39
   0 -10 -12    6.87    0.52
   0  10  12    7.48    0.63
  10   0 -12    6.95    0.55
   0  10 -12    7.91    0.61
   0 -10 -12    7.79    0.73
   0  10 -12    8.98    0.72
 -10   0  12    7.04    0.34
 -10   0 -12    7.84    0.66
   0 -10 -14   17.02    0.84
  10   0 -14   15.40    0.86
   0  10 -14   15.42    0.99
   0  10  14   16.20    0.97
 -10   0  14   15.94    0.86
   0 -10 -14   16.59    1.05
 -10   0 -14   15.82    0.96
   0  10 -14   15.89    0.86
   0 -10 -16   13.57    0.78
 -10   0  16   12.62    0.82
   0  10 -16   12.67    0.94
   0 -10 -16   14.34    0.74
   0  10  16   12.71    0.92
   0 -10 -16   14.34    1.02
  10   0 -16   12.48    0.81
 -10   0 -16   13.75    0.95
  10   0 -18    7.32    0.65
   0 -10 -18    8.05    0.59
   0  10 -18    7.72    0.80
 -10   0 -18    8.03    0.67
   0  10  18    8.08    0.77
 -10   0  18    7.42    0.65
   0 -10 -18    8.02    0.83
 -10   0 -18    7.52    0.74
   0 -10 -18    7.64    0.61
  10   0 -20    6.14    0.66
   0  10 -20    5.42    0.73
   0  10  20    7.14    0.78
 -10   0  20    6.67    0.66
   0 -10 -20    6.21    0.81
 -10   0 -20    5.29    0.57
 -10   0 -20    6.27    0.72
   0 -10 -20    5.98    0.58
   0  10 -22   -0.28    0.44
   0 -10 -22    0.31    0.47
 -10   0 -22    0.28    0.45
 -10   0  22   -0.09    0.32
   0  10  22    0.24    0.33
  10   0 -22    0.02    0.31
 -10   0  24   -0.33    0.33
 -10   1  25    0.90    0.42
 -10  -1 -23    2.30    0.59
 -10   1  23    1.19    0.39
  10   1 -23    1.96    0.47
 -10  -1 -23    2.73    0.57
  -1 -10 -21    4.52    0.55
  10   1 -21    3.79    0.58
   1  10 -21    4.48    0.70
 -10   1  21    5.41    0.63
 -10  -1 -21    3.61    0.48
  -1  10  21    4.30    0.65
  -1 -10 -21    4.22    0.73
 -10  -1 -21    3.68    0.60
  -1 -10 -19    1.01    0.31
 -10  -1 -19    0.99    0.31
   1  10 -19    0.83    0.44
  -1  10  19    0.70    0.37
 -10   1  19    0.93    0.33
  -1 -10 -19    1.40    0.56
  10   1 -19    1.27    0.38
 -10  -1 -19    1.46    0.44
  -1 -10 -19    1.35    0.35
  -1  10  17    6.78    0.70
 -10   1  17    5.69    0.59
   1  10 -17    4.54    0.64
  -1 -10 -17    5.51    0.51
  10   1 -17    5.63    0.61
  -1 -10 -17    7.20    0.79
 -10  -1 -17    5.25    0.64
  -1 -10 -17    5.48    0.53
  -1 -10 -15   44.31    1.58
  -1  10  15   45.91    1.80
 -10   1  15   46.78    1.67
   1  10 -15   43.56    1.80
  -1 -10 -15   44.90    1.82
 -10  -1 -15   46.12    1.81
  10   1 -15   45.32    1.66
  -1 -10 -13    8.37    0.59
   1  10 -13    7.04    0.67
  -1  10  13    7.54    0.67
 -10   1  13    7.54    0.58
   1  10 -13    7.81    0.63
  10   1 -13    7.67    0.61
  -1 -10 -13    8.12    0.78
 -10  -1 -13    8.44    0.70
 -10   1  11    9.54    0.45
  -1 -10 -11    9.97    0.60
   1  10 -11    9.68    0.72
   1  10 -11    9.03    0.50
 -10   1  11    8.97    0.58
   1  10 -11    9.43    0.68
  10   1 -11    9.86    0.64
  -1 -10 -11   12.48    0.83
  -1  10  11   10.28    0.71
 -10  -1 -11    9.88    0.70
  -1 -10  -9   33.39    1.17
  10   1  -9   32.81    1.18
   1  10  -9   34.81    1.03
  -1 -10  -9   34.11    1.18
 -10   1   9   32.48    1.02
 -10   1   9   32.80    1.15
   1  10  -9   34.52    1.32
  -1  10   9   33.78    1.26
   1  10  -9   33.24    1.26
   1  10  -9   33.83    0.91
 -10  -1  -9   32.73    1.29
   1  10  -7   20.56    0.95
 -10   1   7   19.49    0.56
   1  10  -7   20.12    0.94
  -1 -10  -7   21.66    0.89
 -10   1   7   21.19    0.81
  -1 -10  -7   21.48    0.75
  -1 -10  -7   21.82    0.87
  -1  10   7   22.02    0.93
  10   1  -7   19.43    0.86
 -10  -1  -7   22.74    0.99
   1  10  -7   21.89    0.75
 -10  -1  -7   21.94    0.98
 -10  -1  -5   13.30    0.71
 -10  -1  -5   14.27    0.58
 -10   1   5   13.62    0.46
   1  10  -5   12.67    0.69
  -1 -10  -5   13.16    0.67
 -10   1   5   13.10    0.64
  -1  10   5   13.73    0.69
 -10  -1  -5   13.08    0.74
   1  10  -5   14.40    0.77
  -1 -10  -5   13.33    0.64
  -1 -10  -5   13.86    0.57
 -10   1   5   12.48    0.60
 -10   1   3   13.18    0.51
 -10  -1  -3   14.02    0.75
 -10  -1  -3   13.30    0.68
   1 -10   3   14.56    0.67
  -1 -10  -3   13.46    0.57
   1  10  -3   13.16    0.66
 -10   1   3   13.39    0.64
  -1 -10  -3   13.72    0.63
 -10   1   3   13.63    0.59
 -10  -1  -3   13.63    0.61
  10  -1   3   14.05    0.56
  -1  10   3   14.09    0.65
  10  -1   3   13.89    0.64
   1 -10   1    6.99    0.42
 -10  -1  -1    7.67    0.46
  -1  10   1    6.75    0.37
  -1 -10  -1    7.77    0.44
  10  -1   1    6.51    0.40
  10   1  -1    7.59    0.41
  10   1  -1    7.38    0.34
  10  -1   1    7.17    0.38
 -10  -1  -1    6.98    0.47
  -1 -10  -1    7.04    0.45
   1  10  -1    7.27    0.45
   1 -10   1    5.82    0.44
 -10   1   1    6.85    0.39
  -1  10  -1    7.31    0.42
   1 -10  -1    8.29    0.41
  10  -1  -1    7.50    0.39
  10   1   1    7.81    0.45
  -1 -10   1    8.48    0.49
  10  -1  -1    7.32    0.39
  10   1   1    7.90    0.33
   1  10   1    7.69    0.41
   1 -10  -1    8.08    0.39
   1 -10  -1    7.10    0.48
 -10  -1   1    8.11    0.45
   1  10   1    7.59    0.43
  -1 -10   1    6.90    0.45
 -10   1  -1    7.61    0.45
  -1 -10   3   13.36    0.66
  10  -1  -3   13.61    0.58
   1  10   3   12.88    0.60
 -10   1  -3   13.84    0.60
   1 -10  -3   14.17    0.67
   1 -10  -3   14.13    0.51
  -1  10  -3   12.55    0.62
   1 -10  -3   13.19    0.60
 -10  -1   3   12.92    0.53
  10   1   3   13.92    0.48
 -10   1  -3   12.69    0.71
 -10  -1   3   13.72    0.57
 -10   1  -3   13.28    0.65
 -10   1  -5   13.83    0.72
   1 -10  -5   13.90    0.48
 -10  -1   5   13.99    0.54
 -10  -1   5   14.14    0.60
   1 -10  -5   13.17    0.63
  -1  10  -5   13.98    0.70
   1  10   5   12.90    0.65
   1 -10  -5   13.82    0.68
 -10  -1   5   12.83    0.76
 -10   1  -5   13.41    0.55
   1 -10  -5   13.76    0.69
 -10   1  -5   13.29    0.71
  10  -1  -5   12.86    0.61
   1 -10  -7   22.25    0.66
   1 -10  -7   20.87    0.90
  -1  10  -7   22.47    0.96
 -10  -1   7   20.22    0.69
 -10   1  -7   22.51    0.95
   1  10   7   21.21    0.91
 -10  -1   7   19.28    0.78
  -1  10  -7   21.25    0.96
   1 -10  -7   21.07    0.94
   1 -10  -7   22.74    0.86
 -10   1  -7   22.54    0.98
 -10   1  -7   22.12    0.65
  -1  10  -9   33.91    1.25
   1 -10  -9   33.90    1.15
  -1  10  -9   33.80    1.33
 -10  -1   9   32.86    0.95
   1 -10  -9   36.82    0.97
   1  10   9   34.91    1.31
 -10   1  -9   36.96    1.28
 -10  -1   9   33.79    1.14
  10  -1  -9   34.30    1.18
   1 -10  -9   33.13    1.32
   1 -10  -9   34.45    1.26
  -1  10  -9   33.24    0.90
 -10   1  -9   33.47    1.34
 -10  -1  11    9.04    0.44
   1 -10 -11    8.53    0.54
   1  10  11   10.14    0.70
 -10  -1  11    9.15    0.56
   1 -10 -11   10.00    0.79
  -1  10 -11    9.25    0.65
  10  -1 -11    8.64    0.57
 -10   1 -11    9.19    0.68
  -1  10 -11   10.42    0.75
   1 -10 -13    8.64    0.56
  10  -1 -13    7.70    0.58
 -10  -1  13    7.88    0.36
  -1  10 -13    8.67    0.74
   1 -10 -13    8.01    0.48
 -10  -1  13    8.63    0.58
  -1  10 -13    9.25    0.64
   1 -10 -13    8.12    0.75
   1  10  13    9.07    0.70
 -10   1 -13    8.02    0.68
   1 -10 -15   45.16    1.54
  10  -1 -15   45.42    1.60
  -1  10 -15   45.86    1.84
   1 -10 -15   46.75    1.42
 -10   1 -15   47.12    1.71
   1  10  15   46.63    1.81
 -10  -1  15   47.91    1.64
  -1  10 -15   46.98    1.59
   1 -10 -15   44.74    1.84
 -10   1 -15   44.99    1.78
  10  -1 -17    5.45    0.55
 -10   1 -17    6.51    0.60
  -1  10 -17    7.79    0.76
 -10  -1  17    6.08    0.57
   1  10  17    5.65    0.66
   1 -10 -17    6.20    0.48
   1 -10 -17    6.59    0.76
 -10   1 -17    6.35    0.67
   1 -10 -17    6.72    0.55
   1 -10 -19    0.95    0.29
 -10   1 -19    1.27    0.33
  -1  10 -19    1.46    0.50
   1  10  19    0.96    0.43
 -10  -1  19    0.76    0.33
   1 -10 -19    0.93    0.51
  10  -1 -19    0.38    0.26
 -10   1 -19    1.00    0.41
  -1  10 -21    3.89    0.67
 -10   1 -21    4.11    0.70
   1  10  21    4.63    0.65
 -10   1 -21    3.45    0.48
 -10  -1  21    3.44    0.52
   1 -10 -21    3.57    0.68
  10  -1 -21    3.84    0.53
 -10  -1  23    2.56    0.47
  10   2 -24    0.17    0.42
 -10   2  24    0.46    0.38
  10   2 -22    0.35    0.38
   2  10 -22    0.46    0.41
  -2  10  22    0.40    0.36
 -10   2  22    0.65    0.32
  -2 -10 -22    1.79    0.62
 -10  -2 -22    1.43    0.43
  -2 -10 -22    0.66    0.33
  -2 -10 -20    3.07    0.47
   2  10 -20    4.20    0.66
  -2 -10 -20    3.56    0.49
  -2  10  20    4.93    0.67
 -10   2  20    3.29    0.51
  10   2 -20    3.64    0.56
  -2 -10 -20    4.64    0.73
 -10  -2 -20    3.24    0.56
  -2 -10 -18    3.06    0.44
  10   2 -18    2.87    0.49
   2  10 -18    2.13    0.50
  -2  10  18    3.84    0.59
 -10   2  18    3.33    0.49
  -2 -10 -18    3.07    0.44
  -2 -10 -18    3.28    0.64
 -10  -2 -18    2.95    0.52
  10   2 -16    6.02    0.61
   2  10 -16    6.60    0.71
 -10   2  16    5.69    0.59
  -2 -10 -16    4.07    0.48
  -2  10  16    6.22    0.67
  -2 -10 -16    6.29    0.74
 -10  -2 -16    6.80    0.68
  -2 -10 -14    7.69    0.60
   2  10 -14    7.36    0.71
  10   2 -14    6.89    0.61
 -10   2  14    6.96    0.59
  -2  10  14    7.05    0.65
   2  10 -14    7.04    0.62
 -10  -2 -14    6.78    0.66
  10   2 -12   10.79    0.72
   2  10 -12   11.36    0.81
   2  10 -12   10.92    0.57
  -2  10  12   11.26    0.79
 -10   2  12   11.04    0.69
  -2 -10 -12   11.67    0.70
   2  10 -12   11.36    0.78
 -10  -2 -12   10.70    0.77
 -10   2  10   27.53    1.09
  -2 -10 -10   24.69    1.04
   2  10 -10   24.76    1.16
   2  10 -10   26.96    0.88
  -2  10  10   25.23    1.12
   2  10 -10   25.30    0.79
   2  10 -10   25.31    1.14
 -10   2  10   26.49    0.90
  10   2 -10   25.14    1.08
 -10  -2 -10   26.64    1.18
   2  10  -8    0.34    0.17
 -10  -2  -8    0.30    0.22
  10   2  -8    0.24    0.22
   2  10  -8    0.55    0.15
   2  10  -8    0.57    0.35
  -2 -10  -8    0.55    0.21
 -10   2   8    0.41    0.17
  -2 -10  -8    0.47    0.19
  -2 -10  -8    0.41    0.22
  -2  10   8    0.78    0.25
 -10   2   8    0.46    0.19
   2  10  -8    0.49    0.27
  -2 -10  -6    3.88    0.32
  10   2  -6    2.93    0.36
 -10   2   6    3.80    0.34
   2  10  -6    3.03    0.38
 -10   2   6    3.05    0.31
  -2 -10  -6    3.38    0.35
 -10  -2  -6    3.56    0.46
   2  10  -6    3.98    0.50
  -2 -10  -6    3.54    0.35
  -2  10   6    3.13    0.36
 -10  -2  -6    3.33    0.38
 -10   2   6    2.44    0.13
   2  10  -6    3.30    0.32
   2 -10   4   29.15    1.03
 -10  -2  -4   27.94    1.07
 -10   2   4   27.64    0.97
   2  10  -4   27.19    1.05
  -2 -10  -4   29.13    0.98
  -2 -10  -4   27.70    1.05
 -10   2   4   27.88    1.03
  -2 -10  -4   29.35    0.96
  -2  10   4   28.34    1.05
   2  10  -4   27.31    1.13
 -10  -2  -4   28.04    1.13
 -10  -2  -4   28.82    0.95
 -10   2   4   27.31    0.77
  10  -2   4   28.02    0.92
   2  10  -2   12.34    0.64
  10  -2   2   13.03    0.60
 -10   2   2   12.69    0.60
   2 -10   2   13.20    0.61
 -10   2   2   12.85    0.69
 -10  -2  -2   12.89    0.65
  -2  10   2   12.57    0.47
   2  10  -2   13.32    0.48
  -2 -10  -2   12.20    0.58
  10  -2   2   13.48    0.57
  -2 -10  -2   12.72    0.59
 -10  -2  -2   12.99    0.63
 -10   2   2   12.69    0.58
 -10   2   2   12.57    0.51
   2 -10   2   12.54    0.66
 -10   2   0    5.26    0.35
  10  -2   0    5.34    0.34
 -10  -2   0    4.55    0.37
   2 -10   0    4.31    0.31
  10   2   0    4.66    0.35
  10   2   0    4.60    0.23
 -10   2   0    4.80    0.44
   2  10   0    4.36    0.29
   2  10   0    5.13    0.39
  -2  10   0    4.87    0.31
  10  -2   0    4.43    0.33
  -2 -10   0    4.45    0.36
 -10  -2   0    4.65    0.42
   2 -10   0    4.55    0.42
  -2 -10   0    4.42    0.35
  10  -2  -2   12.49    0.47
  10   2   2   11.80    0.38
   2 -10  -2   13.02    0.48
 -10   2  -2   11.86    0.69
  10  -2  -2   12.68    0.56
   2  10   2   13.15    0.56
 -10   2  -2   13.70    0.73
   2 -10  -2   13.49    0.67
  -2  10  -2   12.47    0.57
 -10  -2   2   12.94    0.47
 -10  -2   2   11.69    0.56
 -10   2  -2   13.38    0.63
   2 -10  -4   28.16    0.76
  -2  10  -4   29.30    1.04
 -10  -2   4   28.57    0.93
   2  10   4   27.98    0.99
 -10  -2   4   28.56    0.88
   2 -10  -4   30.25    1.09
   2 -10  -4   29.50    1.01
 -10  -2   4   28.97    1.15
 -10   2  -4   30.06    1.12
  10  -2  -4   28.73    0.98
  10   2   4   29.47    0.77
 -10   2  -4   28.31    1.05
   2  10   4   30.28    1.00
   2 -10  -6    3.55    0.18
 -10  -2   6    3.41    0.44
  -2 -10   6    2.69    0.15
   2 -10  -6    3.76    0.32
  10  -2  -6    3.38    0.34
   2  10   6    3.73    0.37
 -10  -2   6    3.63    0.30
   2 -10  -6    3.41    0.39
 -10   2  -6    3.76    0.26
   2 -10  -6    3.44    0.41
  -2  10  -6    4.19    0.42
 -10  -2   6    3.13    0.26
 -10   2  -6    3.28    0.39
 -10   2  -6    3.61    0.40
  -2  10  -8    0.57    0.28
 -10   2  -8    0.56    0.26
   2  10   8    0.70    0.25
  -2  10  -8    1.33    0.35
   2 -10  -8    0.52    0.24
 -10  -2   8    0.57    0.16
   2 -10  -8    0.45    0.10
   2 -10  -8    0.39    0.18
   2 -10  -8    0.54    0.33
 -10  -2   8    0.47    0.13
 -10  -2   8    0.36    0.29
 -10   2  -8    0.88    0.32
 -10   2  -8    0.32    0.23
   2 -10 -10   26.08    1.09
 -10   2 -10   26.38    1.15
 -10   2 -10   26.86    1.05
  -2  10 -10   25.14    1.14
  10  -2 -10   25.75    0.96
   2 -10 -10   25.85    0.73
   2 -10 -10   26.34    1.18
  -2  10 -10   22.31    0.63
   2  10  10   26.32    1.12
 -10  -2  10   24.95    1.12
 -10  -2  10   25.34    0.93
   2 -10 -10   25.64    0.75
 -10   2 -10   25.93    1.14
  -2  10 -10   26.20    1.04
   2 -10 -10   25.89    0.94
 -10   2 -12    9.98    0.72
   2 -10 -12   11.15    0.49
 -10  -2  12   11.52    0.48
   2  10  12   10.47    0.74
 -10  -2  12   11.25    0.63
   2 -10 -12   11.75    0.62
  -2  10 -12   11.04    0.68
   2 -10 -12   11.65    0.84
 -10   2 -12   11.43    0.78
  -2  10 -12   11.20    0.79
  10  -2 -12   10.14    0.62
   2 -10 -14    7.70    0.52
  -2  10 -14    8.13    0.74
   2 -10 -14    7.45    0.44
 -10   2 -14    7.44    0.62
   2  10  14    7.70    0.70
  10  -2 -14    7.26    0.54
  -2  10 -14    7.33    0.57
 -10  -2  14    6.89    0.54
   2 -10 -14    6.46    0.71
 -10   2 -14    7.81    0.68
  10  -2 -16    5.59    0.51
  -2  10 -16    7.09    0.72
 -10   2 -16    7.37    0.63
   2  10  16    5.69    0.63
 -10  -2  16    5.50    0.52
   2 -10 -16    5.73    0.70
 -10   2 -16    6.04    0.65
   2 -10 -16    5.45    0.42
   2 -10 -16    5.90    0.49
   2 -10 -18    3.41    0.40
  10  -2 -18    2.28    0.39
   2 -10 -18    3.07    0.60
  -2  10 -18    3.79    0.61
   2  10  18    2.77    0.50
 -10   2 -18    2.51    0.41
 -10  -2  18    2.77    0.41
  10  -2 -20    3.98    0.50
  -2  10 -20    3.55    0.62
 -10   2 -20    3.39    0.64
 -10   2 -20    3.58    0.48
 -10  -2  20    4.58    0.54
   2  10  20    3.43    0.60
   2 -10 -20    3.38    0.66
  -2  10 -22    1.18    0.50
 -10   2 -22    1.18    0.52
   2  10  22    0.84    0.42
 -10  -2  22    0.32    0.29
   2 -10 -22    0.32    0.50
  10   3 -25    0.35    0.40
 -10  -3 -23   -0.20    0.44
 -10   3  23    0.21    0.33
  10   3 -23    0.12    0.40
 -10  -3 -23    0.51    0.37
  -3 -10 -23   -0.01    0.28
  -3 -10 -21    1.79    0.41
  -3 -10 -21    1.63    0.41
  -3  10  21    0.51    0.38
 -10   3  21    1.93    0.44
  10   3 -21    1.38    0.44
   3  10 -21    2.26    0.57
  -3 -10 -21    2.39    0.65
 -10  -3 -21    0.93    0.37
  -3 -10 -19    0.28    0.31
 -10   3  19    0.41    0.28
  -3  10  19    0.98    0.40
  10   3 -19    0.34    0.32
  -3 -10 -19    1.26    0.54
 -10  -3 -19    0.35    0.30
   3  10 -19    0.18    0.37
  -3 -10 -17    2.26    0.39
   3  10 -17    1.75    0.44
  10   3 -17    1.48    0.40
  -3  10  17    0.95    0.38
 -10   3  17    2.25    0.42
  -3 -10 -17    2.17    0.61
 -10  -3 -17    1.27    0.40
  -3 -10 -15    6.46    0.58
  10   3 -15    5.60    0.60
  -3  10  15    5.88    0.64
 -10   3  15    6.10    0.59
 -10  -3 -15    7.04    0.67
   3  10 -15    7.05    0.72
 -10  -3 -13    3.51    0.49
  -3 -10 -13    3.19    0.41
  -3  10  13    2.53    0.43
   3  10 -13    3.69    0.54
 -10   3  13    3.07    0.42
   3  10 -13    3.22    0.49
  10   3 -13    3.54    0.49
   3  10 -11    0.69    0.34
  -3 -10 -11    0.64    0.25
  10   3 -11    0.88    0.32
   3  10 -11    0.84    0.18
  -3  10  11    0.45    0.25
 -10   3  11    0.45    0.23
 -10  -3 -11    0.22    0.26
   3  10 -11    0.83    0.44
 -10  -3  -9   12.58    0.78
  10   3  -9   11.09    0.71
 -10   3   9   12.36    0.60
  -3 -10  -9   12.48    0.71
 -10   3   9   11.57    0.60
   3  10  -9   11.83    0.48
   3  10  -9   11.80    0.78
  -3  10   9   12.08    0.74
 -10   3   9   12.02    0.69
   3  10  -9   12.34    0.54
   3  10  -9   13.14    0.81
 -10  -3  -7    5.10    0.49
  10   3  -7    4.99    0.47
   3  10  -7    6.59    0.55
   3  10  -7    5.42    0.39
   3  10  -7    5.37    0.27
  -3 -10  -7    5.55    0.46
   3  10  -7    5.36    0.56
 -10   3   7    5.40    0.39
  -3  10   7    5.68    0.49
  -3 -10  -7    5.49    0.40
 -10   3   7    5.17    0.40
  -3 -10  -7    5.65    0.41
   3  10  -5    8.14    0.57
 -10  -3  -5    8.69    0.58
   3  10  -5    8.37    0.64
 -10   3   5    8.68    0.47
 -10   3   5    7.52    0.50
 -10  -3  -5   10.03    0.69
  -3 -10  -5    9.17    0.58
  -3 -10  -5    9.15    0.51
   3  10  -5    5.47    0.42
  -3 -10  -5    8.43    0.47
  -3  10   5    8.09    0.54
 -10  -3  -3    4.19    0.39
  -3 -10  -3    3.55    0.34
 -10   3   3    3.49    0.37
   3 -10   3    4.05    0.36
  -3 -10  -3    3.66    0.37
 -10   3   3    4.03    0.33
   3  10  -3    4.95    0.51
   3  10  -3    4.02    0.22
  10  -3   3    4.36    0.36
  -3 -10  -3    3.93    0.32
   3  10  -3    4.33    0.40
 -10   3   3    4.01    0.24
  10  -3   3    3.96    0.33
   3  10  -3    4.35    0.41
 -10  -3  -3    4.01    0.39
   3 -10   1    3.08    0.37
   3  10  -1    2.82    0.33
  -3 -10  -1    3.09    0.32
 -10  -3  -1    2.70    0.31
  10  -3   1    3.41    0.29
   3 -10   1    3.46    0.30
 -10  -3  -1    3.40    0.38
 -10   3   1    3.22    0.37
   3  10  -1    3.15    0.22
  10  -3   1    3.54    0.31
 -10   3   1    2.77    0.25
  -3 -10  -1    3.21    0.29
  -3  10   1    3.38    0.23
  -3  10  -1    3.54    0.28
  10  -3  -1    3.28    0.25
 -10  -3   1    2.90    0.30
   3 -10  -1    3.22    0.25
 -10   3  -1    2.86    0.35
   3  10   1    3.54    0.27
  10  -3  -1    3.40    0.32
  -3 -10   1    3.19    0.31
   3 -10  -1    2.64    0.35
 -10   3  -1    2.60    0.27
 -10   3  -3    3.69    0.34
  -3  10  -3    4.00    0.34
 -10  -3   3    4.17    0.34
  10  -3  -3    3.96    0.22
   3 -10  -3    3.38    0.19
   3  10   3    4.06    0.32
  10  -3  -3    3.67    0.33
 -10   3  -3    3.91    0.42
 -10  -3   3    3.96    0.24
 -10  -3   3    3.70    0.44
   3 -10  -3    3.82    0.39
 -10   3  -3    4.12    0.42
  -3  10  -5    8.20    0.54
   3  10   5    8.29    0.50
 -10  -3   5    8.12    0.46
 -10   3  -5    8.07    0.59
  10  -3  -5    9.32    0.54
 -10  -3   5    8.78    0.43
   3 -10  -5    7.93    0.55
 -10   3  -5    9.60    0.59
 -10  -3   5    7.92    0.59
 -10   3  -5    8.42    0.55
   3  10   5    9.35    0.49
   3  10   7    4.58    0.42
  -3  10  -7    5.08    0.49
 -10   3  -7    5.71    0.51
 -10  -3   7    5.36    0.38
   3 -10  -7    5.19    0.47
   3 -10  -7    5.94    0.38
  10   3   7    5.27    0.38
 -10  -3   7    5.28    0.34
 -10   3  -7    5.51    0.28
 -10  -3   7    5.55    0.52
  -3 -10   7    5.09    0.28
   3 -10  -7    5.14    0.50
 -10  -3   7    5.36    0.36
  10  -3  -7    6.03    0.46
 -10   3  -7    5.37    0.48
 -10   3  -7    5.31    0.47
 -10  -3   9   12.95    0.58
  -3  10  -9   13.34    0.71
   3 -10  -9   12.26    0.58
  -3  10  -9   12.42    0.77
 -10   3  -9   12.07    0.76
   3  10   9   12.99    0.74
   3 -10  -9   12.30    0.73
 -10   3  -9   13.85    0.71
  10   3   9   12.04    0.54
 -10  -3   9   10.14    0.70
   3 -10  -9   12.14    0.78
 -10   3  -9   10.96    0.73
 -10  -3  11    0.13    0.28
  -3  10 -11    0.91    0.34
  10  -3 -11    0.43    0.22
  -3  10 -11    0.79    0.32
   3 -10 -11    0.76    0.12
   3 -10 -11    0.61    0.28
   3 -10 -11    0.75    0.19
   3  10  11    0.40    0.30
 -10   3 -11    0.33    0.25
 -10  -3  11    0.28    0.17
  10   3  11    0.37    0.16
 -10   3 -11    0.74    0.33
  -3  10 -11    0.39    0.13
   3 -10 -11    0.45    0.41
 -10   3 -11    0.51    0.30
  -3  10 -13    3.72    0.42
   3 -10 -13    3.46    0.26
  -3  10 -13    4.06    0.55
 -10  -3  13    3.16    0.24
 -10  -3  13    3.79    0.37
   3  10  13    3.19    0.47
   3 -10 -13    3.31    0.33
  -3  10 -13    2.71    0.27
   3 -10 -13    3.20    0.57
 -10   3 -13    3.12    0.47
 -10   3 -13    3.67    0.48
  10  -3 -13    3.25    0.37
 -10  -3  13    3.33    0.48
  -3  10 -15    5.50    0.64
  10  -3 -15    6.66    0.51
 -10   3 -15    6.39    0.59
   3  10  15    5.55    0.64
  -3  10 -15    6.47    0.51
 -10  -3  15    6.80    0.60
   3 -10 -15    6.12    0.70
 -10  -3  15    6.66    0.52
   3 -10 -15    6.63    0.48
   3 -10 -17    1.64    0.28
  -3  10 -17    2.22    0.51
 -10   3 -17    2.22    0.40
   3  10  17    1.85    0.44
 -10  -3  17    1.96    0.36
  10  -3 -17    1.46    0.32
   3 -10 -17    1.38    0.45
 -10  -3  17    1.15    0.33
  10  -3 -19    0.28    0.27
 -10   3 -19    0.33    0.28
   3  10  19    0.14    0.33
 -10  -3  19    0.26    0.24
 -10   3 -19    0.54    0.45
   3 -10 -19    0.05    0.47
  -3  10 -19    0.33    0.42
 -10  -3  19    0.13    0.27
  -3  10 -21    2.26    0.55
 -10   3 -21    1.10    0.49
 -10   3 -21    1.39    0.35
   3  10  21    0.47    0.35
   3 -10 -21    1.26    0.53
  10   4 -24   -0.10    0.38
  -4 -10 -24   -0.32    0.32
  -4 -10 -22    0.84    0.40
  10   4 -22    1.49    0.47
   4  10 -22    1.84    0.55
  -4  10  22    1.39    0.45
  -4 -10 -22    2.11    0.65
 -10   4  22    1.13    0.43
 -10  -4 -22    1.16    0.44
  10   4 -20    7.17    0.76
   4  10 -20    7.48    0.84
  -4  10  20    5.86    0.72
 -10   4  20    6.26    0.70
  -4 -10 -20    7.59    0.91
 -10  -4 -20    7.46    0.77
  -4 -10 -20    7.69    0.72
 -10  -4 -18    1.40    0.42
   4  10 -18    1.54    0.47
  -4 -10 -18    1.66    0.38
  -4  10  18    1.42    0.41
 -10   4  18    1.83    0.42
  10   4 -18    1.82    0.48
 -10  -4 -16    2.90    0.48
   4  10 -16    3.43    0.55
  -4  10  16    2.81    0.50
 -10   4  16    3.02    0.46
  -4 -10 -16    2.79    0.44
  10   4 -16    2.60    0.48
  -4 -10 -14   14.58    0.86
  10   4 -14   12.99    0.87
 -10   4  14   13.37    0.84
   4  10 -14   13.85    0.94
  -4  10  14   14.08    0.93
 -10  -4 -14   12.35    0.87
  10   4 -12   10.35    0.73
  -4 -10 -12   10.81    0.72
   4  10 -12   10.62    0.80
  -4  10  12    9.09    0.70
 -10   4  12    9.25    0.67
   4  10 -12    9.93    0.75
 -10  -4 -12    8.72    0.71
   4  10 -10   15.80    0.94
 -10  -4 -10   15.23    0.89
  10   4 -10   15.15    0.87
 -10   4  10   15.31    0.69
   4  10 -10   15.88    0.56
  -4  10  10   16.34    0.91
  -4 -10 -10   17.62    0.89
 -10   4  10   17.21    0.88
   4  10 -10   16.83    0.95
 -10  -4  -8   23.40    1.08
  -4 -10  -8   24.92    1.06
  10   4  -8   22.30    1.03
   4  10  -8   24.53    1.11
  -4  10   8   25.42    1.09
 -10   4   8   25.63    0.95
 -10   4   8   25.29    1.05
   4  10  -8   24.27    1.13
   4  10  -8   24.44    0.89
   4  10  -8   23.26    0.66
 -10   4   8   25.98    0.89
 -10  -4  -6    1.88    0.33
  -4 -10  -6    1.30    0.28
   4  10  -6    1.74    0.28
   4  10  -6    1.13    0.09
   4  10  -6    1.56    0.32
 -10   4   6    1.68    0.27
 -10   4   6    1.50    0.23
  -4  10   6    1.47    0.30
  10   4  -6    1.36    0.31
   4  10  -6    1.07    0.38
  -4 -10  -6    1.74    0.25
   4  10  -4   27.41    1.13
   4  10  -4   26.29    1.05
  -4 -10  -4   26.88    1.05
  -4 -10  -4   25.72    0.84
  -4 -10  -4   25.60    0.87
 -10  -4  -4   26.98    1.06
 -10   4   4   27.55    1.02
  -4  10   4   27.70    1.05
 -10   4   4   26.72    0.87
  10  -4   4   25.91    0.94
  10  -4   2   31.83    1.06
   4  10  -2   31.21    0.82
   4  10  -2   33.34    1.18
 -10   4   2   34.57    1.22
   4  10  -2   33.70    1.28
  -4  10   2   32.08    0.82
 -10   4   2   32.60    1.03
  -4 -10  -2   33.19    1.00
 -10  -4  -2   33.82    1.18
  10  -4   2   33.53    1.10
   4 -10   2   30.37    1.15
 -10  -4   0    0.67    0.20
  10  -4   0    0.96    0.17
 -10   4   0    1.06    0.26
   4  10   0    1.09    0.15
  -4  10   0    1.02    0.16
  10  -4   0    0.81    0.22
   4  10   0    0.81    0.25
   4 -10   0    0.77    0.26
  -4 -10   0    0.95    0.18
 -10  -4   2   32.15    1.10
 -10   4  -2   32.96    1.24
  10  -4  -2   32.87    0.90
   4  10   2   33.48    0.99
  10  -4  -2   31.72    1.08
  10   4   2   30.91    1.15
 -10  -4   2   31.81    0.80
   4 -10  -2   31.34    1.16
  -4  10  -2   30.89    0.85
 -10   4  -2   31.53    1.07
  -4  10  -2   31.81    1.01
 -10  -4   4   25.30    1.06
  -4  10  -4   25.46    0.93
 -10  -4   4   25.89    0.75
  10  -4  -4   24.47    0.62
 -10   4  -4   24.83    1.07
 -10   4  -4   26.41    1.03
  10  -4  -4   25.01    0.93
 -10  -4   4   25.17    0.91
   4 -10  -4   24.27    1.00
   4  10   4   25.82    0.90
 -10   4  -4   25.93    0.98
  10   4   4   25.48    0.96
   4  10   6    1.88    0.25
 -10  -4   6    1.65    0.23
 -10   4  -6    1.68    0.33
  -4  10  -6    2.13    0.33
   4 -10  -6    2.23    0.24
 -10  -4   6    2.43    0.25
   4  10   6    1.87    0.29
  10  -4  -6    1.74    0.29
   4 -10  -6    1.38    0.29
 -10  -4   6    1.86    0.19
 -10  -4   6    2.25    0.41
 -10   4  -6    2.38    0.36
  10   4   6    2.02    0.30
 -10   4  -6    1.82    0.31
 -10   4  -8   25.81    0.99
 -10  -4   8   24.37    0.80
  -4  10  -8   25.18    1.08
   4 -10  -8   24.10    0.83
 -10   4  -8   26.01    1.14
  10  -4  -8   23.63    1.00
   4  10   8   23.15    1.01
   4 -10  -8   24.43    1.04
 -10   4  -8   23.29    0.67
  10   4   8   23.42    0.87
  -4 -10   8   24.63    0.78
 -10  -4   8   23.44    1.05
 -10   4  -8   23.31    1.06
  -4  10 -10   16.19    0.77
  -4  10 -10   14.86    0.89
 -10   4 -10   14.95    0.87
   4  10  10   14.92    0.85
   4 -10 -10   16.47    0.89
 -10  -4  10   16.21    0.66
 -10   4 -10   17.20    0.79
  10   4  10   15.86    0.66
   4 -10 -10   15.51    0.91
  -4  10 -10   14.10    0.51
  -4 -10  10   16.90    0.65
 -10  -4  10   15.56    0.87
 -10   4 -10   16.39    0.90
   4 -10 -10   15.86    0.65
  10  -4 -12    9.57    0.54
  -4  10 -12   10.84    0.79
   4  10  12    9.07    0.71
   4 -10 -12    8.74    0.75
 -10  -4  12   11.26    0.58
 -10   4 -12    9.90    0.61
 -10  -4  12   10.28    0.70
  -4  10 -12   10.80    0.47
   4 -10 -12   10.89    0.54
  -4  10 -12   10.66    0.62
 -10   4 -12    9.47    0.69
  10   4  12    9.59    0.48
   4 -10 -12    8.26    0.30
   4 -10 -14   14.03    0.66
  -4  10 -14   14.84    0.96
 -10   4 -14   12.68    0.82
   4  10  14   13.86    0.92
 -10  -4  14   14.09    0.72
  -4  10 -14   14.82    0.73
  10  -4 -14   13.26    0.68
   4 -10 -14   14.27    0.98
 -10  -4  14   13.31    0.81
  -4  10 -14   12.87    0.60
   4 -10 -16    2.92    0.32
   4  10  16    2.60    0.47
 -10  -4  16    1.98    0.38
 -10   4 -16    2.34    0.42
 -10  -4  16    2.18    0.32
  -4  10 -16    1.82    0.46
   4 -10 -16    2.53    0.55
  10  -4 -16    2.96    0.37
 -10  -4  18    1.73    0.37
  -4  10 -18    1.15    0.43
 -10   4 -18    2.71    0.43
 -10  -4  18    1.72    0.34
  10  -4 -18    1.71    0.32
   4  10  18    2.15    0.47
   4 -10 -18    1.42    0.50
 -10   4 -18    1.12    0.46
 -10   4 -20    6.27    0.62
  -4  10 -20    7.26    0.82
 -10   4 -20    6.56    0.81
   4  10  20    6.03    0.73
  -4  10 -22    2.14    0.57
 -10   4 -22    0.88    0.53
   4  10  22    2.18    0.53
  -5 -10 -23    1.92    0.45
  10   5 -23    2.85    0.57
 -10   5  23    1.91    0.50
  -5 -10 -21    0.77    0.32
  10   5 -21    1.33    0.45
  -5  10  21    1.33    0.44
 -10   5  21    1.84    0.45
  -5 -10 -21    2.14    0.62
   5  10 -21    1.04    0.44
 -10  -5 -21    2.29    0.50
 -10  -5 -19    2.56    0.50
  -5 -10 -19    2.94    0.50
  -5  10  19    2.09    0.47
   5  10 -19    1.94    0.48
 -10   5  19    2.19    0.46
  10   5 -19    4.02    0.60
  -5 -10 -17    9.27    0.76
  10   5 -17    9.64    0.83
  -5  10  17    9.77    0.85
 -10   5  17    9.43    0.79
   5  10 -17   11.73    0.94
 -10  -5 -17   10.92    0.87
  10   5 -15    2.33    0.47
   5  10 -15    2.93    0.53
  -5  10  15    2.02    0.42
 -10   5  15    2.66    0.45
  -5 -10 -15    1.68    0.37
 -10  -5 -15    2.27    0.44
  10   5 -13   15.68    0.95
   5  10 -13   14.05    0.95
  -5  10  13   15.90    0.97
 -10   5  13   15.83    0.92
   5  10 -13   16.58    0.99
  -5 -10 -13   14.49    0.88
 -10  -5 -13   16.16    0.99
 -10  -5 -11   23.40    1.14
  10   5 -11   19.84    1.06
   5  10 -11   21.91    1.14
 -10   5  11   21.91    0.83
  -5  10  11   22.86    1.12
 -10   5  11   22.92    1.08
   5  10 -11   21.64    1.14
  -5 -10 -11   22.83    1.08
 -10  -5  -9   13.63    0.82
   5  10  -9   14.85    0.87
 -10   5   9   13.65    0.58
  10   5  -9   13.83    0.82
   5  10  -9   14.12    0.65
  -5  10   9   15.10    0.85
  -5 -10  -9   15.05    0.82
 -10   5   9   14.07    0.79
   5  10  -9   15.58    0.91
  10   5  -7   19.95    0.97
 -10   5   7   20.68    0.89
   5  10  -7   19.65    1.00
 -10  -5  -7   21.26    1.02
  -5 -10  -7   22.36    1.00
 -10   5   7   21.15    0.75
  -5  10   7   22.87    1.02
   5  10  -7   19.99    1.04
   5  10  -7   22.36    0.88
 -10   5   5   36.87    1.29
  -5 -10  -5   38.31    1.37
 -10  -5  -5   38.98    1.40
  10   5  -5   35.66    1.34
 -10   5   5   37.22    1.09
  -5 -10  -5   36.55    1.09
  -5 -10  -5   36.41    1.18
  -5  10   5   38.95    1.37
   5  10  -5   36.74    1.36
   5  10  -5   39.20    1.45
  10  -5   3    2.44    0.31
   5 -10   3    2.48    0.36
  -5 -10  -3    2.78    0.26
 -10  -5  -3    2.76    0.36
 -10   5   3    2.59    0.35
   5  10  -3    3.21    0.49
 -10  -5  -3    2.71    0.28
  -5 -10  -3    3.16    0.39
   5  10  -3    3.32    0.40
 -10   5   3    2.77    0.26
  -5 -10  -3    2.72    0.25
  -5  10   3    3.39    0.37
  10  -5   1   35.20    1.08
 -10   5   1   32.82    1.26
  -5  10   1   34.38    0.90
   5  10  -1   34.25    1.22
   5  10  -1   32.29    1.28
 -10  -5  -1   32.98    1.02
   5  10  -1   32.90    0.84
  10   5  -1   35.07    1.29
 -10  -5  -1   33.93    1.21
  -5 -10  -1   34.35    1.00
  -5  10   1   32.50    1.05
  10  -5   1   34.07    1.15
   5 -10   1   33.90    1.23
  10  -5  -1   35.19    1.02
 -10  -5   1   34.41    1.20
   5  10   1   35.01    0.99
 -10   5  -1   33.28    1.30
  -5  10  -1   34.29    1.03
  10   5   1   36.75    1.30
  10  -5  -1   35.55    1.19
  -5  10  -1   35.32    1.02
   5 -10  -1   35.20    1.26
  -5 -10   1   35.78    1.05
  -5  10  -3    2.90    0.31
  10  -5  -3    3.28    0.20
 -10  -5   3    3.09    0.33
   5  10   3    2.94    0.28
 -10   5  -3    2.75    0.39
 -10  -5   3    2.73    0.18
  10  -5  -3    2.87    0.35
  -5  10  -3    2.49    0.21
   5 -10  -3    2.22    0.34
 -10  -5   3    2.76    0.41
  10   5   3    2.83    0.39
 -10  -5   5   34.97    1.02
  -5  10  -5   37.62    1.26
   5  10   5   37.74    1.21
 -10  -5   5   36.01    1.35
  10  -5  -5   37.00    1.26
   5 -10  -5   34.80    1.29
 -10   5  -5   38.84    1.31
 -10  -5   5   35.48    0.95
  10   5   5   35.95    1.23
 -10  -5   5   36.31    1.20
 -10   5  -5   34.73    1.38
 -10  -5   7   18.67    0.96
  -5  10  -7   21.67    0.97
 -10   5  -7   22.60    1.05
   5 -10  -7   21.18    0.74
   5  10   7   20.47    0.90
 -10  -5   7   19.91    0.77
  10   5   7   20.02    0.58
  10  -5  -7   19.85    0.91
 -10  -5   7   20.46    0.66
   5 -10  -7   20.57    0.96
  10   5   7   21.82    0.87
 -10   5  -7   22.30    0.92
   5  10   7   21.32    0.78
 -10   5  -9   14.80    0.73
 -10   5  -9   14.19    0.84
  -5  10  -9   14.58    0.85
 -10  -5   9   14.05    0.82
   5 -10  -9   14.67    0.59
   5  10   9   13.81    0.79
  10   5   9   15.03    0.55
   5 -10  -9   14.59    0.82
  -5 -10   9   14.52    0.63
 -10  -5   9   14.40    0.57
  10   5   9   13.07    0.66
  10  -5  -9   13.55    0.78
   5 -10 -11   22.27    0.78
   5  10  11   20.90    1.04
  -5  10 -11   21.48    1.10
   5 -10 -11   22.83    1.09
 -10  -5  11   22.52    0.81
 -10   5 -11   23.85    0.94
  -5  10 -11   20.22    0.60
  -5 -10  11   23.73    0.87
  10   5  11   21.18    0.83
 -10  -5  11   22.06    1.03
 -10   5 -11   22.61    1.11
  -5  10 -11   22.83    0.90
   5 -10 -13   16.49    0.66
  10  -5 -13   16.02    0.69
   5  10  13   14.45    0.91
  -5  10 -13   14.34    0.95
 -10   5 -13   14.60    0.89
 -10  -5  13   16.12    0.72
  -5  10 -13   15.24    0.72
  -5  10 -13   15.67    0.66
  10   5  13   14.61    0.64
 -10  -5  13   14.29    0.84
  10  -5 -15    2.54    0.31
   5 -10 -15    2.32    0.28
 -10  -5  15    2.46    0.31
  -5  10 -15    3.20    0.53
 -10   5 -15    2.71    0.53
 -10   5 -15    2.11    0.39
   5  10  15    2.83    0.49
 -10  -5  15    1.21    0.33
  -5  10 -15    1.90    0.31
  -5  10 -17   10.41    0.89
 -10   5 -17   10.85    0.93
   5  10  17    8.85    0.79
 -10  -5  17    9.26    0.68
 -10   5 -17   10.39    0.77
  -5  10 -19    2.50    0.53
 -10   5 -19    2.84    0.45
 -10   5 -19    2.20    0.57
   5  10  19    1.41    0.45
 -10   5 -21    1.18    0.36
  -5  10 -21    1.64    0.52
 -10   5 -21    1.67    0.57
   5  10  21    1.18    0.45
  -6 -10 -24    0.00    0.34
  -6 -10 -22    0.19    0.32
  10   6 -22    1.14    0.48
 -10   6  22    0.53    0.41
 -10  -6 -22    0.75    0.39
 -10  -6 -20    2.38    0.52
  -6 -10 -20    3.90    0.57
  10   6 -20    4.23    0.64
   6  10 -20    3.93    0.66
  -6  10  20    2.50    0.52
 -10   6  20    3.92    0.63
 -10  -6 -18    1.92    0.48
  -6 -10 -18    2.45    0.46
  10   6 -18    1.83    0.48
   6  10 -18    3.07    0.60
  -6  10  18    2.06    0.47
 -10   6  18    2.14    0.45
 -10   6  16    2.48    0.44
 -10  -6 -16    2.37    0.46
  -6 -10 -16    1.85    0.40
  10   6 -16    2.20    0.48
  -6  10  16    2.11    0.44
   6  10 -16    1.61    0.47
  -6 -10 -14    4.60    0.55
  10   6 -14    4.32    0.56
   6  10 -14    4.32    0.58
  -6  10  14    4.28    0.55
 -10   6  14    4.17    0.53
 -10  -6 -14    5.10    0.59
 -10  -6 -12   12.22    0.85
  10   6 -12   12.57    0.85
  -6 -10 -12   12.22    0.82
   6  10 -12   13.10    0.90
   6  10 -12   12.37    0.90
 -10   6  12   12.13    0.81
  -6  10  12   10.71    0.79
   6  10 -10    8.67    0.71
 -10  -6 -10    8.61    0.68
  10   6 -10    7.83    0.67
  -6 -10 -10    7.92    0.64
  -6  10  10    8.75    0.68
 -10   6  10    7.34    0.61
   6  10 -10    7.79    0.71
   6  10  -8    8.60    0.68
 -10   6   8    8.28    0.41
 -10  -6  -8    8.42    0.65
  10   6  -8    7.95    0.65
  -6 -10  -8    9.42    0.67
  -6  10   8    9.53    0.68
 -10   6   8    8.28    0.62
   6  10  -8   10.40    0.78
  -6 -10  -6    2.78    0.39
   6  10  -6    2.97    0.50
  10   6  -6    2.56    0.39
 -10   6   6    2.66    0.35
 -10  -6  -6    2.87    0.41
  -6  10   6    3.53    0.44
 -10   6   6    2.46    0.23
   6  10  -6    2.54    0.43
  -6 -10  -4   19.99    0.94
  -6 -10  -4   18.35    0.65
 -10  -6  -4   17.67    0.76
  -6 -10  -4   19.22    0.74
   6  10  -4   18.58    0.92
 -10  -6  -4   20.16    0.94
 -10   6   4   19.24    0.67
 -10   6   4   19.38    0.90
   6  10  -4   18.30    0.99
  10  -6   4   18.81    0.85
   6  10  -2   13.76    0.84
  -6  10   2   14.32    0.44
 -10  -6  -2   15.17    0.79
  -6 -10  -2   15.67    0.81
 -10  -6  -2   15.38    0.63
   6  10  -2   16.20    0.82
  -6 -10  -2   15.31    0.56
  10   6  -2   15.37    0.86
  -6 -10  -2   15.95    0.57
  -6  10   2   15.54    0.71
  10  -6   2   15.80    0.76
   6 -10   2   14.38    0.77
 -10   6   2   14.69    0.80
  10  -6   2   15.34    0.69
 -10   6   0   14.62    0.79
  -6  10   0   14.49    0.54
 -10  -6   0   13.57    0.73
   6  10   0   14.73    0.47
 -10  -6   0   13.20    0.53
   6  10   0   14.45    0.85
 -10  -6   0   13.80    0.84
  -6  10   0   13.08    0.61
  10   6   0   13.44    0.78
  10  -6   0   13.58    0.70
  -6 -10   0   14.08    0.55
   6 -10   0   13.84    0.77
  10  -6   0   14.20    0.60
  10  -6  -2   15.08    0.54
   6  10   2   14.78    0.56
  -6  10  -2   15.15    0.63
 -10  -6   2   14.50    0.73
 -10  -6   2   14.92    0.50
 -10   6  -2   15.86    0.84
  10  -6  -2   15.58    0.75
  10   6   2   14.58    0.79
   6 -10  -2   15.47    0.78
 -10  -6   2   13.64    0.82
  10  -6  -4   18.08    0.53
 -10   6  -4   19.97    0.97
 -10  -6   4   17.92    0.82
   6  10   4   18.78    0.74
 -10  -6   4   17.83    0.59
  10  -6  -4   18.97    0.86
 -10  -6   4   18.05    0.93
   6 -10  -4   17.85    0.87
  10   6   4   17.32    0.84
  -6  10  -4   18.75    0.81
   6 -10  -6    2.68    0.39
 -10   6  -6    3.14    0.44
  -6  10  -6    2.68    0.37
   6  10   6    3.11    0.35
  10  -6  -6    2.69    0.38
 -10  -6   6    2.42    0.17
  10   6   6    2.35    0.37
 -10  -6   6    2.78    0.46
 -10   6  -6    2.68    0.37
   6  10   6    2.80    0.27
  -6  10  -8    7.45    0.59
 -10   6  -8    9.04    0.67
   6 -10  -8    8.21    0.40
   6  10   8    7.88    0.56
 -10  -6   8    8.01    0.35
   6 -10  -8    9.08    0.64
  10   6   8    7.90    0.33
  10  -6  -8    7.54    0.59
 -10   6  -8    9.11    0.58
   6  10   8    8.79    0.48
  10   6   8    8.30    0.55
 -10  -6   8    7.94    0.63
   6 -10 -10    7.80    0.39
 -10   6 -10    7.59    0.52
  -6  10 -10    9.17    0.56
 -10   6 -10    6.92    0.61
  -6  10 -10    7.88    0.66
   6  10  10    7.15    0.59
  10  -6 -10    8.31    0.64
 -10  -6  10    7.75    0.39
   6 -10 -10    7.91    0.65
  10   6  10    8.67    0.42
  -6 -10  10    8.48    0.53
 -10  -6  10    7.60    0.62
  10   6  10    7.54    0.52
   6 -10 -12   11.53    0.50
 -10  -6  12   12.89    0.78
 -10   6 -12   12.32    0.82
  -6  10 -12   11.88    0.85
   6  10  12   10.99    0.78
 -10  -6  12   11.02    0.53
   6 -10 -12   11.88    0.81
 -10   6 -12   11.53    0.62
  -6  10 -12   11.36    0.61
  10   6  12   12.16    0.63
 -10  -6  14    3.81    0.47
  10  -6 -14    4.27    0.34
  -6  10 -14    4.84    0.60
 -10   6 -14    4.41    0.52
 -10   6 -14    5.07    0.64
 -10  -6  14    4.54    0.38
  -6  10 -14    4.53    0.38
   6  10  14    4.98    0.57
 -10  -6  16    2.59    0.41
   6  10  16    2.54    0.47
 -10   6 -16    3.13    0.47
  -6  10 -16    2.02    0.51
 -10   6 -16    1.92    0.50
 -10   6 -18    2.89    0.47
 -10   6 -18    2.53    0.55
   6  10  18    2.88    0.54
  -6  10 -18    2.68    0.55
 -10   6 -20    3.18    0.64
 -10   6 -20    3.66    0.51
   6  10  20    2.66    0.54
  -6  10 -20    3.16    0.61
   6  10  22    1.32    0.46
  -7 -10 -23   -0.18    0.32
 -10  -7 -21    0.21    0.32
  -7 -10 -21   -0.03    0.31
  -7  10  21    0.49    0.40
   7  10 -21   -0.04    0.38
  10   7 -21    0.18    0.40
 -10   7  21    0.05    0.35
 -10  -7 -19    0.40    0.34
  -7 -10 -19    0.73    0.36
  10   7 -19    1.09    0.44
   7  10 -19    0.35    0.40
  -7  10  19    0.74    0.41
 -10   7  19    0.62    0.34
 -10  -7 -17    2.28    0.47
  -7 -10 -17    1.34    0.39
  10   7 -17    2.57    0.52
  -7  10  17    2.22    0.47
 -10   7  17    2.37    0.46
   7  10 -17    1.78    0.50
   7  10 -15    1.12    0.39
 -10  -7 -15    1.75    0.43
  10   7 -15    1.88    0.50
  -7  10  15    1.40    0.37
 -10   7  15    2.39    0.44
  -7 -10 -15    1.08    0.36
 -10  -7 -13    6.70    0.66
   7  10 -13    5.41    0.64
  10   7 -13    5.21    0.61
  -7 -10 -13    5.46    0.59
  -7  10  13    5.79    0.61
 -10   7  13    4.59    0.54
  -7 -10 -11    0.94    0.35
  10   7 -11    1.29    0.39
   7  10 -11    1.00    0.39
 -10  -7 -11    1.52    0.38
  -7  10  11    1.94    0.39
 -10   7  11    0.84    0.31
   7  10 -11    1.07    0.44
  10   7  -9    4.05    0.51
 -10  -7  -9    4.18    0.51
  -7 -10  -9    4.57    0.50
   7  10  -9    4.15    0.54
  -7  10   9    5.99    0.57
 -10   7   9    3.85    0.47
   7  10  -9    3.69    0.57
   7  10  -7    7.41    0.64
 -10  -7  -7    8.04    0.64
  -7 -10  -7    7.36    0.61
 -10   7   7    7.31    0.34
   7  10  -7    8.15    0.72
  -7  10   7    9.02    0.66
  10   7  -7    6.59    0.60
   7  10  -5    2.45    0.41
 -10  -7  -5    2.75    0.40
 -10   7   5    2.63    0.21
  -7 -10  -5    3.68    0.43
   7  10  -5    2.72    0.49
  -7 -10  -5    2.97    0.30
  10   7  -5    2.62    0.41
  10   7  -5    3.02    0.49
  10  -7   3    0.67    0.26
   7 -10   3    0.82    0.30
 -10   7   3    0.72    0.27
   7  10  -3    0.77    0.37
 -10  -7  -3    0.36    0.23
  -7 -10  -3    0.53    0.23
   7  10  -3    0.81    0.31
  -7 -10  -3    0.97    0.15
 -10   7   3    0.79    0.16
  -7 -10  -3    0.64    0.15
 -10  -7  -3    0.57    0.16
  10   7  -3    0.47    0.36
  10  -7   1    0.72    0.20
  -7  10   1    0.56    0.14
 -10  -7  -1    1.02    0.29
   7  10  -1    0.64    0.40
  -7 -10  -1    0.50    0.24
 -10  -7  -1    0.59    0.15
 -10   7   1    0.71    0.30
  -7 -10  -1    0.56    0.11
  -7 -10  -1    0.61    0.13
  -7  10   1    0.50    0.25
  10   7  -1    0.83    0.35
  10  -7   1    0.61    0.27
   7 -10   1    0.85    0.31
  -7 -10   1    0.42    0.14
  10   7   1    0.52    0.34
  10  -7  -1    0.68    0.18
 -10   7  -1    0.83    0.29
  -7  10  -1    0.67    0.20
 -10  -7   1    0.66    0.12
 -10  -7   1    0.52    0.25
   7  10   1    1.51    0.43
  10  -7  -1    0.78    0.26
 -10  -7   1    1.28    0.43
   7 -10  -1    0.77    0.30
  10   7   3    0.18    0.31
 -10  -7   3    0.64    0.09
 -10   7  -3    0.77    0.28
  -7  10  -3    0.92    0.23
 -10  -7   3    0.95    0.37
 -10  -7   3    0.57    0.20
   7  10   3    0.94    0.19
  10  -7  -3    0.60    0.13
   7  10   3    1.02    0.41
 -10  -7   3    0.54    0.10
  10  -7  -3    0.80    0.27
   7 -10  -3    1.10    0.33
  10  -7  -5    2.04    0.13
   7  10   5    2.86    0.31
  10   7   5    2.32    0.40
  -7  10  -5    2.05    0.33
 -10   7  -5    3.25    0.44
  10  -7  -5    2.99    0.40
 -10  -7   5    2.82    0.49
   7 -10  -5    3.88    0.46
 -10   7  -7    7.79    0.64
  -7  10  -7    7.87    0.59
   7 -10  -7    7.66    0.37
   7  10   7    8.08    0.55
 -10  -7   7    7.65    0.63
 -10   7  -7    8.61    0.59
  10  -7  -7    7.61    0.59
   7 -10  -7    8.80    0.63
  10   7   7    6.30    0.25
  10   7   7    7.41    0.57
   7  10   7    8.22    0.42
 -10  -7   9    4.28    0.51
   7 -10  -9    4.42    0.26
  10   7   9    4.23    0.44
 -10   7  -9    4.10    0.52
   7  10   9    4.45    0.45
 -10  -7   9    3.57    0.20
  10  -7  -9    4.22    0.49
   7 -10  -9    4.06    0.49
  10   7   9    4.12    0.26
  -7  10  -9    4.44    0.51
   7  10   9    3.98    0.33
 -10   7  -9    4.74    0.44
   7 -10 -11    0.94    0.14
  -7  10 -11    1.31    0.19
 -10   7 -11    1.18    0.33
  -7  10 -11    1.12    0.37
 -10   7 -11    0.69    0.35
 -10   7 -11    1.48    0.30
  -7  10 -11    1.37    0.31
   7  10  11    1.31    0.35
 -10  -7  11    1.13    0.16
   7 -10 -11    1.19    0.36
 -10  -7  11    1.39    0.36
  10   7  11    1.47    0.33
  10   7  13    4.97    0.46
  -7  10 -13    6.42    0.66
 -10   7 -13    4.49    0.53
 -10   7 -13    6.24    0.67
   7  10  13    5.02    0.57
 -10  -7  13    4.86    0.52
  -7  10 -13    4.95    0.40
 -10   7 -13    5.30    0.42
 -10   7 -15    1.93    0.39
  -7  10 -15    2.06    0.48
 -10   7 -15    0.77    0.41
 -10  -7  15    1.62    0.36
   7  10  15    1.83    0.44
 -10   7 -17    1.68    0.41
  -7  10 -17    2.17    0.52
 -10   7 -17    2.45    0.54
   7  10  17    1.52    0.43
 -10   7 -19    0.14    0.27
 -10   7 -19    0.62    0.46
  -7  10 -19   -0.03    0.40
   7  10  19    0.30    0.34
 -10   7 -21    0.26    0.41
  -7  10 -21   -0.05    0.42
 -10   7 -21    0.04    0.28
   7  10  21    0.33    0.39
  -8 -10 -22    0.94    0.40
 -10  -8 -20    1.10    0.41
  -8 -10 -20    1.60    0.45
  10   8 -20    0.83    0.47
   8  10 -20    2.20    0.56
 -10   8  20    1.04    0.42
  -8  10  20    1.65    0.48
 -10  -8 -18    2.25    0.51
  -8  10  18    2.96    0.55
 -10   8  18    2.12    0.49
  -8 -10 -18    2.42    0.48
   8  10 -18    2.05    0.53
  10   8 -18    1.41    0.46
 -10  -8 -16    1.23    0.40
  -8 -10 -16    0.18    0.30
   8  10 -16    0.59    0.38
  10   8 -16    0.43    0.37
  -8  10  16    0.40    0.32
 -10   8  16    0.04    0.27
  -8 -10 -14    2.19    0.41
  10   8 -14    1.47    0.43
   8  10 -14    1.90    0.45
  -8  10  14    1.81    0.41
 -10   8  14    1.70    0.39
 -10  -8 -14    1.34    0.39
  -8 -10 -12    4.07    0.53
 -10  -8 -12    3.82    0.53
  10   8 -12    2.92    0.50
   8  10 -12    3.67    0.54
  -8  10  12    3.65    0.52
 -10   8  12    3.30    0.49
  10   8 -10    4.93    0.58
 -10  -8 -10    6.70    0.64
  -8 -10 -10    6.46    0.61
   8  10 -10    6.17    0.63
  -8  10  10    5.55    0.57
 -10   8  10    6.25    0.60
   8  10 -10    5.42    0.64
   8  10  -8    6.94    0.65
  -8 -10  -8    6.17    0.59
 -10   8   8    7.85    0.64
   8  10  -8    7.59    0.71
  -8  10   8    6.16    0.59
 -10  -8  -8    7.18    0.63
  10   8  -8    5.49    0.59
   8  10  -6    0.42    0.42
  10   8  -6    0.21    0.29
 -10  -8  -6    0.37    0.24
 -10   8   6    0.23    0.08
   8  10  -6    0.33    0.30
  10   8  -6    0.33    0.40
  -8 -10  -6    0.22    0.27
  10  -8   4    2.78    0.40
   8 -10   4    3.64    0.44
   8  10  -4    2.51    0.49
  10   8  -4    2.93    0.42
 -10  -8  -4    3.35    0.42
  -8 -10  -4    3.45    0.43
 -10  -8  -4    3.01    0.30
  -8 -10  -4    3.04    0.28
 -10   8   4    3.15    0.21
   8  10  -4    3.19    0.46
  10   8  -4    3.02    0.50
   8 -10   2    2.47    0.42
 -10   8   2    2.89    0.39
  -8 -10  -2    3.06    0.24
 -10  -8  -2    2.58    0.37
  -8 -10  -2    3.05    0.41
  -8 -10  -2    2.82    0.18
 -10  -8  -2    3.13    0.28
   8  10  -2    2.02    0.45
  -8  10   2    2.71    0.18
  10   8  -2    3.40    0.50
  10  -8   2    2.59    0.40
  10   8   0    5.23    0.57
 -10   8   0    5.69    0.55
  -8  10   0    5.73    0.35
 -10  -8   0    5.52    0.49
   8  10   0    5.84    0.60
  -8 -10   0    5.49    0.50
 -10  -8   0    5.80    0.31
  -8 -10   0    5.55    0.28
  10  -8   0    6.16    0.52
   8 -10   0    5.57    0.53
  10  -8   0    5.34    0.39
  10   8   2    2.57    0.45
  -8  10  -2    3.06    0.32
   8  10   2    2.72    0.48
 -10  -8   2    2.77    0.37
 -10  -8   2    2.10    0.13
 -10   8  -2    3.22    0.44
  10  -8  -2    2.73    0.39
   8 -10  -2    3.00    0.42
  10  -8  -2    2.90    0.26
  -8 -10   2    3.00    0.23
  -8  10  -4    2.85    0.36
  10   8   4    3.02    0.46
 -10  -8   4    2.48    0.34
   8  10   4    3.56    0.52
 -10  -8   4    3.25    0.48
 -10   8  -4    2.22    0.38
  10  -8  -4    2.75    0.39
   8 -10  -4    3.26    0.44
  10  -8  -4    3.04    0.22
   8 -10  -6    0.34    0.29
 -10   8  -6    0.41    0.29
  10   8   6   -0.10    0.33
  -8  10  -6    0.54    0.27
   8  10   6    0.15    0.21
   8  10   6    0.51    0.38
 -10  -8   6    0.40    0.33
  10  -8  -6    0.21    0.28
 -10   8  -8    6.76    0.63
   8 -10  -8    5.46    0.28
  -8  10  -8    5.98    0.56
   8  10   8    6.92    0.53
  10  -8  -8    6.23    0.58
   8 -10  -8    6.42    0.60
 -10   8  -8    6.61    0.52
  10   8   8    6.41    0.28
   8  10   8    6.43    0.37
 -10  -8   8    5.69    0.59
  10   8   8    6.28    0.55
  10   8  10    6.18    0.54
   8 -10 -10    4.99    0.24
 -10   8 -10    6.59    0.63
  -8  10 -10    5.96    0.59
 -10   8 -10    6.74    0.63
   8  10  10    5.97    0.55
  10  -8 -10    6.22    0.59
   8 -10 -10    6.40    0.60
  -8  10 -10    6.17    0.42
 -10  -8  10    6.56    0.61
 -10   8 -10    6.23    0.48
  -8  10 -12    4.05    0.35
 -10   8 -12    3.96    0.38
  -8  10 -12    3.40    0.52
 -10   8 -12    4.15    0.53
 -10   8 -12    4.11    0.56
  10   8  12    4.32    0.46
   8  10  12    3.63    0.48
 -10  -8  12    3.52    0.47
   8 -10 -12    4.91    0.57
  -8  10 -14    2.11    0.48
 -10   8 -14    1.70    0.46
 -10   8 -14    1.52    0.36
 -10  -8  14    2.21    0.39
   8  10  14    2.47    0.44
  10   8  14    2.15    0.36
  -8  10 -16    0.69    0.41
 -10   8 -16    0.64    0.39
 -10   8 -16    0.58    0.31
   8  10  16    0.79    0.36
 -10   8 -18    2.19    0.41
 -10   8 -18    2.36    0.55
   8  10  18    2.78    0.55
  -8  10 -18    1.92    0.52
 -10   8 -20    2.28    0.44
  -8  10 -20    0.96    0.49
 -10   8 -20    1.52    0.52
   8  10  20    0.91    0.40
 -10  -9 -21   -0.50    0.40
  -9 -10 -21    0.20    0.36
 -10  -9 -19    0.17    0.31
  -9 -10 -19    0.39    0.33
   9  10 -19    0.46    0.44
  10   9 -19    0.19    0.38
  -9  10  19    0.51    0.35
 -10   9  19    0.10    0.34
  -9 -10 -17    1.11    0.39
  10   9 -17    0.54    0.41
   9  10 -17    1.48    0.45
  -9  10  17    1.14    0.37
 -10   9  17    1.23    0.41
 -10  -9 -17    0.95    0.39
 -10  -9 -15    3.31    0.53
  10   9 -15    3.42    0.57
   9  10 -15    3.45    0.58
  -9  10  15    4.41    0.60
 -10   9  15    3.27    0.52
  -9 -10 -15    3.75    0.57
 -10  -9 -13    0.54    0.35
  10   9 -13    0.39    0.38
   9  10 -13    1.13    0.39
  -9 -10 -13    0.69    0.31
  -9  10  13    0.88    0.34
 -10   9  13    0.95    0.36
  -9 -10 -11    6.07    0.63
   9  10 -11    6.16    0.65
 -10  -9 -11    6.27    0.66
 -10   9  11    6.99    0.66
  10   9 -11    5.77    0.64
  -9  10  11    7.43    0.68
  10   9  -9    0.83    0.39
   9  10  -9   -0.17    0.31
 -10  -9  -9    0.29    0.29
  -9  10   9    0.22    0.25
 -10   9   9    0.48    0.28
   9  10  -9    0.02    0.41
  -9 -10  -9   -0.03    0.27
  10   9  -7    6.59    0.64
   9  10  -7    5.43    0.59
 -10  -9  -7    5.57    0.56
  -9 -10  -7    5.88    0.58
  -9  10   7    6.84    0.61
  10   9  -7    6.07    0.66
   9  10  -7    5.90    0.69
   9  10  -5   11.09    0.76
 -10  -9  -5   10.53    0.73
  -9 -10  -5   11.27    0.74
  10   9  -5   11.95    0.78
  10   9  -5   11.47    0.83
   9  10  -5   10.09    0.79
  10  -9   5    9.34    0.66
   9 -10   5    9.56    0.69
 -10   9   3    5.04    0.27
  -9  10   3    4.68    0.21
   9  10  -3    5.27    0.62
 -10  -9  -3    5.27    0.52
  -9  10   3    4.80    0.21
  -9 -10  -3    6.08    0.55
  -9 -10  -3    6.06    0.37
 -10  -9  -3    5.35    0.37
  10   9  -3    7.19    0.68
  10  -9   3    5.61    0.53
   9 -10   3    5.98    0.54
 -10  -9  -1   11.43    0.73
  -9 -10  -1   10.80    0.71
  -9  10   1   11.40    0.47
 -10  -9  -1   11.11    0.45
  -9 -10  -1   11.61    0.43
  10   9  -1   10.77    0.79
  10  -9   1   11.84    0.74
   9  10  -1   10.89    0.80
   9 -10   1   11.76    0.74
  -9 -10   1   11.57    0.73
   9 -10  -1   11.11    0.71
  -9  10  -1   11.53    0.56
 -10  -9   1   11.44    0.72
 -10  -9   1    9.02    0.33
 -10   9  -1   12.91    0.80
  10  -9  -1   11.33    0.71
  10   9   1   10.15    0.76
  -9 -10   1   11.20    0.39
   9 -10  -1   10.86    0.57
  10  -9  -1   11.59    0.56
   9  10   1   11.29    0.79
 -10   9  -3    6.81    0.62
  -9  10  -3    6.16    0.47
   9  10   3    5.60    0.59
 -10  -9   3    5.04    0.49
  10  -9  -3    6.20    0.55
   9 -10  -3    5.87    0.55
  10   9   3    5.15    0.57
   9 -10  -3    5.66    0.37
  10  -9  -3    5.81    0.35
   9 -10  -5   10.24    0.71
 -10   9  -5   10.40    0.77
  -9  10  -5   10.84    0.67
 -10   9  -5   10.80    0.67
   9  10   5   11.19    0.77
  10  -9  -5   10.97    0.72
   9 -10  -5   10.12    0.45
  10  -9  -5    9.65    0.40
  10   9   5   11.09    0.77
 -10   9  -7    5.12    0.52
   9  10   7    6.93    0.64
   9 -10  -7    5.84    0.27
  10  -9  -7    6.11    0.57
  -9  10  -7    6.30    0.55
 -10  -9   7    5.37    0.57
   9 -10  -7    4.57    0.52
  10   9   7    6.72    0.60
 -10   9  -7    6.23    0.62
 -10   9  -9    0.52    0.24
 -10   9  -9    0.37    0.29
   9  10   9    1.41    0.40
  -9  10  -9    0.16    0.28
 -10   9  -9    0.66    0.35
  10   9   9    0.69    0.34
  10  -9  -9    0.33    0.28
   9 -10  -9    0.50    0.29
 -10  -9   9    0.89    0.40
  10   9  11    6.95    0.58
  -9  10 -11    7.39    0.46
  -9  10 -11    6.66    0.65
 -10   9 -11    7.07    0.68
  10  -9 -11    5.63    0.59
   9 -10 -11    5.68    0.60
 -10   9 -11    7.16    0.66
  -9  10 -11    6.48    0.44
 -10   9 -11    6.30    0.46
 -10  -9  11    6.12    0.60
 -10   9 -13    0.63    0.31
  -9  10 -13    0.95    0.37
 -10   9 -13    0.48    0.35
   9  10  13    0.82    0.33
  10   9  13    1.01    0.35
 -10  -9  13    1.23    0.36
 -10   9 -15    3.59    0.57
   9  10  15    3.79    0.54
  -9  10 -15    3.99    0.61
 -10   9 -15    3.67    0.53
 -10   9 -17    1.41    0.40
  -9  10 -17    1.97    0.50
 -10   9 -17    0.84    0.45
  -9  10 -19    0.03    0.38
 -10   9 -19    0.75    0.49
 -10 -10 -20    2.52    0.54
  10  10 -18    0.39    0.40
 -10  10  18    0.31    0.34
 -10 -10 -18    0.72    0.35
 -10 -10 -16    6.02    0.69
  10  10 -16    4.96    0.69
 -10  10  16    5.51    0.67
 -10 -10 -14    9.77    0.83
  10  10 -14    9.70    0.85
 -10  10  14    9.58    0.83
 -10 -10 -12    0.18    0.30
 -10  10  12    0.19    0.28
  10  10 -12    0.12    0.33
  10  10 -10   19.48    1.14
 -10 -10 -10   19.50    1.12
 -10  10  10   22.13    1.17
  10  10  -8   20.11    1.12
 -10 -10  -8   22.84    1.18
  10  10  -8   21.12    1.20
 -10  10   8   23.21    1.17
  10 -10   6    2.12    0.38
 -10 -10  -6    2.50    0.42
  10  10  -6    2.29    0.43
  10  10  -6    1.04    0.46
  10  10  -4   17.94    1.01
 -10 -10  -4   19.62    0.79
  10  10  -4   20.35    1.11
  10 -10   4   19.20    0.98
 -10 -10  -4   19.83    1.03
 -10 -10  -2   27.13    1.21
 -10  10   2   27.36    0.82
 -10 -10  -2   27.01    0.86
  10  10  -2   26.93    1.31
  10 -10   2   29.21    1.22
 -10  10   0   57.82    1.54
 -10 -10   0   58.01    1.90
  10 -10   0   58.97    1.88
 -10 -10   0   53.89    1.30
  10  10   0   57.02    1.97
 -10  10  -2   28.08    1.03
 -10 -10   2   28.47    1.21
  10 -10  -2   28.46    1.21
 -10 -10   2   27.44    0.74
  10  10   2   27.70    1.27
  10 -10  -2   27.95    0.96
 -10  10  -4   20.60    0.92
  10 -10  -4   21.79    1.04
  10 -10  -4   19.97    0.71
  10  10   4   18.98    1.05
 -10  10  -6    2.85    0.47
  10  10   6    2.46    0.46
 -10  10  -6    2.34    0.39
  10 -10  -6    1.83    0.38
  10  10   8   21.78    1.07
  10 -10  -8   21.10    1.08
 -10  10  -8   22.07    1.09
 -10  10  -8   22.35    1.18
 -10  10 -10   20.89    1.17
 -10  10 -10   20.16    1.10
  10 -10 -10   21.17    1.11
 -10  10 -10   23.94    0.95
  10  10  10   20.15    1.04
 -10  10 -12    0.33    0.30
 -10  10 -12    0.17    0.35
  10  10  12    0.63    0.35
  10 -10 -12    0.13    0.31
  10  10  14    7.59    0.64
 -10  10 -14    7.83    0.79
 -10  10 -16    4.26    0.64
 -10  10 -18    0.54    0.41
 -11   0  -1   10.48    0.56
 -11   0   1   11.20    0.54
   0 -11  -1   11.89    0.54
   0 -11   1   11.67    0.57
  11   0   1   10.50    0.54
   0  11   1   10.94    0.53
  11   0  -1   10.56    0.50
   0  11  -1   10.35    0.55
  11   0  -1   11.67    0.48
  11   0   1   10.50    0.45
   0  11   1   10.11    0.53
 -11   0  -1   10.35    0.60
   0 -11   1   10.66    0.38
   0 -11  -1   10.60    0.48
   0 -11  -1   11.14    0.61
   0 -11   1   10.49    0.59
 -11   0  -3    1.96    0.29
 -11   0  -3    2.28    0.31
   0 -11  -3    2.52    0.26
   0  11  -3    2.64    0.32
  11   0  -3    2.51    0.27
   0  11   3    2.27    0.28
  11   0   3    2.57    0.24
   0 -11  -3    2.32    0.32
   0 -11  -3    2.43    0.33
 -11   0  -3    2.21    0.41
 -11   0   3    2.26    0.23
 -11   0   3    2.33    0.25
   0  11  -5   20.83    0.92
   0 -11  -5   21.12    0.72
 -11   0  -5   20.36    0.97
   0 -11  -5   21.57    0.89
 -11   0   5   19.99    0.69
   0 -11  -5   20.84    0.88
 -11   0   5   19.91    0.78
   0  11   5   20.64    0.87
   0 -11  -5   21.08    0.89
 -11   0  -5   21.35    0.76
 -11   0  -5   21.53    0.94
   0 -11  -7   11.77    0.50
 -11   0   7   11.35    0.44
   0  11  -7   10.58    0.69
   0 -11  -7   11.10    0.62
 -11   0   7   11.42    0.60
   0 -11  -7   11.46    0.65
   0  11   7   11.76    0.68
 -11   0  -7   11.83    0.74
   0  11  -7   11.05    0.73
 -11   0  -7   11.66    0.71
   0 -11  -7   11.66    0.73
  11   0  -9   11.37    0.66
   0 -11  -9   12.56    0.53
 -11   0   9   10.62    0.41
   0 -11  -9   10.51    0.62
   0  11  -9   10.17    0.71
 -11   0  -9   12.08    0.75
   0 -11  -9   11.52    0.68
   0  11  -9   11.32    0.48
   0  11   9   10.11    0.68
 -11   0   9   10.97    0.61
 -11   0   9   11.07    0.56
   0 -11  -9   12.40    0.78
 -11   0  -9   11.36    0.75
   0  11  -9   10.91    0.73
 -11   0  11    9.67    0.49
 -11   0  11    8.44    0.35
   0  11  11    9.15    0.69
   0  11 -11    7.81    0.31
 -11   0  11    9.29    0.59
   0  11 -11    9.22    0.73
  11   0 -11    9.17    0.62
   0 -11 -11    9.26    0.59
   0 -11 -11    9.55    0.76
   0  11 -11    8.69    0.67
 -11   0 -11    9.77    0.73
  11   0 -13    2.08    0.37
   0 -11 -13    1.89    0.32
 -11   0  13    2.06    0.21
   0  11 -13    2.30    0.47
   0  11  13    1.88    0.39
 -11   0  13    1.58    0.30
   0 -11 -13    2.20    0.49
   0  11 -13    1.92    0.40
 -11   0 -13    1.60    0.38
   0 -11 -15   15.69    0.85
  11   0 -15   15.53    0.90
   0  11 -15   16.03    1.05
   0 -11 -15   16.25    0.77
   0  11  15   16.43    1.03
 -11   0  15   16.83    0.91
   0  11 -15   17.50    0.95
   0 -11 -15   16.97    1.09
 -11   0 -15   15.38    1.00
   0  11 -17   -0.02    0.34
 -11   0 -17   -0.25    0.26
 -11   0  17   -0.07    0.24
   0  11  17    0.34    0.33
  11   0 -17    0.22    0.31
   0 -11 -17    0.11    0.22
   0 -11 -17    0.29    0.45
 -11   0 -17    0.31    0.32
   0 -11 -19    1.40    0.32
   0  11 -19    1.79    0.50
   0  11  19    1.87    0.49
 -11   0  19    3.17    0.48
 -11   0 -19    1.85    0.38
  11   0 -19    2.88    0.49
   0 -11 -19    1.42    0.54
 -11   0 -19    2.06    0.47
 -11   0  21   -0.05    0.27
   0  11 -21   -0.07    0.39
  11   0 -21    0.07    0.30
 -11   0 -21    0.23    0.28
   0  11  21    0.04    0.34
   0 -11 -21    0.66    0.48
 -11   0 -21    0.55    0.37
 -11   0  23   -0.29    0.37
  11   1 -24    0.81    0.42
 -11   1  24    0.91    0.38
  11   1 -22    2.13    0.47
  -1  11  22    1.97    0.54
 -11   1  22    2.29    0.49
   1  11 -22    1.96    0.57
  -1 -11 -22    1.41    0.60
 -11  -1 -22    2.92    0.57
   1  11 -20    6.92    0.81
 -11   1  20    7.31    0.71
  11   1 -20    6.81    0.69
  -1  11  20    6.02    0.74
 -11  -1 -20    5.91    0.63
  -1 -11 -20    5.54    0.76
 -11  -1 -20    5.56    0.68
  -1 -11 -20    6.07    0.61
   1  11 -18    0.71    0.40
  -1 -11 -18    1.30    0.34
  -1  11  18    1.21    0.42
 -11   1  18    0.32    0.26
  11   1 -18    1.21    0.37
  -1 -11 -18    0.70    0.51
 -11  -1 -18    0.99    0.39
  11   1 -16    5.00    0.54
  -1 -11 -16    3.52    0.43
  -1  11  16    3.98    0.56
 -11   1  16    4.44    0.50
   1  11 -16    3.46    0.55
  -1 -11 -16    4.33    0.68
 -11  -1 -16    3.60    0.54
  11   1 -14    9.26    0.70
  -1 -11 -14   10.22    0.67
   1  11 -14    9.51    0.81
  -1  11  14   10.88    0.81
 -11   1  14   10.33    0.70
   1  11 -14   10.12    0.74
  -1 -11 -14   10.58    0.86
 -11  -1 -14    9.56    0.78
 -11  -1 -12    2.67    0.45
   1  11 -12    2.57    0.46
 -11   1  12    2.91    0.27
  -1  11  12    2.54    0.42
  -1 -11 -12    2.25    0.35
   1  11 -12    2.82    0.49
  11   1 -12    2.65    0.40
 -11   1  12    3.15    0.39
  -1 -11 -12    4.66    0.62
  -1 -11 -10   18.70    0.74
  -1 -11 -10   17.52    0.85
 -11   1  10   17.84    0.73
   1  11 -10   18.08    0.73
  -1 -11 -10   19.15    0.90
  -1  11  10   18.04    0.94
 -11   1  10   18.25    0.86
   1  11 -10   19.06    1.01
   1  11 -10   16.94    0.60
  -1 -11 -10   18.57    1.03
   1  11 -10   17.43    0.94
  11   1 -10   16.86    0.87
 -11  -1 -10   19.84    1.01
 -11   1   8    1.88    0.13
 -11  -1  -8    2.01    0.35
  -1 -11  -8    2.30    0.26
   1  11  -8    2.28    0.26
 -11   1   8    2.72    0.29
  -1 -11  -8    2.16    0.31
   1  11  -8    3.04    0.47
  -1 -11  -8    2.05    0.32
  11   1  -8    2.72    0.36
  -1  11   8    2.19    0.34
 -11   1   8    1.89    0.27
   1  11  -8    2.71    0.41
 -11  -1  -8    2.35    0.45
 -11   1   6    2.78    0.20
 -11  -1  -6    3.16    0.39
   1  11  -6    2.90    0.39
  -1 -11  -6    3.16    0.29
  -1 -11  -6    3.18    0.35
   1  11  -6    3.22    0.48
 -11   1   6    2.83    0.31
  -1  11   6    3.91    0.39
  -1 -11  -6    3.25    0.35
 -11  -1  -6    3.46    0.48
 -11   1   4   15.36    0.57
 -11  -1  -4   15.40    0.77
   1  11  -4   16.87    0.79
  -1 -11  -4   17.57    0.67
 -11  -1  -4   15.51    0.83
 -11   1   4   15.87    0.76
  -1 -11  -4   15.95    0.73
  -1  11   4   15.63    0.74
 -11   1   4   15.57    0.67
  11  -1   4   15.82    0.63
 -11  -1  -4   16.43    0.69
 -11  -1  -2   12.98    0.78
 -11  -1  -2   13.40    0.69
  -1  11   2   13.77    0.56
   1 -11   2   14.78    0.67
  11  -1   2   14.24    0.65
  -1 -11  -2   14.33    0.62
   1  11  -2   13.43    0.67
  -1  11   2   14.51    0.67
  -1 -11  -2   15.27    0.69
  11  -1   2   14.13    0.57
 -11  -1  -2   14.38    0.69
 -11   1   2   13.75    0.60
   1 -11   2   15.34    0.74
 -11   1   2   15.07    0.60
  -1  11   0   32.52    1.03
  -1 -11   0   32.98    1.08
   1 -11   0   33.90    1.04
  11  -1   0   32.33    1.03
  11   1   0   32.26    1.06
  11   1   0   31.69    0.89
  11  -1   0   33.69    1.00
   1  11   0   31.40    1.00
   1  11   0   31.49    1.07
   1 -11   0   33.83    1.17
  -1 -11   0   34.08    1.13
 -11  -1   0   31.59    1.09
 -11   1   0   32.28    1.06
  -1 -11   2   15.11    0.70
  -1  11  -2   15.45    0.67
   1 -11  -2   14.70    0.57
  11  -1  -2   14.67    0.56
  11  -1  -2   13.54    0.58
   1  11   2   13.85    0.63
 -11   1  -2   14.46    0.68
  11   1   2   14.16    0.49
   1 -11  -2   14.48    0.60
   1 -11  -2   14.40    0.71
  -1 -11   2   12.93    0.42
 -11   1  -2   13.54    0.78
 -11  -1   2   14.15    0.54
 -11  -1   2   14.72    0.63
 -11   1  -2   14.40    0.68
  -1  11  -4   16.63    0.76
   1 -11  -4   16.53    0.57
 -11  -1   4   16.13    0.64
  11  -1  -4   15.56    0.67
   1  11   4   15.73    0.72
   1 -11  -4   16.15    0.77
 -11  -1   4   16.12    0.87
 -11   1  -4   15.67    0.66
 -11  -1   4   16.14    0.63
   1 -11  -4   15.18    0.71
  11   1   4   16.56    0.56
 -11   1  -4   16.47    0.84
 -11   1  -4   15.08    0.76
 -11   1  -6    3.14    0.39
   1 -11  -6    3.64    0.25
 -11  -1   6    3.50    0.27
 -11   1  -6    2.98    0.27
   1 -11  -6    3.62    0.34
 -11   1  -6    3.32    0.44
   1  11   6    3.07    0.35
 -11  -1   6    3.80    0.32
   1 -11  -6    3.73    0.42
  -1  11  -6    3.35    0.40
   1 -11  -6    3.62    0.44
 -11  -1   6    2.98    0.44
   1 -11  -8    2.21    0.21
  -1  11  -8    2.32    0.38
 -11  -1   8    2.01    0.20
 -11   1  -8    2.43    0.42
   1 -11  -8    2.64    0.32
  -1  11  -8    2.07    0.44
   1 -11  -8    2.29    0.34
   1  11   8    2.12    0.33
 -11  -1   8    2.08    0.27
   1 -11  -8    2.17    0.45
 -11   1  -8    2.36    0.36
  11  -1 -10   17.64    0.83
   1 -11 -10   18.01    0.63
  -1  11 -10   18.76    1.00
   1 -11 -10   18.21    0.82
  -1  11 -10   17.19    0.56
 -11  -1  10   17.93    0.62
 -11  -1  10   18.77    0.74
 -11   1 -10   19.38    0.94
   1  11  10   18.62    0.95
 -11  -1  10   18.37    0.81
   1 -11 -10   17.68    0.90
   1 -11 -10   18.33    0.98
 -11   1 -10   19.11    0.99
  -1  11 -10   18.52    0.92
   1 -11 -12    2.75    0.34
  -1  11 -12    2.57    0.47
 -11  -1  12    2.76    0.26
  -1  11 -12    2.81    0.45
   1  11  12    3.24    0.46
  11  -1 -12    1.88    0.35
 -11  -1  12    2.04    0.30
   1 -11 -12    2.51    0.51
 -11   1 -12    2.62    0.45
   1 -11 -14   10.28    0.64
  11  -1 -14   10.13    0.68
  -1  11 -14   10.58    0.83
   1 -11 -14   10.77    0.55
 -11   1 -14    9.45    0.73
   1  11  14   11.89    0.83
 -11  -1  14    9.52    0.65
  -1  11 -14    9.89    0.70
   1 -11 -14   10.59    0.88
 -11   1 -14   11.32    0.83
  -1  11 -16    3.57    0.58
  11  -1 -16    3.58    0.47
   1 -11 -16    4.04    0.44
   1  11  16    4.03    0.57
 -11   1 -16    3.50    0.47
 -11  -1  16    3.99    0.47
   1 -11 -16    3.28    0.59
 -11   1 -16    3.35    0.52
   1 -11 -18    1.64    0.33
  11  -1 -18    0.34    0.30
   1  11  18    1.07    0.38
  -1  11 -18    0.53    0.39
 -11   1 -18    0.86    0.35
 -11  -1  18    1.21    0.33
   1 -11 -18   -0.04    0.44
 -11   1 -18    0.76    0.37
  11  -1 -20    5.46    0.61
   1  11  20    5.84    0.74
 -11   1 -20    5.68    0.60
  -1  11 -20    7.39    0.83
 -11  -1  20    6.00    0.61
   1 -11 -20    5.26    0.77
 -11   1 -20    6.61    0.74
   1  11  22    2.95    0.59
  -1  11 -22    2.36    0.59
 -11   1 -22    2.81    0.66
 -11  -1  22    2.35    0.45
   1 -11 -22    1.12    0.56
  11   2 -25    3.01    0.60
  11   2 -23    0.51    0.37
 -11   2  23    0.18    0.31
  -2 -11 -21    0.00    0.27
   2  11 -21    0.41    0.45
  11   2 -21   -0.43    0.35
  -2  11  21   -0.05    0.34
 -11   2  21    0.14    0.29
 -11  -2 -21    0.21    0.28
  -2 -11 -21    0.92    0.52
 -11  -2 -21    0.55    0.38
  -2 -11 -19    5.55    0.58
  11   2 -19    4.67    0.61
   2  11 -19    4.39    0.67
  -2  11  19    4.19    0.60
  -2 -11 -19    5.58    0.77
 -11   2  19    4.05    0.55
 -11  -2 -19    4.23    0.61
  -2 -11 -17   -0.21    0.25
  11   2 -17    0.53    0.34
   2  11 -17    0.33    0.35
  -2  11  17    0.76    0.38
 -11   2  17    0.51    0.27
  -2 -11 -17    0.90    0.48
 -11  -2 -17    0.47    0.35
 -11  -2 -15    4.25    0.56
  -2 -11 -15    4.55    0.49
  11   2 -15    4.43    0.52
   2  11 -15    2.54    0.50
   2  11 -15    4.50    0.60
  -2  11  15    3.54    0.53
 -11   2  15    4.43    0.50
  -2 -11 -15    4.10    0.64
 -11  -2 -13    2.87    0.45
  11   2 -13    2.81    0.45
   2  11 -13    3.08    0.51
  -2 -11 -13    3.23    0.41
  -2  11  13    3.03    0.46
 -11   2  13    3.00    0.42
   2  11 -13    2.70    0.46
  11   2 -11   18.13    0.93
 -11   2  11   17.17    0.71
  -2 -11 -11   16.65    0.87
   2  11 -11   17.78    0.71
  -2  11  11   18.41    0.98
 -11   2  11   18.05    0.90
   2  11 -11   16.27    0.99
   2  11 -11   16.24    0.95
 -11  -2 -11   17.38    0.98
 -11  -2  -9    0.60    0.27
  11   2  -9    0.58    0.27
   2  11  -9    1.04    0.34
  -2 -11  -9    0.75    0.26
 -11   2   9    0.85    0.19
   2  11  -9    0.71    0.16
  -2 -11  -9    1.44    0.30
  -2  11   9    0.68    0.26
   2  11  -9    0.94    0.20
 -11   2   9    1.07    0.26
  -2 -11  -9    0.72    0.22
   2  11  -9    0.54    0.37
  -2 -11  -7    0.10    0.17
   2  11  -7    0.34    0.27
   2  11  -7    0.32    0.19
 -11  -2  -7    0.34    0.24
  -2 -11  -7   -0.03    0.21
 -11   2   7    0.32    0.16
   2  11  -7    0.54    0.37
  -2 -11  -7    0.34    0.22
  -2  11   7    0.36    0.23
  11   2  -7    0.18    0.23
 -11  -2  -7    0.29    0.36
 -11  -2  -5   25.43    1.07
  -2 -11  -5   26.41    0.92
 -11   2   5   27.00    1.02
  -2 -11  -5   26.31    0.96
  -2 -11  -5   25.68    1.04
   2  11  -5   26.59    1.08
   2  11  -5   25.14    0.95
  -2  11   5   25.28    1.02
 -11  -2  -5   25.66    1.12
 -11  -2  -5   26.69    0.91
 -11   2   5   24.94    0.71
   2  11  -5   26.40    1.14
 -11  -2  -3    5.49    0.46
   2  11  -3    4.69    0.44
   2 -11   3    5.56    0.44
  -2 -11  -3    5.92    0.41
 -11   2   3    4.43    0.42
  -2 -11  -3    5.15    0.40
  -2  11   3    5.03    0.42
 -11  -2  -3    4.47    0.50
  11  -2   3    5.17    0.37
 -11   2   3    5.46    0.31
 -11  -2  -3    5.29    0.43
  -2 -11  -1   12.81    0.62
  11  -2   1   12.75    0.59
  -2  11   1   13.01    0.53
   2  11  -1   11.96    0.64
   2 -11   1   13.82    0.61
   2  11  -1   13.61    0.53
  11  -2   1   12.88    0.58
 -11  -2  -1   12.60    0.66
 -11   2   1   13.29    0.73
  -2 -11  -1   13.20    0.63
   2 -11   1   12.64    0.68
 -11   2   1   12.74    0.57
 -11  -2   1   12.69    0.63
  11  -2  -1   13.75    0.56
   2 -11  -1   13.79    0.55
  -2  11  -1   14.05    0.60
 -11   2  -1   14.27    0.77
   2  11   1   13.60    0.58
  11   2   1   13.31    0.43
  11  -2  -1   14.06    0.61
   2  11   1   12.22    0.62
 -11   2  -1   14.84    0.80
   2 -11  -1   12.29    0.68
  -2 -11   1   13.41    0.64
 -11   2  -1   13.59    0.63
  -2  11  -3    5.72    0.42
   2 -11  -3    5.74    0.30
 -11  -2   3    5.75    0.39
  11  -2  -3    5.56    0.29
 -11  -2   3    4.94    0.51
  11  -2  -3    5.14    0.40
   2  11   3    4.72    0.37
 -11   2  -3    4.96    0.47
  11   2   3    5.06    0.24
   2 -11  -3    5.65    0.47
   2 -11  -3    4.99    0.38
 -11   2  -3    6.34    0.55
 -11  -2   3    4.70    0.30
 -11   2  -3    5.20    0.42
  -2  11  -5   26.99    1.04
  11  -2  -5   24.99    0.94
   2 -11  -5   24.53    0.70
 -11  -2   5   25.38    0.87
   2 -11  -5   26.59    1.05
 -11  -2   5   25.67    0.86
 -11   2  -5   26.42    0.86
 -11  -2   5   24.03    1.10
   2 -11  -5   24.82    0.98
   2  11   5   25.72    0.98
 -11   2  -5   25.89    1.07
 -11   2  -5   25.04    1.03
  11   2   5   26.40    0.74
 -11  -2   7   -0.24    0.32
  -2  11  -7    0.10    0.25
 -11   2  -7    0.07    0.26
 -11  -2   7    0.33    0.14
   2 -11  -7   -0.04    0.15
 -11   2  -7    0.29    0.30
 -11   2  -7    0.21    0.15
   2  11   7    0.05    0.20
   2 -11  -7    0.10    0.08
   2 -11  -7    0.02    0.24
 -11  -2   7    0.27    0.14
   2 -11  -7    0.13    0.34
 -11   2  -7    0.29    0.25
   2 -11  -9    0.67    0.11
  -2  11  -9    1.01    0.34
   2 -11  -9    0.75    0.20
 -11   2  -9    0.92    0.32
 -11  -2   9    0.92    0.16
  -2  11  -9    1.08    0.38
   2  11   9    0.72    0.27
   2 -11  -9    0.62    0.28
 -11   2  -9    0.38    0.27
 -11  -2   9    0.55    0.18
   2 -11  -9    0.47    0.36
 -11  -2   9    0.99    0.36
 -11   2  -9    0.65    0.28
   2 -11 -11   17.78    0.79
   2 -11 -11   17.40    0.59
  -2  11 -11   18.98    1.02
 -11   2 -11   18.64    0.99
   2 -11 -11   16.39    0.90
  11  -2 -11   16.46    0.80
   2  11  11   19.03    0.98
 -11   2 -11   17.49    0.88
 -11  -2  11   17.78    0.79
 -11  -2  11   18.52    0.98
   2 -11 -11   15.74    0.97
  -2  11 -11   17.24    0.88
 -11   2 -11   18.21    0.99
  11  -2 -13    2.75    0.36
   2 -11 -13    3.31    0.27
  -2  11 -13    4.38    0.48
 -11  -2  13    3.14    0.25
 -11  -2  13    3.09    0.46
   2  11  13    4.70    0.55
 -11   2 -13    2.64    0.42
 -11  -2  13    2.74    0.35
   2 -11 -13    2.83    0.35
   2 -11 -13    2.38    0.52
  -2  11 -13    3.35    0.53
 -11   2 -13    3.23    0.47
  11  -2 -15    4.34    0.45
 -11  -2  15    3.34    0.47
  -2  11 -15    3.62    0.56
   2  11  15    3.48    0.52
 -11   2 -15    3.64    0.50
 -11  -2  15    3.59    0.42
   2 -11 -15    3.63    0.60
  -2  11 -15    3.29    0.43
   2 -11 -15    3.67    0.39
 -11   2 -15    4.00    0.56
   2 -11 -17    0.71    0.26
  11  -2 -17    0.14    0.26
  -2  11 -17    0.52    0.35
   2  11  17    0.47    0.32
 -11   2 -17    0.63    0.30
 -11  -2  17    0.34    0.22
 -11  -2  17   -0.02    0.31
   2 -11 -17   -0.33    0.48
 -11   2 -17    0.32    0.31
  -2  11 -19    4.50    0.68
  11  -2 -19    4.00    0.50
 -11   2 -19    4.24    0.54
   2  11  19    4.15    0.62
 -11  -2  19    4.74    0.53
 -11  -2  19    4.32    0.54
   2 -11 -19    4.91    0.73
  -2  11 -21   -0.21    0.42
 -11   2 -21    0.48    0.47
 -11   2 -21   -0.11    0.26
   2  11  21    0.37    0.37
   2 -11 -21   -1.02    0.59
  11   3 -24    2.63    0.59
 -11   3  24    1.68    0.49
  -3 -11 -22    1.00    0.36
  11   3 -22    0.77    0.44
 -11   3  22    0.60    0.35
  -3 -11 -22    1.29    0.60
 -11  -3 -22    0.93    0.41
  -3 -11 -20    1.35    0.37
   3  11 -20    0.40    0.42
  11   3 -20    0.85    0.40
  -3  11  20    1.23    0.44
 -11   3  20    0.66    0.35
  -3 -11 -20    1.30    0.57
 -11  -3 -20    1.43    0.44
  -3 -11 -18    2.03    0.39
  11   3 -18    2.42    0.48
   3  11 -18    2.33    0.52
 -11   3  18    3.09    0.50
  -3 -11 -18    3.16    0.70
  -3  11  18    1.74    0.44
 -11  -3 -18    1.92    0.44
 -11  -3 -16    2.27    0.47
  -3 -11 -16    1.95    0.38
   3  11 -16    1.76    0.49
  11   3 -16    1.63    0.41
  -3  11  16    1.72    0.43
 -11   3  16    1.35    0.36
 -11  -3 -14    0.13    0.27
   3  11 -14    0.06    0.34
  -3 -11 -14    0.82    0.29
  11   3 -14    0.32    0.31
  -3  11  14    0.11    0.29
 -11   3  14    0.30    0.22
   3  11 -14    0.47    0.35
   3  11 -12    4.56    0.57
 -11  -3 -12    3.52    0.50
  -3 -11 -12    4.19    0.47
  11   3 -12    4.08    0.49
  -3  11  12    3.38    0.48
 -11   3  12    3.37    0.42
   3  11 -12    3.90    0.52
   3  11 -10   10.21    0.77
 -11   3  10   10.85    0.57
  -3 -11 -10   10.46    0.69
   3  11 -10    8.95    0.44
  -3  11  10    9.41    0.69
   3  11 -10   10.03    0.50
 -11   3  10   10.37    0.67
  11   3 -10    9.60    0.68
   3  11 -10    9.02    0.73
 -11  -3 -10   11.21    0.77
 -11  -3  -8    4.72    0.51
   3  11  -8    5.31    0.58
   3  11  -8    4.46    0.50
  -3 -11  -8    4.27    0.44
 -11   3   8    4.50    0.39
   3  11  -8    4.79    0.28
  -3 -11  -8    4.80    0.42
  -3  11   8    5.17    0.50
  11   3  -8    4.38    0.47
 -11   3   8    5.22    0.46
   3  11  -8    4.89    0.38
   3  11  -6   12.19    0.78
 -11  -3  -6   11.62    0.71
  -3 -11  -6   12.74    0.64
   3  11  -6   11.43    0.72
 -11   3   6   11.79    0.64
  -3 -11  -6   12.22    0.70
 -11   3   6   11.57    0.60
 -11  -3  -6   12.42    0.80
  -3 -11  -6   10.67    0.58
  -3  11   6   11.83    0.69
   3  11  -6   10.84    0.60
 -11  -3  -4   16.73    0.82
 -11   3   4   15.62    0.70
   3  11  -4   15.97    0.81
  -3 -11  -4   16.25    0.72
   3  11  -4   17.34    0.92
 -11   3   4   15.64    0.78
   3 -11   4   16.08    0.78
  -3 -11  -4   14.92    0.78
  -3 -11  -4   15.50    0.68
  -3  11   4   16.04    0.79
   3  11  -4   15.78    0.51
 -11  -3  -4   15.55    0.89
 -11   3   4   15.22    0.51
  11  -3   4   17.10    0.71
   3  11  -2    8.58    0.56
   3 -11   2    9.48    0.53
 -11   3   2    8.45    0.59
  -3  11   2    9.81    0.39
 -11  -3  -2    8.81    0.58
   3  11  -2    9.31    0.39
  -3 -11  -2    9.46    0.51
  11  -3   2    9.82    0.53
  11  -3   2    8.53    0.50
 -11   3   2    9.33    0.43
   3 -11   2    8.79    0.58
  -3  11   0   23.13    0.77
 -11  -3   0   22.57    0.91
   3 -11   0   22.99    0.79
 -11   3   0   22.77    1.00
   3  11   0   22.34    0.74
  11  -3   0   22.10    0.79
   3  11   0   23.27    0.92
  11  -3   0   22.19    0.84
   3 -11   0   22.96    0.97
  -3 -11   0   23.13    0.85
 -11   3   0   22.82    0.82
 -11  -3   2    7.15    0.59
 -11  -3   2    7.97    0.50
  -3  11  -2    8.66    0.49
  11  -3  -2    8.84    0.40
 -11   3  -2    8.44    0.61
   3  11   2    8.45    0.46
  11  -3  -2    8.33    0.50
 -11   3  -2    8.93    0.65
   3 -11  -2    8.66    0.57
   3 -11  -2    8.53    0.38
 -11  -3   2    8.27    0.34
 -11   3  -2    8.95    0.52
  -3  11  -4   16.31    0.73
 -11  -3   4   14.89    0.66
   3 -11  -4   13.19    0.42
 -11   3  -4   15.02    0.83
  11  -3  -4   15.11    0.70
   3  11   4   14.82    0.68
   3 -11  -4   15.03    0.77
 -11  -3   4   14.77    0.55
  11   3   4   13.97    0.40
 -11   3  -4   16.94    0.84
 -11  -3   4   14.93    0.83
 -11   3  -4   16.26    0.76
 -11  -3   6   11.79    0.55
  -3  11  -6   11.34    0.68
 -11  -3   6   12.28    0.58
   3 -11  -6   12.47    0.60
 -11   3  -6   12.80    0.78
  11  -3  -6   11.40    0.63
   3  11   6   11.45    0.64
   3 -11  -6   12.89    0.72
 -11   3  -6   12.46    0.52
   3 -11  -6   11.94    0.69
  -3 -11   6   10.42    0.39
 -11  -3   6   12.04    0.76
 -11   3  -6   13.76    0.75
 -11   3  -6   12.54    0.71
 -11  -3   8    4.33    0.33
  -3  11  -8    5.23    0.51
   3 -11  -8    4.28    0.36
 -11  -3   8    5.05    0.53
 -11  -3   8    4.68    0.34
 -11   3  -8    5.83    0.55
 -11   3  -8    4.89    0.48
   3  11   8    4.59    0.46
   3 -11  -8    4.52    0.46
  -3 -11   8    4.79    0.26
   3 -11  -8    4.42    0.52
 -11   3  -8    4.63    0.25
 -11   3  -8    4.70    0.48
  -3  11 -10    9.89    0.67
   3 -11 -10    9.58    0.54
  -3  11 -10    9.43    0.71
 -11   3 -10   10.87    0.76
   3 -11 -10   10.51    0.71
   3  11  10   10.03    0.69
 -11  -3  10    9.25    0.52
 -11  -3  10    9.33    0.71
   3 -11 -10    9.04    0.71
 -11   3 -10   11.23    0.68
 -11   3 -10    9.38    0.70
 -11  -3  12    3.85    0.49
   3 -11 -12    3.71    0.21
   3 -11 -12    4.43    0.38
   3 -11 -12    4.06    0.49
  -3  11 -12    3.88    0.46
   3  11  12    3.46    0.47
 -11   3 -12    3.89    0.49
 -11  -3  12    3.57    0.35
   3 -11 -12    3.10    0.53
  -3  11 -12    4.16    0.54
 -11   3 -12    4.83    0.48
 -11   3 -12    4.32    0.53
  11  -3 -12    3.87    0.39
 -11  -3  14   -0.08    0.25
  11  -3 -14    0.88    0.27
   3 -11 -14    0.34    0.18
  -3  11 -14    0.24    0.31
   3  11  14    0.23    0.27
 -11   3 -14    0.73    0.30
 -11  -3  14    0.40    0.20
   3 -11 -14   -0.18    0.47
 -11   3 -14    0.75    0.33
  -3  11 -14    0.65    0.29
  11  -3 -16    1.54    0.32
 -11  -3  16    2.01    0.42
  -3  11 -16    1.77    0.46
   3  11  16    1.64    0.41
 -11  -3  16    1.91    0.33
 -11   3 -16    1.38    0.33
   3 -11 -16    1.60    0.50
   3 -11 -16    0.91    0.25
 -11  -3  18    2.19    0.41
  -3  11 -18    1.63    0.49
 -11  -3  18    2.04    0.37
 -11   3 -18    2.01    0.41
   3  11  18    3.15    0.53
   3 -11 -18    1.88    0.55
  11  -3 -18    2.39    0.38
 -11   3 -20    0.98    0.46
 -11   3 -20    1.41    0.39
   3  11  20    0.51    0.39
   3 -11 -20    0.26    0.47
  -3  11 -20    0.79    0.41
   3  11  22    0.60    0.39
   3 -11 -22   -0.45    0.54
  -4 -11 -23    0.61    0.37
  11   4 -23    0.93    0.45
 -11   4  23    1.53    0.45
  -4 -11 -21    0.60    0.35
   4  11 -21    0.22    0.41
  -4  11  21    0.29    0.33
 -11   4  21    0.41    0.32
  -4 -11 -21    0.43    0.50
  11   4 -21    0.45    0.39
 -11  -4 -21    0.58    0.37
  -4 -11 -19    4.75    0.58
  -4  11  19    4.92    0.66
 -11   4  19    4.60    0.61
   4  11 -19    4.89    0.70
  11   4 -19    4.35    0.61
  -4 -11 -19    5.51    0.79
 -11  -4 -19    5.08    0.67
 -11  -4 -17    4.84    0.63
  11   4 -17    4.10    0.57
   4  11 -17    4.82    0.65
  -4  11  17    4.67    0.63
 -11   4  17    3.97    0.53
  -4 -11 -17    3.90    0.50
 -11  -4 -15    0.09    0.30
   4  11 -15    0.21    0.34
  11   4 -15   -0.24    0.34
  -4 -11 -15   -0.02    0.23
  -4  11  15    0.44    0.31
 -11   4  15    0.09    0.24
  -4 -11 -13   11.37    0.78
  11   4 -13   10.83    0.80
  -4  11  13   11.99    0.85
   4  11 -13   11.63    0.84
 -11   4  13   13.48    0.83
   4  11 -13   11.80    0.87
 -11  -4 -13   11.89    0.86
 -11  -4 -11   13.05    0.86
   4  11 -11   13.07    0.88
  11   4 -11   11.62    0.80
  -4  11  11   12.85    0.83
 -11   4  11   12.87    0.80
  -4 -11 -11   12.91    0.79
   4  11 -11   12.84    0.89
   4  11  -9   -0.03    0.39
 -11  -4  -9    0.16    0.25
   4  11  -9   -0.06    0.30
 -11   4   9    0.47    0.20
   4  11  -9    0.27    0.20
 -11   4   9    0.38    0.22
  -4 -11  -9    0.38    0.25
  11   4  -9    0.43    0.29
   4  11  -9    0.28    0.10
  -4  11   9    0.35    0.27
 -11   4   9    0.23    0.21
 -11  -4  -7   25.92    1.13
   4  11  -7   24.19    0.93
  11   4  -7   25.31    1.09
   4  11  -7   24.01    1.10
  -4 -11  -7   24.86    1.07
 -11   4   7   26.07    0.91
   4  11  -7   21.03    0.61
  -4 -11  -7   25.71    0.92
  -4  11   7   25.33    1.10
 -11   4   7   26.55    1.00
   4  11  -7   24.74    1.18
  -4 -11  -5   41.67    1.41
   4  11  -5   41.52    1.48
 -11  -4  -5   41.29    1.42
   4  11  -5   38.60    1.39
 -11   4   5   41.60    1.19
 -11   4   5   38.88    1.31
  -4 -11  -5   40.09    1.17
 -11  -4  -5   40.32    1.48
  -4  11   5   41.93    1.40
  11  -4   5   39.48    1.25
  -4 -11  -3    9.45    0.51
 -11   4   3    9.33    0.52
   4  11  -3   10.00    0.65
 -11   4   3    9.94    0.63
  -4 -11  -3   10.34    0.65
   4  11  -3    9.07    0.33
 -11  -4  -3    9.57    0.63
   4  11  -3   11.21    0.76
  11  -4   3    9.98    0.56
   4 -11   3    9.25    0.62
 -11  -4  -3   10.06    0.72
  -4  11   1   28.95    0.84
   4  11  -1   29.31    0.83
 -11  -4  -1   28.63    1.11
   4  11  -1   28.70    1.11
 -11   4   1   29.14    1.17
  11  -4   1   29.63    0.99
  11  -4   1   29.34    1.03
  -4 -11  -1   29.89    0.98
   4 -11   1   29.07    1.14
  11  -4  -1   30.37    0.92
 -11  -4   1   31.07    1.10
 -11   4  -1   28.22    1.18
 -11  -4   1   28.60    1.21
   4  11   1   29.87    0.92
  11  -4  -1   28.17    1.03
  -4  11  -1   30.04    0.94
   4 -11  -1   29.07    1.14
 -11   4  -1   29.58    1.01
  -4 -11   1   28.21    0.97
 -11  -4   3    9.19    0.68
  -4  11  -3   10.84    0.57
  11  -4  -3   10.49    0.40
 -11   4  -3    9.67    0.69
   4  11   3   10.04    0.52
  11  -4  -3    9.85    0.57
 -11   4  -3   10.09    0.69
 -11  -4   3    9.73    0.56
   4 -11  -3   10.06    0.64
 -11  -4   3   10.28    0.39
 -11   4  -3   10.44    0.59
  -4  11  -5   40.20    1.34
 -11  -4   5   39.92    1.26
 -11   4  -5   41.14    1.51
   4  11   5   38.57    1.28
  11  -4  -5   40.46    1.34
 -11  -4   5   37.51    1.10
   4 -11  -5   40.03    1.40
  11   4   5   38.81    1.30
 -11   4  -5   41.77    1.43
 -11   4  -5   39.00    1.36
 -11  -4   5   37.28    1.43
   4 -11  -7   24.66    0.87
 -11   4  -7   23.73    1.11
 -11  -4   7   23.27    0.88
  11  -4  -7   23.89    1.00
   4  11   7   23.08    0.99
  -4  11  -7   23.87    1.04
 -11  -4   7   23.48    0.85
   4 -11  -7   23.30    1.04
  11   4   7   22.67    0.91
 -11  -4   7   22.85    0.79
 -11  -4   7   22.69    1.09
 -11   4  -7   23.61    1.01
 -11   4  -7   24.55    1.07
 -11   4  -9    0.08    0.08
   4 -11  -9    0.49    0.18
 -11   4  -9   -0.13    0.30
 -11  -4   9    0.35    0.35
 -11   4  -9    0.31    0.28
   4  11   9    0.67    0.30
  -4  11  -9    1.37    0.40
   4 -11  -9    0.58    0.30
 -11  -4   9    0.48    0.16
  11   4   9   -0.43    0.25
  -4 -11   9    0.61    0.21
 -11   4  -9    0.54    0.29
  -4  11  -9    0.41    0.31
   4 -11 -11   13.30    0.61
  -4  11 -11   13.64    0.87
 -11   4 -11   12.09    0.81
   4  11  11   12.40    0.80
   4 -11 -11   12.12    0.79
 -11  -4  11   12.77    0.61
  11   4  11   12.17    0.57
 -11  -4  11   11.27    0.78
 -11   4 -11   13.37    0.74
 -11   4 -11   12.97    0.84
  -4  11 -11   12.27    0.71
   4 -11 -13   11.84    0.60
 -11   4 -13   11.57    0.82
  11  -4 -13   11.29    0.62
   4  11  13   10.77    0.79
 -11  -4  13   12.71    0.65
  -4  11 -13   13.08    0.89
   4 -11 -13   10.46    0.86
  -4  11 -13   11.83    0.69
 -11  -4  13   12.47    0.81
   4 -11 -15    0.00    0.16
 -11  -4  15   -0.33    0.32
  -4  11 -15    0.69    0.38
 -11   4 -15    0.37    0.25
   4  11  15    0.29    0.30
 -11  -4  15    0.33    0.19
   4 -11 -15    0.32    0.42
  -4  11 -15    0.21    0.25
  11  -4 -15    0.21    0.22
 -11  -4  17    4.42    0.52
  -4  11 -17    4.06    0.62
 -11   4 -17    4.01    0.52
   4  11  17    3.86    0.57
   4 -11 -17    4.27    0.64
  11  -4 -17    3.34    0.40
  -4  11 -19    5.22    0.71
 -11   4 -19    4.52    0.72
 -11   4 -19    4.36    0.55
   4  11  19    4.95    0.65
  -4  11 -21    0.19    0.41
 -11   4 -21    0.89    0.36
 -11   4 -21    0.12    0.46
   4  11  21   -0.15    0.33
  -5 -11 -24   -0.24    0.37
  -5 -11 -22    3.14    0.53
  11   5 -22    2.84    0.57
 -11   5  22    2.01    0.51
  11   5 -20    8.52    0.86
  -5  11  20    8.11    0.84
 -11   5  20    7.72    0.78
   5  11 -20    7.68    0.87
 -11  -5 -20    7.72    0.82
  -5 -11 -20    8.30    0.77
 -11  -5 -18    0.26    0.31
  -5 -11 -18   -0.29    0.30
  -5  11  18    0.33    0.36
  11   5 -18    0.01    0.33
   5  11 -18    0.55    0.46
 -11   5  18    0.18    0.27
  -5 -11 -16    9.28    0.74
  11   5 -16    9.06    0.80
  -5  11  16    9.54    0.83
 -11   5  16    8.91    0.75
 -11  -5 -16    9.38    0.81
   5  11 -16    8.91    0.84
  11   5 -14   11.88    0.87
   5  11 -14   11.95    0.92
  -5  11  14   13.81    0.94
 -11   5  14   13.29    0.87
  -5 -11 -14   13.13    0.87
 -11  -5 -14   12.56    0.91
  -5 -11 -12    3.82    0.49
 -11  -5 -12    3.56    0.49
  11   5 -12    2.77    0.46
   5  11 -12    4.47    0.58
  -5  11  12    3.44    0.49
 -11   5  12    4.34    0.50
   5  11 -12    3.87    0.55
 -11  -5 -10   19.56    1.06
  11   5 -10   19.93    1.05
   5  11 -10   21.87    1.13
  -5  11  10   21.25    1.08
 -11   5  10   22.45    1.07
   5  11 -10   20.67    1.12
  -5 -11 -10   21.48    1.05
 -11  -5  -8   20.85    1.05
  11   5  -8   19.69    1.01
 -11   5   8   21.94    0.93
   5  11  -8   20.92    1.07
 -11   5   8   21.72    1.02
 -11   5   8   21.52    0.80
  -5 -11  -8   20.96    1.02
  -5  11   8   21.14    1.04
   5  11  -8   20.62    1.12
   5  11  -6    2.26    0.40
 -11   5   6    1.64    0.24
 -11   5   6    1.91    0.32
   5  11  -6    1.39    0.44
  -5 -11  -6    1.55    0.33
 -11  -5  -6    1.69    0.34
  -5 -11  -6    1.86    0.26
  -5  11   6    2.16    0.35
  11   5  -6    1.98    0.39
   5  11  -4   46.25    1.68
 -11  -5  -4   44.01    1.57
 -11   5   4   47.63    1.56
  -5 -11  -4   46.48    1.59
   5  11  -4   45.54    1.58
 -11   5   4   45.99    1.32
  -5 -11  -4   46.73    1.31
  -5 -11  -4   44.13    1.33
 -11  -5  -4   47.30    1.67
  11  -5   4   45.34    1.45
  11  -5   2   45.93    1.35
   5  11  -2   42.71    1.46
  -5  11   2   43.07    1.03
   5  11  -2   43.07    1.57
 -11  -5  -2   45.15    1.50
 -11   5   2   43.52    1.50
  -5 -11  -2   44.05    1.50
 -11  -5  -2   41.54    1.27
   5  11  -2   38.51    0.98
  -5 -11  -2   44.20    1.23
 -11  -5  -2   42.78    1.56
 -11   5   2   42.59    1.27
  11  -5   2   42.93    1.39
   5 -11   2   43.35    1.47
  -5  11   0    1.13    0.19
  11  -5   0    1.04    0.20
 -11  -5   0    0.61    0.22
 -11   5   0    1.17    0.32
   5  11   0    0.64    0.14
 -11  -5   0    0.71    0.34
  -5  11   0    1.14    0.24
  11  -5   0    0.47    0.23
  -5 -11   0    0.97    0.21
   5 -11   0    0.37    0.28
  11  -5  -2   46.60    1.18
  -5  11  -2   45.61    1.30
 -11   5  -2   43.14    1.57
 -11  -5   2   43.10    1.42
   5  11   2   44.10    1.24
 -11  -5   2   43.19    1.56
  11  -5  -2   46.60    1.44
  11   5   2   45.30    1.51
   5 -11  -2   43.35    1.48
  -5  11  -2   42.44    1.14
 -11  -5   2   40.51    0.98
  -5  11  -4   47.00    1.41
 -11   5  -4   46.34    1.62
 -11  -5   4   45.94    1.60
 -11  -5   4   46.67    1.43
   5  11   4   44.19    1.34
  11  -5  -4   45.54    1.45
 -11  -5   4   44.26    1.13
 -11   5  -4   47.78    1.56
  11   5   4   42.57    1.44
   5 -11  -4   44.80    1.52
  -5  11  -4   39.71    1.05
  11  -5  -4   42.67    1.04
  11  -5  -6    2.03    0.35
   5  11   6    2.01    0.26
 -11   5  -6    1.40    0.35
 -11  -5   6    1.79    0.39
 -11  -5   6    1.61    0.25
  -5  11  -6    2.09    0.33
 -11   5  -6    1.91    0.37
   5  11   6    1.65    0.28
 -11  -5   6    1.73    0.22
   5 -11  -6    1.60    0.34
 -11  -5   6    1.60    0.17
  -5  11  -6    1.25    0.12
  11   5   6    1.83    0.33
 -11  -5   8   19.54    1.01
  -5  11  -8   21.05    1.00
 -11   5  -8   19.30    1.04
   5 -11  -8   20.97    0.77
   5  11   8   20.30    0.95
  11  -5  -8   19.39    0.94
  11   5   8   19.43    0.60
   5 -11  -8   21.52    1.02
 -11  -5   8   21.66    0.71
  11   5   8   20.55    0.86
  -5 -11   8   20.26    0.73
 -11   5  -8   20.74    0.93
   5 -11 -10   18.81    0.73
  -5  11 -10   21.06    0.91
  -5  11 -10   20.14    1.04
 -11   5 -10   19.67    1.04
 -11   5 -10   21.37    0.92
   5  11  10   19.97    0.99
   5 -11 -10   20.94    1.03
 -11  -5  10   20.24    0.73
  11   5  10   19.40    0.81
  -5  11 -10   16.41    0.56
 -11  -5  10   20.08    1.01
 -11   5 -12    4.08    0.42
  -5  11 -12    3.23    0.39
  -5  11 -12    3.60    0.52
 -11   5 -12    3.28    0.49
 -11  -5  12    3.03    0.30
   5  11  12    3.05    0.46
   5 -11 -12    3.28    0.47
   5 -11 -12    3.51    0.30
 -11  -5  12    3.19    0.46
  11   5  12    3.62    0.35
   5 -11 -14   12.13    0.59
 -11   5 -14   13.15    0.88
  -5  11 -14   12.28    0.90
   5  11  14   11.74    0.85
 -11  -5  14   11.38    0.63
  -5  11 -14   12.35    0.69
  11  -5 -14   12.19    0.62
 -11  -5  14   12.51    0.81
 -11   5 -16    8.69    0.74
  -5  11 -16    9.59    0.84
 -11   5 -16    8.46    0.84
   5  11  16    8.70    0.78
 -11  -5  16    8.43    0.68
  -5  11 -18    0.52    0.39
 -11   5 -18    0.09    0.25
 -11   5 -18    0.57    0.41
   5  11  18    0.36    0.36
 -11   5 -20    7.03    0.69
  -5  11 -20    7.61    0.85
 -11   5 -20    9.74    0.96
   5  11  20    6.98    0.79
  -6 -11 -23    1.89    0.50
  -6 -11 -21   -0.13    0.31
  11   6 -21    0.05    0.39
   6  11 -21    0.39    0.50
  -6  11  21    0.10    0.39
 -11   6  21    0.35    0.33
 -11  -6 -21    0.15    0.37
 -11  -6 -19    3.27    0.57
  11   6 -19    2.80    0.57
   6  11 -19    3.59    0.62
  -6  11  19    3.09    0.57
 -11   6  19    3.75    0.58
  -6 -11 -19    3.61    0.54
  11   6 -17    4.68    0.62
 -11  -6 -17    4.43    0.61
   6  11 -17    4.20    0.64
  -6 -11 -17    4.37    0.57
  -6  11  17    3.80    0.59
 -11   6  17    3.99    0.55
 -11  -6 -15    0.66    0.36
  -6 -11 -15    0.49    0.28
   6  11 -15    0.59    0.38
  11   6 -15    0.31    0.34
  -6  11  15    0.10    0.29
 -11   6  15    0.60    0.33
 -11  -6 -13    9.33    0.78
  -6 -11 -13    9.05    0.74
   6  11 -13    9.63    0.82
  11   6 -13   10.25    0.81
  -6  11  13   10.13    0.81
 -11   6  13   10.08    0.76
   6  11 -13    9.20    0.80
 -11  -6 -11   12.08    0.85
  11   6 -11   12.23    0.84
  -6 -11 -11   11.76    0.81
  -6  11  11   13.85    0.89
 -11   6  11   13.36    0.84
   6  11 -11   12.36    0.89
   6  11 -11   12.57    0.89
   6  11  -9    2.38    0.43
  -6 -11  -9    2.75    0.42
 -11  -6  -9    2.74    0.44
  11   6  -9    2.82    0.46
  -6  11   9    2.78    0.43
 -11   6   9    3.45    0.43
   6  11  -9    2.36    0.51
  11   6  -7   17.14    0.94
 -11  -6  -7   16.62    0.93
 -11   6   7   16.19    0.64
  -6 -11  -7   17.40    0.92
 -11   6   7   16.91    0.84
  -6  11   7   17.80    0.94
   6  11  -7   14.79    0.91
   6  11  -7   17.02    1.03
 -11   6   5   15.70    0.62
 -11  -6  -5   15.55    0.87
  -6 -11  -5   15.72    0.86
  -6 -11  -5   15.27    0.62
  -6  11   5   15.80    0.86
 -11   6   5   13.47    0.78
   6  11  -5   16.25    0.89
   6  11  -5   15.82    0.94
  11  -6   5   15.81    0.79
   6 -11   3    0.26    0.27
 -11   6   3    0.19    0.14
 -11  -6  -3    0.40    0.23
 -11   6   3    0.38    0.22
   6  11  -3    0.66    0.43
  -6 -11  -3    0.60    0.25
 -11  -6  -3    0.56    0.18
  -6 -11  -3    0.51    0.16
  -6 -11  -3    0.43    0.14
   6  11  -3    0.20    0.25
  11  -6   3    0.81    0.28
  11  -6   1   14.29    0.65
   6  11  -1   14.20    0.79
 -11   6   1   15.64    0.84
 -11  -6  -1   15.29    0.79
   6  11  -1   14.37    0.89
  -6  11   1   14.41    0.50
   6  11  -1   12.56    0.41
 -11  -6  -1   13.00    0.58
   6 -11   1   13.72    0.79
 -11  -6  -1   14.82    0.89
  11   6  -1   14.43    0.86
  -6 -11  -1   13.76    0.78
  -6 -11  -1   15.35    0.59
  -6  11   1   13.42    0.65
  11  -6   1   14.20    0.74
  11  -6  -1   14.37    0.59
  -6  11  -1   14.59    0.61
   6  11   1   13.45    0.86
   6  11   1   15.79    0.56
 -11  -6   1   15.09    0.57
 -11  -6   1   14.84    0.77
 -11   6  -1   15.01    0.86
  11   6   1   14.20    0.83
  11  -6  -1   15.39    0.76
  -6  11  -1   14.87    0.62
   6 -11  -1   15.00    0.81
  -6 -11   1   14.15    0.59
 -11  -6   1   14.76    0.87
  11  -6  -3    0.41    0.11
  -6  11  -3    0.60    0.23
 -11  -6   3    0.60    0.35
 -11   6  -3    0.27    0.25
 -11  -6   3    0.40    0.20
   6  11   3    0.55    0.17
  11  -6  -3    0.32    0.23
 -11  -6   3    0.33    0.09
  -6  11  -3    0.43    0.17
   6 -11  -3    0.44    0.26
  11   6   3   -0.11    0.32
 -11   6  -5   17.10    0.93
  -6  11  -5   15.82    0.78
 -11  -6   5   14.74    0.74
   6  11   5   14.66    0.70
 -11  -6   5   14.73    0.88
 -11  -6   5   14.88    0.56
  11  -6  -5   14.00    0.77
 -11   6  -5   17.84    0.87
   6 -11  -5   14.71    0.84
 -11  -6   5   14.13    0.49
  11   6   5   15.68    0.81
  -6  11  -7   15.17    0.82
 -11  -6   7   14.77    0.89
   6 -11  -7   15.56    0.62
   6  11   7   14.58    0.76
 -11  -6   7   14.32    0.63
  11  -6  -7   14.62    0.81
   6 -11  -7   15.69    0.87
 -11  -6   7   14.77    0.52
 -11   6  -7   16.20    0.93
 -11   6  -7   16.88    0.84
  11   6   7   14.03    0.76
   6  11   7   15.20    0.65
  11   6   9    2.10    0.35
  -6  11  -9    3.05    0.45
 -11  -6   9    2.60    0.43
   6 -11  -9    2.84    0.25
 -11   6  -9    3.17    0.46
   6  11   9    2.63    0.38
 -11  -6   9    2.55    0.22
  11  -6  -9    2.44    0.41
   6 -11  -9    2.81    0.43
  -6 -11   9    2.31    0.30
 -11   6  -9    3.14    0.39
  -6  11 -11   13.09    0.69
   6 -11 -11   12.11    0.54
 -11  -6  11   12.58    0.81
 -11   6 -11   13.02    0.86
  -6  11 -11   12.36    0.83
 -11   6 -11   13.12    0.72
   6  11  11   12.43    0.81
 -11  -6  11   11.77    0.53
   6 -11 -11   13.02    0.84
  -6  11 -11   12.43    0.49
  11   6  11   10.94    0.63
 -11  -6  13    8.99    0.70
 -11   6 -13    9.59    0.75
 -11   6 -13   10.59    0.62
   6  11  13   10.09    0.76
  -6  11 -13    9.97    0.81
  11   6  13    8.90    0.55
  -6  11 -13    8.92    0.58
 -11  -6  15    0.54    0.32
  -6  11 -15    1.29    0.40
 -11   6 -15    1.00    0.34
   6  11  15    0.56    0.31
 -11   6 -15    0.51    0.44
 -11  -6  17    3.81    0.49
 -11   6 -17    4.38    0.56
 -11   6 -17    4.59    0.67
   6  11  17    4.09    0.59
  -6  11 -17    4.92    0.64
 -11   6 -19    4.43    0.58
  -6  11 -19    4.04    0.64
 -11   6 -19    3.83    0.67
   6  11  19    4.05    0.61
 -11   6 -21    0.22    0.27
  -6  11 -21    0.59    0.44
 -11   6 -21    0.32    0.42
   6  11  21   -0.23    0.35
  -7 -11 -22    0.29    0.33
 -11  -7 -20    1.89    0.50
  -7 -11 -20    1.16    0.37
 -11   7  20    1.39    0.43
  11   7 -20    0.60    0.39
   7  11 -20    2.33    0.58
  -7  11  20    1.54    0.46
 -11  -7 -18    1.74    0.46
  -7 -11 -18    2.18    0.47
  11   7 -18    1.08    0.41
  -7  11  18    1.40    0.44
 -11   7  18    1.69    0.46
   7  11 -18    1.12    0.46
  11   7 -16    0.23    0.33
  -7 -11 -16    0.05    0.28
   7  11 -16   -0.02    0.38
  -7  11  16    0.00    0.31
 -11  -7 -16   -0.09    0.30
 -11   7  16    0.23    0.29
  -7  11  14    1.31    0.41
  -7 -11 -14    1.55    0.36
   7  11 -14    0.88    0.40
 -11  -7 -14    1.00    0.39
 -11   7  14    1.08    0.34
  11   7 -14    0.80    0.37
 -11  -7 -12    3.31    0.51
  -7 -11 -12    2.75    0.45
  -7  11  12    4.07    0.52
 -11   7  12    3.41    0.48
   7  11 -12    3.83    0.58
  11   7 -12    3.58    0.57
   7  11 -12    2.97    0.52
   7  11 -10    3.07    0.48
  -7 -11 -10    2.65    0.43
 -11  -7 -10    3.24    0.47
  11   7 -10    3.08    0.50
  -7  11  10    3.83    0.50
 -11   7  10    2.89    0.43
   7  11 -10    3.34    0.54
  11   7  -8    1.28    0.38
 -11  -7  -8    1.15    0.33
  -7 -11  -8    1.42    0.35
   7  11  -8    1.89    0.42
  -7  11   8    1.99    0.38
 -11   7   8    1.52    0.33
   7  11  -8    1.42    0.46
   7  11  -6   -0.05    0.42
 -11   7   6    0.33    0.14
  -7 -11  -6   -0.21    0.24
 -11  -7  -6    0.27    0.27
  11   7  -6    0.17    0.34
   7  11  -6    0.45    0.32
  -7  11   6   -0.01    0.27
  11  -7   4    0.55    0.26
   7 -11   4    0.60    0.30
 -11   7   4    0.50    0.15
 -11   7   4    0.81    0.29
   7  11  -4    0.44    0.43
 -11  -7  -4    0.66    0.27
  -7 -11  -4    0.10    0.21
  -7 -11  -4    0.47    0.14
  11   7  -4    0.58    0.38
  -7 -11  -4    0.59    0.16
   7  11  -4    0.40    0.29
   7 -11   2    2.43    0.38
  -7  11   2    2.12    0.15
 -11   7   2    2.95    0.40
 -11  -7  -2    2.26    0.36
   7  11  -2    2.68    0.51
  -7 -11  -2    1.95    0.36
 -11  -7  -2    1.68    0.23
   7  11  -2    2.94    0.42
  -7 -11  -2    2.47    0.22
  11   7  -2    2.37    0.46
  11  -7   2    2.36    0.37
  -7  11   0    3.02    0.26
 -11   7   0    2.29    0.37
 -11  -7   0    2.72    0.36
   7  11   0    2.01    0.48
  -7 -11   0    2.44    0.36
 -11  -7   0    3.29    0.53
 -11  -7   0    2.03    0.22
  11  -7   0    1.85    0.24
  -7  11   0    2.56    0.32
  11  -7   0    3.28    0.41
  -7 -11   0    2.36    0.23
  11   7   0    2.18    0.45
   7 -11   0    2.56    0.41
  11  -7  -2    2.55    0.23
  -7 -11   2    2.41    0.25
 -11   7  -2    2.41    0.39
  -7  11  -2    2.58    0.29
 -11  -7   2    2.13    0.32
   7  11   2    2.06    0.22
   7  11   2    3.07    0.51
 -11  -7   2    3.04    0.50
 -11  -7   2    2.15    0.18
  -7  11  -2    1.82    0.26
  11  -7  -2    2.15    0.35
   7 -11  -2    1.79    0.36
  11   7   2    1.92    0.41
  11   7   4    0.91    0.36
  11  -7  -4    0.57    0.10
  -7  11  -4    0.77    0.24
 -11   7  -4    1.08    0.34
 -11  -7   4    1.06    0.26
 -11  -7   4    0.50    0.09
   7  11   4    0.78    0.20
 -11  -7   4    0.70    0.12
  11  -7  -4    0.53    0.29
 -11  -7   4    0.67    0.09
   7 -11  -4    0.89    0.33
 -11  -7   4    0.94    0.37
 -11   7  -6    0.59    0.29
  11   7   6    0.03    0.31
  -7  11  -6    0.44    0.31
 -11  -7   6    0.13    0.32
 -11  -7   6    0.22    0.20
   7  11   6    0.36    0.21
 -11  -7   6    0.35    0.14
 -11   7  -6   -0.35    0.31
 -11  -7   6    0.09    0.05
  11  -7  -6    0.13    0.25
   7 -11  -6    0.29    0.28
   7  11   8    1.52    0.23
 -11  -7   8    1.84    0.42
  11   7   8    1.17    0.33
 -11   7  -8    1.84    0.35
  -7  11  -8    1.66    0.39
 -11   7  -8    1.42    0.38
   7 -11  -8    1.56    0.19
 -11  -7   8    1.07    0.11
   7  11   8    1.32    0.30
  11  -7  -8    2.26    0.40
   7 -11  -8    1.88    0.39
   7 -11 -10    3.22    0.25
 -11   7 -10    4.03    0.51
  -7  11 -10    2.95    0.48
  11   7  10    2.96    0.40
   7  11  10    2.73    0.41
  11  -7 -10    3.33    0.45
   7 -11 -10    2.41    0.43
 -11   7 -10    3.54    0.40
 -11  -7  10    3.29    0.48
 -11   7 -12    3.81    0.40
  11   7  12    2.92    0.38
 -11   7 -12    4.32    0.54
  -7  11 -12    3.68    0.53
  -7  11 -12    4.16    0.41
   7  11  12    3.14    0.46
   7 -11 -12    2.71    0.47
 -11  -7  12    3.25    0.47
 -11   7 -14    1.69    0.40
  -7  11 -14    1.06    0.40
 -11   7 -14    0.87    0.38
   7  11  14    1.19    0.37
 -11  -7  14    1.05    0.33
 -11   7 -16    0.15    0.28
  -7  11 -16    0.24    0.34
 -11   7 -16   -0.17    0.39
   7  11  16    0.95    0.38
 -11  -7  16    0.09    0.30
   7  11  18    1.35    0.44
  -7  11 -18    1.56    0.49
 -11   7 -18    1.58    0.52
 -11   7 -18    1.43    0.38
 -11   7 -20    0.75    0.33
 -11   7 -20    1.08    0.50
   7  11  20    1.27    0.45
  -7  11 -20    0.81    0.47
  -8 -11 -21    0.52    0.36
  11   8 -21    0.16    0.42
 -11  -8 -19    1.07    0.44
  11   8 -19    1.63    0.52
  -8  11  19    0.56    0.37
   8  11 -19    1.42    0.55
  -8 -11 -19    1.24    0.41
 -11   8  19    1.41    0.44
 -11  -8 -17    1.65    0.46
  -8  11  17    1.01    0.38
   8  11 -17    1.43    0.46
  11   8 -17    1.61    0.49
 -11   8  17    0.95    0.37
  -8 -11 -17    0.74    0.34
   8  11 -15    2.68    0.57
 -11  -8 -15    3.66    0.55
  -8 -11 -15    3.59    0.53
  11   8 -15    3.00    0.56
  -8  11  15    2.64    0.53
 -11   8  15    2.26    0.44
   8  11 -13   -0.11    0.35
  -8 -11 -13    0.24    0.30
  11   8 -13    0.05    0.34
 -11  -8 -13    0.42    0.33
  -8  11  13    0.18    0.30
 -11   8  13    0.04    0.25
   8  11 -11    1.48    0.40
 -11  -8 -11    1.87    0.40
  -8 -11 -11    1.98    0.41
  11   8 -11    1.93    0.42
  -8  11  11    1.58    0.39
 -11   8  11    1.64    0.37
   8  11 -11    2.13    0.52
   8  11  -9    0.44    0.33
 -11  -8  -9    0.15    0.28
  11   8  -9    0.54    0.34
  -8  11   9    0.62    0.32
  -8 -11  -9    0.75    0.33
 -11   8   9    0.11    0.27
   8  11  -9    0.51    0.40
 -11  -8  -7    3.19    0.46
  -8 -11  -7    2.31    0.40
   8  11  -7    1.49    0.40
  -8  11   7    2.97    0.45
  11   8  -7    3.16    0.49
   8  11  -7    2.88    0.54
   8  11  -5    9.50    0.71
 -11  -8  -5    9.19    0.70
  -8 -11  -5    9.74    0.71
   8  11  -5    7.86    0.76
  11   8  -5    9.12    0.79
 -11   8   5   10.05    0.41
  11  -8   5    8.76    0.64
   8 -11   5    9.02    0.68
 -11   8   3   12.13    0.77
   8  11  -3   10.99    0.75
 -11   8   3   10.41    0.47
 -11  -8  -3   11.34    0.73
  -8 -11  -3   10.63    0.72
  -8 -11  -3   10.43    0.41
 -11  -8  -3   10.91    0.56
  11   8  -3   11.26    0.81
  -8 -11  -3   10.38    0.49
   8  11  -3   11.46    0.84
  11  -8   3   10.43    0.68
   8 -11   3   10.60    0.72
 -11   8   1    5.02    0.52
 -11  -8  -1    5.43    0.52
   8  11  -1    5.37    0.64
  -8 -11  -1    5.30    0.51
 -11  -8  -1    5.54    0.35
  -8 -11  -1    5.53    0.29
  11  -8   1    5.77    0.52
  -8  11   1    5.53    0.30
   8 -11   1    7.01    0.60
  11   8  -1    4.88    0.56
 -11   8  -1    6.00    0.58
  -8  11  -1    5.73    0.39
 -11  -8   1    5.07    0.49
   8  11   1    6.22    0.64
  -8 -11   1    5.64    0.53
 -11  -8   1    4.65    0.27
  11  -8  -1    5.86    0.53
   8 -11  -1    5.77    0.54
  -8 -11   1    6.03    0.34
  11  -8  -1    6.35    0.40
  11   8   1    4.96    0.57
  11  -8  -3   11.48    0.47
   8  11   3   11.92    0.82
  -8  11  -3   11.44    0.61
 -11  -8   3   11.18    0.69
 -11  -8   3   11.32    0.81
  11  -8  -3   10.60    0.70
   8 -11  -3   11.70    0.74
 -11   8  -3   10.79    0.77
  11   8   3    9.94    0.72
 -11   8  -5   11.00    0.78
  -8  11  -5   10.15    0.64
 -11  -8   5   10.32    0.65
   8  11   5   10.81    0.58
  11  -8  -5    9.88    0.68
 -11  -8   5   10.68    0.77
   8 -11  -5   10.28    0.73
   8  11   5   10.16    0.78
  11  -8  -5    8.72    0.33
  11   8   5    9.54    0.70
  11   8   7    2.75    0.43
 -11   8  -7    2.76    0.45
   8  11   7    2.72    0.36
   8 -11  -7    2.91    0.24
  -8  11  -7    2.90    0.42
 -11   8  -7    2.96    0.41
  11  -8  -7    2.74    0.42
   8 -11  -7    3.03    0.44
 -11  -8   7    3.03    0.49
   8 -11  -9    0.46    0.12
  11   8   9    0.17    0.29
 -11   8  -9    0.13    0.28
 -11   8  -9    0.83    0.30
  -8  11  -9    0.40    0.30
   8  11   9    0.52    0.26
  11  -8  -9    0.53    0.31
   8 -11  -9   -0.07    0.29
 -11  -8   9    0.56    0.35
 -11   8 -11    1.31    0.30
  -8  11 -11    1.89    0.25
 -11   8 -11    1.96    0.41
  11   8  11    1.40    0.33
  -8  11 -11    2.48    0.46
 -11   8 -11    1.58    0.42
   8  11  11    2.05    0.38
 -11  -8  11    1.12    0.36
  -8  11 -11    1.57    0.33
  11  -8 -11    1.40    0.37
   8 -11 -11    1.83    0.40
 -11   8 -13    0.47    0.30
  11   8  13    0.26    0.29
  -8  11 -13   -0.12    0.32
 -11   8 -13    0.35    0.38
   8  11  13    0.48    0.29
   8 -11 -13    0.93    0.37
 -11  -8  13    0.17    0.30
 -11   8 -15    3.78    0.61
 -11   8 -15    3.37    0.50
 -11  -8  15    3.05    0.47
  -8  11 -15    3.22    0.56
   8  11  15    3.49    0.53
 -11   8 -17    1.33    0.41
  -8  11 -17    1.48    0.48
   8  11  17    1.35    0.42
 -11   8 -17    0.94    0.48
 -11   8 -19    1.10    0.37
  -8  11 -19    0.75    0.45
 -11   8 -19    0.83    0.42
   8  11  19    1.49    0.47
 -11   8 -21    0.27    0.33
   8  11  21    0.50    0.41
 -11  -9 -20    3.38    0.62
  -9 -11 -20    1.83    0.49
  11   9 -20    2.84    0.61
   9  11 -18    0.41    0.44
 -11  -9 -18   -0.07    0.34
  -9 -11 -18    0.35    0.34
  11   9 -18    0.32    0.42
  -9  11  18    0.55    0.38
 -11   9  18    0.36    0.34
 -11  -9 -16    0.92    0.40
   9  11 -16    1.66    0.53
  11   9 -16    1.09    0.45
  -9 -11 -16    0.71    0.36
  -9  11  16    1.56    0.44
 -11   9  16    1.25    0.42
  11   9 -14    4.72    0.65
  -9 -11 -14    3.86    0.56
   9  11 -14    3.88    0.61
 -11  -9 -14    4.64    0.63
  -9  11  14    3.99    0.58
 -11   9  14    4.39    0.58
  11   9 -12    1.63    0.43
  -9 -11 -12    2.26    0.45
   9  11 -12    1.93    0.47
 -11  -9 -12    1.27    0.39
  -9  11  12    2.02    0.41
 -11   9  12    1.46    0.38
  11   9 -10    7.43    0.72
   9  11 -10    6.77    0.69
  -9 -11 -10    8.86    0.75
 -11  -9 -10    6.97    0.69
   9  11 -10    7.96    0.79
  -9  11  10    9.69    0.77
 -11   9  10    8.01    0.71
  -9 -11  -8   11.34    0.82
 -11  -9  -8   11.20    0.83
  11   9  -8   11.25    0.82
   9  11  -8   12.48    0.92
  -9  11   8   11.87    0.84
 -11   9   8   11.19    0.80
   9  11  -8   10.43    0.81
   9 -11   6    8.11    0.67
  11   9  -6    7.94    0.69
   9  11  -6    7.53    0.67
 -11  -9  -6    7.03    0.64
  -9 -11  -6    7.11    0.64
  11   9  -6    8.60    0.77
  11  -9   6    6.91    0.60
   9  11  -6    7.53    0.74
  11  -9   4    0.64    0.32
   9 -11   4   -0.12    0.31
 -11  -9  -4    0.35    0.27
   9  11  -4    0.37    0.30
  -9 -11  -4    0.44    0.24
  -9 -11  -4    0.20    0.14
  11   9  -4    0.18    0.40
   9  11  -4    0.22    0.44
  -9  11   2    7.96    0.33
 -11  -9  -2    8.29    0.65
  -9 -11  -2    9.01    0.67
  -9 -11  -2    6.56    0.28
 -11  -9  -2    8.66    0.45
  -9 -11  -2    7.58    0.38
  11   9  -2    8.20    0.72
   9  11  -2    9.15    0.77
  11  -9   2    8.45    0.65
   9 -11   2    8.81    0.68
  -9 -11   0   39.32    1.48
  -9  11   0   38.90    1.12
 -11  -9   0   38.66    1.46
 -11   9   0   39.39    1.56
 -11  -9   0   35.81    1.00
  -9 -11   0   36.23    0.95
  11   9   0   35.40    1.49
  11  -9   0   37.97    1.41
   9 -11   0   39.75    1.47
   9  11   0   36.40    1.54
  11  -9   0   38.73    1.24
 -11  -9   2    9.42    0.66
 -11   9  -2    8.88    0.71
  -9 -11   2    8.82    0.66
  -9  11  -2    8.68    0.52
  11  -9  -2    9.48    0.68
   9 -11  -2    8.84    0.71
  11   9   2    8.31    0.70
  -9 -11   2    9.32    0.41
  11  -9  -2    9.64    0.49
   9  11   2    8.55    0.73
 -11   9  -4    0.53    0.32
  -9  11  -4    0.50    0.24
   9  11   4    0.65    0.42
 -11  -9   4    0.59    0.24
  11  -9  -4    0.78    0.31
   9 -11  -4    0.51    0.33
  11   9   4    0.09    0.34
   9  11   6    7.82    0.68
  -9  11  -6    7.62    0.58
 -11   9  -6    6.81    0.57
   9 -11  -6    7.40    0.64
 -11   9  -6    7.57    0.68
 -11  -9   6    7.80    0.69
  11  -9  -6    7.36    0.61
  11   9   6    6.82    0.62
   9  11   8   11.55    0.80
   9 -11  -8   10.66    0.41
  -9  11  -8   11.43    0.76
 -11   9  -8   10.35    0.77
 -11  -9   8   10.79    0.78
  11  -9  -8   11.30    0.78
   9 -11  -8   11.57    0.80
 -11   9  -8   12.14    0.72
 -11   9  -8   12.22    0.87
  11   9   8   10.60    0.74
 -11  -9  10    7.97    0.69
 -11   9 -10    8.90    0.73
 -11   9 -10    7.62    0.70
   9  11  10    7.47    0.62
  -9  11 -10    8.61    0.70
  11  -9 -10    8.44    0.70
   9 -11 -10    8.60    0.72
  -9  11 -10    8.75    0.54
 -11   9 -10    8.92    0.60
  11   9  10    7.09    0.60
 -11   9 -12    1.86    0.40
 -11  -9  12    1.79    0.42
  -9  11 -12    1.53    0.41
  11   9  12    1.26    0.35
 -11   9 -12    1.43    0.41
   9  11  12    2.42    0.42
  11  -9 -12    1.60    0.43
   9 -11 -12    2.07    0.45
 -11  -9  14    4.45    0.53
  -9  11 -14    4.76    0.64
 -11   9 -14    3.15    0.58
   9  11  14    4.59    0.58
 -11   9 -14    4.69    0.59
 -11   9 -16    1.66    0.43
  -9  11 -16    0.87    0.44
 -11   9 -16    0.83    0.43
   9  11  16    1.34    0.43
  -9  11 -18   -0.01    0.42
 -11   9 -18   -0.26    0.39
 -11   9 -18    0.44    0.33
 -11 -10 -19    7.68    0.83
  11  10 -19    6.17    0.81
  10  11 -19    5.64    0.78
 -11  10  19    6.57    0.80
 -10 -11 -19    7.51    0.84
 -11 -10 -17    8.43    0.84
 -10 -11 -17    8.13    0.81
  11  10 -17    7.50    0.85
  10  11 -17    8.39    0.88
 -10  11  17   10.10    0.92
 -11  10  17    8.47    0.85
 -11 -10 -15    7.97    0.79
 -10 -11 -15    7.47    0.75
  11  10 -15    8.59    0.87
  10  11 -15    8.08    0.83
 -10  11  15    7.75    0.78
 -11  10  15    7.22    0.77
 -11 -10 -13    7.61    0.75
 -10 -11 -13    7.60    0.74
  11  10 -13    7.20    0.77
 -11  10  13    7.34    0.72
 -10  11  13    8.72    0.81
  10  11 -13    9.74    0.87
  10  11 -11   20.00    1.18
 -11 -10 -11   17.85    1.12
 -10 -11 -11   17.65    1.10
 -10  11  11   18.28    1.12
 -11  10  11   19.23    1.13
  11  10 -11   17.12    1.10
  10  11  -9    0.26    0.34
  11  10  -9    0.18    0.31
 -11 -10  -9    0.04    0.27
 -10 -11  -9   -0.26    0.32
 -10  11   9   -0.13    0.28
 -11  10   9   -0.08    0.26
  10  11  -9   -0.15    0.41
 -10  11   7   17.10    1.01
  11 -10   7   15.37    0.90
  11  10  -7   15.20    0.95
 -11 -10  -7   14.84    0.94
 -10 -11  -7   14.77    0.94
  11  10  -7   11.97    0.94
  10  11  -7   14.31    1.01
  10  11  -7   14.19    0.93
  10  11  -5   36.61    1.53
 -11 -10  -5   38.12    1.55
 -10 -11  -5   34.68    1.49
  11  10  -5   37.28    1.61
  10  11  -5   37.22    1.62
  11 -10   5   34.38    1.41
  10 -11   5   38.64    1.49
  10  11  -3    6.13    0.70
 -11 -10  -3    6.27    0.59
 -10 -11  -3    6.60    0.60
 -11  10   3    5.35    0.30
  11 -10   3    6.08    0.58
  11  10  -3    6.60    0.70
  10 -11   3    5.40    0.56
 -10  11   1   32.18    0.95
 -11 -10  -1   31.36    1.34
 -10 -11  -1   30.14    1.33
 -11  10   1   31.33    1.01
  11  10  -1   31.82    1.42
  10  11  -1   30.34    1.41
  11 -10   1   30.76    1.29
  10 -11   1   33.94    1.36
 -10  11  -1   30.00    1.02
 -11 -10   1   32.27    1.31
 -11  10  -1   30.58    1.06
 -10 -11   1   30.56    1.30
 -10 -11   1   27.11    0.74
  11 -10  -1   30.12    1.27
  10 -11  -1   33.76    1.33
  11  10   1   29.13    1.34
  10  11   1   30.80    1.38
  11 -10  -1   29.81    1.04
 -11  10  -3    6.77    0.65
  11  10   3    5.13    0.62
 -10  11  -3    6.21    0.48
  10  11   3    6.11    0.64
 -11  10  -3    6.50    0.51
 -11 -10   3    5.91    0.54
 -10 -11   3    5.88    0.55
  11 -10  -3    6.72    0.60
  10 -11  -3    6.75    0.61
 -11 -10   3    5.91    0.27
 -10 -11   3    6.24    0.32
 -11  10  -5   37.26    1.60
 -10  11  -5   36.08    1.34
 -11  10  -5   38.08    1.39
 -11 -10   5   35.98    1.41
  10 -11  -5   36.17    1.46
  11  10   5   36.24    1.47
  11 -10  -5   34.86    1.43
  10  11   5   35.79    1.49
  10  11   7   17.41    0.98
  11 -10  -7   15.11    0.91
 -11  10  -7   15.39    1.00
 -10  11  -7   15.52    0.88
 -11  10  -7   15.13    0.87
  10 -11  -7   15.79    0.93
  11  10   7   13.74    0.87
 -11  10  -9    0.08    0.27
  11  10   9    0.21    0.33
 -10  11  -9    0.10    0.30
 -11  10  -9    0.28    0.30
  10  11   9    0.08    0.33
  11 -10  -9    0.05    0.31
  10 -11  -9   -0.01    0.30
 -11  10  -9   -0.16    0.28
  11  10  11   16.46    0.96
 -11  10 -11   20.33    1.16
  10  11  11   17.40    1.01
  10 -11 -11   19.24    1.09
 -10  11 -11   19.65    1.10
  11 -10 -11   19.27    1.09
 -11  10 -11   19.33    0.87
 -11  10 -11   17.40    1.05
  11  10  13    8.19    0.67
 -11  10 -13    7.46    0.74
  10  11  13    7.99    0.70
 -10  11 -13    7.88    0.76
 -11  10 -13    7.05    0.73
  10 -11 -13    7.65    0.73
 -11 -10  13    7.94    0.68
 -11  10 -15    7.74    0.75
 -11  10 -15    8.03    0.82
 -10  11 -15    7.34    0.76
 -11  10 -17    8.23    0.87
 -10  11 -17    8.29    0.85
 -10  11 -19    6.50    0.83
 -11  10 -19    7.39    0.88
 -11 -11 -18    0.98    0.43
  11  11 -18    0.44    0.44
 -11  11  18    1.10    0.42
 -11 -11 -16   10.26    0.92
  11  11 -16    8.61    0.88
 -11  11  16    8.09    0.85
 -11 -11 -14   17.03    1.13
 -11  11  14   16.09    1.11
  11  11 -14   16.32    1.15
 -11 -11 -12    1.12    0.36
  11  11 -12    0.61    0.40
 -11  11  12    1.29    0.38
  11  11 -10   14.39    1.01
 -11 -11 -10   14.52    1.00
 -11  11  10   13.94    0.97
  11  11  -8   19.54    1.14
 -11 -11  -8   18.80    1.12
  11  11  -8   18.18    1.18
 -11  11   8   20.29    1.14
  11 -11   6    5.42    0.57
  11  11  -6    6.06    0.64
 -11 -11  -6    5.45    0.60
  11  11  -6    4.77    0.65
 -11 -11  -4   25.27    1.24
  11  11  -4   24.45    1.31
  11 -11   4   25.95    1.21
 -11 -11  -2   19.66    1.06
  11  11  -2   20.60    1.16
  11 -11   2   20.53    1.06
 -11  11   0   36.12    1.14
 -11 -11   0   35.40    1.47
  11 -11   0   36.14    1.46
  11  11   0   35.29    1.54
 -11  11  -2   20.72    0.88
 -11 -11   2   23.37    1.12
  11 -11  -2   19.82    1.06
  11  11   2   21.78    1.16
  11 -11  -4   25.18    1.20
 -11  11  -4   24.47    1.04
 -11 -11   4   25.72    1.18
  11  11   4   23.27    1.20
  11  11   6    5.23    0.61
 -11  11  -6    5.32    0.52
  11 -11  -6    5.09    0.57
 -11  11  -8   20.61    1.07
  11 -11  -8   18.48    1.05
  11  11   8   17.39    1.02
  11  11  10   13.55    0.90
 -11  11 -10   12.58    0.90
  11 -11 -10   14.52    0.95
 -11  11 -10   15.62    0.80
 -11  11 -12    1.02    0.40
  11  11  12    0.87    0.38
  11 -11 -12    1.11    0.41
 -11  11 -14   14.45    1.06
 -11  11 -16    7.29    0.80
 -11  11 -18    0.82    0.45
 -12   0   0   78.48    2.08
   0 -12   0   78.79    2.05
  12   0   0   77.96    2.03
   0  12   0   76.70    2.04
  12   0   0   77.47    1.89
   0  12   0   76.56    2.03
   0 -12   0   78.38    1.83
 -12   0   0   77.75    2.31
   0 -12   0   80.34    2.18
   0 -12   2    1.87    0.32
 -12   0   2    1.72    0.21
 -12   0   2    1.52    0.23
   0  12  -2    1.61    0.28
 -12   0   2    1.52    0.37
 -12   0  -2    1.52    0.26
   0 -12  -2    1.84    0.25
  12   0  -2    1.59    0.22
 -12   0  -2    1.79    0.41
   0  12   2    2.14    0.28
  12   0   2    1.98    0.22
   0 -12  -2    2.04    0.28
   0 -12  -2    2.05    0.32
 -12   0  -4    1.35    0.29
 -12   0   4    1.50    0.21
 -12   0  -4    1.47    0.28
   0  12  -4    1.64    0.30
   0 -12  -4    1.29    0.22
   0  12   4    1.63    0.27
   0 -12  -4    1.22    0.29
   0 -12  -4    1.70    0.34
 -12   0  -4    1.44    0.37
 -12   0   4    0.81    0.34
 -12   0   4    1.51    0.22
  12   0   4    1.91    0.23
 -12   0  -6   31.94    0.99
 -12   0   6   31.44    0.93
   0 -12  -6   31.09    0.96
   0  12  -6   30.07    1.20
   0 -12  -6   31.22    1.16
 -12   0  -6   30.50    1.26
   0 -12  -6   30.39    1.16
   0  12   6   29.20    1.15
   0 -12  -6   31.05    1.18
 -12   0  -6   31.60    1.24
 -12   0  -8    1.94    0.36
   0 -12  -8    2.01    0.24
   0  12  -8    2.26    0.40
   0 -12  -8    1.82    0.30
   0  12  -8    2.16    0.45
 -12   0   8    2.00    0.27
   0 -12  -8    1.92    0.34
   0  12   8    1.79    0.34
 -12   0   8    1.88    0.18
 -12   0   8    2.08    0.29
 -12   0  -8    2.24    0.43
   0 -12  -8    3.41    0.51
   0  12  -8    1.76    0.26
  12   0 -10    8.82    0.62
   0  12 -10    8.26    0.40
 -12   0  10    7.60    0.34
   0 -12 -10    9.36    0.60
 -12   0  10    8.75    0.51
   0 -12 -10   10.57    0.68
   0  12  10    8.89    0.67
 -12   0  10    7.60    0.54
 -12   0 -10    8.64    0.69
   0 -12 -10    8.23    0.75
   0  12 -10    9.63    0.73
 -12   0 -10    9.08    0.71
   0  12 -10    8.63    0.71
   0 -12 -12    1.01    0.27
   0  12 -12    0.56    0.35
 -12   0  12    0.99    0.19
   0  12 -12    0.16    0.39
   0  12  12    0.99    0.32
 -12   0  12    1.03    0.26
   0 -12 -12    0.85    0.44
  12   0 -12    0.30    0.26
 -12   0 -12    1.28    0.39
   0  12 -14    2.07    0.45
   0  12  14    2.38    0.45
 -12   0  14    1.50    0.31
  12   0 -14    1.75    0.36
   0 -12 -14    1.43    0.30
   0 -12 -14    2.48    0.55
   0  12 -14    1.56    0.41
 -12   0 -14    1.72    0.39
   0  12 -16    2.26    0.51
   0 -12 -16    2.49    0.38
   0  12  16    2.67    0.47
  12   0 -16    3.08    0.46
 -12   0  16    2.64    0.41
   0  12 -16    2.27    0.45
   0 -12 -16    2.31    0.57
 -12   0 -16    2.26    0.46
   0  12 -18   -0.47    0.38
   0 -12 -18    0.37    0.24
   0  12  18    0.62    0.40
 -12   0  18    0.69    0.31
 -12   0 -18    0.21    0.27
  12   0 -18    0.30    0.30
   0 -12 -18    0.05    0.44
 -12   0 -18    0.17    0.29
   0  12 -20    2.26    0.57
   0  12  20    2.59    0.52
 -12   0  20    2.56    0.45
 -12   0 -20    2.32    0.44
  12   0 -20    1.82    0.43
   0 -12 -20    2.46    0.61
 -12   0 -20    2.32    0.52
 -12   0 -22   -0.34    0.35
 -12   0  22   -0.23    0.32
 -12   1  23    0.58    0.36
   1  12 -21    0.39    0.38
  12   1 -21    0.57    0.40
  -1  12  21    0.21    0.38
 -12  -1 -21    0.38    0.28
 -12   1  21    0.61    0.32
  -1 -12 -21   -0.24    0.49
 -12  -1 -21    0.37    0.37
  12   1 -19    5.11    0.61
 -12   1  19    6.20    0.65
  -1  12  19    7.81    0.79
   1  12 -19    6.09    0.77
 -12  -1 -19    5.45    0.63
  -1 -12 -19    6.82    0.84
 -12  -1 -19    6.15    0.73
  -1 -12 -19    7.37    0.66
  -1 -12 -17    1.59    0.33
  -1  12  17    2.04    0.46
 -12   1  17    1.62    0.37
   1  12 -17    1.00    0.45
  -1 -12 -17    1.26    0.52
 -12  -1 -17    1.47    0.42
  12   1 -17    0.91    0.33
  -1 -12 -15    5.12    0.53
  12   1 -15    5.66    0.57
   1  12 -15    5.27    0.65
  -1  12  15    7.23    0.70
 -12   1  15    7.18    0.61
   1  12 -15    5.61    0.62
  -1 -12 -15    6.51    0.76
 -12  -1 -15    6.78    0.70
 -12  -1 -13    4.30    0.56
  12   1 -13    3.95    0.47
  -1 -12 -13    4.02    0.45
   1  12 -13    4.44    0.57
  -1  12  13    4.40    0.54
 -12   1  13    3.29    0.41
  -1 -12 -13    5.31    0.68
   1  12 -13    3.53    0.52
 -12   1  11   19.91    0.80
  12   1 -11   18.55    0.94
  -1 -12 -11   19.25    0.93
   1  12 -11   19.63    1.07
  -1  12  11   19.92    1.05
 -12   1  11   19.45    0.93
   1  12 -11   18.82    1.03
  -1 -12 -11   19.62    1.09
 -12  -1 -11   19.35    1.07
 -12  -1  -9    3.92    0.47
 -12  -1  -9    4.64    0.57
   1  12  -9    3.45    0.30
   1  12  -9    3.30    0.50
  -1 -12  -9    4.04    0.41
   1  12  -9    3.72    0.32
  -1 -12  -9    3.64    0.42
  -1  12   9    3.93    0.46
   1  12  -9    3.78    0.50
 -12   1   9    3.18    0.32
 -12   1   9    3.29    0.36
  -1 -12  -9    3.66    0.33
  -1 -12  -9    5.47    0.60
  12   1  -9    3.42    0.41
 -12   1   7    3.43    0.21
 -12  -1  -7    4.45    0.49
  -1 -12  -7    4.18    0.34
  -1 -12  -7    4.38    0.42
   1  12  -7    4.67    0.39
 -12   1   7    3.93    0.37
   1  12  -7    4.48    0.56
  -1 -12  -7    4.33    0.43
   1  12  -7    3.65    0.45
  -1 -12  -7    5.10    0.56
 -12  -1  -7    4.85    0.58
  -1  12   7    3.88    0.42
 -12   1   5   37.35    1.04
 -12  -1  -5   36.84    1.17
  -1 -12  -5   37.69    1.15
  -1 -12  -5   37.71    1.34
 -12   1   5   37.22    1.32
 -12  -1  -5   35.85    1.41
  -1 -12  -5   38.10    1.28
  -1  12   5   36.16    1.31
   1  12  -5   37.39    1.35
  12  -1   5   37.05    1.13
 -12  -1  -5   38.66    1.38
 -12  -1  -3    7.39    0.53
 -12  -1  -3    9.00    0.67
  -1 -12  -3    7.86    0.46
 -12   1   3    7.35    0.63
  -1  12   3    7.11    0.50
  -1 -12  -3    7.26    0.51
  12  -1   3    7.88    0.43
   1  12  -3    8.12    0.55
 -12  -1  -3    7.97    0.52
 -12   1   3    7.93    0.46
 -12   1   3    7.24    0.41
 -12  -1  -1   29.59    1.09
  -1  12   1   28.84    0.95
   1  12  -1   29.73    1.07
  -1 -12  -1   30.47    1.04
  12  -1   1   29.01    1.01
   1 -12   1   27.34    1.00
  12   1  -1   30.40    0.87
  12  -1   1   29.57    0.94
 -12   1   1   28.87    1.24
   1  12  -1   28.14    0.95
  -1  12   1   29.12    1.05
  -1 -12  -1   29.63    1.08
  -1 -12  -1   29.57    0.94
   1 -12   1   28.74    1.12
 -12  -1  -1   29.74    1.24
 -12   1   1   29.56    1.00
   1  12   1   30.29    1.03
  -1  12  -1   28.41    1.00
   1 -12  -1   30.58    0.98
  12  -1  -1   28.95    0.95
 -12  -1   1   29.52    1.04
  12   1   1   28.38    0.83
  12  -1  -1   28.21    0.94
   1  12   1   29.03    0.99
 -12   1  -1   30.43    1.24
  -1 -12   1   29.69    0.82
   1 -12  -1   29.66    1.13
 -12  -1   1   27.90    1.23
  -1 -12   1   29.83    1.08
 -12   1  -1   29.43    1.06
  -1  12  -3    7.44    0.51
  12  -1  -3    7.62    0.45
   1 -12  -3    7.91    0.42
   1  12   3    7.39    0.48
 -12   1  -3    8.16    0.52
  12   1   3    8.36    0.37
 -12  -1   3    8.47    0.48
   1 -12  -3    8.20    0.56
 -12  -1   3    7.55    0.63
   1 -12  -3    8.25    0.49
 -12   1  -3    8.12    0.64
 -12  -1   3    8.03    0.42
 -12   1  -3    7.77    0.55
 -12   1  -5   39.87    1.43
   1 -12  -5   39.46    1.31
   1 -12  -5   37.28    1.04
   1  12   5   37.42    1.29
   1 -12  -5   38.00    1.34
 -12  -1   5   35.64    1.45
 -12  -1   5   35.91    1.15
 -12   1  -5   37.94    1.16
   1 -12  -5   35.93    1.26
 -12  -1   5   37.80    1.13
  12   1   5   38.43    1.05
  -1  12  -5   38.61    1.34
 -12   1  -5   36.42    1.36
 -12   1  -7    3.73    0.45
 -12   1  -7    4.23    0.32
   1 -12  -7    3.93    0.27
 -12  -1   7    4.08    0.29
  -1  12  -7    4.14    0.47
   1 -12  -7    3.74    0.37
   1  12   7    3.95    0.41
  -1  12  -7    4.98    0.54
   1 -12  -7    3.50    0.42
   1 -12  -7    3.62    0.47
 -12   1  -7    3.98    0.48
 -12  -1   7    3.54    0.49
   1 -12  -9    3.61    0.26
  -1  12  -9    3.34    0.48
  -1  12  -9    3.45    0.29
   1 -12  -9    2.85    0.34
  -1  12  -9    3.67    0.53
 -12  -1   9    3.77    0.35
   1 -12  -9    3.36    0.43
   1  12   9    3.59    0.45
 -12  -1   9    2.80    0.49
 -12  -1   9    3.80    0.36
 -12   1  -9    4.30    0.51
 -12  -1   9    3.27    0.25
   1 -12  -9    3.67    0.51
 -12   1  -9    3.23    0.44
  12  -1 -11   19.51    0.92
  -1  12 -11   20.21    1.08
 -12  -1  11   18.68    0.66
 -12  -1  11   20.33    0.80
   1 -12 -11   20.53    1.02
   1  12  11   20.60    1.06
 -12  -1  11   19.29    0.89
   1 -12 -11   19.21    1.08
 -12   1 -11   21.82    1.03
  -1  12 -11   21.63    1.04
 -12   1 -11   20.63    1.08
   1 -12 -11   21.34    0.93
  -1  12 -13    3.79    0.50
   1 -12 -13    4.01    0.42
  -1  12 -13    3.74    0.54
   1 -12 -13    3.98    0.32
   1  12  13    3.95    0.51
 -12   1 -13    3.23    0.47
  12  -1 -13    3.85    0.44
 -12  -1  13    3.43    0.40
   1 -12 -13    3.40    0.57
 -12   1 -13    3.68    0.51
   1 -12 -15    5.83    0.51
  12  -1 -15    5.78    0.54
  -1  12 -15    5.66    0.67
 -12   1 -15    6.27    0.63
 -12  -1  15    6.34    0.56
   1  12  15    5.39    0.61
   1 -12 -15    6.00    0.74
  -1  12 -15    5.90    0.59
 -12   1 -15    6.29    0.67
   1 -12 -17    1.75    0.32
  -1  12 -17    2.39    0.53
 -12  -1  17    1.67    0.35
   1  12  17    1.51    0.40
 -12   1 -17    1.98    0.41
  12  -1 -17    1.16    0.35
   1 -12 -17    1.97    0.54
 -12   1 -17    1.70    0.41
  12  -1 -19    5.40    0.60
  -1  12 -19    5.44    0.74
 -12   1 -19    6.93    0.68
   1  12  19    6.23    0.74
 -12  -1  19    4.93    0.55
   1 -12 -19    6.06    0.79
 -12   1 -19    5.42    0.69
  -1  12 -21    0.27    0.41
   1  12  21    1.10    0.42
 -12   1 -21   -0.17    0.32
   1 -12 -21   -0.26    0.51
  12   2 -24    3.77    0.63
 -12   2  24    3.27    0.61
  12   2 -22    3.12    0.57
 -12   2  22    3.25    0.55
 -12  -2 -22    3.57    0.55
  -2 -12 -20    3.63    0.52
   2  12 -20    2.93    0.60
  -2  12  20    4.05    0.63
  12   2 -20    2.91    0.50
 -12   2  20    4.35    0.60
  -2 -12 -20    4.81    0.77
 -12  -2 -20    4.47    0.65
  12   2 -18    3.15    0.51
  -2 -12 -18    2.77    0.43
   2  12 -18    2.79    0.58
  -2  12  18    2.89    0.54
 -12   2  18    3.28    0.49
  -2 -12 -18    3.31    0.69
 -12  -2 -18    3.82    0.59
  12   2 -16    0.84    0.34
  -2  12  16    1.17    0.37
 -12   2  16    1.03    0.30
   2  12 -16    0.28    0.36
  -2 -12 -16    1.40    0.54
  -2 -12 -16    0.90    0.31
 -12  -2 -16    1.42    0.38
 -12  -2 -14    2.79    0.49
  12   2 -14    3.16    0.47
   2  12 -14    2.64    0.49
  -2  12  14    2.79    0.47
  -2 -12 -14    2.76    0.41
 -12   2  14    2.65    0.40
  -2 -12 -14    4.43    0.66
   2  12 -14    2.44    0.48
  12   2 -12   10.79    0.74
 -12   2  12   11.37    0.57
  -2 -12 -12   10.45    0.70
  -2  12  12   11.05    0.80
 -12   2  12   10.68    0.71
   2  12 -12   11.42    0.85
   2  12 -12   11.66    0.83
 -12  -2 -12   11.24    0.84
   2  12 -10    8.79    0.72
  -2 -12 -10    8.22    0.61
  12   2 -10    8.09    0.63
 -12   2  10    9.14    0.54
  -2  12  10    8.45    0.66
 -12   2  10    8.23    0.59
   2  12 -10    8.39    0.45
   2  12 -10   10.49    0.77
 -12  -2 -10    8.18    0.68
  -2 -12  -8    5.72    0.42
   2  12  -8    4.75    0.52
 -12   2   8    5.42    0.43
  -2 -12  -8    5.40    0.48
   2  12  -8    6.44    0.64
   2  12  -8    5.07    0.40
   2  12  -8    6.00    0.36
 -12  -2  -8    6.18    0.62
  12   2  -8    5.24    0.51
  -2 -12  -8    5.89    0.48
  -2  12   8    6.10    0.54
 -12   2   8    5.47    0.47
 -12  -2  -8    4.76    0.52
 -12  -2  -6   45.42    1.59
  -2 -12  -6   46.33    1.36
   2  12  -6   44.59    1.61
   2  12  -6   42.84    1.54
   2  12  -6   44.04    1.38
 -12   2   6   44.21    1.46
  -2 -12  -6   45.91    1.53
  -2 -12  -6   45.02    1.42
  -2  12   6   47.03    1.55
 -12   2   6   41.46    1.06
 -12  -2  -6   44.61    1.60
 -12  -2  -4    0.14    0.35
 -12  -2  -4    0.06    0.21
   2  12  -4    0.12    0.24
 -12  -2  -4    0.26    0.27
  -2 -12  -4    0.14    0.20
 -12   2   4    0.26    0.23
  -2  12   4    0.08    0.19
  -2 -12  -4    0.55    0.21
  -2 -12  -4    0.47    0.23
  12  -2   4    0.19    0.18
 -12   2   4    0.16    0.11
 -12  -2  -2   11.72    0.67
  -2  12   2   11.30    0.49
   2  12  -2   11.45    0.66
  -2 -12  -2   11.11    0.60
 -12  -2  -2   11.09    0.75
   2 -12   2   11.63    0.61
 -12   2   2   11.92    0.71
   2  12  -2   11.54    0.50
  -2  12   2   12.87    0.67
  -2 -12  -2   11.30    0.61
  12  -2   2   11.27    0.55
 -12   2   2   12.27    0.55
   2 -12   2   11.54    0.68
 -12  -2   0   92.14    2.63
 -12  -2   0   93.13    2.44
  -2  12   0   90.77    2.26
  12  -2   0   94.36    2.31
   2 -12   0   92.84    2.29
 -12   2   0   89.81    2.61
   2  12   0   89.64    2.24
  12  -2   0   89.62    2.29
   2  12   0   91.53    2.41
 -12   2   0   97.68    2.69
   2 -12   0   95.26    2.54
  -2 -12   0   98.73    2.44
 -12   2   0   91.47    2.34
  -2  12  -2   11.88    0.60
   2 -12  -2   11.62    0.50
  12  -2  -2   10.85    0.49
 -12  -2   2   11.31    0.59
 -12   2  -2   10.83    0.72
  12   2   2   11.01    0.39
  12  -2  -2   10.20    0.55
   2  12   2   12.14    0.58
 -12   2  -2   11.23    0.76
   2 -12  -2   12.37    0.70
 -12  -2   2   11.43    0.75
 -12   2  -2   11.25    0.63
 -12  -2   2   10.89    0.45
  -2 -12   2   11.70    0.63
 -12  -2   4    0.19    0.16
   2 -12  -4    0.30    0.12
 -12  -2   4    0.21    0.32
 -12   2  -4    0.41    0.34
  12  -2  -4    0.38    0.20
 -12   2  -4    0.29    0.24
   2  12   4    0.20    0.18
  -2  12  -4    0.15    0.22
   2 -12  -4   -0.16    0.27
   2 -12  -4    0.28    0.27
 -12   2  -4    0.02    0.23
  12   2   4    0.24    0.10
 -12  -2   4    0.23    0.13
 -12   2  -4    0.29    0.23
   2 -12  -6   41.76    1.08
 -12   2  -6   47.18    1.59
  -2  12  -6   45.54    1.53
 -12  -2   6   44.26    1.30
   2 -12  -6   46.24    1.44
  12  -2  -6   43.27    1.41
 -12   2  -6   47.13    1.69
   2  12   6   43.98    1.46
   2 -12  -6   45.31    1.53
 -12  -2   6   42.20    1.30
 -12   2  -6   45.87    1.26
 -12  -2   6   43.50    1.62
   2 -12  -6   45.28    1.48
 -12   2  -6   43.29    1.54
  12   2   6   47.00    1.17
  -2  12  -8    5.41    0.53
 -12   2  -8    5.50    0.31
 -12  -2   8    5.04    0.56
   2 -12  -8    4.70    0.23
 -12  -2   8    5.59    0.36
   2 -12  -8    5.33    0.42
 -12   2  -8    6.38    0.59
   2  12   8    4.70    0.47
   2 -12  -8    4.95    0.50
 -12  -2   8    5.13    0.39
   2 -12  -8    6.12    0.58
 -12   2  -8    5.11    0.53
 -12   2  -8    5.61    0.53
  -2  12  -8    5.95    0.59
  -2  12 -10    8.93    0.69
  -2  12 -10    8.16    0.38
  -2  12 -10    8.23    0.68
   2 -12 -10    7.54    0.51
 -12  -2  10    8.69    0.44
 -12   2 -10    9.00    0.71
   2 -12 -10    8.44    0.65
   2  12  10    8.17    0.64
 -12  -2  10    9.37    0.55
 -12  -2  10    7.75    0.67
   2 -12 -10    8.27    0.71
 -12   2 -10    8.23    0.67
 -12   2 -10    8.77    0.65
  12  -2 -12   10.50    0.64
  -2  12 -12   10.97    0.82
 -12   2 -12   11.12    0.80
 -12  -2  12    9.93    0.48
 -12  -2  12   10.69    0.54
   2 -12 -12   11.38    0.77
   2  12  12   10.65    0.77
   2 -12 -12   10.56    0.63
 -12  -2  12   10.41    0.62
 -12  -2  12   11.16    0.82
   2 -12 -12   10.85    0.83
  -2  12 -12   11.43    0.75
 -12   2 -12    9.68    0.76
   2 -12 -14    2.83    0.36
  -2  12 -14    1.49    0.43
   2  12  14    2.20    0.41
 -12   2 -14    3.46    0.49
 -12  -2  14    2.52    0.35
  12  -2 -14    2.89    0.40
   2 -12 -14    2.88    0.53
 -12  -2  14    3.11    0.50
 -12   2 -14    3.46    0.52
  -2  12 -14    2.71    0.42
   2 -12 -16    1.02    0.26
  -2  12 -16    1.45    0.40
   2  12  16    1.47    0.42
 -12   2 -16    0.64    0.30
 -12  -2  16    0.72    0.27
  -2  12 -16    1.50    0.37
   2 -12 -16    0.54    0.44
 -12  -2  16    0.74    0.34
 -12   2 -16    1.24    0.38
  12  -2 -16    0.64    0.28
  -2  12 -18    3.64    0.59
   2  12  18    3.61    0.58
 -12   2 -18    2.51    0.44
 -12  -2  18    3.38    0.46
  12  -2 -18    2.80    0.45
   2 -12 -18    3.55    0.66
 -12   2 -18    3.05    0.55
 -12  -2  18    4.23    0.54
  -2  12 -20    2.82    0.60
 -12   2 -20    4.10    0.55
   2  12  20    4.22    0.64
   2 -12 -20    4.23    0.76
  12   3 -23    1.23    0.49
 -12   3  23    0.55    0.36
  -3 -12 -21    1.18    0.39
  12   3 -21    0.76    0.43
   3  12 -21    1.47    0.54
  -3  12  21    1.28    0.49
 -12   3  21    1.55    0.46
  -3 -12 -21    1.41    0.62
 -12  -3 -21    1.49    0.47
  -3 -12 -19    5.05    0.61
   3  12 -19    5.25    0.71
  -3  12  19    5.56    0.69
 -12   3  19    5.15    0.62
  -3 -12 -19    6.24    0.83
  12   3 -19    3.76    0.58
 -12  -3 -19    6.60    0.75
  -3 -12 -17    0.31    0.27
  12   3 -17   -0.07    0.32
   3  12 -17    0.05    0.37
  -3  12  17    0.39    0.34
 -12   3  17    0.05    0.24
  -3 -12 -17    1.10    0.56
 -12  -3 -17    0.15    0.32
 -12  -3 -15    0.90    0.38
   3  12 -15    0.37    0.36
  12   3 -15    0.68    0.36
  -3 -12 -15    1.04    0.33
  -3  12  15    0.72    0.35
 -12   3  15    0.50    0.26
   3  12 -15    0.36    0.37
 -12  -3 -13    3.27    0.50
  -3 -12 -13    3.65    0.45
  12   3 -13    3.04    0.45
  -3  12  13    3.10    0.48
   3  12 -13    2.94    0.52
 -12   3  13    3.41    0.44
   3  12 -13    3.17    0.53
  12   3 -11    8.86    0.68
 -12   3  11    9.03    0.54
   3  12 -11    9.91    0.78
  -3 -12 -11    9.47    0.68
  -3  12  11   10.00    0.74
 -12   3  11    9.09    0.66
   3  12 -11    9.80    0.78
 -12  -3 -11    9.71    0.75
 -12  -3  -9    4.85    0.56
   3  12  -9    4.47    0.55
  12   3  -9    4.92    0.53
   3  12  -9    4.92    0.61
   3  12  -9    4.65    0.30
  -3 -12  -9    5.14    0.50
  -3 -12  -9    4.54    0.44
  -3  12   9    5.84    0.56
 -12   3   9    4.80    0.48
 -12   3   9    4.70    0.41
   3  12  -9    4.62    0.38
 -12  -3  -7    6.63    0.58
   3  12  -7    6.82    0.61
 -12   3   7    7.68    0.53
  -3 -12  -7    7.23    0.57
   3  12  -7    6.71    0.67
   3  12  -7    7.04    0.34
   3  12  -7    6.18    0.47
  -3 -12  -7    6.72    0.48
  -3  12   7    6.52    0.57
 -12  -3  -7    7.88    0.67
 -12  -3  -5   33.36    1.35
 -12  -3  -5   32.03    1.27
   3  12  -5   31.19    1.25
 -12   3   5   30.93    1.20
  -3 -12  -5   31.87    1.25
  -3 -12  -5   31.14    1.10
   3  12  -5   31.46    1.33
  -3  12   5   32.66    1.24
  12  -3   5   30.81    1.08
 -12  -3  -3   43.82    1.49
 -12   3   3   43.08    1.49
   3 -12   3   43.80    1.38
   3  12  -3   40.83    1.45
  -3 -12  -3   43.85    1.51
   3  12  -3   40.87    1.56
   3  12  -3   43.13    1.12
 -12  -3  -3   42.97    1.58
  -3 -12  -3   42.74    1.34
  -3  12   3   42.22    1.44
  12  -3   3   43.32    1.33
 -12   3   3   41.90    1.16
   3 -12   3   41.74    1.47
   3  12  -1   22.38    0.95
  -3  12   1   22.23    0.75
 -12  -3  -1   23.16    0.97
  12  -3   1   23.63    0.87
   3 -12   1   21.80    0.84
 -12  -3  -1   21.17    1.05
 -12   3   1   23.44    1.04
   3  12  -1   23.23    0.75
  12  -3   1   22.88    0.86
  -3 -12  -1   23.25    0.89
   3 -12   1   21.73    0.98
 -12   3   1   22.10    0.81
 -12  -3   1   22.84    0.92
 -12  -3   1   18.76    1.00
  -3  12  -1   21.71    0.80
   3 -12  -1   22.19    0.76
 -12   3  -1   22.90    1.06
   3  12   1   21.32    0.78
  12  -3  -1   22.78    0.87
 -12   3  -1   23.85    1.09
   3 -12  -1   22.05    0.98
  12  -3  -1   22.22    0.77
 -12   3  -1   22.36    0.87
  -3 -12   1   21.38    0.86
  -3  12  -3   44.34    1.30
 -12  -3   3   42.65    1.29
   3 -12  -3   40.84    1.01
  12  -3  -3   45.58    1.07
 -12   3  -3   42.34    1.54
  12  -3  -3   41.49    1.28
   3  12   3   41.41    1.24
   3 -12  -3   42.16    1.41
 -12   3  -3   45.36    1.52
 -12  -3   3   43.48    1.06
 -12   3  -3   42.07    1.34
 -12  -3   3   37.95    1.45
 -12  -3   5   30.12    1.02
  -3  12  -5   31.81    1.14
 -12   3  -5   32.92    1.32
  12  -3  -5   30.56    1.08
   3  12   5   29.93    1.08
   3 -12  -5   29.87    1.18
 -12   3  -5   31.93    1.00
 -12  -3   5   30.23    0.92
  12   3   5   29.53    0.72
 -12   3  -5   30.55    1.22
 -12  -3   5   29.05    1.25
 -12   3  -5   32.18    1.19
 -12   3  -7    6.99    0.58
 -12  -3   7    7.19    0.44
   3 -12  -7    7.69    0.49
 -12   3  -7    6.37    0.60
  12  -3  -7    7.65    0.54
   3  12   7    7.86    0.56
   3 -12  -7    8.26    0.61
 -12  -3   7    6.54    0.41
 -12   3  -7    7.63    0.39
   3 -12  -7    6.40    0.56
 -12  -3   7    6.77    0.61
  -3  12  -7    6.39    0.54
 -12   3  -7    7.72    0.59
  -3  12  -9    6.39    0.58
   3 -12  -9    5.72    0.43
  -3  12  -9    5.25    0.54
 -12  -3   9    5.46    0.59
   3 -12  -9    4.45    0.50
 -12  -3   9    4.09    0.34
 -12   3  -9    5.69    0.58
   3  12   9    5.08    0.52
 -12  -3   9    4.45    0.37
   3 -12  -9    3.76    0.50
 -12   3  -9    5.84    0.57
 -12   3  -9    4.81    0.52
 -12   3 -11   11.37    0.71
   3 -12 -11   10.47    0.59
  -3  12 -11    9.64    0.74
 -12  -3  11    8.74    0.49
 -12   3 -11   10.10    0.76
   3 -12 -11    8.78    0.69
   3  12  11    9.91    0.74
 -12  -3  11   10.20    0.57
 -12  -3  11    9.88    0.75
   3 -12 -11    8.84    0.73
 -12   3 -11   10.54    0.76
  -3  12 -11    9.74    0.68
  12  -3 -13    3.31    0.38
   3 -12 -13    3.90    0.37
  -3  12 -13    3.03    0.43
 -12  -3  13    3.60    0.50
   3  12  13    3.57    0.49
 -12   3 -13    3.40    0.48
 -12  -3  13    3.51    0.36
   3 -12 -13    4.50    0.62
 -12   3 -13    4.39    0.54
  -3  12 -13    3.13    0.49
  12  -3 -15    0.69    0.26
  -3  12 -15    0.08    0.34
 -12   3 -15    0.72    0.33
   3  12  15    1.07    0.38
 -12  -3  15    0.99    0.26
   3 -12 -15    0.66    0.22
 -12  -3  15    0.52    0.32
   3 -12 -15   -0.20    0.48
 -12   3 -15    0.11    0.28
  -3  12 -15    0.68    0.33
  12  -3 -17    0.05    0.23
 -12  -3  17    0.27    0.28
 -12   3 -17    0.65    0.30
   3  12  17   -0.06    0.30
 -12  -3  17    0.56    0.25
  -3  12 -17    0.53    0.38
   3 -12 -17    0.20    0.46
 -12   3 -19    5.08    0.60
  -3  12 -19    5.48    0.73
   3  12  19    4.27    0.66
   3 -12 -19    3.66    0.66
  -3  12 -21    1.65    0.53
 -12   3 -21   -0.19    0.45
 -12   3 -21    1.50    0.42
   3  12  21    0.46    0.37
   3 -12 -21    1.08    0.56
  -4 -12 -22    2.40    0.49
  12   4 -22    1.57    0.49
 -12   4  22    1.62    0.50
  12   4 -20    3.28    0.58
  -4 -12 -20    3.18    0.52
  -4  12  20    3.72    0.63
 -12   4  20    3.62    0.57
  -4 -12 -20    4.34    0.76
   4  12 -20    3.31    0.64
 -12  -4 -20    3.27    0.62
 -12  -4 -18    3.15    0.57
   4  12 -18    3.05    0.59
  -4 -12 -18    2.67    0.47
  -4  12  18    2.95    0.54
 -12   4  18    2.74    0.48
  -4 -12 -18    4.71    0.80
  12   4 -18    3.10    0.54
 -12  -4 -16    3.12    0.54
  -4 -12 -16    4.45    0.54
  12   4 -16    3.53    0.55
   4  12 -16    3.82    0.60
  -4  12  16    3.82    0.60
 -12   4  16    3.70    0.51
   4  12 -14    2.59    0.52
 -12  -4 -14    2.58    0.46
  -4 -12 -14    2.93    0.44
  -4  12  14    2.86    0.47
 -12   4  14    2.69    0.44
   4  12 -14    2.17    0.48
  12   4 -14    2.72    0.48
 -12  -4 -12    2.56    0.46
   4  12 -12    2.25    0.46
  -4 -12 -12    1.96    0.37
  -4  12  12    1.79    0.39
 -12   4  12    3.11    0.43
   4  12 -12    2.62    0.50
  12   4 -12    1.53    0.37
   4  12 -10    1.22    0.25
   4  12 -10    1.44    0.43
 -12   4  10    1.82    0.28
   4  12 -10    1.81    0.43
  -4 -12 -10    1.19    0.31
 -12  -4 -10    2.27    0.42
  -4  12  10    1.65    0.40
 -12   4  10    1.42    0.33
  12   4 -10    1.86    0.39
 -12  -4  -8    8.35    0.68
  12   4  -8    9.09    0.68
 -12   4   8   10.03    0.60
   4  12  -8    8.27    0.69
  -4 -12  -8    9.35    0.66
  -4 -12  -8    9.38    0.57
   4  12  -8    7.69    0.32
  -4  12   8    8.32    0.67
 -12   4   8    8.95    0.64
   4  12  -8    9.05    0.79
 -12  -4  -6   23.43    1.06
   4  12  -6   22.32    1.05
 -12   4   6   23.19    0.98
  -4 -12  -6   22.46    0.86
  -4  12   6   23.00    1.03
 -12  -4  -6   22.93    1.10
  -4 -12  -6   21.73    1.01
   4  12  -6   21.35    1.10
 -12  -4  -4   16.41    0.86
   4  12  -4   15.34    0.84
 -12  -4  -4   14.45    0.91
 -12   4   4   15.75    0.82
  -4 -12  -4   14.71    0.82
  -4 -12  -4   15.55    0.68
   4  12  -4   13.75    0.45
  -4  12   4   14.92    0.81
  12  -4   4   16.28    0.75
   4  12  -4   15.91    0.95
   4  12  -2   20.64    0.95
 -12  -4  -2   20.02    0.94
 -12   4   2   21.68    1.01
   4  12  -2   19.84    0.63
   4  12  -2   21.35    1.08
  -4 -12  -2   21.60    0.82
  -4  12   2   20.64    0.63
 -12  -4  -2   20.12    1.05
  12  -4   2   20.17    0.85
   4 -12   2   20.27    0.96
   4  12   0   44.33    1.46
  -4  12   0   41.57    1.19
  12  -4   0   43.43    1.27
 -12  -4   0   43.76    1.45
 -12   4   0   42.15    1.54
 -12  -4   0   41.88    1.59
   4  12   0   42.12    1.18
  12  -4   0   41.51    1.35
  -4 -12   0   44.21    1.33
   4 -12   0   42.41    1.49
 -12   4   0   42.71    1.29
 -12  -4   2   19.57    0.88
 -12  -4   2   20.79    1.04
  12  -4  -2   21.49    0.72
 -12   4  -2   21.29    1.03
   4  12   2   20.27    0.78
 -12   4  -2   22.19    1.05
  12  -4  -2   21.23    0.88
  -4  12  -2   22.34    0.83
   4 -12  -2   21.46    0.98
 -12   4  -2   20.96    0.87
 -12  -4   2   20.66    0.59
  -4 -12   2   20.37    0.82
 -12  -4   4   13.66    0.88
  -4  12  -4   14.93    0.73
 -12  -4   4   15.19    0.73
 -12   4  -4   15.30    0.89
  12  -4  -4   14.79    0.48
   4  12   4   15.23    0.71
  12  -4  -4   14.98    0.74
   4 -12  -4   17.02    0.86
 -12  -4   4   15.28    0.55
 -12   4  -4   14.97    0.86
 -12   4  -4   15.09    0.79
  -4  12  -6   22.93    0.99
 -12  -4   6   22.74    0.88
 -12   4  -6   23.62    1.14
   4 -12  -6   23.31    0.88
  12  -4  -6   22.28    0.95
   4  12   6   23.77    0.97
 -12  -4   6   21.36    0.77
   4 -12  -6   21.96    1.03
 -12  -4   6   21.76    0.76
  12   4   6   19.40    0.54
 -12   4  -6   23.47    1.05
 -12   4  -6   22.29    1.01
 -12  -4   6   22.42    1.08
 -12   4  -8    8.71    0.65
  -4  12  -8    8.68    0.65
   4 -12  -8    9.05    0.51
 -12  -4   8    8.71    0.52
 -12   4  -8    8.99    0.72
  12  -4  -8    8.86    0.62
   4  12   8    9.51    0.64
   4 -12  -8    7.74    0.62
 -12  -4   8    8.39    0.46
 -12   4  -8    9.19    0.41
  -4 -12   8    8.28    0.38
 -12  -4   8    9.38    0.72
 -12   4  -8    8.93    0.68
 -12   4 -10    1.75    0.37
 -12  -4  10    1.30    0.22
  -4  12 -10    2.21    0.43
 -12  -4  10    0.96    0.38
 -12   4 -10    1.41    0.38
   4  12  10    1.22    0.34
   4 -12 -10    1.47    0.40
 -12  -4  10    1.19    0.22
  -4  12 -10    0.96    0.35
   4 -12 -10    1.16    0.23
   4 -12 -12    2.88    0.31
  -4  12 -12    2.99    0.50
  -4  12 -12    3.43    0.46
 -12  -4  12    2.83    0.45
 -12  -4  12    2.33    0.29
 -12   4 -12    3.36    0.47
   4  12  12    2.15    0.43
   4 -12 -12    1.79    0.38
 -12   4 -12    3.47    0.43
  -4  12 -14    2.86    0.43
  -4  12 -14    3.11    0.53
 -12  -4  14    2.05    0.41
 -12   4 -14    2.23    0.42
   4  12  14    2.52    0.47
 -12  -4  14    2.41    0.31
  12  -4 -14    1.89    0.31
   4 -12 -14    2.23    0.29
 -12  -4  16    2.91    0.47
 -12   4 -16    3.72    0.53
   4  12  16    3.99    0.58
  -4  12 -16    4.15    0.61
 -12   4 -18    2.83    0.59
 -12  -4  18    2.99    0.48
 -12   4 -18    2.31    0.43
   4  12  18    3.31    0.55
  -4  12 -18    2.72    0.55
  -4  12 -20    2.37    0.57
 -12   4 -20    3.28    0.67
 -12   4 -20    3.88    0.56
   4  12  20    3.92    0.65
  -5 -12 -23    1.03    0.41
  12   5 -21    0.22    0.38
  -5 -12 -21    0.47    0.33
 -12   5  21    0.48    0.35
 -12  -5 -19    3.66    0.59
  12   5 -19    2.66    0.55
   5  12 -19    3.28    0.63
  -5 -12 -19    3.24    0.55
  -5  12  19    3.06    0.58
 -12   5  19    3.60    0.58
  12   5 -17    4.65    0.63
 -12  -5 -17    3.98    0.59
  -5 -12 -17    4.26    0.57
   5  12 -17    3.77    0.62
  -5  12  17    4.55    0.65
 -12   5  17    2.87    0.49
  -5 -12 -15    0.26    0.29
 -12  -5 -15    0.44    0.34
  12   5 -15    0.18    0.31
   5  12 -15   -0.03    0.34
  -5  12  15    0.12    0.31
 -12   5  15    0.29    0.28
  12   5 -13    5.24    0.60
 -12   5  13    6.10    0.60
  -5 -12 -13    5.76    0.59
  -5  12  13    5.41    0.61
   5  12 -13    4.79    0.62
   5  12 -13    5.63    0.65
 -12  -5 -13    6.39    0.66
 -12  -5 -11    9.32    0.76
  12   5 -11    9.81    0.75
  -5 -12 -11    9.76    0.72
   5  12 -11    9.68    0.79
  -5  12  11    8.49    0.72
 -12   5  11    9.63    0.71
   5  12 -11   10.66    0.82
   5  12  -9    0.30    0.40
   5  12  -9    0.98    0.35
  -5 -12  -9    0.54    0.29
  12   5  -9    0.09    0.28
 -12   5   9    0.94    0.25
  -5  12   9    0.68    0.32
 -12   5   9    0.77    0.27
 -12  -5  -9    0.61    0.31
   5  12  -7    9.39    0.73
 -12   5   7   11.40    0.68
 -12   5   7   10.72    0.56
  -5 -12  -7   10.06    0.73
  -5 -12  -7   11.14    0.59
  -5  12   7   10.51    0.73
  12   5  -7   10.33    0.74
 -12  -5  -7   11.83    0.78
   5  12  -7    9.96    0.81
   5  12  -5   18.05    0.97
 -12   5   5   18.02    0.76
 -12   5   5   20.20    0.94
  -5 -12  -5   19.93    0.98
  -5 -12  -5   18.81    0.76
  -5  12   5   20.29    0.98
 -12  -5  -5   19.61    0.99
  12  -5   5   20.73    0.90
   5  12  -5   18.50    1.05
   5 -12   3    2.42    0.39
 -12   5   3    2.19    0.28
   5  12  -3    2.05    0.37
 -12  -5  -3    2.41    0.37
 -12   5   3    2.18    0.36
  -5 -12  -3    2.27    0.36
   5  12  -3    3.36    0.55
   5  12  -3    1.55    0.11
  -5 -12  -3    2.28    0.27
 -12  -5  -3    3.46    0.52
  12  -5   3    2.33    0.34
  -5  12   1   14.28    0.52
   5  12  -1   14.27    0.79
 -12   5   1   14.02    0.82
 -12  -5  -1   12.91    0.75
  12  -5   1   14.06    0.65
   5  12  -1   15.26    0.92
 -12  -5  -1   13.91    0.63
   5  12  -1   13.27    0.48
  -5 -12  -1   14.23    0.63
  12  -5   1   15.53    0.75
   5 -12   1   14.52    0.83
 -12  -5  -1   14.39    0.88
  12  -5  -1   14.03    0.59
  -5  12  -1   15.26    0.62
 -12  -5   1   13.85    0.75
 -12   5  -1   14.56    0.86
   5  12   1   14.24    0.58
 -12  -5   1   13.50    0.85
  12  -5  -1   14.87    0.74
   5 -12  -1   14.52    0.81
  -5 -12   1   15.42    0.67
  -5  12  -3    2.85    0.33
 -12  -5   3    2.28    0.33
 -12   5  -3    3.01    0.43
  12  -5  -3    2.38    0.19
   5  12   3    2.57    0.29
  12  -5  -3    2.85    0.37
 -12  -5   3    2.42    0.17
 -12  -5   3    2.00    0.46
   5 -12  -3    2.98    0.43
 -12  -5   5   18.24    0.99
  -5  12  -5   17.81    0.85
 -12   5  -5   18.05    0.99
 -12  -5   5   19.42    0.85
   5  12   5   17.09    0.79
  12  -5  -5   18.25    0.87
 -12  -5   5   17.19    0.63
   5 -12  -5   18.88    0.95
  12   5   5   17.12    0.86
 -12   5  -5   18.36    0.94
 -12  -5   7    9.60    0.72
  -5  12  -7   11.21    0.69
 -12   5  -7   11.33    0.79
 -12  -5   7    9.99    0.57
   5 -12  -7   10.89    0.54
   5  12   7    9.95    0.63
  12  -5  -7    9.96    0.65
 -12  -5   7    9.95    0.50
   5 -12  -7   10.68    0.72
 -12  -5   7   10.85    0.46
  12   5   7    9.25    0.60
 -12   5  -7   10.03    0.68
 -12   5  -9    0.52    0.31
  -5  12  -9    0.73    0.33
 -12  -5   9    0.87    0.21
  12  -5  -9    0.69    0.33
 -12   5  -9    0.92    0.34
   5  12   9    0.59    0.26
   5 -12  -9    0.17    0.29
 -12  -5   9    0.37    0.15
  12   5   9    0.48    0.26
 -12  -5   9    0.40    0.34
   5 -12  -9    1.05    0.20
  -5  12 -11    9.45    0.75
  -5  12 -11   10.95    0.68
   5 -12 -11    9.15    0.51
 -12   5 -11    8.45    0.72
   5  12  11    8.95    0.70
   5 -12 -11    9.24    0.72
 -12  -5  11    9.88    0.51
 -12   5 -11    9.49    0.65
  12   5  11    9.22    0.55
 -12  -5  11    8.21    0.70
   5 -12 -13    5.78    0.41
  -5  12 -13    6.38    0.66
 -12   5 -13    5.65    0.60
   5  12  13    6.13    0.62
   5 -12 -13    5.77    0.61
 -12   5 -13    6.52    0.54
 -12  -5  13    4.63    0.57
  -5  12 -13    6.14    0.52
  -5  12 -15    0.37    0.36
 -12   5 -15    0.42    0.30
   5  12  15   -0.06    0.31
 -12  -5  15    0.50    0.32
  -5  12 -17    3.08    0.56
 -12   5 -17    4.25    0.56
 -12   5 -17    4.23    0.65
   5  12  17    3.45    0.55
 -12  -5  17    3.22    0.48
 -12   5 -19    3.56    0.52
  -5  12 -19    3.33    0.64
 -12   5 -19    2.73    0.61
   5  12  19    3.05    0.57
 -12   5 -21   -0.01    0.31
   5  12  21    0.42    0.36
  -6 -12 -22    0.74    0.39
  12   6 -22    1.10    0.49
 -12  -6 -20    3.12    0.59
  -6  12  20    2.10    0.56
 -12   6  20    1.51    0.43
   6  12 -20    2.39    0.59
  12   6 -20    1.95    0.54
  -6 -12 -20    2.05    0.51
 -12  -6 -18    0.63    0.38
  -6 -12 -18    1.14    0.37
  12   6 -18    1.36    0.44
   6  12 -18    0.55    0.42
  -6  12  18    0.98    0.39
 -12   6  18    1.26    0.40
 -12  -6 -16    1.15    0.41
  -6 -12 -16    0.73    0.32
  12   6 -16    1.04    0.39
   6  12 -16    1.49    0.46
  -6  12  16    0.68    0.36
 -12   6  16    0.99    0.34
 -12  -6 -14    5.73    0.66
  -6 -12 -14    5.54    0.60
   6  12 -14    5.06    0.66
  12   6 -14    4.13    0.58
  -6  12  14    5.33    0.64
 -12   6  14    5.48    0.60
 -12  -6 -12    6.74    0.67
  12   6 -12    6.42    0.66
  -6 -12 -12    7.20    0.66
   6  12 -12    6.30    0.67
  -6  12  12    6.36    0.67
 -12   6  12    7.49    0.67
   6  12 -12    6.89    0.74
 -12  -6 -10   10.77    0.80
  12   6 -10    8.82    0.73
   6  12 -10    9.33    0.77
  -6  12  10    8.86    0.73
 -12   6  10    9.88    0.75
   6  12 -10   10.32    0.83
  -6 -12 -10   11.23    0.79
  12   6  -8    4.15    0.51
 -12   6   8    5.04    0.47
   6  12  -8    2.85    0.54
   6  12  -8    4.71    0.56
 -12  -6  -8    4.19    0.51
  -6 -12  -8    3.74    0.50
  -6  12   8    4.87    0.53
 -12   6   8    4.15    0.48
  12  -6   6    1.83    0.35
   6  12  -6    1.20    0.38
 -12   6   6    1.41    0.23
 -12   6   6    2.15    0.37
   6  12  -6    1.75    0.51
  -6 -12  -6    2.19    0.39
  -6 -12  -6    1.87    0.26
 -12  -6  -6    2.01    0.39
  -6  12   6    1.39    0.34
   6 -12   4    4.93    0.52
 -12   6   4    5.19    0.38
 -12   6   4    4.69    0.49
 -12  -6  -4    4.18    0.47
  -6 -12  -4    4.82    0.51
   6  12  -4    4.83    0.63
   6  12  -4    4.81    0.52
  -6 -12  -4    4.78    0.34
  12  -6   4    5.34    0.48
 -12   6   2    6.28    0.43
   6  12  -2    7.04    0.59
 -12   6   2    6.80    0.58
  -6  12   2    6.32    0.27
  -6 -12  -2    7.02    0.59
 -12  -6  -2    5.48    0.40
   6  12  -2    7.00    0.69
 -12  -6  -2    6.28    0.65
  -6 -12  -2    6.35    0.39
  12  -6   2    6.22    0.51
   6 -12   2    6.62    0.57
 -12  -6  -2    7.29    0.57
  -6  12   0    0.37    0.16
 -12  -6   0    0.33    0.36
 -12   6   0    1.01    0.32
   6  12   0    0.34    0.11
   6  12   0    1.10    0.46
  12   6   0   -0.06    0.33
 -12  -6   0    0.39    0.16
  12  -6   0    0.29    0.26
  -6  12   0    0.96    0.26
  12  -6   0    0.41    0.17
  -6 -12   0    0.45    0.19
 -12  -6   0    0.73    0.25
   6 -12   0    0.47    0.29
  12  -6  -2    6.29    0.36
  -6  12  -2    6.19    0.42
 -12  -6   2    6.81    0.52
 -12   6  -2    4.99    0.53
   6  12   2    6.10    0.37
 -12  -6   2    6.16    0.62
  12  -6  -2    5.95    0.51
  12   6   2    6.30    0.59
   6 -12  -2    5.54    0.54
  -6  12  -2    5.41    0.36
  -6 -12   2    5.90    0.40
 -12  -6   4    4.53    0.55
 -12   6  -4    6.65    0.60
  12  -6  -4    4.98    0.24
 -12  -6   4    4.70    0.44
   6  12   4    5.20    0.40
  12  -6  -4    5.34    0.49
  -6  12  -4    6.12    0.48
 -12  -6   4    5.20    0.27
  -6  12  -4    4.87    0.29
   6 -12  -4    4.71    0.51
  12   6   4    5.26    0.53
 -12   6  -6    2.01    0.40
  -6  12  -6    1.76    0.35
 -12  -6   6    2.08    0.31
 -12   6  -6    1.37    0.36
   6  12   6    1.82    0.30
  12  -6  -6    1.63    0.34
 -12  -6   6    1.42    0.20
 -12  -6   6    1.35    0.16
   6 -12  -6    1.73    0.40
 -12  -6   6    1.78    0.43
  12   6   6    1.45    0.36
  -6  12  -8    3.78    0.50
 -12   6  -8    3.41    0.49
 -12  -6   8    3.57    0.37
   6  12   8    4.36    0.45
 -12   6  -8    3.29    0.45
 -12  -6   8    2.85    0.48
  12  -6  -8    3.98    0.47
 -12  -6   8    3.00    0.24
   6 -12  -8    3.97    0.49
   6 -12  -8    3.63    0.30
  12   6   8    3.41    0.41
 -12   6 -10    9.66    0.65
 -12  -6  10    8.27    0.71
   6 -12 -10    9.10    0.48
  -6  12 -10    8.92    0.73
   6  12  10    9.29    0.68
   6 -12 -10    9.87    0.73
 -12  -6  10   10.02    0.46
 -12   6 -10   10.60    0.81
  12   6  10    8.72    0.58
   6 -12 -12    7.06    0.42
 -12  -6  12    6.68    0.64
 -12   6 -12    6.88    0.67
  -6  12 -12    6.12    0.64
   6  12  12    7.79    0.67
   6 -12 -12    7.77    0.70
  12   6  12    6.74    0.50
 -12   6 -12    7.15    0.56
  -6  12 -12    8.23    0.58
 -12  -6  14    5.37    0.58
 -12   6 -14    5.91    0.64
  -6  12 -14    5.40    0.66
   6  12  14    5.52    0.61
 -12  -6  16    1.15    0.36
 -12   6 -16    1.03    0.36
 -12   6 -16    0.67    0.39
   6  12  16    0.99    0.37
  -6  12 -16    0.62    0.35
  -6  12 -18    0.48    0.39
 -12   6 -18    0.83    0.33
 -12   6 -18    1.49    0.51
   6  12  18    1.22    0.43
 -12   6 -20    1.96    0.45
  -6  12 -20    2.95    0.63
 -12   6 -20    2.65    0.61
   6  12  20    2.48    0.57
  -7 -12 -21    0.31    0.36
  12   7 -21    1.50    0.53
 -12  -7 -19    0.83    0.40
  12   7 -19    0.69    0.42
  -7 -12 -19    0.29    0.29
  -7  12  19    1.44    0.46
 -12   7  19    0.51    0.34
   7  12 -19    0.68    0.46
  -7 -12 -17    0.72    0.33
  -7  12  17    1.55    0.45
 -12  -7 -17    1.16    0.42
  12   7 -17    0.57    0.35
   7  12 -17    1.32    0.48
 -12   7  17    0.20    0.29
 -12  -7 -15    2.58    0.49
  12   7 -15    2.63    0.53
  -7 -12 -15    2.35    0.46
   7  12 -15    2.28    0.52
  -7  12  15    2.20    0.49
 -12   7  15    1.87    0.42
  12   7 -13    1.24    0.42
   7  12 -13    0.83    0.37
  -7 -12 -13    0.92    0.33
   7  12 -13    1.14    0.48
  -7  12  13    0.63    0.35
 -12   7  13    1.22    0.36
 -12  -7 -13    0.98    0.39
 -12  -7 -11    1.23    0.38
   7  12 -11    0.45    0.33
  -7 -12 -11    0.44    0.30
  12   7 -11    0.90    0.36
  -7  12  11    1.49    0.39
 -12   7  11    0.88    0.29
   7  12 -11    1.34    0.46
  12   7  -9    3.36    0.49
 -12  -7  -9    3.68    0.50
  -7 -12  -9    2.75    0.44
   7  12  -9    2.86    0.48
  -7  12   9    2.77    0.45
 -12   7   9    2.83    0.43
   7  12  -9    3.28    0.55
  12   7  -7    7.03    0.65
 -12  -7  -7    7.58    0.66
  -7 -12  -7    7.76    0.67
   7  12  -7    7.53    0.74
  -7  12   7    8.41    0.70
   7  12  -7    7.80    0.68
  12  -7   5    3.29    0.42
   7 -12   5    3.70    0.48
 -12   7   5    4.72    0.48
   7  12  -5    2.76    0.54
  -7 -12  -5    4.58    0.51
   7  12  -5    3.52    0.46
  -7 -12  -5    3.83    0.30
  -7  12   5    4.11    0.48
 -12  -7  -5    3.70    0.46
   7 -12   3    1.67    0.37
 -12   7   3    1.62    0.23
 -12   7   3    0.89    0.33
 -12  -7  -3    0.69    0.29
   7  12  -3    1.11    0.48
   7  12  -3    1.10    0.34
  -7 -12  -3    1.10    0.32
  -7 -12  -3    1.61    0.21
  12  -7   3    1.37    0.33
 -12  -7  -1    1.93    0.47
 -12  -7  -1    1.73    0.34
   7  12  -1    1.53    0.47
  -7 -12  -1    1.49    0.34
 -12  -7  -1    1.26    0.21
  -7  12   1    1.06    0.16
  12   7  -1    1.46    0.44
  -7 -12  -1    1.41    0.21
  -7  12   1    1.50    0.32
  12  -7   1    1.15    0.33
 -12   7   1    1.06    0.30
   7 -12   1    1.51    0.36
  12  -7  -1    1.38    0.22
  -7  12  -1    1.42    0.23
 -12  -7   1    1.25    0.29
 -12  -7   1    1.42    0.19
   7  12   1    1.66    0.47
   7  12   1    1.53    0.18
 -12   7  -1    1.30    0.35
 -12  -7   1    1.37    0.46
  12  -7  -1    1.08    0.31
  -7  12  -1    0.94    0.25
  12   7   1    1.09    0.37
   7 -12  -1    1.40    0.36
  -7 -12   1    1.38    0.23
 -12  -7   3    0.51    0.37
  12  -7  -3    1.17    0.16
  -7  12  -3    1.65    0.29
 -12   7  -3    1.41    0.35
 -12  -7   3    1.56    0.31
 -12  -7   3    1.14    0.15
   7  12   3    1.45    0.23
   7  12   3    1.83    0.48
  12  -7  -3    0.92    0.32
  -7  12  -3    1.20    0.22
   7 -12  -3    1.06    0.35
 -12  -7   3    0.77    0.08
  12   7   3    0.95    0.38
  -7  12  -5    4.69    0.45
 -12  -7   5    4.16    0.42
 -12   7  -5    4.31    0.54
   7  12   5    4.22    0.38
 -12  -7   5    4.32    0.56
 -12  -7   5    3.72    0.21
  12  -7  -5    4.65    0.49
   7 -12  -5    4.32    0.51
  12   7   5    4.17    0.51
 -12   7  -7    6.85    0.65
  -7  12  -7    6.99    0.59
   7 -12  -7    6.95    0.41
 -12  -7   7    5.81    0.50
   7  12   7    7.17    0.54
  12  -7  -7    7.78    0.62
   7 -12  -7    8.50    0.68
 -12  -7   7    7.39    0.67
 -12   7  -7    7.86    0.62
  12   7   7    6.49    0.56
  12   7   9    2.73    0.40
   7 -12  -9    2.84    0.26
  -7  12  -9    2.88    0.44
 -12   7  -9    2.93    0.46
   7  12   9    2.74    0.40
  12  -7  -9    3.24    0.45
 -12   7  -9    2.95    0.42
   7 -12  -9    3.04    0.46
 -12  -7   9    3.19    0.48
  -7  12 -11    1.06    0.36
 -12   7 -11    1.20    0.38
  12   7  11    0.46    0.26
 -12   7 -11    0.61    0.28
   7  12  11    1.06    0.32
  -7  12 -11    1.48    0.35
   7 -12 -11    1.68    0.39
 -12  -7  11    0.78    0.35
  -7  12 -13    1.46    0.44
 -12   7 -13    0.56    0.32
   7 -12 -13    1.15    0.39
   7  12  13    0.98    0.32
 -12  -7  13    1.50    0.41
 -12   7 -13    1.95    0.34
 -12   7 -15    1.89    0.40
  -7  12 -15    1.98    0.48
 -12   7 -15    2.36    0.53
   7  12  15    2.20    0.45
 -12  -7  15    2.50    0.44
 -12   7 -17    0.76    0.34
  -7  12 -17    1.84    0.51
 -12   7 -17    0.83    0.43
   7  12  17    1.69    0.46
 -12   7 -19    1.16    0.40
  -7  12 -19    0.15    0.37
 -12   7 -19    1.27    0.51
   7  12  19    0.82    0.40
 -12   7 -21    0.27    0.33
  -8 -12 -20    1.51    0.46
  12   8 -20    0.80    0.44
 -12   8  20    1.84    0.51
 -12  -8 -18    1.13    0.45
  -8 -12 -18    0.64    0.33
   8  12 -18    0.64    0.41
  12   8 -18    1.18    0.45
  -8  12  18    1.23    0.42
 -12   8  18    0.89    0.39
 -12  -8 -16    0.83    0.40
  -8 -12 -16    0.37    0.32
  12   8 -16    1.52    0.47
   8  12 -16    0.61    0.41
  -8  12  16    0.90    0.40
 -12   8  16    0.89    0.36
  -8 -12 -14    1.73    0.41
 -12  -8 -14    1.26    0.41
  12   8 -14    1.03    0.41
   8  12 -14    1.63    0.47
  -8  12  14    1.64    0.45
 -12   8  14    0.71    0.31
 -12  -8 -12    1.15    0.37
   8  12 -12    2.41    0.51
  12   8 -12    1.43    0.44
  -8  12  12    0.85    0.35
 -12   8  12    1.37    0.37
   8  12 -12    1.75    0.52
  -8 -12 -12    0.90    0.32
   8  12 -10    4.16    0.58
 -12  -8 -10    3.95    0.54
  -8 -12 -10    4.43    0.55
  12   8 -10    4.72    0.58
  -8  12  10    4.37    0.57
 -12   8  10    4.75    0.59
   8  12 -10    3.99    0.62
   8  12  -8    1.29    0.39
 -12  -8  -8    2.19    0.43
  -8 -12  -8    2.24    0.42
  12   8  -8    1.77    0.42
  -8  12   8    2.24    0.42
 -12   8   8    1.49    0.37
   8  12  -8    1.93    0.51
  12  -8   6    0.62    0.29
   8  12  -6    0.23    0.45
   8  12  -6    0.95    0.37
 -12  -8  -6    0.60    0.28
  -8 -12  -6    1.02    0.32
  -8  12   6    0.46    0.29
 -12   8   4   10.22    0.73
 -12  -8  -4   10.94    0.76
  -8 -12  -4   11.31    0.78
  -8 -12  -4   10.09    0.44
  12   8  -4    9.82    0.80
   8  12  -4    9.43    0.81
  12  -8   4   10.27    0.70
   8 -12   4    9.55    0.72
   8  12  -4   10.18    0.76
 -12   8   2    2.48    0.27
  -8  12   2    1.80    0.14
 -12   8   2    2.56    0.42
   8  12  -2    2.76    0.54
 -12  -8  -2    2.18    0.38
  -8 -12  -2    2.84    0.41
 -12  -8  -2    2.55    0.28
  -8 -12  -2    2.34    0.22
  12   8  -2    1.72    0.44
  12  -8   2    2.89    0.41
   8 -12   2    2.45    0.44
  12  -8   0    1.85    0.26
 -12   8   0    1.87    0.38
  -8  12   0    2.92    0.26
 -12  -8   0    2.86    0.41
   8  12   0    2.77    0.53
  -8 -12   0    2.14    0.37
  -8 -12   0    2.75    0.24
  12  -8   0    2.41    0.39
  12   8   0    3.06    0.50
   8 -12   0    2.30    0.42
  -8 -12   2    2.12    0.24
  12  -8  -2    2.57    0.25
 -12  -8   2    3.86    0.56
 -12   8  -2    3.21    0.48
  -8  12  -2    2.12    0.29
 -12  -8   2    2.82    0.38
   8  12   2    2.77    0.52
  12  -8  -2    2.74    0.41
  -8  12  -2    2.54    0.32
   8 -12  -2    2.64    0.43
  12   8   2    2.17    0.46
   8  12   4   10.20    0.79
 -12  -8   4    9.13    0.77
 -12  -8   4    9.63    0.66
   8  12   4   10.45    0.55
  -8  12  -4   10.37    0.62
 -12   8  -4   10.00    0.77
  12  -8  -4   11.64    0.74
   8 -12  -4   10.77    0.75
  12   8   4   10.18    0.75
  12   8   6    0.28    0.31
 -12  -8   6    0.58    0.37
 -12   8  -6    0.62    0.33
  -8  12  -6    0.30    0.25
 -12  -8   6    0.36    0.19
   8  12   6    0.22    0.19
   8  12   6    1.14    0.43
  12  -8  -6    0.08    0.27
   8 -12  -6    0.26    0.29
 -12   8  -8    2.28    0.38
  -8  12  -8    1.68    0.36
 -12   8  -8    2.69    0.46
   8 -12  -8    1.58    0.19
   8  12   8    1.62    0.32
  12  -8  -8    1.81    0.37
   8 -12  -8    1.73    0.36
 -12  -8   8    2.04    0.44
  12   8   8    1.89    0.38
  12   8  10    4.23    0.48
 -12   8 -10    3.98    0.53
  -8  12 -10    3.80    0.51
   8  12  10    3.76    0.49
 -12  -8  10    4.11    0.56
  12  -8 -10    3.76    0.50
   8 -12 -10    3.75    0.51
 -12   8 -10    5.02    0.49
 -12   8 -12    1.53    0.44
  12   8  12    0.28    0.27
 -12   8 -12    1.48    0.40
 -12  -8  12    1.70    0.41
  -8  12 -12    0.68    0.35
   8  12  12    1.19    0.35
   8 -12 -12    1.64    0.39
 -12   8 -12    1.75    0.33
 -12  -8  14    1.66    0.40
 -12   8 -14    1.06    0.38
  -8  12 -14    1.64    0.45
 -12   8 -14    1.56    0.45
   8  12  14    1.82    0.43
 -12   8 -16    1.88    0.44
  -8  12 -16    1.64    0.48
 -12   8 -16    0.70    0.44
   8  12  16    0.51    0.36
 -12   8 -18    0.66    0.37
  -8  12 -18    1.57    0.49
 -12   8 -18    1.82    0.52
   8  12  18    1.07    0.45
 -12   8 -20    2.01    0.46
   8  12  20    1.64    0.48
  12   9 -19    2.52    0.59
  -9 -12 -19    2.56    0.55
 -12   9  19    3.16    0.58
  -9 -12 -17    0.87    0.38
  12   9 -17    0.75    0.43
   9  12 -17    0.20    0.40
 -12  -9 -17    0.61    0.38
  -9  12  17    0.51    0.38
 -12   9  17    0.66    0.36
 -12  -9 -15    3.17    0.55
  12   9 -15    3.58    0.61
  -9 -12 -15    2.76    0.52
   9  12 -15    2.57    0.56
  -9  12  15    4.06    0.59
 -12   9  15    2.54    0.51
   9  12 -13   -0.26    0.37
  -9 -12 -13   -0.21    0.29
 -12  -9 -13    0.23    0.31
  -9  12  13    0.17    0.32
 -12   9  13    0.00    0.27
  12   9 -13    0.14    0.36
   9  12 -11    7.77    0.77
  12   9 -11    5.40    0.65
 -12  -9 -11    4.90    0.61
  -9 -12 -11    5.86    0.64
  -9  12  11    5.96    0.66
 -12   9  11    6.46    0.67
   9  12 -11    5.02    0.68
 -12  -9  -9    1.08    0.42
  12   9  -9    1.31    0.40
   9  12  -9    1.49    0.42
  -9 -12  -9    1.60    0.40
  -9  12   9    2.28    0.46
 -12   9   9    1.68    0.40
   9  12  -9    1.65    0.50
  12  -9   7    1.79    0.37
 -12  -9  -7    1.48    0.38
  -9 -12  -7    1.95    0.40
  12   9  -7    1.70    0.41
   9  12  -7    1.39    0.40
  -9  12   7    2.04    0.41
   9  12  -7    1.99    0.48
   9  12  -5   14.64    0.93
 -12  -9  -5   14.58    0.92
  -9 -12  -5   14.92    0.92
  12   9  -5   14.05    0.97
   9  12  -5   12.88    0.95
  12  -9   5   13.72    0.84
   9 -12   5   13.25    0.85
   9  12  -3    4.54    0.64
 -12  -9  -3    5.66    0.58
  -9 -12  -3    6.76    0.63
  12   9  -3    6.51    0.67
  12  -9   3    6.24    0.58
   9 -12   3    6.49    0.62
 -12   9   1    3.42    0.48
  -9  12   1    3.74    0.25
   9  12  -1    4.08    0.58
 -12  -9  -1    4.70    0.49
  -9 -12  -1    3.57    0.47
  -9 -12  -1    3.85    0.24
  12   9  -1    3.73    0.54
  12  -9   1    4.81    0.50
   9 -12   1    4.79    0.54
 -12   9  -1    3.05    0.50
  -9  12  -1    4.77    0.36
 -12  -9   1    4.60    0.49
   9  12   1    3.87    0.57
  -9 -12   1    3.95    0.48
  -9 -12   1    4.32    0.28
  12  -9  -1    4.53    0.49
   9 -12  -1    4.59    0.52
  12   9   1    3.77    0.54
  12   9   3    6.26    0.63
 -12   9  -3    5.49    0.63
  -9  12  -3    5.85    0.46
 -12  -9   3    5.70    0.53
   9  12   3    6.39    0.67
  12  -9  -3    6.62    0.59
   9 -12  -3    5.94    0.59
  -9 -12   3    5.62    0.36
 -12   9  -5   14.51    0.96
   9  12   5   13.57    0.90
  -9  12  -5   13.96    0.76
 -12  -9   5   13.44    0.81
  12  -9  -5   13.44    0.84
   9 -12  -5   14.96    0.90
 -12  -9   5   14.21    0.94
  12   9   5   12.36    0.84
 -12  -9   7    1.47    0.40
  12   9   7    1.31    0.36
 -12   9  -7    2.65    0.47
  -9  12  -7    2.28    0.39
   9 -12  -7    1.70    0.19
 -12  -9   7    1.23    0.28
   9  12   7    1.79    0.45
 -12   9  -7    2.12    0.40
  12  -9  -7    1.88    0.40
   9 -12  -7    2.59    0.43
  12   9   9    0.78    0.35
 -12   9  -9    2.34    0.39
 -12   9  -9    1.25    0.40
  -9  12  -9    1.42    0.38
 -12   9  -9    1.81    0.43
   9  12   9    1.53    0.34
   9  12   9    1.86    0.48
  12  -9  -9    1.39    0.38
 -12  -9   9    2.15    0.45
   9 -12  -9    1.14    0.35
 -12   9 -11    5.99    0.65
 -12  -9  11    5.60    0.60
  -9  12 -11    4.96    0.57
 -12   9 -11    5.32    0.64
   9  12  11    5.55    0.58
  12  -9 -11    6.82    0.66
   9 -12 -11    6.11    0.66
  12   9  11    5.60    0.56
 -12   9 -11    5.53    0.50
 -12  -9  13    0.22    0.32
 -12   9 -13    0.19    0.35
 -12   9 -13   -0.26    0.30
  -9  12 -13    0.11    0.33
   9 -12 -13    0.13    0.29
   9  12  13    0.23    0.33
 -12   9 -15    3.27    0.54
  -9  12 -15    2.51    0.50
   9  12  15    2.76    0.48
 -12   9 -15    1.95    0.48
 -12   9 -17    1.37    0.50
 -12   9 -17    0.89    0.40
  -9  12 -17    1.01    0.45
   9  12  17    1.35    0.43
  -9  12 -19    2.82    0.62
 -12   9 -19    1.48    0.54
 -12   9 -19    2.52    0.48
  12  10 -18    0.03    0.42
 -12  10  18   -0.14    0.38
 -12 -10 -18   -0.40    0.38
 -10 -12 -18    0.30    0.35
 -12 -10 -16    3.40    0.60
  10  12 -16    5.23    0.73
 -10  12  16    6.31    0.74
 -12  10  16    5.31    0.69
  12  10 -16    4.95    0.72
 -10 -12 -16    5.76    0.70
 -12 -10 -14    5.26    0.68
  12  10 -14    4.73    0.67
  10  12 -14    4.25    0.67
 -10  12  14    4.59    0.63
 -12  10  14    5.65    0.68
 -10 -12 -14    5.47    0.68
 -12 -10 -12    0.05    0.29
  12  10 -12   -0.35    0.34
  10  12 -12   -0.34    0.35
 -10 -12 -12    0.03    0.29
 -10  12  12    0.27    0.33
 -12  10  12   -0.10    0.29
  10  12 -10   14.48    1.02
 -12 -10 -10   16.11    1.05
 -10 -12 -10   16.38    1.05
  10  12 -10   14.72    1.08
 -10  12  10   18.41    1.12
 -12  10  10   15.94    1.03
  12  10 -10   15.66    1.05
  12  10  -8    6.07    0.67
  12 -10   8    7.22    0.64
 -10 -12  -8    6.25    0.65
  10  12  -8    5.78    0.65
 -12 -10  -8    6.62    0.66
 -10  12   8    6.82    0.68
 -12  10   8    7.81    0.70
  10  12  -8    7.33    0.77
  12 -10   6    2.60    0.42
  10 -12   6    3.24    0.48
  10  12  -6    2.72    0.48
 -12 -10  -6    2.98    0.48
 -10 -12  -6    2.41    0.44
  12  10  -6    2.14    0.52
  10  12  -6    3.17    0.54
 -12 -10  -4   12.90    0.88
 -10 -12  -4   13.44    0.89
  12  10  -4   12.17    0.93
  10  12  -4   11.38    0.90
  12 -10   4   13.93    0.86
  10 -12   4   13.28    0.85
 -12 -10  -2    8.42    0.69
 -10 -12  -2    8.58    0.70
  12  10  -2    7.60    0.74
  10  12  -2    8.23    0.77
  12 -10   2    7.22    0.63
  10 -12   2    8.91    0.70
 -10  12   0    8.97    0.46
 -12 -10   0    8.30    0.69
 -10 -12   0    8.22    0.68
  12  10   0    7.53    0.73
  12 -10   0    8.40    0.67
  10 -12   0    8.32    0.68
  10  12   0    8.03    0.77
 -10  12  -2    7.78    0.51
 -12  10  -2    8.89    0.75
  10  12   2    6.62    0.70
 -12 -10   2    7.68    0.64
 -12  10  -2    7.67    0.54
 -10 -12   2    6.91    0.63
  12 -10  -2    7.90    0.65
  10 -12  -2    6.98    0.64
  12  10   2    7.24    0.69
 -12  10  -4   13.83    0.95
 -10  12  -4   13.26    0.73
 -12 -10   4   11.68    0.78
 -12  10  -4   12.37    0.74
  12 -10  -4   14.59    0.88
  10 -12  -4   14.67    0.90
  12  10   4   11.52    0.85
  10  12   4   12.36    0.90
 -12  10  -6    2.56    0.48
 -12  10  -6    3.35    0.44
  10  12   6    2.96    0.52
 -10  12  -6    2.73    0.41
 -12 -10   6    2.46    0.39
  12 -10  -6    2.21    0.42
  12  10   6    2.86    0.48
  10 -12  -6    3.42    0.51
  12  10   8    6.37    0.62
 -12  10  -8    6.18    0.67
 -12  10  -8    6.19    0.62
 -10  12  -8    5.50    0.58
  10  12   8    7.17    0.69
  12 -10  -8    6.97    0.65
  10 -12  -8    6.22    0.63
 -12  10  -8    7.56    0.60
 -12  10 -10   15.82    1.05
 -10  12 -10   15.01    0.95
 -12  10 -10   14.74    0.97
  12 -10 -10   15.02    0.96
  10 -12 -10   15.21    0.98
  10  12  10   12.89    0.90
 -12 -10  10   14.91    0.95
 -12  10 -10   15.64    0.84
  12  10  10   14.88    0.92
 -12 -10  12    0.91    0.40
 -12  10 -12    0.09    0.29
  12  10  12    0.15    0.31
 -10  12 -12    0.18    0.33
 -12  10 -12    0.08    0.32
  10  12  12    0.89    0.40
  12 -10 -12    0.22    0.30
  10 -12 -12   -0.05    0.30
 -12  10 -14    4.44    0.60
 -10  12 -14    3.90    0.60
 -12  10 -14    4.13    0.64
  10  12  14    3.75    0.56
 -12 -10  14    5.49    0.61
 -12  10 -16    4.84    0.65
 -10  12 -16    4.46    0.67
 -12  10 -16    5.40    0.73
 -10  12 -18   -0.34    0.40
 -12  10 -18   -0.36    0.40
 -12 -11 -17    5.01    0.69
  12  11 -17    3.66    0.67
  11  12 -17    3.03    0.62
 -11  12  17    4.15    0.66
 -12  11  17    3.60    0.63
 -11 -12 -17    2.78    0.55
 -12 -11 -15   10.08    0.92
 -11 -12 -15   10.36    0.93
  12  11 -15    7.77    0.85
  11  12 -15    8.79    0.91
 -11  12  15   10.65    0.94
 -12  11  15   10.79    0.95
  12  11 -13    3.22    0.58
  11  12 -13    3.54    0.59
 -12 -11 -13    3.64    0.57
 -11 -12 -13    3.66    0.61
 -11  12  13    4.10    0.60
 -12  11  13    2.85    0.52
 -12 -11 -11    6.73    0.72
 -11 -12 -11    5.52    0.65
  11  12 -11    5.41    0.68
 -12  11  11    6.91    0.72
 -11  12  11    6.36    0.69
  12  11 -11    5.63    0.69
  12  11  -9   10.60    0.88
  11  12  -9    8.59    0.80
 -12 -11  -9    9.29    0.82
 -11 -12  -9   10.24    0.85
  11  12  -9   10.11    0.91
 -11  12   9   10.26    0.84
 -12  11   9   10.37    0.85
  12  11  -7   11.10    0.87
  11  12  -7   11.35    0.89
 -12 -11  -7   13.71    0.94
 -11 -12  -7   12.49    0.91
  12  11  -7   11.81    0.97
  11  12  -7   12.95    1.00
 -11  12   7   13.00    0.93
  12 -11   7   11.30    0.82
  11 -12   7   12.21    0.86
 -11 -12  -5   23.65    1.24
 -12 -11  -5   24.05    1.25
  12  11  -5   23.67    1.31
  11  12  -5   24.28    1.33
  12 -11   5   24.92    1.20
  11 -12   5   23.74    1.19
  11  12  -3    3.35    0.57
 -12 -11  -3    3.53    0.50
 -11 -12  -3    3.29    0.48
  12  11  -3    3.33    0.58
  12 -11   3    3.42    0.47
  11 -12   3    2.94    0.49
 -11 -12  -1   11.82    0.83
 -12 -11  -1   13.88    0.88
  12  11  -1   11.86    0.91
  11  12  -1   12.20    0.93
  12 -11   1   12.50    0.83
  11 -12   1   13.23    0.87
 -11  12  -1   14.45    0.66
 -12 -11   1   12.34    0.84
 -11 -12   1   12.62    0.85
 -12  11  -1   12.55    0.65
  12 -11  -1   13.20    0.86
  11 -12  -1   13.13    0.86
  12  11   1   13.52    0.95
  11  12   1   10.89    0.90
  11  12   3    2.72    0.51
 -11  12  -3    3.01    0.37
 -12  11  -3    3.26    0.38
 -12 -11   3    3.43    0.45
 -11 -12   3    2.98    0.44
  12 -11  -3    2.40    0.44
  11 -12  -3    3.30    0.49
  12  11   3    2.96    0.51
 -11  12  -5   23.42    1.05
 -12  11  -5   22.46    1.05
 -12 -11   5   21.41    1.11
 -11 -12   5   20.84    1.10
  12 -11  -5   22.88    1.15
  11 -12  -5   25.17    1.21
  12  11   5   22.47    1.19
  11  12   5   20.47    1.16
 -11  12  -7   11.89    0.79
 -12  11  -7   12.02    0.79
  12 -11  -7   11.26    0.83
  11 -12  -7   11.37    0.83
  12  11   7   11.10    0.85
  11  12   7   12.68    0.89
  11  12   9    8.87    0.78
 -11  12  -9   10.04    0.77
 -12  11  -9    9.14    0.77
  12 -11  -9   10.64    0.82
  11 -12  -9   11.00    0.85
 -12  11  -9   11.15    0.73
  12  11   9    9.16    0.76
  12  11  11    5.96    0.64
 -11  12 -11    6.30    0.66
 -12  11 -11    5.68    0.65
  11  12  11    6.22    0.67
  12 -11 -11    6.20    0.67
  11 -12 -11    5.86    0.65
 -11  12 -13    3.88    0.59
 -12  11 -13    2.91    0.54
  11  12  13    3.69    0.55
  11 -12 -13    3.78    0.58
 -11  12 -15    9.65    0.90
 -12  11 -15   10.13    0.93
 -11  12 -17    3.62    0.64
 -12  11 -17    2.38    0.56
 -12 -12 -16    6.87    0.80
  12  12 -16    6.60    0.84
 -12  12  16    7.08    0.82
  12  12 -14    3.80    0.62
 -12 -12 -14    4.31    0.63
 -12  12  14    3.23    0.56
  12  12 -12    8.26    0.84
 -12 -12 -12    8.32    0.81
 -12  12  12    8.30    0.81
 -12 -12 -10   26.16    1.43
  12  12 -10   24.28    1.38
 -12  12  10   28.29    1.48
  12 -12   8    2.92    0.50
 -12 -12  -8    3.69    0.55
  12  12  -8    3.45    0.56
 -12  12   8    4.42    0.59
  12  12  -8    3.07    0.59
  12 -12   6    1.88    0.41
 -12 -12  -6    1.68    0.41
  12  12  -6    1.82    0.49
 -12 -12  -4   37.35    1.63
  12  12  -4   36.82    1.70
  12 -12   4   39.18    1.61
 -12 -12  -2    7.92    0.71
  12  12  -2    9.39    0.84
  12 -12   2    8.97    0.74
  12  12   0    0.29    0.39
 -12 -12   0    0.64    0.30
  12 -12   0    0.62    0.32
 -12  12  -2    7.41    0.53
 -12 -12   2    9.75    0.75
  12 -12  -2    8.39    0.72
  12  12   2    7.87    0.77
 -12  12  -4   35.54    1.34
 -12 -12   4   33.17    1.48
  12 -12  -4   37.49    1.56
  12  12   4   36.28    1.59
  12  12   6    1.83    0.48
 -12  12  -6    2.11    0.38
 -12 -12   6    1.80    0.36
  12 -12  -6    2.98    0.48
 -12  12  -8    4.51    0.54
  12  12   8    3.14    0.55
  12 -12  -8    3.27    0.52
 -12  12 -10   26.56    1.33
  12 -12 -10   25.54    1.34
  12  12  10   26.02    1.31
 -12  12 -12    7.09    0.73
  12 -12 -12    8.15    0.78
  12  12  12    8.23    0.75
 -12  12 -14    3.88    0.61
 -12  12 -16    5.22    0.71
 -13   0   1    6.13    0.45
   0  13  -1    7.36    0.50
   0 -13  -1    6.93    0.46
  13   0  -1    7.36    0.44
  13   0  -1    7.27    0.40
  13   0   1    7.36    0.39
   0  13   1    6.47    0.45
   0  13  -1    6.82    0.44
   0  13   1    6.90    0.45
   0 -13  -1    6.18    0.38
 -13   0   1    6.48    0.62
   0 -13  -1    7.12    0.54
 -13   0  -1    6.67    0.63
   0 -13   1    6.52    0.51
 -13   0  -1    7.75    0.52
 -13   0   3    1.93    0.25
   0 -13   3    2.27    0.35
 -13   0  -3    2.11    0.34
 -13   0   3    1.15    0.40
   0 -13  -3    1.85    0.25
   0  13  -3    1.76    0.30
  13   0  -3    1.72    0.24
   0  13   3    1.76    0.28
 -13   0   3    2.00    0.25
   0 -13  -3    1.92    0.32
   0 -13  -3    2.09    0.33
  13   0   3    1.99    0.23
 -13   0  -3    1.51    0.41
 -13   0   5   26.68    0.88
   0  13  -5   25.03    1.09
   0 -13  -5   26.07    0.88
 -13   0  -5   26.20    1.19
   0 -13  -5   25.71    1.08
   0  13   5   26.21    1.06
   0 -13  -5   28.10    1.11
 -13   0   5   26.80    1.25
   0 -13  -5   26.02    1.04
  13   0   5   26.40    0.88
 -13   0  -5   27.54    0.98
 -13   0  -5   26.42    1.14
 -13   0  -7    1.07    0.31
 -13   0   7    1.26    0.17
   0 -13  -7    1.69    0.23
   0  13  -7    1.36    0.37
 -13   0  -7    1.83    0.43
   0 -13  -7    1.41    0.29
   0  13  -7    1.24    0.46
 -13   0  -7    2.04    0.30
 -13   0   7    1.55    0.28
 -13   0   7    1.43    0.39
   0  13   7    1.34    0.30
   0 -13  -7    1.72    0.35
   0 -13  -7    1.40    0.39
 -13   0  -9    1.28    0.35
 -13   0   9    1.49    0.16
   0  13  -9    2.22    0.42
   0 -13  -9    2.12    0.33
   0  13  -9    1.54    0.47
 -13   0  -9    2.41    0.47
 -13   0   9    1.34    0.25
   0 -13  -9    1.37    0.32
   0  13  -9    1.66    0.25
   0  13   9    1.92    0.36
 -13   0   9    1.80    0.30
   0 -13  -9    1.47    0.41
  13   0 -11    3.57    0.43
   0  13 -11    4.15    0.52
   0  13 -11    4.08    0.53
 -13   0  11    4.02    0.36
   0 -13 -11    4.44    0.46
   0 -13 -11    3.91    0.46
   0  13  11    4.75    0.53
 -13   0  11    4.27    0.43
   0 -13 -11    4.41    0.58
 -13   0 -11    4.29    0.54
   0  13 -13    1.69    0.46
  13   0 -13    0.97    0.32
   0 -13 -13    1.33    0.31
   0  13 -13    1.31    0.39
   0  13  13    1.77    0.41
 -13   0  13    0.86    0.26
   0 -13 -13    2.21    0.52
 -13   0 -13    1.91    0.44
  13   0 -15    1.05    0.34
   0 -13 -15    1.42    0.32
   0  13 -15    1.87    0.46
   0  13  15    1.43    0.43
 -13   0  15    1.17    0.31
   0 -13 -15    1.09    0.50
   0  13 -15    1.53    0.42
 -13   0 -15    1.18    0.38
  13   0 -17    0.00    0.29
   0  13 -17    0.34    0.33
   0  13  17    0.73    0.36
 -13   0  17    0.34    0.25
 -13   0 -17    0.53    0.33
   0 -13 -17   -0.12    0.44
   0 -13 -17   -0.23    0.23
 -13   0 -17    0.36    0.33
  13   0 -19    4.89    0.59
   0 -13 -19    4.09    0.51
   0  13  19    5.73    0.72
 -13   0 -19    4.56    0.60
 -13   0  19    4.36    0.55
   0  13 -19    4.41    0.68
   0 -13 -19    5.93    0.80
 -13   0 -19    3.97    0.62
 -13   0 -21   -0.08    0.29
   0 -13 -21   -0.46    0.53
 -13   1  22    1.48    0.41
 -13  -1 -22    1.50    0.43
   1  13 -20    3.36    0.64
  -1 -13 -20    5.00    0.58
  -1  13  20    5.34    0.73
 -13   1  20    4.39    0.59
 -13  -1 -20    4.14    0.58
  13   1 -20    4.25    0.58
  -1 -13 -20    3.90    0.73
 -13  -1 -20    4.29    0.65
  -1 -13 -18    2.78    0.43
   1  13 -18    2.89    0.57
  -1  13  18    3.77    0.59
 -13   1  18    3.11    0.47
  -1 -13 -18    4.34    0.73
 -13  -1 -18    2.94    0.52
  13   1 -18    4.05    0.56
  -1 -13 -16    0.77    0.28
   1  13 -16    0.90    0.40
  13   1 -16    1.43    0.40
  -1  13  16    1.57    0.41
 -13   1  16    1.17    0.34
   1  13 -16    2.13    0.47
  -1 -13 -16    2.60    0.61
 -13  -1 -16    1.98    0.48
  13   1 -14    6.71    0.62
   1  13 -14    6.79    0.72
  -1  13  14    6.92    0.69
 -13   1  14    6.94    0.61
  -1 -13 -14    7.01    0.60
   1  13 -14    8.53    0.74
  -1 -13 -14    8.22    0.79
 -13  -1 -14    6.44    0.68
 -13  -1 -12    1.02    0.36
   1  13 -12    1.90    0.46
   1  13 -12    2.24    0.46
  -1 -13 -12    1.34    0.31
 -13   1  12    1.53    0.24
  -1  13  12    1.41    0.35
  13   1 -12    1.43    0.34
 -13   1  12    1.52    0.32
  -1 -13 -12    2.17    0.52
   1  13 -10   10.82    0.81
  -1 -13 -10   11.65    0.72
 -13   1  10   10.17    0.60
  -1 -13 -10   10.67    0.70
  -1  13  10   11.31    0.77
 -13   1  10   11.38    0.70
  -1 -13 -10   11.18    0.82
   1  13 -10   11.87    0.83
 -13  -1 -10   10.46    0.80
   1  13  -8    9.01    0.74
  -1 -13  -8    8.60    0.50
   1  13  -8    9.20    0.70
 -13  -1  -8    9.05    0.75
  -1 -13  -8    8.83    0.62
 -13   1   8    8.72    0.57
  -1 -13  -8    8.82    0.62
  -1  13   8    7.88    0.61
 -13   1   8    8.60    0.58
  -1 -13  -8    9.14    0.72
   1  13  -8    8.92    0.52
 -13  -1  -8    9.34    0.70
 -13   1   8    7.55    0.32
   1  13  -6   16.28    0.90
 -13  -1  -6   18.54    0.76
   1  13  -6   18.15    1.01
  -1 -13  -6   17.37    0.88
 -13   1   6   16.90    0.85
  -1 -13  -6   17.56    0.72
  -1 -13  -6   17.53    0.84
  -1  13   6   17.56    0.88
 -13  -1  -6   18.85    1.01
  -1 -13  -6   17.67    0.89
  13  -1   6   17.25    0.72
 -13  -1  -6   17.84    0.95
 -13   1   6   16.70    0.60
 -13  -1  -4    3.19    0.40
   1  13  -4    3.31    0.41
  -1 -13  -4    3.13    0.32
 -13   1   4    3.47    0.41
 -13   1   4    3.64    0.51
 -13  -1  -4    3.16    0.50
  -1  13   4    3.59    0.39
  -1 -13  -4    3.22    0.39
  13  -1   4    3.26    0.31
  -1 -13  -4    3.62    0.42
 -13   1   4    2.90    0.26
 -13   1   2    5.10    0.57
   1 -13   2    4.78    0.47
 -13  -1  -2    5.12    0.45
  -1 -13  -2    5.64    0.42
   1  13  -2    5.38    0.46
 -13  -1  -2    4.48    0.56
  -1  13   2    5.77    0.45
  13  -1   2    5.67    0.38
   1  13  -2    4.84    0.35
  -1 -13  -2    5.65    0.47
  -1 -13  -2    6.06    0.44
 -13   1   2    5.82    0.40
 -13  -1   0   26.22    1.01
   1  13   0   24.97    0.98
  -1  13   0   25.21    0.93
   1 -13   0   24.84    0.93
  13  -1   0   24.18    0.91
  13   1   0   25.29    0.78
  13  -1   0   25.72    0.88
   1  13   0   24.62    0.91
 -13   1   0   26.37    1.19
  -1 -13   0   26.42    0.81
  -1 -13   0   26.24    1.05
   1 -13   0   27.24    1.10
 -13  -1   0   23.61    1.16
 -13   1   0   24.12    0.95
 -13  -1   2    5.79    0.43
  -1  13  -2    6.21    0.47
   1 -13  -2    5.41    0.38
  13  -1  -2    5.71    0.36
 -13  -1   2    4.68    0.56
  13  -1  -2    5.71    0.39
 -13   1  -2    6.35    0.61
  13   1   2    5.88    0.32
   1  13   2    5.89    0.44
   1 -13  -2    5.70    0.49
   1 -13  -2    5.70    0.39
  -1 -13   2    4.75    0.22
  -1 -13   2    5.72    0.47
 -13   1  -2    5.62    0.47
 -13   1  -4    3.36    0.39
 -13   1  -4    2.39    0.34
 -13  -1   4    3.15    0.30
  -1  13  -4    2.83    0.36
   1 -13  -4    3.02    0.27
 -13  -1   4    2.55    0.47
  13  -1  -4    3.09    0.32
   1  13   4    2.59    0.33
  13   1   4    2.85    0.24
   1 -13  -4    3.06    0.39
   1 -13  -4    2.65    0.37
 -13   1  -4    1.65    0.40
 -13  -1   4    2.62    0.27
 -13  -1   6   17.46    0.70
  -1  13  -6   18.11    0.90
   1 -13  -6   18.72    0.64
 -13   1  -6   19.01    0.99
   1 -13  -6   18.37    0.87
   1  13   6   17.59    0.86
   1 -13  -6   17.86    0.89
 -13  -1   6   17.59    1.00
   1 -13  -6   17.77    0.87
  13   1   6   17.25    0.65
 -13   1  -6   17.14    0.71
 -13   1  -6   18.29    0.93
 -13  -1   8    9.23    0.45
  -1  13  -8    8.92    0.68
  -1  13  -8   11.51    0.79
   1 -13  -8    8.88    0.60
   1 -13  -8   10.19    0.68
   1  13   8    9.12    0.66
 -13   1  -8   10.07    0.73
 -13  -1   8    8.45    0.72
 -13  -1   8    8.85    0.55
   1 -13  -8    9.45    0.71
 -13   1  -8    8.84    0.68
 -13  -1  10   10.82    0.47
   1 -13 -10   11.32    0.67
 -13   1 -10   12.02    0.80
 -13  -1  10   11.50    0.63
   1 -13 -10   11.43    0.75
   1  13  10   10.90    0.75
 -13  -1  10   10.41    0.80
 -13  -1  10   11.53    0.66
   1 -13 -10   10.66    0.78
  -1  13 -10   11.62    0.82
 -13   1 -10   11.61    0.82
  -1  13 -10   12.39    0.81
  -1  13 -12    1.01    0.38
  -1  13 -12    1.49    0.41
   1 -13 -12    1.50    0.29
   1 -13 -12    1.25    0.34
 -13  -1  12    1.72    0.25
   1  13  12    1.84    0.40
 -13  -1  12    1.41    0.42
 -13  -1  12    2.21    0.32
  13  -1 -12    1.38    0.33
   1 -13 -12    1.97    0.50
 -13   1 -12    1.33    0.36
   1 -13 -14    6.84    0.56
  -1  13 -14    6.60    0.70
 -13   1 -14    8.62    0.74
   1  13  14    6.87    0.68
 -13  -1  14    5.80    0.52
 -13  -1  14    6.18    0.66
  -1  13 -14    7.23    0.66
   1 -13 -14    6.12    0.72
  13  -1 -14    6.62    0.58
 -13   1 -14    5.65    0.64
   1 -13 -16    1.33    0.29
  -1  13 -16    1.43    0.44
   1  13  16    2.58    0.49
 -13   1 -16    1.99    0.42
 -13  -1  16    1.83    0.38
  13  -1 -16    1.85    0.38
   1 -13 -16    1.15    0.51
  -1  13 -16    2.07    0.44
 -13   1 -16    2.12    0.46
   1 -13 -18    2.76    0.42
  13  -1 -18    3.16    0.47
  -1  13 -18    3.32    0.61
   1  13  18    2.79    0.54
 -13   1 -18    2.99    0.49
 -13  -1  18    2.88    0.44
 -13  -1  18    3.26    0.52
   1 -13 -18    5.10    0.74
 -13   1 -18    3.47    0.57
  -1  13 -20    3.16    0.60
   1  13  20    4.81    0.68
 -13   1 -20    4.41    0.59
 -13  -1  20    4.15    0.58
   1 -13 -20    4.83    0.75
 -13   1 -20    4.15    0.65
 -13   1 -22    1.29    0.42
 -13   2  23    1.88    0.49
  13   2 -23    1.62    0.50
  -2 -13 -21    1.47    0.39
  13   2 -21    1.13    0.44
 -13   2  21    1.20    0.39
 -13  -2 -21    2.14    0.49
  -2 -13 -19   12.10    0.87
  13   2 -19   13.47    0.97
   2  13 -19   13.88    1.11
  -2  13  19   11.88    1.01
 -13   2  19   12.83    0.94
  -2 -13 -19   13.94    1.14
 -13  -2 -19   11.12    0.97
   2  13 -17    2.01    0.49
  -2  13  17    2.06    0.49
 -13   2  17    1.80    0.37
  13   2 -17    1.65    0.42
  -2 -13 -17    2.50    0.44
  -2 -13 -17    2.80    0.64
 -13  -2 -17    2.40    0.50
  13   2 -15    0.38    0.28
  -2 -13 -15    0.64    0.27
   2  13 -15    1.01    0.40
  -2  13  15    0.94    0.33
 -13   2  15    0.58    0.28
   2  13 -15    0.39    0.38
 -13  -2 -15    0.41    0.33
 -13  -2 -13    5.47    0.63
  13   2 -13    4.48    0.54
  -2 -13 -13    5.89    0.56
   2  13 -13    4.46    0.61
  -2  13  13    5.80    0.62
 -13   2  13    5.83    0.55
  -2 -13 -13    6.18    0.73
   2  13 -13    4.85    0.62
  13   2 -11   14.42    0.86
 -13   2  11   15.04    0.72
   2  13 -11   14.71    0.95
  -2 -13 -11   15.01    0.86
  -2  13  11   15.47    0.93
 -13   2  11   15.44    0.85
   2  13 -11   15.11    0.95
  -2 -13 -11   14.99    0.97
 -13  -2 -11   15.43    0.97
 -13  -2  -9    1.89    0.38
   2  13  -9    2.67    0.46
   2  13  -9    2.23    0.29
   2  13  -9    2.27    0.47
  -2 -13  -9    2.34    0.36
 -13   2   9    2.19    0.30
  -2 -13  -9    2.22    0.35
  -2  13   9    2.07    0.37
 -13   2   9    1.90    0.32
   2  13  -7    8.20    0.72
  -2 -13  -7    7.50    0.49
   2  13  -7    6.80    0.60
 -13  -2  -7    7.23    0.67
 -13   2   7    8.33    0.56
  -2 -13  -7    7.27    0.57
  -2 -13  -7    7.52    0.55
  -2  13   7    7.58    0.60
 -13  -2  -7    7.42    0.64
 -13  -2  -5   29.72    1.24
   2  13  -5   30.26    1.24
  -2 -13  -5   31.16    1.09
 -13  -2  -5   31.92    1.11
   2  13  -5   31.25    1.36
 -13   2   5   30.55    1.21
  -2 -13  -5   30.79    1.25
  -2 -13  -5   30.98    1.15
  -2  13   5   30.72    1.21
 -13  -2  -5   31.90    1.36
  13  -2   5   30.63    1.05
 -13   2   5   29.58    0.88
 -13  -2  -3   24.18    1.05
   2  13  -3   22.71    1.02
 -13  -2  -3   25.26    1.18
 -13   2   3   26.29    1.12
  -2  13   3   24.46    1.03
  -2 -13  -3   24.00    0.98
   2  13  -3   25.27    0.82
  13  -2   3   24.60    0.90
 -13   2   3   24.38    0.84
   2 -13   3   24.23    1.06
   2  13  -1   24.94    1.03
 -13  -2  -1   25.92    1.05
  -2  13   1   25.58    0.87
 -13  -2  -1   25.75    1.21
   2 -13   1   25.63    0.96
 -13   2   1   27.42    1.17
   2  13  -1   24.84    0.86
 -13   2   1   25.71    1.21
  13  -2   1   24.87    0.91
  -2  13   1   26.87    1.03
  -2 -13  -1   24.64    0.99
   2 -13   1   25.40    1.08
 -13   2   1   25.50    0.93
 -13  -2   1   25.42    1.00
  -2  13  -1   25.50    0.94
   2 -13  -1   24.41    0.87
  13  -2  -1   26.33    0.89
 -13   2  -1   25.84    1.18
  13   2   1   24.17    0.70
  13  -2  -1   24.95    0.92
   2  13   1   25.46    0.91
 -13   2  -1   26.19    1.21
   2 -13  -1   26.22    1.09
  -2 -13   1   24.19    0.99
 -13   2  -1   26.70    1.00
 -13  -2   1   23.49    1.16
  -2 -13   3   23.74    0.97
 -13  -2   3   25.25    0.94
  -2  13  -3   23.93    0.95
   2 -13  -3   23.81    0.77
 -13   2  -3   24.27    1.15
  13  -2  -3   23.19    0.89
  13   2   3   23.62    0.65
   2  13   3   22.58    0.90
   2 -13  -3   24.92    1.05
 -13   2  -3   24.08    1.13
 -13  -2   3   23.40    1.14
 -13  -2   3   23.91    0.77
 -13   2  -3   25.06    1.01
  -2  13  -5   30.15    1.16
   2 -13  -5   26.61    0.80
  13  -2  -5   28.04    1.05
 -13   2  -5   29.61    1.31
   2  13   5   29.16    1.11
   2 -13  -5   29.62    1.20
 -13   2  -5   28.79    1.00
   2 -13  -5   28.38    1.08
  13   2   5   29.00    0.81
 -13  -2   5   27.91    0.94
 -13  -2   5   26.28    1.26
 -13   2  -5   28.84    1.18
 -13   2  -5   29.61    1.26
 -13  -2   5   29.98    1.02
  -2  13  -7    7.23    0.60
 -13  -2   7    7.51    0.44
   2 -13  -7    6.71    0.30
 -13  -2   7    6.39    0.66
 -13   2  -7    7.09    0.62
   2 -13  -7    7.57    0.53
 -13   2  -7    8.36    0.69
   2  13   7    7.12    0.56
   2 -13  -7    8.57    0.63
 -13  -2   7    7.16    0.47
   2 -13  -7    7.12    0.59
 -13   2  -7    7.69    0.43
 -13   2  -7    7.85    0.62
  13   2   7    8.28    0.39
 -13  -2   9    2.06    0.43
 -13  -2   9    2.44    0.25
  -2  13  -9    2.56    0.42
   2 -13  -9    2.26    0.31
  -2  13  -9    2.37    0.47
   2  13   9    2.38    0.38
 -13   2  -9    2.05    0.41
   2 -13  -9    2.23    0.40
 -13   2  -9    2.84    0.44
 -13  -2   9    2.14    0.27
   2 -13  -9    1.30    0.40
 -13   2  -9    1.79    0.37
   2 -13 -11   15.33    0.77
 -13  -2  11   14.87    0.61
 -13   2 -11   14.86    0.87
 -13   2 -11   13.79    0.95
 -13  -2  11   13.86    0.69
   2 -13 -11   15.19    0.89
   2  13  11   14.87    0.90
  -2  13 -11   15.29    0.95
 -13  -2  11   14.75    0.74
 -13  -2  11   13.25    0.90
   2 -13 -11   12.92    0.90
 -13   2 -11   14.76    0.93
  -2  13 -11   14.73    0.88
   2 -13 -13    6.08    0.50
 -13  -2  13    5.57    0.62
  -2  13 -13    4.65    0.54
  -2  13 -13    5.85    0.64
   2  13  13    6.30    0.63
  13  -2 -13    5.12    0.49
 -13  -2  13    5.43    0.48
 -13   2 -13    5.36    0.62
   2 -13 -13    5.25    0.65
 -13   2 -13    6.49    0.66
  13  -2 -15    0.96    0.30
   2 -13 -15    0.81    0.27
  -2  13 -15    1.01    0.43
   2  13  15    0.49    0.33
 -13   2 -15    1.01    0.35
 -13  -2  15    0.57    0.24
   2 -13 -15   -0.21    0.44
 -13   2 -15    0.43    0.30
  -2  13 -15    0.95    0.36
 -13  -2  15    0.36    0.35
  13  -2 -17    1.42    0.33
  -2  13 -17    2.01    0.50
   2  13  17    0.95    0.38
 -13   2 -17    1.86    0.41
 -13  -2  17    2.09    0.37
   2 -13 -17    1.60    0.50
 -13   2 -17    1.67    0.42
 -13  -2  17    1.88    0.44
  -2  13 -19   11.32    1.03
 -13   2 -19   13.26    0.97
   2  13  19   14.31    1.10
 -13  -2  19   12.75    0.95
   2 -13 -19   13.70    1.13
 -13   2 -21    2.15    0.47
   2  13  21    1.10    0.47
   2 -13 -21    1.33    0.56
  -3 -13 -22    4.65    0.61
 -13   3  22    4.26    0.63
 -13  -3 -22    3.91    0.58
  13   3 -22    4.10    0.66
  -3 -13 -20    0.45    0.31
  13   3 -20    0.10    0.38
   3  13 -20    0.91    0.46
  -3  13  20    0.61    0.41
 -13   3  20    0.16    0.29
  -3 -13 -20    0.54    0.53
 -13  -3 -20    0.43    0.39
  13   3 -18    4.33    0.59
   3  13 -18    5.62    0.73
  -3 -13 -18    4.32    0.55
  -3  13  18    5.63    0.71
 -13   3  18    5.20    0.62
  -3 -13 -18    6.07    0.81
 -13  -3 -18    4.84    0.66
 -13  -3 -16    1.62    0.44
  13   3 -16    0.96    0.36
  -3 -13 -16    1.59    0.37
   3  13 -16    1.14    0.43
  -3  13  16    1.82    0.45
 -13   3  16    1.74    0.38
  -3 -13 -16    2.62    0.65
 -13  -3 -14    2.70    0.50
  13   3 -14    2.44    0.46
   3  13 -14    2.54    0.51
  -3  13  14    2.70    0.48
 -13   3  14    2.63    0.44
   3  13 -14    2.42    0.51
  -3 -13 -14    3.50    0.47
 -13   3  12   13.65    0.69
  13   3 -12   14.07    0.89
   3  13 -12   14.31    0.96
  -3 -13 -12   14.61    0.88
  -3  13  12   14.12    0.94
 -13   3  12   12.86    0.82
   3  13 -12   15.05    0.97
 -13  -3 -12   13.40    0.94
   3  13 -10    3.31    0.53
   3  13 -10    2.95    0.49
  13   3 -10    3.44    0.46
 -13   3  10    3.43    0.36
  -3 -13 -10    3.71    0.45
  -3  13  10    3.10    0.44
 -13  -3 -10    3.38    0.48
 -13   3  10    3.29    0.42
 -13  -3  -8   10.91    0.77
   3  13  -8   10.34    0.77
 -13   3   8   11.44    0.67
  -3 -13  -8   11.91    0.75
  -3 -13  -8   10.66    0.64
  -3  13   8   11.20    0.75
   3  13  -8   10.68    0.82
 -13  -3  -6   52.62    1.83
   3  13  -6   51.61    1.87
   3  13  -6   53.22    1.81
 -13   3   6   54.15    1.74
 -13  -3  -6   52.31    1.88
  -3 -13  -6   53.76    1.79
  -3 -13  -6   51.21    1.61
  -3  13   6   55.07    1.81
  13  -3   6   52.26    1.59
   3 -13   4    2.53    0.39
 -13  -3  -4    3.35    0.43
   3  13  -4    2.18    0.37
  -3 -13  -4    3.25    0.42
 -13   3   4    2.85    0.38
   3  13  -4    4.04    0.59
 -13  -3  -4    3.69    0.53
   3  13  -4    2.84    0.22
  -3  13   4    2.75    0.37
  -3 -13  -4    3.36    0.37
 -13   3   4    3.13    0.24
  13  -3   4    3.43    0.37
  -3  13   2   18.94    0.65
 -13  -3  -2   19.32    0.92
   3  13  -2   20.13    0.93
   3 -13   2   18.64    0.82
 -13   3   2   18.22    0.96
 -13  -3  -2   21.35    1.07
   3  13  -2   18.81    0.67
  -3  13   2   19.69    0.91
  -3 -13  -2   19.41    0.83
  13  -3   2   18.75    0.80
 -13   3   2   18.19    0.71
   3 -13   2   17.04    0.90
   3  13   0  100.29    2.67
 -13  -3   0  103.89    2.71
  13  -3   0  102.65    2.50
 -13  -3   0   96.36    2.86
   3 -13   0   97.88    2.45
  -3  13   0  101.96    2.45
 -13   3   0  102.70    2.86
   3  13   0  100.29    2.42
 -13   3   0  101.09    2.90
  13  -3   0  100.73    2.55
  -3 -13   0  100.90    2.60
   3 -13   0  100.55    2.76
 -13   3   0   97.37    2.52
 -13  -3   2   17.44    0.99
  -3  13  -2   20.28    0.81
 -13  -3   2   18.93    0.85
  13  -3  -2   19.47    0.69
   3 -13  -2   18.61    0.67
 -13   3  -2   19.69    1.02
   3  13   2   18.28    0.76
  13  -3  -2   17.62    0.79
 -13   3  -2   18.64    1.00
   3 -13  -2   18.05    0.91
 -13   3  -2   18.13    0.83
  -3 -13   2   18.66    0.83
  -3  13  -4    3.88    0.40
 -13  -3   4    3.28    0.34
   3 -13  -4    3.08    0.21
 -13   3  -4    3.62    0.51
  13   3   4    2.66    0.14
 -13   3  -4    3.55    0.48
  13  -3  -4    3.74    0.39
   3  13   4    3.10    0.34
 -13   3  -4    3.34    0.38
 -13  -3   4    3.93    0.52
   3 -13  -4    3.30    0.44
 -13  -3   4    2.77    0.25
 -13   3  -4    3.42    0.39
  -3  13  -6   55.51    1.75
 -13  -3   6   52.81    1.56
   3 -13  -6   52.65    1.63
 -13   3  -6   53.63    1.92
  13  -3  -6   50.66    1.63
   3  13   6   50.78    1.66
   3 -13  -6   52.66    1.78
 -13  -3   6   50.47    1.47
 -13   3  -6   53.44    1.48
  13   3   6   53.32    1.26
 -13  -3   6   53.15    1.89
 -13   3  -6   51.86    1.76
 -13   3  -6   58.18    1.85
  -3  13  -8   12.43    0.80
 -13   3  -8   10.86    0.75
 -13  -3   8    9.39    0.53
   3 -13  -8   10.77    0.61
 -13   3  -8    9.97    0.78
   3  13   8   10.76    0.70
   3 -13  -8   10.76    0.73
 -13  -3   8   11.50    0.58
   3 -13  -8    8.90    0.70
 -13  -3   8   11.18    0.80
 -13   3  -8   11.35    0.76
  -3  13 -10    3.54    0.48
 -13  -3  10    3.66    0.32
 -13  -3  10    3.18    0.49
 -13   3 -10    4.13    0.50
  -3  13 -10    3.95    0.52
   3  13  10    3.91    0.47
 -13   3 -10    3.99    0.52
   3 -13 -10    3.51    0.46
 -13  -3  10    3.26    0.33
   3 -13 -10    3.39    0.50
 -13   3 -10    3.22    0.47
   3 -13 -10    3.86    0.38
   3 -13 -12   14.31    0.73
  -3  13 -12   14.10    0.94
 -13  -3  12   12.54    0.61
 -13   3 -12   15.94    0.98
 -13   3 -12   15.06    0.86
   3 -13 -12   14.09    0.89
   3  13  12   13.74    0.89
 -13  -3  12   13.51    0.71
   3 -13 -12   12.10    0.90
 -13  -3  12   14.09    0.94
 -13   3 -12   15.28    0.97
  -3  13 -12   15.55    0.88
  -3  13 -14    1.77    0.40
 -13  -3  14    2.75    0.48
  -3  13 -14    2.67    0.51
   3  13  14    3.49    0.50
 -13   3 -14    2.51    0.45
   3 -13 -14    2.56    0.34
 -13  -3  14    2.50    0.34
   3 -13 -14    1.45    0.48
 -13   3 -14    2.64    0.48
  13  -3 -16    1.24    0.32
 -13  -3  16    1.63    0.43
  -3  13 -16    1.45    0.45
 -13   3 -16    1.13    0.38
   3  13  16    1.73    0.43
   3 -13 -16    1.50    0.50
  -3  13 -16    1.83    0.41
 -13  -3  18    4.93    0.60
  -3  13 -18    3.85    0.63
 -13   3 -18    5.29    0.63
   3  13  18    4.38    0.62
   3 -13 -18    3.86    0.66
  -3  13 -20    0.22    0.37
 -13   3 -20    1.30    0.56
 -13   3 -20    0.54    0.36
   3  13  20    0.02    0.37
   3 -13 -20   -0.60    0.54
  -4 -13 -21    3.02    0.53
  13   4 -21    3.46    0.61
 -13   4  21    2.91    0.54
  -4 -13 -19    4.05    0.55
   4  13 -19    3.67    0.66
  13   4 -19    4.45    0.65
  -4  13  19    4.16    0.65
 -13   4  19    3.98    0.58
  -4 -13 -19    4.77    0.78
 -13  -4 -19    3.88    0.64
 -13  -4 -17    0.04    0.31
  13   4 -17    0.17    0.34
  -4 -13 -17    0.36    0.31
   4  13 -17    0.44    0.37
  -4  13  17    0.21    0.33
 -13   4  17    0.33    0.27
  -4 -13 -17   -0.08    0.48
 -13  -4 -15    1.23    0.36
  13   4 -15    0.99    0.37
  -4 -13 -15    1.83    0.39
   4  13 -15    0.69    0.39
  -4  13  15    1.66    0.43
 -13   4  15    0.90    0.31
   4  13 -15    1.20    0.44
 -13  -4 -13    1.56    0.39
  13   4 -13    0.88    0.35
   4  13 -13    0.99    0.42
  -4 -13 -13    0.55    0.27
  -4  13  13    1.57    0.38
 -13   4  13    1.00    0.31
   4  13 -13    1.41    0.44
   4  13 -11    5.51    0.64
 -13   4  11    4.12    0.40
 -13  -4 -11    3.80    0.53
  13   4 -11    5.04    0.57
   4  13 -11    4.51    0.57
  -4 -13 -11    5.57    0.55
  -4  13  11    5.27    0.57
 -13   4  11    4.00    0.48
 -13  -4  -9   12.93    0.88
  13   4  -9   13.16    0.84
 -13   4   9   13.07    0.73
   4  13  -9   12.52    0.87
  -4 -13  -9   13.98    0.84
  -4  13   9   13.90    0.87
 -13   4   9   14.89    0.85
   4  13  -9   12.77    0.93
   4  13  -7    0.79    0.33
   4  13  -7    0.88    0.45
 -13   4   7    1.57    0.31
  -4 -13  -7    0.71    0.31
  -4 -13  -7    0.78    0.24
  -4  13   7    1.31    0.32
   4  13  -7    0.63    0.09
 -13  -4  -7    0.91    0.33
   4  13  -5   19.47    1.09
 -13  -4  -5   17.42    0.95
   4  13  -5   18.16    0.96
 -13   4   5   19.41    0.94
  -4 -13  -5   20.46    1.00
 -13  -4  -5   18.82    1.07
  -4 -13  -5   19.15    0.81
   4  13  -5   17.38    0.53
  -4  13   5   20.69    0.99
  13  -4   5   19.06    0.85
   4  13  -3   45.24    1.56
 -13  -4  -3   44.04    1.56
   4  13  -3   43.75    1.69
 -13   4   3   44.39    1.58
  -4 -13  -3   42.27    1.56
   4  13  -3   41.79    1.10
  -4 -13  -3   43.84    1.36
  -4  13   3   45.82    1.56
  13  -4   3   43.96    1.40
 -13  -4  -3   41.94    1.64
   4 -13   3   40.49    1.52
   4  13  -1   14.52    0.79
  -4  13   1   14.03    0.56
 -13  -4  -1   14.44    0.79
 -13   4   1   15.56    0.87
   4  13  -1   14.87    0.56
 -13  -4  -1   14.75    0.92
  13  -4   1   14.44    0.71
  -4 -13  -1   14.59    0.69
   4 -13   1   14.90    0.84
  -4  13  -1   15.36    0.65
 -13  -4   1   14.16    0.75
  13  -4  -1   14.34    0.61
 -13   4  -1   14.26    0.88
 -13  -4   1   13.67    0.88
   4  13   1   13.75    0.61
 -13   4  -1   15.68    0.93
  13  -4  -1   14.97    0.74
   4 -13  -1   13.94    0.81
  -4 -13   1   15.42    0.72
 -13   4  -1   14.24    0.70
 -13  -4   3   42.74    1.65
  -4  13  -3   45.46    1.41
 -13  -4   3   44.82    1.46
  13  -4  -3   44.21    1.17
 -13   4  -3   44.39    1.68
   4  13   3   44.34    1.37
  13  -4  -3   42.49    1.43
 -13   4  -3   46.02    1.65
   4 -13  -3   43.89    1.58
 -13   4  -3   44.95    1.48
 -13  -4   3   42.84    1.11
  -4 -13   3   44.16    1.41
 -13  -4   5   16.51    1.00
  -4  13  -5   17.68    0.85
 -13  -4   5   19.09    0.83
 -13   4  -5   17.72    1.02
   4  13   5   17.92    0.83
  13  -4  -5   19.16    0.87
   4 -13  -5   17.77    0.94
 -13  -4   5   16.85    0.64
 -13   4  -5   19.71    1.00
 -13   4  -5   17.71    0.90
  -4  13  -7    0.94    0.32
 -13  -4   7    0.89    0.22
   4 -13  -7    0.94    0.23
 -13   4  -7    1.75    0.38
  13  -4  -7    1.15    0.30
   4  13   7    1.38    0.31
   4 -13  -7    0.75    0.29
 -13  -4   7    1.44    0.21
 -13  -4   7    1.61    0.43
 -13   4  -7    1.07    0.34
 -13   4  -7    1.02    0.30
  13   4   7    0.83    0.10
   4 -13  -9   12.99    0.66
 -13   4  -9   12.06    0.78
 -13  -4   9   12.18    0.63
 -13   4  -9   13.70    0.90
  -4  13  -9   12.92    0.83
   4  13   9   12.84    0.79
   4 -13  -9   12.22    0.81
 -13  -4   9   11.85    0.59
 -13  -4   9   12.87    0.87
 -13   4  -9   12.66    0.82
  -4  13 -11    5.55    0.60
   4 -13 -11    4.60    0.40
 -13  -4  11    4.23    0.37
  -4  13 -11    4.84    0.52
   4 -13 -11    5.54    0.59
 -13   4 -11    5.61    0.60
 -13  -4  11    5.07    0.59
   4  13  11    4.53    0.52
 -13   4 -11    5.21    0.53
 -13  -4  11    4.53    0.38
 -13   4 -11    4.58    0.55
   4 -13 -13    0.83    0.21
  -4  13 -13    1.39    0.38
  -4  13 -13    0.52    0.35
   4 -13 -13    0.56    0.33
 -13  -4  13    1.16    0.38
 -13   4 -13    0.80    0.33
 -13   4 -13    1.76    0.39
   4  13  13    0.99    0.35
 -13  -4  13    1.11    0.23
  -4  13 -15    0.99    0.41
 -13  -4  15    0.86    0.38
 -13   4 -15    1.65    0.40
   4  13  15    1.21    0.42
  -4  13 -15    0.74    0.32
  -4  13 -17   -0.43    0.35
 -13  -4  17    0.58    0.35
 -13   4 -17    0.00    0.27
   4  13  17    0.59    0.40
  -4  13 -19    3.73    0.66
 -13   4 -19    2.29    0.60
 -13   4 -19    3.94    0.58
   4  13  19    4.09    0.66
 -13   4 -21    3.30    0.55
  -5 -13 -22    1.67    0.46
  13   5 -22    1.76    0.54
  -5 -13 -20   -0.16    0.30
  13   5 -20    0.11    0.38
 -13   5  20    0.37    0.35
 -13  -5 -18    0.16    0.36
  -5 -13 -18   -0.02    0.29
  13   5 -18    0.31    0.37
   5  13 -18    0.58    0.38
  -5  13  18   -0.08    0.34
 -13   5  18    0.63    0.33
 -13  -5 -16    0.06    0.32
  13   5 -16   -0.07    0.35
  -5 -13 -16   -0.50    0.32
   5  13 -16    0.00    0.34
  -5  13  16    0.20    0.30
 -13   5  16   -0.34    0.29
 -13  -5 -14    0.91    0.39
  -5 -13 -14    0.53    0.33
   5  13 -14    0.57    0.37
  13   5 -14    0.51    0.32
  -5  13  14    1.31    0.43
 -13   5  14    0.53    0.30
   5  13 -14    0.33    0.41
 -13  -5 -12    0.08    0.28
   5  13 -12    0.09    0.33
  -5 -13 -12    0.41    0.27
  -5  13  12   -0.13    0.30
 -13   5  12   -0.12    0.24
  13   5 -12    0.37    0.32
   5  13 -12   -0.36    0.40
   5  13 -10    2.34    0.49
  -5 -13 -10    1.61    0.37
   5  13 -10    3.08    0.50
  -5  13  10    2.26    0.43
  13   5 -10    2.46    0.43
 -13   5  10    2.77    0.42
 -13  -5 -10    2.33    0.44
 -13  -5  -8   10.31    0.79
   5  13  -8   10.70    0.80
  -5 -13  -8   10.40    0.74
  -5 -13  -8    9.64    0.59
 -13   5   8   10.70    0.68
  -5  13   8   11.70    0.80
   5  13  -8   10.13    0.84
  13  -5   6    2.28    0.36
 -13   5   6    2.75    0.40
   5  13  -6    2.13    0.42
 -13  -5  -6    2.24    0.40
   5  13  -6    1.67    0.46
  -5 -13  -6    3.33    0.46
  -5 -13  -6    2.46    0.31
  -5  13   6    3.15    0.44
   5 -13   4    0.12    0.28
   5  13  -4    0.37    0.33
 -13   5   4    0.16    0.22
   5  13  -4    0.76    0.47
  -5 -13  -4    0.06    0.24
 -13  -5  -4    0.90    0.45
 -13  -5  -4    0.48    0.26
  -5 -13  -4    0.24    0.19
  -5  13   4    0.33    0.25
  13  -5   4    0.68    0.27
 -13  -5  -2   11.78    0.84
   5  13  -2   10.40    0.70
  -5  13   2   11.02    0.41
 -13  -5  -2   11.20    0.72
   5  13  -2   10.36    0.82
 -13   5   2   12.10    0.77
  -5 -13  -2   11.32    0.75
   5  13  -2    9.86    0.39
  -5 -13  -2   10.78    0.57
  13  -5   2   11.62    0.66
   5 -13   2   10.52    0.72
  -5  13   0   24.19    0.80
  13  -5   0   23.16    0.86
 -13  -5   0   23.23    1.04
 -13   5   0   24.86    1.16
   5  13   0   22.42    0.75
  13  -5   0   21.70    0.96
 -13  -5   0   23.75    1.18
  -5 -13   0   22.73    0.88
   5 -13   0   22.00    1.06
  -5  13  -2   11.68    0.59
 -13  -5   2   11.45    0.69
  13  -5  -2   10.89    0.49
 -13   5  -2   11.03    0.77
   5  13   2   11.08    0.55
 -13  -5   2    9.97    0.78
  13  -5  -2   10.65    0.65
   5 -13  -2   10.98    0.73
  -5 -13   2   10.94    0.59
 -13   5  -4    0.41    0.35
  -5  13  -4    0.29    0.23
 -13  -5   4    0.35    0.20
  13  -5  -4    0.26    0.08
 -13   5  -4    0.39    0.28
   5  13   4    0.34    0.20
 -13  -5   4   -0.14    0.37
  13  -5  -4    0.02    0.24
   5 -13  -4    0.25    0.28
  -5  13  -6    2.38    0.37
 -13  -5   6    1.62    0.41
 -13   5  -6    2.43    0.44
 -13  -5   6    2.44    0.31
 -13   5  -6    2.99    0.47
   5  13   6    2.96    0.37
  13  -5  -6    1.42    0.34
   5 -13  -6    2.59    0.43
 -13  -5   6    1.94    0.22
 -13  -5   8    9.94    0.79
  -5  13  -8   10.27    0.72
 -13   5  -8   10.62    0.81
   5 -13  -8    8.94    0.53
 -13  -5   8   10.27    0.60
   5  13   8   10.50    0.69
  13  -5  -8   10.16    0.70
   5 -13  -8    9.48    0.72
 -13  -5   8    9.42    0.48
 -13   5  -8   10.03    0.72
  -5  13 -10    2.81    0.47
   5 -13 -10    2.23    0.28
 -13  -5  10    2.26    0.31
 -13   5 -10    2.61    0.47
   5  13  10    2.82    0.43
  -5  13 -10    4.14    0.51
   5 -13 -10    2.96    0.45
 -13  -5  10    2.44    0.27
 -13   5 -10    1.79    0.38
 -13  -5  10    2.02    0.43
   5 -13 -12    0.12    0.15
  -5  13 -12    0.03    0.31
  -5  13 -12    0.12    0.32
 -13  -5  12    0.11    0.16
 -13   5 -12    0.38    0.34
   5  13  12    0.00    0.28
   5 -13 -12    0.29    0.30
 -13   5 -12    0.02    0.27
 -13  -5  12    0.31    0.31
  -5  13 -14    1.30    0.36
 -13   5 -14    1.13    0.38
   5  13  14    0.84    0.33
  -5  13 -14    0.70    0.36
 -13  -5  14    1.58    0.42
  -5  13 -16   -0.33    0.38
   5  13  16    0.02    0.29
 -13   5 -16    0.22    0.29
 -13  -5  16    0.23    0.30
  -5  13 -18    1.16    0.45
 -13   5 -18    0.50    0.33
 -13   5 -18    0.59    0.49
   5  13  18    0.28    0.34
  -5  13 -20    0.44    0.42
 -13   5 -20    0.77    0.36
   5  13  20    0.02    0.39
  -6 -13 -21    0.49    0.35
  13   6 -21   -0.14    0.41
 -13  -6 -19    0.05    0.36
  -6 -13 -19    0.15    0.35
   6  13 -19   -0.01    0.42
  -6  13  19    0.45    0.49
 -13   6  19    0.21    0.33
  13   6 -19   -0.39    0.39
 -13  -6 -17    1.54    0.46
  13   6 -17    1.24    0.42
  -6 -13 -17    1.01    0.38
   6  13 -17    1.13    0.47
  -6  13  17    1.86    0.46
 -13   6  17    1.39    0.39
 -13  -6 -15    5.03    0.66
  13   6 -15    2.90    0.52
  -6 -13 -15    4.49    0.57
   6  13 -15    4.06    0.62
  -6  13  15    5.56    0.67
 -13   6  15    4.36    0.57
 -13  -6 -13    2.36    0.49
  13   6 -13    3.49    0.53
   6  13 -13    1.31    0.44
  -6 -13 -13    2.71    0.46
  -6  13  13    3.27    0.52
 -13   6  13    3.05    0.48
   6  13 -13    2.83    0.57
 -13  -6 -11    0.40    0.29
  -6 -13 -11    0.55    0.29
  13   6 -11    0.17    0.29
  -6  13  11    0.58    0.34
 -13   6  11    0.05    0.24
   6  13 -11    1.01    0.38
   6  13 -11    1.38    0.49
   6  13  -9    0.11    0.39
  13   6  -9   -0.06    0.31
 -13  -6  -9   -0.10    0.27
   6  13  -9    0.15    0.31
  -6 -13  -9   -0.27    0.29
  -6  13   9   -0.37    0.30
 -13   6   9   -0.10    0.23
 -13   6   7    4.89    0.49
   6  13  -7    4.53    0.55
 -13  -6  -7    4.34    0.53
  -6 -13  -7    5.08    0.54
   6  13  -7    4.99    0.64
  -6 -13  -7    4.41    0.38
  -6  13   7    5.62    0.57
  13  -6   7    5.37    0.51
  13  -6   5    4.49    0.45
   6 -13   5    4.52    0.52
   6  13  -5    4.43    0.53
 -13  -6  -5    4.28    0.50
 -13   6   5    4.40    0.49
   6  13  -5    3.78    0.59
  -6 -13  -5    4.42    0.52
  -6 -13  -5    4.45    0.36
  -6  13   5    4.92    0.52
   6 -13   3    4.72    0.52
   6  13  -3    4.75    0.52
 -13   6   3    5.52    0.54
  -6 -13  -3    5.14    0.53
   6  13  -3    5.22    0.66
  -6 -13  -3    5.11    0.38
 -13  -6  -3    5.19    0.53
 -13  -6  -3    4.99    0.65
  13  -6   3    6.08    0.51
  -6  13   1    1.16    0.17
 -13  -6  -1    1.92    0.34
 -13   6   1    1.75    0.37
  -6 -13  -1    1.28    0.34
   6  13  -1    1.15    0.13
   6  13  -1    1.99    0.50
 -13  -6  -1    1.81    0.47
  -6 -13  -1    1.27    0.23
  13  -6   1    1.76    0.32
   6 -13   1    2.00    0.40
  13  -6  -1    1.63    0.23
  -6  13  -1    1.31    0.22
 -13  -6   1    1.48    0.30
 -13   6  -1    1.67    0.40
 -13  -6   1    1.46    0.21
   6  13   1    1.42    0.20
   6  13   1    1.93    0.51
 -13  -6   1    2.27    0.51
  13  -6  -1    2.21    0.35
   6 -13  -1    1.72    0.36
  -6 -13   1    1.79    0.27
  -6  13  -3    4.75    0.41
 -13  -6   3    5.09    0.47
 -13  -6   3    5.14    0.61
 -13   6  -3    5.10    0.56
   6  13   3    5.18    0.38
  13  -6  -3    4.74    0.49
  13   6   3    4.21    0.53
   6 -13  -3    4.90    0.53
  -6 -13   3    5.41    0.41
 -13   6  -5    4.70    0.55
  -6  13  -5    4.73    0.47
 -13  -6   5    4.59    0.45
 -13   6  -5    4.62    0.55
   6  13   5    3.89    0.38
  13  -6  -5    4.60    0.48
   6 -13  -5    4.54    0.52
  13   6   5    4.53    0.50
 -13  -6   5    3.91    0.55
  -6  13  -7    4.82    0.50
 -13  -6   7    5.06    0.46
   6 -13  -7    4.58    0.38
 -13   6  -7    5.11    0.61
   6  13   7    5.17    0.48
  13  -6  -7    5.15    0.53
 -13  -6   7    4.97    0.31
 -13  -6   7    3.96    0.54
   6 -13  -7    4.70    0.56
 -13   6  -7    5.56    0.57
  13   6   7    4.09    0.46
  -6  13  -9   -0.16    0.29
   6 -13  -9    0.00    0.13
 -13   6  -9    0.15    0.30
 -13  -6   9   -0.02    0.34
   6  13   9   -0.04    0.24
 -13  -6   9   -0.03    0.17
  13  -6  -9   -0.26    0.30
   6 -13  -9   -0.16    0.28
  13   6   9    0.20    0.25
 -13   6  -9   -0.21    0.31
   6 -13 -11    0.45    0.17
 -13  -6  11    0.33    0.32
  -6  13 -11    0.72    0.33
 -13   6 -11    0.61    0.36
 -13  -6  11    0.54    0.21
  -6  13 -11    0.77    0.33
   6  13  11    0.95    0.32
   6 -13 -11    0.22    0.29
  13   6  11    0.55    0.25
 -13   6 -11    0.84    0.32
 -13  -6  13    2.31    0.44
  -6  13 -13    2.75    0.41
 -13   6 -13    2.70    0.41
  -6  13 -13    2.39    0.48
 -13   6 -13    2.62    0.48
   6  13  13    2.57    0.45
   6 -13 -13    2.54    0.48
 -13  -6  15    3.57    0.52
  -6  13 -15    3.99    0.62
 -13   6 -15    4.62    0.59
   6  13  15    5.71    0.65
  -6  13 -17    1.55    0.46
 -13   6 -17    0.96    0.34
 -13   6 -17    1.03    0.47
   6  13  17    1.06    0.42
  -6  13 -19    0.98    0.46
 -13   6 -19    0.21    0.32
 -13   6 -19    1.12    0.56
   6  13  19    0.23    0.34
 -13   6 -21    0.72    0.37
  -7 -13 -20    2.43    0.51
  13   7 -20    1.84    0.57
 -13   7  20    2.39    0.52
 -13  -7 -18    1.30    0.44
  -7 -13 -18    1.44    0.41
  13   7 -18    1.78    0.48
   7  13 -18    2.85    0.62
  -7  13  18    1.97    0.50
 -13   7  18    2.29    0.49
 -13  -7 -16    2.97    0.55
  13   7 -16    2.83    0.53
  -7 -13 -16    3.82    0.55
   7  13 -16    2.96    0.59
  -7  13  16    3.38    0.58
 -13   7  16    2.80    0.50
 -13  -7 -14    2.42    0.52
  13   7 -14    3.14    0.52
  -7 -13 -14    2.72    0.49
   7  13 -14    2.27    0.50
  -7  13  14    2.67    0.50
 -13   7  14    2.64    0.52
 -13  -7 -12    2.94    0.51
  13   7 -12    2.22    0.47
   7  13 -12    2.55    0.51
  -7 -13 -12    3.49    0.52
  -7  13  12    4.16    0.57
 -13   7  12    2.92    0.48
   7  13 -12    3.35    0.59
 -13  -7 -10    8.11    0.74
  13   7 -10    8.02    0.74
  -7 -13 -10    9.01    0.74
  -7  13  10    8.71    0.75
 -13   7  10    9.05    0.74
   7  13 -10    8.65    0.79
   7  13 -10    7.68    0.77
   7  13  -8    8.88    0.76
  13   7  -8    9.32    0.75
 -13  -7  -8    9.53    0.76
  -7 -13  -8   10.11    0.77
  -7  13   8    9.04    0.74
   7  13  -8    9.89    0.84
  13  -7   6    0.65    0.28
   7  13  -6    0.61    0.33
 -13   7   6    1.95    0.35
   7  13  -6    0.81    0.44
 -13  -7  -6    1.08    0.33
  -7 -13  -6    1.28    0.34
  -7  13   6    1.82    0.37
   7  13  -4   24.18    1.18
 -13  -7  -4   25.70    1.21
  -7 -13  -4   25.50    1.20
  -7 -13  -4   23.28    0.84
 -13   7   4   23.49    1.14
  13  -7   4   25.18    1.10
   7  13  -4   26.09    1.31
   7 -13   4   23.70    1.14
   7  13  -2   10.43    0.84
   7  13  -2   12.27    0.80
  -7  13   2   10.65    0.36
 -13   7   2   12.71    0.83
 -13  -7  -2   12.32    0.80
  -7 -13  -2   12.50    0.81
  -7 -13  -2   12.49    0.55
  13  -7   2   13.27    0.75
   7 -13   2   12.04    0.80
  13  -7   0   10.94    0.58
   7  13   0   11.27    0.88
  -7  13   0   11.54    0.50
 -13  -7   0   11.83    0.76
  -7 -13   0   11.74    0.78
 -13  -7   0   10.28    0.83
  13   7   0   10.74    0.80
  13  -7   0   11.81    0.72
  -7 -13   0   11.43    0.55
 -13   7   0   11.34    0.80
   7 -13   0   10.20    0.74
 -13  -7   2   12.14    0.89
 -13   7  -2   12.79    0.88
  -7  13  -2   13.68    0.63
   7  13   2   12.26    0.88
 -13  -7   2   11.62    0.74
   7  13   2   12.62    0.55
  13  -7  -2   12.98    0.76
  13   7   2   10.98    0.79
   7 -13  -2   12.18    0.80
  -7 -13   2   12.76    0.60
 -13   7  -4   26.44    1.28
  -7  13  -4   25.68    1.02
 -13  -7   4   23.84    1.07
   7  13   4   24.05    0.92
  13  -7  -4   24.37    1.09
  13   7   4   22.87    1.10
   7 -13  -4   25.36    1.17
 -13  -7   4   23.68    1.21
 -13   7  -6    0.94    0.33
  -7  13  -6    1.54    0.34
 -13  -7   6    1.32    0.41
 -13   7  -6    1.51    0.38
 -13  -7   6    1.44    0.29
   7  13   6    1.42    0.27
  13  -7  -6    1.65    0.35
   7 -13  -6    1.22    0.34
  13   7   6    1.09    0.34
 -13   7  -8   10.12    0.80
  -7  13  -8    8.96    0.68
   7 -13  -8    8.36    0.47
 -13  -7   8    6.93    0.55
   7  13   8    8.03    0.60
  13  -7  -8    9.39    0.69
   7 -13  -8    8.99    0.73
 -13  -7   8    9.36    0.76
  13   7   8    8.94    0.64
 -13   7  -8   10.02    0.71
 -13   7 -10    8.80    0.65
 -13   7 -10    7.83    0.72
  -7  13 -10    7.27    0.67
 -13  -7  10    8.04    0.58
   7  13  10    7.82    0.64
 -13  -7  10    8.27    0.72
  13  -7 -10    7.03    0.65
   7 -13 -10    6.83    0.65
  13   7  10    7.32    0.58
 -13   7 -12    3.99    0.46
  -7  13 -12    3.40    0.53
 -13   7 -12    2.60    0.47
  -7  13 -12    3.32    0.45
   7  13  12    3.42    0.51
   7 -13 -12    2.70    0.48
 -13  -7  12    3.23    0.50
  -7  13 -14    2.28    0.50
 -13   7 -14    2.32    0.46
 -13   7 -14    3.11    0.56
   7  13  14    2.67    0.47
 -13  -7  14    2.21    0.46
 -13   7 -16    2.81    0.50
  -7  13 -16    3.68    0.61
 -13   7 -16    2.21    0.54
   7  13  16    2.82    0.50
 -13  -7  16    2.93    0.51
 -13   7 -18    2.46    0.49
  -7  13 -18    2.40    0.54
 -13   7 -18    2.55    0.59
   7  13  18    1.08    0.42
 -13   7 -20    1.69    0.43
   7  13  20    2.27    0.56
  13   8 -19    1.19    0.51
  -8 -13 -19    0.58    0.34
 -13   8  19    2.05    0.50
 -13  -8 -17    4.88    0.69
  -8 -13 -17    3.18    0.56
  13   8 -17    4.70    0.68
   8  13 -17    3.54    0.64
  -8  13  17    5.14    0.69
 -13   8  17    3.78    0.58
 -13  -8 -15    0.39    0.35
  13   8 -15    0.61    0.37
   8  13 -15    0.31    0.39
  -8 -13 -15    0.66    0.33
  -8  13  15    0.43    0.33
 -13   8  15    0.84    0.34
  -8 -13 -13    4.68    0.60
 -13  -8 -13    3.03    0.53
   8  13 -13    5.90    0.72
  13   8 -13    3.74    0.58
   8  13 -13    3.39    0.63
  -8  13  13    5.91    0.69
 -13   8  13    5.07    0.61
 -13  -8 -11    2.47    0.46
   8  13 -11    2.67    0.54
  13   8 -11    2.36    0.48
  -8 -13 -11    3.05    0.51
  -8  13  11    3.46    0.53
 -13   8  11    2.21    0.45
   8  13 -11    3.55    0.64
   8  13  -9   -0.11    0.31
  13   8  -9   -0.05    0.30
 -13  -8  -9    0.22    0.31
  -8 -13  -9    0.41    0.29
  -8  13   9   -0.13    0.29
 -13   8   9    0.12    0.27
   8  13  -9    0.17    0.41
   8  13  -7   15.07    0.96
  -8 -13  -7   14.32    0.92
 -13  -8  -7   14.57    0.95
  -8  13   7   15.45    0.96
   8  13  -7   13.33    1.00
  13  -8   7   12.75    0.82
 -13   8   5   27.90    1.25
   8  13  -5   25.86    1.26
 -13  -8  -5   25.74    1.27
  -8 -13  -5   24.60    1.24
   8  13  -5   23.72    1.30
  13  -8   5   26.04    1.15
   8 -13   5   26.86    1.24
   8  13  -3    6.10    0.61
 -13   8   3    7.68    0.67
 -13  -8  -3    6.57    0.61
   8  13  -3    6.77    0.71
  -8 -13  -3    8.35    0.69
  -8 -13  -3    7.06    0.39
  13  -8   3    7.89    0.63
   8 -13   3    7.98    0.67
 -13   8   1   22.79    1.14
  -8  13   1   18.93    0.63
 -13  -8  -1   22.14    1.07
  -8 -13  -1   20.55    1.07
  -8 -13  -1   20.03    0.71
  13   8  -1   19.71    1.10
  13  -8   1   20.77    1.00
   8 -13   1   20.70    1.06
   8  13  -1   20.83    1.16
   8  13   1   19.77    1.13
  -8  13  -1   21.28    0.78
 -13  -8   1   20.05    1.01
 -13   8  -1   20.04    1.11
  -8 -13   1   19.23    1.04
  13   8   1   20.98    1.11
  13  -8  -1   20.80    1.02
   8 -13  -1   19.57    1.03
 -13  -8   1   18.36    1.09
  -8 -13   1   20.41    0.75
 -13   8  -3    6.86    0.66
   8  13   3    8.42    0.76
  -8  13  -3    7.99    0.52
 -13  -8   3    5.53    0.54
 -13  -8   3    7.75    0.73
   8  13   3    7.69    0.44
  13  -8  -3    5.62    0.55
  13   8   3    6.21    0.64
   8 -13  -3    8.57    0.68
  -8 -13   3    6.91    0.43
 -13  -8   5   25.21    1.27
  -8  13  -5   25.05    1.06
   8  13   5   25.60    1.29
 -13  -8   5   25.10    1.12
   8  13   5   24.31    0.96
 -13   8  -5   26.41    1.31
  13  -8  -5   23.36    1.13
   8 -13  -5   26.12    1.22
  13   8   5   24.08    1.15
  -8  13  -7   13.74    0.82
 -13  -8   7   13.58    0.80
   8 -13  -7   14.64    0.63
   8  13   7   14.30    0.77
  13  -8  -7   13.76    0.85
   8 -13  -7   14.28    0.91
 -13   8  -7   16.89    0.92
  13   8   7   14.54    0.86
 -13   8  -7   15.17    0.99
 -13  -8   7   13.77    0.93
  13   8   9   -0.02    0.28
 -13   8  -9    0.24    0.34
  -8  13  -9    0.24    0.31
 -13  -8   9    0.08    0.18
   8  13   9    0.24    0.26
 -13   8  -9    0.01    0.27
 -13  -8   9    0.29    0.34
  13  -8  -9    0.24    0.30
   8 -13  -9    0.10    0.30
  13   8  11    2.02    0.37
 -13   8 -11    3.15    0.43
 -13   8 -11    2.47    0.47
  -8  13 -11    2.68    0.50
 -13  -8  11    2.56    0.48
  13  -8 -11    2.31    0.44
   8  13  11    2.30    0.40
  -8  13 -11    2.80    0.43
   8 -13 -11    2.94    0.49
 -13  -8  13    4.56    0.58
 -13   8 -13    5.21    0.63
  -8  13 -13    4.59    0.59
 -13   8 -13    4.07    0.60
   8  13  13    4.43    0.56
   8 -13 -13    4.13    0.57
 -13  -8  15    0.96    0.37
 -13   8 -15    0.93    0.37
  -8  13 -15    1.03    0.43
 -13   8 -15    1.00    0.43
   8  13  15    0.92    0.39
 -13   8 -17    4.32    0.60
  -8  13 -17    2.92    0.58
 -13   8 -17    4.05    0.70
   8  13  17    2.98    0.53
 -13   8 -19    1.64    0.44
  -8  13 -19    1.53    0.49
   8  13  19    1.84    0.54
 -13   8 -21    0.32    0.34
  13   9 -18    0.38    0.44
  -9 -13 -18   -0.10    0.37
 -13   9  18    0.11    0.33
 -13  -9 -16    0.56    0.38
  13   9 -16    0.62    0.42
  -9 -13 -16    0.36    0.36
   9  13 -16    1.12    0.48
  -9  13  16    0.82    0.42
 -13   9  16    1.14    0.44
 -13  -9 -14    0.51    0.36
   9  13 -14    0.32    0.34
  -9 -13 -14    1.37    0.40
  13   9 -14    0.86    0.43
  -9  13  14    1.49    0.44
 -13   9  14    0.70    0.35
  13   9 -12    1.06    0.42
   9  13 -12    1.37    0.45
  -9 -13 -12    1.78    0.43
 -13  -9 -12    1.16    0.39
  -9  13  12    1.71    0.46
 -13   9  12    1.82    0.42
   9  13 -12    1.61    0.48
  13   9 -10    2.26    0.46
   9  13 -10    2.17    0.47
 -13  -9 -10    2.34    0.47
  -9 -13 -10    2.19    0.44
  -9  13  10    2.59    0.49
 -13   9  10    2.97    0.49
   9  13 -10    1.61    0.54
  13  -9   8    4.61    0.53
  13   9  -8    4.26    0.58
 -13  -9  -8    3.72    0.53
  -9 -13  -8    4.36    0.57
   9  13  -8    3.45    0.54
  -9  13   8    4.32    0.58
 -13   9   8    4.06    0.54
   9  13  -8    3.33    0.60
   9  13  -6   15.60    1.00
 -13  -9  -6   17.61    1.05
  -9 -13  -6   17.52    1.04
  -9  13   6   19.15    1.09
   9  13  -6   18.77    1.15
  13  -9   6   15.93    0.92
   9 -13   6   16.35    0.99
   9  13  -4    6.05    0.71
 -13  -9  -4    5.65    0.60
  -9 -13  -4    6.32    0.63
   9  13  -4    5.65    0.61
  13  -9   4    6.10    0.59
   9 -13   4    7.40    0.66
 -13   9   2    6.00    0.62
 -13  -9  -2    5.95    0.60
   9  13  -2    5.55    0.69
  -9 -13  -2    5.84    0.60
  13  -9   2    6.55    0.58
  13   9  -2    5.48    0.66
   9 -13   2    5.96    0.61
 -13   9   0   21.27    1.16
  -9  13   0   20.51    0.72
 -13  -9   0   19.82    1.04
  -9 -13   0   20.16    1.08
  -9 -13   0   20.47    0.69
  13   9   0   17.98    1.08
  13  -9   0   21.06    1.03
   9 -13   0   19.98    1.07
   9  13   0   19.74    1.14
   9  13   2    7.19    0.72
 -13   9  -2    6.29    0.65
  -9  13  -2    5.54    0.43
 -13  -9   2    7.52    0.62
  -9 -13   2    6.42    0.61
  13  -9  -2    7.18    0.61
  -9 -13   2    6.12    0.37
   9 -13  -2    5.83    0.60
  13   9   2    6.36    0.65
 -13   9  -4    5.31    0.61
  -9  13  -4    6.33    0.50
   9  13   4    5.38    0.64
 -13  -9   4    5.78    0.55
   9 -13  -4    6.67    0.63
  13  -9  -4    5.28    0.55
 -13  -9   4    5.77    0.65
  13   9   4    5.91    0.62
 -13   9  -6   18.63    1.12
   9  13   6   16.08    1.02
  -9  13  -6   16.80    0.89
 -13  -9   6   17.39    0.93
 -13  -9   6   16.57    1.04
  13  -9  -6   14.97    0.91
   9 -13  -6   16.07    0.99
  13   9   6   15.95    0.95
  13   9   8    3.22    0.48
 -13   9  -8    3.75    0.57
  -9  13  -8    3.45    0.47
   9  13   8    4.32    0.45
 -13  -9   8    2.85    0.40
   9  13   8    4.72    0.62
  13  -9  -8    3.75    0.50
   9 -13  -8    4.28    0.54
 -13  -9   8    2.84    0.52
 -13   9  -8    3.59    0.46
  13   9  10    1.36    0.37
 -13   9 -10    1.37    0.40
 -13  -9  10    2.26    0.48
 -13   9 -10    2.69    0.49
   9  13  10    2.24    0.38
  13  -9 -10    2.24    0.46
 -13   9 -10    2.66    0.42
   9 -13 -10    2.54    0.48
  -9  13 -10    1.61    0.41
 -13  -9  12    1.54    0.41
  -9  13 -12    1.36    0.42
 -13   9 -12    1.54    0.47
 -13   9 -12    1.50    0.40
   9  13  12    1.52    0.41
   9 -13 -12    2.22    0.46
 -13   9 -14    0.75    0.37
  -9  13 -14    1.00    0.41
 -13   9 -14    0.62    0.38
   9  13  14    0.93    0.38
 -13  -9  14    0.62    0.37
 -13   9 -16    0.75    0.38
  -9  13 -16    0.81    0.45
 -13   9 -16    1.03    0.45
   9  13  16    0.40    0.35
 -13   9 -18    0.70    0.37
  -9  13 -18    0.83    0.44
 -13   9 -18    0.95    0.48
   9  13  18    0.63    0.36
 -13   9 -20    1.48    0.46
 -10 -13 -17    0.27    0.33
  13  10 -17    0.22    0.39
 -13  10  17   -0.04    0.33
 -13 -10 -15    1.89    0.50
  13  10 -15    1.74    0.50
  10  13 -15    1.84    0.52
 -10 -13 -15    1.23    0.40
 -10  13  15    1.69    0.46
 -13  10  15    0.50    0.35
 -13 -10 -13    0.40    0.36
  10  13 -13    0.82    0.40
 -10 -13 -13    0.57    0.36
  13  10 -13   -0.43    0.42
 -10  13  13    0.36    0.35
 -13  10  13    0.13    0.28
 -13 -10 -11    0.76    0.36
 -10 -13 -11    1.26    0.42
  10  13 -11    0.37    0.36
 -10  13  11    1.49    0.42
 -13  10  11    0.57    0.31
  10  13 -11    1.03    0.50
  13  10 -11    0.77    0.39
  13 -10   9    1.43    0.40
  10  13  -9    0.88    0.41
 -13 -10  -9    1.16    0.37
 -10 -13  -9    1.89    0.42
  13  10  -9    1.62    0.45
 -10  13   9    0.87    0.37
 -13  10   9    0.76    0.34
  10  13  -9    1.15    0.44
  13 -10   7    0.69    0.33
  10 -13   7    0.47    0.34
 -13 -10  -7    0.82    0.37
 -10 -13  -7    0.52    0.30
  10  13  -7    0.42    0.36
 -10  13   7    0.64    0.31
  10  13  -7    0.47    0.44
  10  13  -5   12.67    0.89
 -13 -10  -5   12.28    0.88
 -10 -13  -5   13.12    0.90
  13  10  -5   11.72    0.95
  10  13  -5   11.64    0.94
  13 -10   5   12.49    0.83
  10 -13   5   12.01    0.84
  10  13  -3    3.18    0.58
 -13 -10  -3    2.61    0.45
 -10 -13  -3    2.73    0.45
  13  10  -3    3.11    0.54
  13 -10   3    3.35    0.49
  10 -13   3    3.29    0.50
  10  13  -1    4.93    0.64
 -13 -10  -1    6.47    0.62
 -10 -13  -1    4.99    0.56
  13 -10   1    5.49    0.56
  10 -13   1    6.08    0.62
  13  10  -1    5.71    0.66
 -13  10  -1    6.20    0.65
 -13 -10   1    6.24    0.59
  10  13   1    5.98    0.69
 -10 -13   1    6.84    0.64
  10 -13  -1    6.52    0.63
  13 -10  -1    5.16    0.57
  13  10   1    5.55    0.63
 -13  10  -3    3.58    0.54
 -10  13  -3    3.26    0.37
  10  13   3    3.02    0.57
 -13 -10   3    2.83    0.43
 -10 -13   3    2.87    0.45
  13 -10  -3    3.30    0.48
  10 -13  -3    2.94    0.48
  13  10   3    4.66    0.58
  10  13   5   13.40    0.94
 -13  10  -5   12.07    0.93
 -10  13  -5   12.74    0.75
 -13 -10   5   13.55    0.85
 -13  10  -5   12.71    0.79
  13 -10  -5   11.92    0.83
  10 -13  -5   12.73    0.89
  13  10   5   13.21    0.89
 -13  10  -7    0.27    0.31
 -13  10  -7    0.72    0.32
 -13 -10   7    0.09    0.20
  10  13   7    0.99    0.43
  13  10   7    0.54    0.33
 -13  10  -7    0.84    0.35
  13 -10  -7    0.87    0.34
  10 -13  -7    0.53    0.33
 -10  13  -7    0.54    0.29
 -13  10  -9    1.08    0.34
  13  10   9    0.82    0.37
 -10  13  -9    1.30    0.37
 -13  10  -9    1.07    0.38
 -13  10  -9    1.33    0.41
 -13 -10   9    0.98    0.29
  10  13   9    1.27    0.46
  13 -10  -9    1.04    0.36
  10 -13  -9    2.15    0.45
 -13 -10   9    1.54    0.44
  13  10  11    0.78    0.33
 -10  13 -11    0.81    0.36
 -13  10 -11    1.12    0.40
  10  13  11    1.49    0.50
  13 -10 -11    2.15    0.45
  10 -13 -11    1.27    0.40
 -13  10 -11    0.81    0.38
 -13 -10  11    1.09    0.42
 -13  10 -13    0.05    0.31
 -10  13 -13    0.97    0.40
 -13  10 -13    0.45    0.37
 -13 -10  13    0.99    0.41
  10 -13 -13    1.02    0.40
  10  13  13    1.24    0.45
 -13  10 -15    1.46    0.44
 -10  13 -15    1.29    0.44
 -13  10 -15    0.58    0.39
 -13  10 -17   -0.38    0.38
 -10  13 -17    0.66    0.44
 -13  10 -17    0.58    0.41
 -13 -11 -16    1.56    0.49
  13  11 -16    0.51    0.46
 -11 -13 -16    0.66    0.43
 -13  11  16    1.32    0.44
  13  11 -14    2.86    0.57
  11  13 -14    3.85    0.65
 -13 -11 -14    3.61    0.61
 -11 -13 -14    1.83    0.48
 -11  13  14    2.62    0.53
 -13  11  14    3.80    0.60
  13  11 -12    0.76    0.43
  11  13 -12    0.82    0.40
 -13 -11 -12    0.91    0.36
 -11 -13 -12    0.83    0.36
 -11  13  12    1.21    0.39
 -13  11  12    1.34    0.40
  11  13 -10    6.17    0.71
 -11 -13 -10    8.00    0.79
 -13 -11 -10    6.86    0.74
 -11  13  10    7.05    0.75
 -13  11  10    6.74    0.72
  11  13 -10    7.97    0.86
  13  11 -10    7.51    0.77
  13 -11   8    1.49    0.37
  11 -13   8    1.08    0.36
  13  11  -8    0.36    0.35
  11  13  -8    1.39    0.43
 -11  13   8    0.79    0.36
 -13  11   8    1.40    0.40
 -13 -11  -8    1.38    0.40
  11  13  -8    1.02    0.52
 -11 -13  -8    0.46    0.32
  13 -11   6    1.48    0.40
  11 -13   6    0.89    0.34
  11  13  -6    0.95    0.40
 -13 -11  -6    1.05    0.35
 -11 -13  -6    0.89    0.36
  13  11  -6    1.28    0.48
  11  13  -6    1.94    0.56
  11  13  -4    7.04    0.76
 -11 -13  -4    6.28    0.65
 -13 -11  -4    5.66    0.63
  13  11  -4    7.15    0.77
  13 -11   4    6.31    0.63
  11 -13   4    8.12    0.72
  11  13  -2    0.10    0.38
 -13 -11  -2    0.60    0.30
 -11 -13  -2    0.54    0.28
  13  11  -2    0.88    0.45
  13 -11   2    0.30    0.32
  11 -13   2    0.67    0.34
  11  13   0    2.32    0.53
 -13 -11   0    2.63    0.45
 -11 -13   0    1.86    0.38
  13 -11   0    2.75    0.47
  11 -13   0    2.07    0.43
  13  11   0    1.44    0.48
  13  11   2    0.85    0.41
  11  13   2    0.56    0.40
 -13  11  -2    0.41    0.22
 -13 -11   2    0.48    0.26
 -11 -13   2    0.75    0.31
  13 -11  -2    0.63    0.32
  11 -13  -2    0.02    0.30
  13  11   4    5.78    0.66
 -11  13  -4    6.77    0.54
  11  13   4    6.90    0.74
 -13 -11   4    6.83    0.62
 -13  11  -4    5.40    0.52
 -11 -13   4    5.91    0.61
  13 -11  -4    6.51    0.64
  11 -13  -4    6.63    0.66
 -13  11  -6    1.17    0.40
  13  11   6    0.45    0.36
 -11  13  -6    1.10    0.32
  11  13   6    1.25    0.44
 -13  11  -6    1.65    0.37
 -13 -11   6    0.84    0.30
  13 -11  -6    0.96    0.35
  11 -13  -6    1.73    0.43
 -13  11  -8    0.90    0.40
  13  11   8    0.37    0.34
 -11  13  -8    0.38    0.31
 -13  11  -8    1.32    0.39
  11  13   8    1.52    0.47
 -13 -11   8    0.99    0.31
  13 -11  -8    0.64    0.33
  11 -13  -8    1.20    0.39
 -13  11  -8    0.86    0.32
 -13  11 -10    7.97    0.80
 -11  13 -10    8.05    0.74
 -13  11 -10    7.14    0.70
  11  13  10    6.93    0.73
  13 -11 -10    7.44    0.72
  11 -13 -10    7.93    0.75
  13  11  10    7.79    0.72
 -13  11 -12    0.74    0.40
 -11  13 -12    0.59    0.36
 -13  11 -12    0.89    0.40
  11  13  12    1.35    0.45
  13 -11 -12    1.15    0.39
  11 -13 -12    0.15    0.31
 -11  13 -14    4.12    0.64
 -13  11 -14    2.76    0.55
 -11  13 -16    0.56    0.41
 -13  11 -16    1.11    0.48
 -13 -12 -15   11.64    1.06
 -12 -13 -15   14.55    1.14
  13  12 -15   13.00    1.11
 -13  12  15   15.36    1.17
 -13 -12 -13    2.76    0.54
 -12 -13 -13    2.32    0.52
  12  13 -13    1.82    0.51
  13  12 -13    1.50    0.50
 -12  13  13    2.04    0.52
 -13  12  13    2.54    0.53
  13  12 -11    1.60    0.48
  12  13 -11    2.21    0.52
 -13 -12 -11    2.96    0.54
 -12 -13 -11    2.97    0.55
 -12  13  11    2.50    0.52
 -13  12  11    1.99    0.47
  13  12  -9   17.83    1.17
  12  13  -9   17.87    1.18
 -13 -12  -9   18.13    1.20
 -12 -13  -9   19.01    1.20
  12  13  -9   20.59    1.32
 -12  13   9   21.17    1.26
 -13  12   9   17.65    1.16
  13 -12   9   18.65    1.12
  12 -13   9   17.50    1.11
  13 -12   7    2.71    0.47
  12 -13   7    2.31    0.46
  12  13  -7    1.88    0.46
 -13 -12  -7    1.61    0.40
 -12 -13  -7    2.00    0.43
  13  12  -7    2.27    0.57
 -12  13   7    1.77    0.42
  12  13  -7    1.31    0.52
 -13 -12  -5    1.14    0.37
 -12 -13  -5    1.64    0.41
  13  12  -5    0.95    0.49
  12  13  -5    2.04    0.54
  13 -12   5    1.60    0.42
  12 -13   5    1.10    0.37
 -13 -12  -3   12.50    0.91
 -12 -13  -3   13.43    0.95
  13  12  -3   13.14    1.02
  12  13  -3   13.54    1.06
  13 -12   3   12.77    0.89
  12 -13   3   13.97    0.94
  12  13  -1    0.34    0.39
 -13 -12  -1    0.04    0.24
 -12 -13  -1    0.01    0.26
  13 -12   1   -0.33    0.31
  12 -13   1   -0.01    0.31
  13  12  -1   -0.21    0.36
  13  12   1    0.50    0.39
  12  13   1   -0.07    0.42
 -13 -12   1    0.01    0.23
 -12 -13   1    0.08    0.29
  13 -12  -1   -0.47    0.33
  12 -13  -1    0.04    0.31
 -13 -12   3   13.70    0.91
 -12 -13   3   14.22    0.94
  13 -12  -3   13.32    0.91
  12 -13  -3   13.38    0.91
  13  12   3   12.43    0.94
  12  13   3   12.14    0.96
  13  12   5    1.36    0.45
  12  13   5    1.36    0.48
 -12  13  -5    1.19    0.31
 -13  12  -5    0.61    0.27
 -13 -12   5    1.11    0.31
 -12 -13   5    0.54    0.28
  13 -12  -5    1.48    0.40
  12 -13  -5    1.34    0.38
  13  12   7    0.76    0.38
  12  13   7    1.41    0.43
 -12  13  -7    1.74    0.38
 -13  12  -7    0.95    0.33
 -13 -12   7    0.79    0.29
  13 -12  -7    1.36    0.42
  12 -13  -7    2.11    0.44
 -12  13  -9   17.44    1.04
 -13  12  -9   17.61    1.06
  13 -12  -9   20.15    1.15
  12 -13  -9   18.53    1.13
  13  12   9   16.04    1.04
  12  13   9   17.15    1.10
  13  12  11    1.93    0.47
 -12  13 -11    2.01    0.47
  12  13  11    3.00    0.53
 -13  12 -11    2.97    0.52
  13 -12 -11    3.37    0.55
  12 -13 -11    3.38    0.57
 -12  13 -13    1.60    0.46
 -13  12 -13    1.75    0.46
  13 -12 -13    2.44    0.53
  12 -13 -13    2.02    0.50
 -13  12 -15   12.44    1.04
 -12  13 -15   13.11    1.06
 -12  13 -17    0.62    0.46
  13  13 -12    9.82    0.96
 -13 -13 -12    9.12    0.89
 -13  13  12    7.95    0.85
  13  13 -10    9.60    0.89
 -13 -13 -10   11.33    0.97
 -13  13  10   12.01    1.00
  13 -13  10   10.52    0.87
  13 -13   8    5.36    0.66
 -13 -13  -8    5.96    0.69
  13  13  -8    6.22    0.78
 -13  13   8    6.46    0.74
 -13 -13  -6    4.27    0.59
  13  13  -6    3.76    0.67
  13 -13   6    4.69    0.59
 -13 -13  -4    9.14    0.81
  13  13  -4    9.33    0.90
  13 -13   4    8.73    0.78
  13 -13   2    5.85    0.63
  13  13  -2    4.70    0.68
  13  13   0    0.83    0.45
 -13 -13   0    0.29    0.28
  13 -13   0    1.32    0.41
  13  13   2    5.04    0.67
 -13 -13   2    4.56    0.57
  13 -13  -2    4.93    0.60
 -13 -13   4    9.09    0.76
  13 -13  -4    9.67    0.79
  13  13   6    3.94    0.60
 -13  13  -6    5.28    0.56
 -13 -13   6    4.63    0.57
  13 -13  -6    5.41    0.64
  13  13   8    4.67    0.64
 -13  13  -8    5.69    0.62
 -13 -13   8    7.36    0.68
  13 -13  -8    7.14    0.73
 -13  13 -10   10.49    0.85
  13 -13 -10   10.93    0.90
  13  13  10   10.52    0.88
 -13  13 -12    8.29    0.82
  13 -13 -12    7.90    0.81
 -13  13 -14    9.65    0.92
 -13  13 -16    2.97    0.63
   0  14   0    0.28    0.19
 -14   0   0    0.41    0.22
  14   0   0    0.29    0.15
   0  14   0    0.68    0.21
   0 -14   0    0.63    0.29
   0 -14   2    0.79    0.29
 -14   0  -2    0.47    0.23
 -14   0   2    0.74    0.21
   0  14  -2    1.15    0.29
 -14   0   2    0.68    0.40
  14   0  -2    1.24    0.23
   0 -14  -2    1.10    0.26
   0  14   2    1.03    0.26
  14   0   2    0.93    0.19
   0 -14  -2    0.28    0.22
 -14   0  -2    0.57    0.39
   0 -14  -2    0.57    0.27
 -14   0   4   11.35    0.57
   0  14  -4   10.59    0.68
 -14   0  -4   11.98    0.83
   0 -14  -4   11.17    0.56
   0  14   4   11.06    0.67
   0 -14  -4   11.90    0.72
 -14   0   4   13.24    0.89
  14   0   4   11.37    0.52
   0 -14  -4   11.52    0.65
 -14   0  -4   11.97    0.73
 -14   0   6    0.07    0.36
 -14   0  -6   -0.13    0.23
 -14   0   6   -0.02    0.12
   0  14  -6   -0.10    0.25
   0 -14  -6   -0.27    0.22
 -14   0   6   -1.08    0.27
   0  14   6   -0.12    0.23
   0 -14  -6   -0.26    0.25
   0 -14  -6    0.10    0.30
 -14   0  -6   -0.17    0.37
  14   0   6    0.03    0.14
 -14   0  -8    1.65    0.35
 -14   0   8    1.20    0.17
   0 -14  -8    1.16    0.28
   0  14  -8    1.58    0.39
   0  14  -8    1.41    0.43
 -14   0   8    1.00    0.25
   0 -14  -8    1.25    0.29
   0  14   8    1.06    0.29
 -14   0  -8    2.08    0.47
 -14   0   8    1.28    0.25
   0 -14  -8    1.56    0.41
 -14   0   8    1.59    0.43
   0  14 -10   19.55    1.09
   0 -14 -10   20.39    0.99
 -14   0  10   20.70    0.92
   0 -14 -10   22.28    1.07
 -14   0 -10   21.52    1.11
   0  14  10   19.82    1.07
 -14   0  10   20.59    1.16
 -14   0  10   21.33    0.97
   0 -14 -10   20.78    1.10
 -14   0 -10   19.84    1.12
   0  14 -10   20.78    1.11
   0  14 -12    3.11    0.53
   0  14 -12    3.71    0.55
   0 -14 -12    4.23    0.46
 -14   0  12    3.43    0.35
   0  14  12    3.63    0.52
 -14   0  12    3.64    0.42
   0 -14 -12    4.58    0.61
 -14   0 -12    4.02    0.54
   0  14 -14    1.10    0.41
  14   0 -14    0.63    0.34
   0 -14 -14    0.80    0.27
   0  14 -14    1.61    0.44
   0  14  14    0.83    0.34
 -14   0  14    1.06    0.29
   0 -14 -14    1.54    0.54
 -14   0 -14    0.82    0.35
   0 -14 -16    2.02    0.37
  14   0 -16    1.99    0.41
   0  14 -16    1.99    0.50
   0  14  16    2.24    0.48
 -14   0 -16    2.41    0.47
 -14   0  16    1.34    0.33
   0 -14 -16    2.05    0.55
   0  14 -16    1.60    0.41
 -14   0 -16    2.28    0.50
  14   0 -18   -0.24    0.30
   0 -14 -18    0.35    0.30
   0  14 -18    0.14    0.38
   0  14  18   -0.06    0.36
 -14   0 -18    0.30    0.31
 -14   0  18    0.10    0.25
   0 -14 -18   -0.05    0.48
 -14   0 -18   -0.33    0.35
   0  14  20    2.65    0.55
 -14   0 -20    2.78    0.51
   0 -14 -20    3.28    0.74
 -14   0 -22    0.54    0.35
 -14  -1 -21    2.46    0.50
   1  14 -19    1.45    0.49
  -1 -14 -19    1.54    0.39
  14   1 -19    2.64    0.50
  -1  14  19    2.57    0.52
 -14   1  19    2.15    0.42
 -14  -1 -19    1.74    0.46
  -1 -14 -19    2.66    0.65
 -14  -1 -19    2.55    0.55
  14   1 -17    2.79    0.48
  -1 -14 -17    3.14    0.45
   1  14 -17    2.73    0.57
  -1  14  17    2.11    0.46
 -14   1  17    2.68    0.44
   1  14 -17    2.58    0.54
  -1 -14 -17    2.06    0.56
 -14  -1 -17    2.38    0.50
  14   1 -15    6.14    0.62
  -1 -14 -15    6.55    0.61
   1  14 -15    6.76    0.75
  -1  14  15    7.06    0.73
 -14   1  15    6.32    0.60
  -1 -14 -15    6.55    0.75
   1  14 -15    6.78    0.70
 -14  -1 -15    6.64    0.72
   1  14 -13    1.56    0.45
  14   1 -13    1.32    0.34
   1  14 -13    1.45    0.43
  -1 -14 -13    1.89    0.36
  -1  14  13    2.19    0.44
 -14   1  13    2.17    0.37
  -1 -14 -13    1.70    0.48
 -14  -1 -13    2.19    0.44
 -14  -1 -11    3.91    0.54
 -14   1  11    3.98    0.38
   1  14 -11    4.29    0.57
   1  14 -11    4.42    0.58
  -1 -14 -11    4.21    0.48
  -1 -14 -11    4.26    0.48
  -1  14  11    4.31    0.52
 -14   1  11    4.60    0.47
  -1 -14 -11    4.28    0.59
   1  14  -9   17.18    1.00
  -1 -14  -9   16.93    0.90
 -14   1   9   16.04    0.81
 -14  -1  -9   19.24    1.05
  -1 -14  -9   16.57    0.88
  -1  14   9   16.81    0.95
 -14   1   9   16.51    0.86
  -1 -14  -9   16.12    0.95
 -14  -1  -9   16.01    0.99
   1  14  -9   15.93    0.99
 -14  -1  -7    3.34    0.45
   1  14  -7    4.07    0.49
  -1 -14  -7    3.04    0.42
   1  14  -7    4.14    0.61
 -14   1   7    3.22    0.38
  -1 -14  -7    3.30    0.41
  -1  14   7    3.27    0.43
 -14  -1  -7    4.53    0.59
  -1 -14  -7    4.01    0.51
  14  -1   7    3.46    0.33
 -14   1   7    2.79    0.22
   1  14  -5    9.03    0.65
  -1 -14  -5    8.17    0.50
  -1 -14  -5    8.11    0.61
 -14   1   5    7.01    0.57
 -14  -1  -5    8.02    0.71
  -1 -14  -5    7.87    0.58
  -1  14   5    7.46    0.57
  -1 -14  -5    8.58    0.61
  14  -1   5    7.79    0.47
 -14   1   5    6.54    0.68
 -14   1   5    8.16    0.43
 -14  -1  -5    7.84    0.62
 -14  -1  -3    8.02    0.59
 -14   1   3    7.43    0.70
   1  14  -3    6.07    0.52
  -1 -14  -3    6.75    0.48
 -14  -1  -3    6.35    0.65
 -14   1   3    6.38    0.56
  -1  14   3    6.52    0.51
  -1 -14  -3    7.42    0.55
  14  -1   3    6.89    0.42
   1  14  -3    6.51    0.42
  -1 -14  -3    7.18    0.52
   1 -14   3    6.43    0.57
 -14   1   3    6.48    0.43
 -14  -1  -1    6.51    0.52
 -14  -1  -1    7.78    0.69
  -1  14   1    7.39    0.47
   1  14  -1    7.47    0.54
  14  -1   1    6.99    0.44
   1  14  -1    7.96    0.47
  -1  14   1    7.59    0.52
 -14   1   1    7.21    0.69
  -1 -14  -1    8.42    0.46
  -1 -14  -1    7.02    0.54
   1 -14   1    7.47    0.59
 -14   1   1    7.60    0.50
 -14  -1   1    6.68    0.49
   1  14   1    6.85    0.49
  -1  14  -1    7.22    0.50
   1 -14  -1    7.17    0.48
 -14   1  -1    6.63    0.68
  14   1   1    7.32    0.37
  14  -1  -1    7.33    0.45
   1  14   1    7.19    0.48
  -1 -14   1    6.49    0.32
   1 -14  -1    7.17    0.57
 -14  -1   1    7.27    0.68
  -1 -14   1    8.45    0.59
 -14   1  -1    7.98    0.55
 -14  -1   3    6.86    0.47
   1 -14  -3    6.98    0.43
  -1  14  -3    6.47    0.51
  14  -1  -3    6.85    0.46
   1  14   3    6.96    0.50
  14   1   3    7.20    0.36
   1 -14  -3    6.99    0.56
   1 -14  -3    6.02    0.45
 -14  -1   3    7.09    0.67
 -14   1  -3    6.78    0.66
 -14   1  -3    7.20    0.54
  -1 -14   3    6.77    0.54
 -14  -1   3    6.34    0.40
 -14  -1   5    8.97    0.50
  -1  14  -5    9.20    0.63
 -14   1  -5    8.75    0.72
   1 -14  -5    8.73    0.61
   1  14   5    7.19    0.55
   1 -14  -5    8.71    0.63
 -14  -1   5    7.68    0.71
  14   1   5    8.58    0.42
   1 -14  -5    7.68    0.57
 -14   1  -5    7.58    0.52
 -14   1  -5    7.11    0.61
 -14  -1   7    3.36    0.54
  -1  14  -7    4.21    0.48
 -14  -1   7    3.74    0.30
   1 -14  -7    3.03    0.40
   1  14   7    3.80    0.44
   1 -14  -7    3.46    0.43
   1 -14  -7    3.45    0.47
  14   1   7    3.85    0.30
 -14   1  -7    3.90    0.54
 -14   1  -7    3.79    0.47
  -1  14  -9   15.60    0.94
  -1  14  -9   15.69    0.94
   1 -14  -9   17.34    0.86
 -14  -1   9   16.40    0.81
   1 -14  -9   15.61    0.90
   1  14   9   15.51    0.90
 -14  -1   9   14.78    0.77
 -14  -1   9   15.56    1.00
   1 -14  -9   15.17    0.91
 -14   1  -9   16.05    0.94
 -14   1  -9   15.32    0.95
   1 -14 -11    4.65    0.47
  -1  14 -11    4.48    0.56
  -1  14 -11    5.07    0.59
 -14  -1  11    4.50    0.40
   1 -14 -11    4.63    0.51
   1  14  11    3.61    0.48
 -14  -1  11    4.04    0.42
   1 -14 -11    4.29    0.57
 -14   1 -11    4.64    0.55
 -14  -1  11    3.36    0.53
 -14   1 -11    4.76    0.56
  -1  14 -13    0.98    0.38
   1 -14 -13    2.13    0.35
  -1  14 -13    1.80    0.43
   1  14  13    2.08    0.44
 -14   1 -13    1.70    0.37
 -14  -1  13    1.67    0.29
   1 -14 -13    1.69    0.50
 -14  -1  13    1.94    0.48
 -14   1 -13    0.98    0.33
   1 -14 -15    6.61    0.57
  14  -1 -15    5.47    0.57
  -1  14 -15    6.39    0.73
 -14   1 -15    7.26    0.72
   1  14  15    6.71    0.70
 -14  -1  15    6.13    0.56
  -1  14 -15    7.05    0.68
   1 -14 -15    6.21    0.74
 -14   1 -15    6.63    0.73
 -14  -1  15    6.11    0.69
  14  -1 -17    2.30    0.42
  -1  14 -17    2.60    0.55
   1  14  17    2.35    0.50
 -14   1 -17    3.41    0.54
 -14  -1  17    2.56    0.42
  -1  14 -17    2.73    0.50
   1 -14 -17    2.84    0.61
   1 -14 -17    2.85    0.41
 -14  -1  17    2.31    0.52
 -14   1 -17    2.22    0.51
  -1  14 -19    2.37    0.58
   1  14  19    1.90    0.51
 -14   1 -19    2.28    0.48
   1 -14 -19    1.33    0.56
 -14   1 -19    2.10    0.50
 -14  -1  19    1.57    0.44
 -14   1 -21    2.71    0.50
 -14  -2 -22    1.41    0.42
  -2 -14 -20    2.32    0.45
  14   2 -20    2.43    0.51
 -14   2  20    2.22    0.45
 -14  -2 -20    2.76    0.52
  -2 -14 -20    2.66    0.68
  -2 -14 -18    0.45    0.30
  14   2 -18    0.25    0.34
  -2  14  18    0.17    0.34
 -14   2  18   -0.02    0.25
   2  14 -18    0.37    0.40
  -2 -14 -18    0.68    0.52
 -14  -2 -18    0.22    0.35
  14   2 -16    2.75    0.48
  -2 -14 -16    2.51    0.42
   2  14 -16    3.23    0.57
  -2  14  16    2.20    0.48
 -14   2  16    2.50    0.44
   2  14 -16    2.49    0.52
  -2 -14 -16    3.10    0.61
 -14  -2 -16    2.70    0.53
  14   2 -14    6.63    0.65
  -2 -14 -14    6.08    0.60
   2  14 -14    6.61    0.73
  -2  14  14    6.36    0.67
 -14   2  14    6.88    0.62
  -2 -14 -14    7.42    0.80
 -14  -2 -14    7.37    0.75
   2  14 -14    5.78    0.66
 -14  -2 -12    1.28    0.39
   2  14 -12    0.20    0.42
   2  14 -12    0.92    0.38
 -14   2  12    1.03    0.22
  -2 -14 -12    1.34    0.34
  14   2 -12    2.08    0.41
  -2  14  12    1.19    0.35
 -14   2  12    1.23    0.32
  -2 -14 -12    0.97    0.49
   2  14 -10    7.83    0.71
 -14   2  10    7.58    0.54
  -2 -14 -10    8.12    0.65
  -2 -14 -10    8.20    0.62
  -2  14  10    8.62    0.70
 -14   2  10    7.99    0.62
  -2 -14 -10    7.09    0.71
   2  14 -10    8.65    0.78
 -14  -2 -10    8.17    0.71
 -14   2   8    9.87    0.64
  -2 -14  -8    9.24    0.68
   2  14  -8    9.24    0.73
  -2 -14  -8    9.49    0.64
 -14  -2  -8   10.97    0.81
  -2  14   8   10.44    0.73
 -14  -2  -8   10.63    0.77
   2  14  -8   10.08    0.80
 -14  -2  -6   11.05    0.76
   2  14  -6   11.22    0.76
   2  14  -6   11.37    0.85
 -14   2   6   10.05    0.68
  -2 -14  -6   10.58    0.72
  -2 -14  -6   10.48    0.65
  -2  14   6   11.00    0.72
  14  -2   6   10.58    0.58
 -14   2   6   10.22    0.41
 -14  -2  -6   10.69    0.81
   2 -14   4    1.47    0.35
 -14  -2  -4    1.70    0.48
   2  14  -4    1.76    0.36
 -14  -2  -4    1.66    0.34
  -2 -14  -4    1.50    0.32
 -14   2   4    1.92    0.34
  -2  14   4    1.56    0.30
   2  14  -4    1.59    0.21
  -2 -14  -4    1.78    0.33
  14  -2   4    2.07    0.28
 -14   2   4    1.61    0.21
 -14  -2  -2   11.14    0.69
   2  14  -2   11.48    0.70
 -14  -2  -2   12.53    0.86
 -14   2   2   10.65    0.73
 -14   2   2   11.34    0.85
   2  14  -2   10.86    0.53
  -2  14   2   10.24    0.65
  14  -2   2   10.90    0.58
  -2 -14  -2   11.13    0.66
   2 -14   2   10.37    0.70
 -14   2   2   11.39    0.57
 -14  -2   0   17.59    0.86
   2  14   0   17.16    0.83
  -2  14   0   18.03    0.75
 -14  -2   0   19.75    1.06
   2 -14   0   16.59    0.75
 -14   2   0   17.88    0.98
  14  -2   0   17.16    0.75
   2  14   0   18.23    0.75
 -14   2   0   19.20    1.05
  -2 -14   0   18.54    0.86
   2 -14   0   17.98    0.93
 -14   2   0   18.74    0.82
 -14  -2   2   10.28    0.61
  -2  14  -2   10.45    0.60
   2 -14  -2    9.78    0.51
  14  -2  -2   10.68    0.51
 -14   2  -2   10.84    0.79
  14   2   2    9.34    0.37
  14  -2  -2   10.56    0.58
   2  14   2    9.43    0.56
   2 -14  -2    9.26    0.67
  -2 -14   2    9.54    0.38
 -14   2  -2   11.46    0.81
  -2 -14   2    9.91    0.63
 -14   2  -2   10.39    0.64
 -14  -2   2    9.10    0.78
  -2  14  -4    1.66    0.32
 -14  -2   4    1.08    0.23
  14  -2  -4    1.22    0.25
 -14  -2   4    1.72    0.45
 -14   2  -4    1.17    0.34
   2  14   4    1.59    0.30
 -14   2  -4    1.62    0.43
  14   2   4    1.22    0.15
   2 -14  -4    1.78    0.35
 -14   2  -4    1.67    0.33
 -14  -2   4    1.28    0.20
 -14  -2   6   10.24    0.56
  -2  14  -6   10.12    0.69
 -14   2  -6   10.47    0.76
   2 -14  -6   11.08    0.67
 -14   2  -6   11.96    0.84
   2  14   6   10.63    0.67
   2 -14  -6   10.68    0.72
   2 -14  -6    9.32    0.64
  14   2   6   11.54    0.45
 -14  -2   6   11.51    0.84
 -14   2  -6   10.55    0.74
  -2  14  -8   10.06    0.73
 -14  -2   8   10.12    0.52
   2 -14  -8    9.89    0.63
 -14   2  -8   11.39    0.79
 -14   2  -8    9.44    0.79
   2  14   8    9.93    0.69
   2 -14  -8    7.76    0.64
  -2  14  -8   10.66    0.78
 -14  -2   8    9.15    0.56
   2 -14  -8    8.67    0.67
 -14  -2   8    8.93    0.76
 -14   2  -8    9.67    0.73
  14   2   8   10.06    0.46
  -2  14 -10    9.29    0.72
  -2  14 -10    8.22    0.70
   2 -14 -10    7.72    0.56
 -14   2 -10    7.45    0.72
   2 -14 -10    8.65    0.69
   2  14  10    7.45    0.65
 -14  -2  10    8.07    0.54
 -14  -2  10    8.73    0.76
   2 -14 -10    8.13    0.70
 -14   2 -10    7.65    0.68
 -14   2 -10    9.39    0.73
  -2  14 -12    1.05    0.38
   2 -14 -12    0.84    0.25
  -2  14 -12    0.97    0.41
   2 -14 -12    1.40    0.37
   2  14  12    1.51    0.38
 -14   2 -12    1.34    0.38
 -14  -2  12    1.14    0.25
 -14   2 -12    1.51    0.40
   2 -14 -12    1.20    0.43
 -14  -2  12    1.37    0.42
 -14   2 -12    1.01    0.36
  -2  14 -14    6.35    0.63
 -14  -2  14    5.57    0.66
   2 -14 -14    6.74    0.55
  -2  14 -14    5.89    0.68
 -14   2 -14    6.44    0.68
   2  14  14    6.65    0.69
 -14  -2  14    6.57    0.54
   2 -14 -14    5.88    0.72
 -14   2 -14    6.38    0.69
 -14  -2  16    2.45    0.51
  14  -2 -16    2.25    0.38
  -2  14 -16    2.93    0.53
   2  14  16    2.94    0.53
 -14   2 -16    3.10    0.52
   2 -14 -16    1.96    0.54
  -2  14 -16    2.76    0.48
 -14   2 -16    2.48    0.48
 -14  -2  18    0.50    0.35
  -2  14 -18    0.42    0.39
   2  14  18   -0.04    0.34
 -14   2 -18    0.31    0.30
   2 -14 -18   -0.14    0.47
 -14   2 -18    0.18    0.33
 -14   2 -20    2.57    0.51
   2  14  20    1.81    0.50
   2 -14 -20    3.07    0.70
 -14   2 -22    1.08    0.39
  -3 -14 -21    0.32    0.31
  14   3 -21    0.40    0.40
 -14   3  21    0.53    0.34
  -3 -14 -19    1.86    0.45
  14   3 -19    2.18    0.53
   3  14 -19    1.57    0.46
  -3  14  19    2.78    0.57
 -14   3  19    2.39    0.48
  -3 -14 -19    3.24    0.68
 -14  -3 -19    1.95    0.50
  14   3 -17    2.35    0.47
  -3 -14 -17    1.86    0.40
   3  14 -17    2.18    0.52
  -3  14  17    1.17    0.41
 -14   3  17    2.27    0.41
  -3 -14 -17    3.03    0.68
 -14  -3 -17    1.71    0.47
 -14  -3 -15    1.90    0.48
   3  14 -15    1.47    0.45
  14   3 -15    1.56    0.41
  -3  14  15    1.36    0.40
 -14   3  15    0.93    0.32
  -3 -14 -15    1.16    0.33
   3  14 -15    1.25    0.46
  -3 -14 -15    2.54    0.59
 -14  -3 -13    0.15    0.29
  14   3 -13    0.41    0.29
  -3 -14 -13    0.02    0.24
  -3  14  13    0.21    0.31
 -14   3  13    0.07    0.23
   3  14 -13    0.02    0.32
   3  14 -13    0.94    0.43
  14   3 -11   11.91    0.82
   3  14 -11   12.32    0.91
  -3 -14 -11   11.41    0.79
  -3  14  11   11.55    0.85
 -14   3  11   12.13    0.68
 -14   3  11   11.47    0.78
   3  14 -11   11.98    0.91
 -14  -3 -11   12.83    0.92
 -14  -3  -9    1.63    0.39
   3  14  -9    1.48    0.39
   3  14  -9    1.76    0.49
  -3 -14  -9    1.94    0.36
 -14   3   9    1.06    0.25
  -3 -14  -9    1.48    0.31
  -3  14   9    2.10    0.38
 -14   3   9    1.55    0.33
  14  -3   7    1.47    0.29
 -14  -3  -7    1.18    0.33
   3  14  -7    1.52    0.38
   3  14  -7    1.51    0.48
  -3 -14  -7    1.22    0.31
 -14   3   7    1.25    0.27
 -14  -3  -7    1.68    0.47
  -3 -14  -7    1.64    0.31
  -3  14   7    1.77    0.35
 -14  -3  -5   22.48    1.09
   3  14  -5   21.34    1.06
   3  14  -5   22.43    1.18
 -14   3   5   20.80    1.02
  -3 -14  -5   22.49    1.08
  -3 -14  -5   21.49    0.94
  -3  14   5   22.61    1.06
   3  14  -5   22.29    0.71
  14  -3   5   22.12    0.92
 -14  -3  -5   23.32    1.18
 -14  -3  -3   16.18    0.88
 -14   3   3   16.82    0.92
   3  14  -3   16.02    0.87
  -3 -14  -3   15.25    0.88
   3  14  -3   15.31    0.60
 -14  -3  -3   16.66    1.02
  -3 -14  -3   16.59    0.79
  -3  14   3   16.36    0.86
  14  -3   3   15.92    0.75
 -14   3   3   16.39    0.64
   3 -14   3   15.81    0.89
   3  14  -1    9.14    0.64
  -3  14   1    9.69    0.49
 -14  -3  -1    9.44    0.64
   3 -14   1    8.68    0.55
 -14   3   1    9.16    0.71
 -14  -3  -1    9.32    0.77
   3  14  -1    8.51    0.46
 -14   3   1   10.55    0.80
  14  -3   1    9.69    0.56
  -3 -14  -1    9.42    0.59
   3 -14   1   10.38    0.70
 -14   3   1    9.53    0.53
 -14  -3   1    9.92    0.63
  -3  14  -1    9.29    0.54
 -14  -3   1    8.57    0.74
  14  -3  -1    9.90    0.51
   3 -14  -1    9.10    0.49
 -14   3  -1    9.53    0.74
   3  14   1    9.53    0.52
  14  -3  -1    9.65    0.57
 -14   3  -1    8.91    0.76
   3 -14  -1    9.87    0.69
  -3 -14   1    9.58    0.60
 -14   3  -1    9.80    0.59
 -14  -3   3   14.67    0.95
 -14  -3   3   15.86    0.78
  -3  14  -3   18.02    0.81
  14  -3  -3   16.38    0.61
 -14   3  -3   18.49    1.03
  14  -3  -3   14.34    0.75
   3  14   3   16.02    0.76
   3 -14  -3   16.48    0.89
 -14   3  -3   17.55    0.99
 -14   3  -3   16.33    0.83
  -3 -14   3   15.58    0.79
  -3  14  -5   21.01    0.95
 -14   3  -5   20.91    1.11
  14  -3  -5   21.40    0.92
   3  14   5   21.22    0.93
   3 -14  -5   23.45    1.07
 -14   3  -5   21.00    0.86
 -14   3  -5   22.83    1.11
 -14  -3   5   20.27    1.12
 -14   3  -5   21.29    1.00
 -14  -3   5   22.19    0.89
 -14   3  -7    1.08    0.35
  -3  14  -7    1.35    0.32
 -14  -3   7    1.22    0.22
   3 -14  -7    1.54    0.28
 -14   3  -7    1.72    0.40
 -14  -3   7    0.77    0.34
   3  14   7    1.13    0.28
   3 -14  -7    1.52    0.34
 -14  -3   7    1.27    0.22
  14   3   7    1.40    0.15
 -14   3  -7    1.41    0.35
  -3  14  -9    0.86    0.32
 -14  -3   9    1.64    0.23
   3 -14  -9    1.72    0.29
 -14  -3   9    1.81    0.43
  -3  14  -9    2.24    0.47
 -14   3  -9    1.67    0.40
   3  14   9    1.48    0.34
   3 -14  -9    1.56    0.36
 -14  -3   9    1.72    0.26
 -14   3  -9    1.99    0.38
 -14   3  -9    1.77    0.41
  -3  14 -11   12.53    0.82
  -3  14 -11   11.70    0.85
   3 -14 -11   13.32    0.72
 -14   3 -11   11.04    0.87
   3 -14 -11   11.54    0.82
   3  14  11   11.41    0.81
 -14  -3  11   11.19    0.64
   3 -14 -11    9.97    0.80
 -14  -3  11   11.70    0.87
 -14   3 -11   12.42    0.87
 -14   3 -11   12.34    0.82
  -3  14 -13   -0.12    0.35
   3 -14 -13    0.43    0.21
 -14  -3  13    0.10    0.32
  -3  14 -13    0.12    0.32
   3 -14 -13    0.81    0.35
 -14   3 -13    0.13    0.28
   3  14  13    0.11    0.30
 -14  -3  13   -0.02    0.18
   3 -14 -13    0.50    0.39
 -14   3 -13    0.27    0.31
  -3  14 -15    1.32    0.40
 -14  -3  15    1.80    0.45
 -14   3 -15    1.53    0.40
   3  14  15    1.83    0.43
   3 -14 -15    1.29    0.49
 -14   3 -15    1.26    0.40
  -3  14 -15    1.97    0.44
  -3  14 -17    2.25    0.51
 -14  -3  17    2.17    0.46
 -14   3 -17    1.28    0.41
   3  14  17    1.23    0.42
   3 -14 -17    1.96    0.55
  -3  14 -19    2.75    0.62
 -14   3 -19    2.50    0.51
   3  14  19    1.81    0.47
   3 -14 -19    1.54    0.57
 -14   3 -21    1.19    0.45
  -4 -14 -22    1.40    0.45
  14   4 -22    1.83    0.53
  -4 -14 -20    0.30    0.31
  14   4 -20    0.53    0.43
 -14   4  20    0.41    0.33
  14   4 -18    0.87    0.38
   4  14 -18    0.83    0.45
  -4 -14 -18   -0.14    0.33
  -4  14  18   -0.10    0.35
 -14   4  18    0.59    0.36
  -4 -14 -18    1.70    0.65
 -14  -4 -18    0.20    0.36
 -14  -4 -16    0.72    0.38
  -4 -14 -16    0.42    0.31
   4  14 -16    1.24    0.45
  14   4 -16    1.14    0.41
  -4  14  16    1.20    0.41
   4  14 -16    0.46    0.43
 -14   4  16    0.78    0.33
  -4 -14 -16    1.38    0.59
 -14  -4 -14    1.30    0.40
   4  14 -14    1.81    0.48
  14   4 -14    2.11    0.46
  -4 -14 -14    1.69    0.41
  -4  14  14    1.49    0.39
 -14   4  14    2.07    0.40
   4  14 -14    1.43    0.48
 -14  -4 -12    1.91    0.43
  14   4 -12    2.30    0.44
   4  14 -12    1.94    0.45
  -4 -14 -12    1.82    0.37
  -4  14  12    2.18    0.45
 -14   4  12    1.91    0.37
   4  14 -12    2.74    0.54
 -14  -4 -10    1.39    0.40
   4  14 -10    1.49    0.41
 -14   4  10    1.96    0.32
   4  14 -10    1.21    0.43
  -4 -14 -10    2.05    0.39
  -4  14  10    2.48    0.43
 -14   4  10    2.45    0.40
 -14  -4  -8    6.96    0.66
 -14   4   8    8.15    0.61
   4  14  -8    8.77    0.73
  -4 -14  -8    8.12    0.67
  -4 -14  -8    7.78    0.55
  -4  14   8    9.06    0.70
   4  14  -8    7.88    0.76
  14  -4   8    8.69    0.59
  14  -4   6    1.94    0.31
 -14  -4  -6    2.24    0.48
 -14  -4  -6    1.47    0.36
   4  14  -6    1.74    0.38
   4  14  -6    2.51    0.52
 -14   4   6    2.18    0.35
  -4 -14  -6    1.91    0.37
   4  14  -6    1.61    0.14
  -4 -14  -6    2.24    0.32
  -4  14   6    1.81    0.36
   4 -14   4    0.74    0.33
   4  14  -4    0.56    0.28
 -14  -4  -4    0.59    0.26
 -14  -4  -4    1.08    0.47
  -4 -14  -4    0.57    0.27
 -14   4   4    0.51    0.25
   4  14  -4    0.88    0.48
   4  14  -4    0.49    0.11
  -4 -14  -4    0.68    0.25
  -4  14   4    0.32    0.22
  14  -4   4    0.32    0.22
   4  14  -2    5.57    0.53
 -14  -4  -2    5.98    0.53
 -14   4   2    5.93    0.57
 -14  -4  -2    6.35    0.67
   4  14  -2    6.60    0.35
   4  14  -2    6.59    0.74
  -4 -14  -2    6.35    0.47
  -4  14   2    6.13    0.33
  14  -4   2    6.21    0.48
   4 -14   2    6.56    0.60
  -4  14   0   22.81    0.81
  14  -4   0   20.70    0.84
 -14   4   0   21.78    1.11
 -14  -4   0   21.54    1.16
   4  14   0   20.89    0.78
 -14   4   0   23.13    1.18
 -14  -4   0   22.98    1.04
  14  -4   0   23.28    0.95
  -4 -14   0   23.39    0.94
   4 -14   0   22.34    1.07
 -14   4   0   22.20    0.89
 -14   4  -2    6.55    0.67
  -4  14  -2    5.93    0.44
 -14  -4   2    6.89    0.53
  14  -4  -2    5.88    0.37
 -14   4  -2    6.47    0.61
   4  14   2    6.94    0.45
  14  -4  -2    7.01    0.52
 -14  -4   2    4.74    0.63
   4 -14  -2    5.76    0.57
 -14   4  -2    6.54    0.50
  -4 -14   2    7.09    0.51
 -14  -4   4    0.61    0.38
  -4  14  -4    0.75    0.28
 -14  -4   4    0.77    0.24
 -14   4  -4    0.87    0.37
 -14   4  -4    0.54    0.30
   4  14   4    0.84    0.25
  14  -4  -4    0.92    0.28
   4 -14  -4    0.65    0.31
 -14   4  -4    0.76    0.27
  -4  14  -6    1.69    0.35
 -14  -4   6    2.06    0.29
   4 -14  -6    2.13    0.30
 -14   4  -6    2.12    0.43
  14  -4  -6    1.92    0.33
   4  14   6    2.36    0.35
 -14   4  -6    2.39    0.45
   4 -14  -6    2.44    0.42
 -14   4  -6    2.55    0.39
 -14  -4   6    1.65    0.43
 -14   4  -8    8.31    0.68
 -14  -4   8    7.63    0.51
   4 -14  -8    7.63    0.53
 -14   4  -8    8.20    0.73
   4  14   8    8.45    0.63
   4 -14  -8    7.70    0.66
 -14  -4   8    7.88    0.47
 -14   4  -8    7.99    0.69
 -14  -4   8    6.66    0.67
  -4  14  -8    7.17    0.62
 -14   4 -10    2.18    0.43
  -4  14 -10    2.02    0.41
   4 -14 -10    1.72    0.28
 -14  -4  10    1.04    0.22
  -4  14 -10    1.95    0.44
 -14   4 -10    1.76    0.40
   4  14  10    1.43    0.36
   4 -14 -10    2.19    0.42
 -14  -4  10    2.03    0.45
 -14  -4  10    2.01    0.27
 -14   4 -10    1.54    0.39
   4 -14 -12    1.87    0.29
  -4  14 -12    1.78    0.43
 -14   4 -12    2.28    0.42
  -4  14 -12    2.15    0.44
 -14   4 -12    2.20    0.44
   4  14  12    1.83    0.42
   4 -14 -12    2.01    0.42
 -14  -4  12    2.00    0.44
  -4  14 -14    1.32    0.37
  -4  14 -14    1.88    0.47
 -14   4 -14    1.71    0.40
   4  14  14    2.14    0.44
 -14  -4  14    1.19    0.38
  -4  14 -16    0.77    0.40
 -14   4 -16    0.91    0.37
   4  14  16    1.19    0.41
 -14  -4  16   -0.13    0.32
  -4  14 -18    0.48    0.39
 -14   4 -18    0.34    0.32
   4  14  18    0.57    0.35
 -14  -4  18    0.88    0.40
 -14   4 -20    0.50    0.38
   4  14  20    0.88    0.47
  -5 -14 -21   -0.04    0.34
  14   5 -21    0.44    0.42
  -5 -14 -19    0.51    0.35
  14   5 -19   -0.61    0.43
 -14   5  19   -0.10    0.31
 -14  -5 -17    2.77    0.57
  14   5 -17    4.01    0.59
  -5 -14 -17    3.52    0.53
   5  14 -17    3.87    0.67
  -5  14  17    3.62    0.60
 -14   5  17    3.91    0.57
  -5 -14 -15    8.37    0.75
   5  14 -15    7.91    0.84
  -5  14  15    7.59    0.78
 -14   5  15    8.02    0.74
  14   5 -15    8.31    0.79
   5  14 -15    7.46    0.79
 -14  -5 -15    7.66    0.80
 -14  -5 -13    2.32    0.48
  14   5 -13    1.96    0.48
  -5 -14 -13    2.18    0.44
   5  14 -13    1.62    0.44
  -5  14  13    2.03    0.48
 -14   5  13    2.12    0.40
   5  14 -13    2.15    0.54
   5  14 -11    2.05    0.52
 -14  -5 -11    2.23    0.45
  14   5 -11    2.63    0.48
   5  14 -11    2.38    0.48
  -5 -14 -11    3.42    0.48
  -5  14  11    2.65    0.45
 -14   5  11    2.63    0.43
 -14   5   9    2.26    0.36
 -14  -5  -9    1.94    0.40
   5  14  -9    1.79    0.50
   5  14  -9    2.04    0.44
  -5 -14  -9    1.82    0.37
  -5  14   9    2.10    0.42
 -14   5   9    2.13    0.38
 -14  -5  -7   14.29    0.93
   5  14  -7   14.58    0.92
 -14   5   7   15.06    0.85
  -5 -14  -7   15.20    0.92
  -5 -14  -7   15.00    0.74
  -5  14   7   14.84    0.91
   5  14  -7   15.89    1.03
  14  -5   7   14.16    0.78
 -14  -5  -5    6.26    0.61
   5  14  -5    6.76    0.63
 -14   5   5    6.97    0.59
  -5 -14  -5    7.06    0.62
   5  14  -5    6.84    0.73
  -5 -14  -5    6.05    0.46
  -5  14   5    7.52    0.64
 -14  -5  -5    8.07    0.74
  14  -5   5    6.78    0.54
   5 -14   5    6.28    0.62
   5 -14   3    2.84    0.45
   5  14  -3    2.64    0.41
 -14  -5  -3    2.14    0.41
 -14   5   3    2.56    0.39
  -5 -14  -3    2.86    0.42
   5  14  -3    2.79    0.56
   5  14  -3    2.19    0.16
 -14  -5  -3    2.89    0.51
  -5 -14  -3    2.88    0.33
  -5  14   3    3.04    0.42
  14  -5   3    2.30    0.35
   5  14  -1    2.19    0.38
 -14  -5  -1    2.70    0.38
 -14   5   1    2.48    0.41
   5  14  -1    2.84    0.57
  -5  14   1    2.15    0.23
   5  14  -1    2.03    0.20
 -14  -5  -1    2.79    0.53
  14  -5   1    1.98    0.35
  -5 -14  -1    2.50    0.30
   5 -14   1    2.01    0.39
 -14  -5   1    2.83    0.52
  -5  14  -1    2.41    0.28
 -14  -5   1    2.42    0.36
 -14   5  -1    2.45    0.41
   5  14   1    2.32    0.26
  14  -5  -1    2.46    0.38
   5 -14  -1    2.32    0.41
  -5 -14   1    2.89    0.35
 -14   5  -3    3.10    0.50
  -5 -14   3    2.13    0.30
  -5  14  -3    2.65    0.34
 -14  -5   3    2.55    0.35
 -14   5  -3    2.85    0.45
   5  14   3    2.50    0.30
  14  -5  -3    2.30    0.35
   5 -14  -3    3.18    0.45
 -14  -5   3    2.84    0.51
  -5  14  -5    6.51    0.53
 -14  -5   5    7.22    0.53
 -14   5  -5    6.49    0.65
   5  14   5    7.00    0.52
  14  -5  -5    7.40    0.58
 -14  -5   5    5.71    0.64
   5 -14  -5    6.74    0.62
 -14   5  -5    7.96    0.69
 -14  -5   7   13.98    0.95
  -5  14  -7   13.98    0.82
 -14  -5   7   14.27    0.74
 -14   5  -7   14.56    0.98
   5 -14  -7   14.13    0.72
   5  14   7   15.12    0.82
  14  -5  -7   12.59    0.78
   5 -14  -7   13.88    0.87
 -14  -5   7   13.55    0.60
 -14   5  -7   15.26    0.90
 -14  -5   9    1.16    0.40
  -5  14  -9    1.73    0.37
 -14   5  -9    1.94    0.41
   5 -14  -9    1.68    0.27
 -14  -5   9    2.09    0.30
 -14   5  -9    1.68    0.42
   5  14   9    1.47    0.36
   5 -14  -9    1.52    0.38
 -14   5 -11    2.58    0.46
  -5  14 -11    2.92    0.48
   5 -14 -11    2.55    0.31
 -14  -5  11    2.41    0.31
  -5  14 -11    2.04    0.43
 -14   5 -11    2.39    0.46
   5  14  11    2.79    0.44
   5 -14 -11    1.96    0.43
 -14  -5  11    2.10    0.47
  -5  14 -13    1.69    0.43
  -5  14 -13    1.20    0.37
 -14   5 -13    2.83    0.49
   5  14  13    2.43    0.48
   5 -14 -13    1.82    0.44
 -14   5 -13    2.58    0.42
 -14  -5  13    1.63    0.46
  -5  14 -15    7.43    0.77
 -14   5 -15    8.66    0.80
   5  14  15    8.46    0.79
 -14  -5  15    9.19    0.79
  -5  14 -17    3.64    0.61
 -14   5 -17    4.56    0.61
   5  14  17    4.44    0.63
 -14  -5  17    3.32    0.55
  -5  14 -19    0.29    0.45
 -14   5 -19    0.47    0.34
   5  14  19    0.49    0.42
 -14   5 -21    0.56    0.35
  -6 -14 -20    2.08    0.48
  14   6 -20    1.73    0.55
 -14   6  20    2.85    0.58
 -14  -6 -18    7.55    0.85
  -6 -14 -18    7.86    0.79
  14   6 -18    7.02    0.83
   6  14 -18    6.81    0.83
  -6  14  18    8.49    0.89
 -14   6  18    7.73    0.79
 -14  -6 -16    2.30    0.52
   6  14 -16    1.81    0.51
  14   6 -16    1.67    0.46
  -6  14  16    1.46    0.46
  -6 -14 -16    0.69    0.35
 -14   6  16    2.24    0.46
 -14  -6 -14    4.45    0.62
  14   6 -14    3.70    0.57
   6  14 -14    4.17    0.63
  -6 -14 -14    3.82    0.55
  -6  14  14    5.13    0.65
 -14   6  14    3.96    0.53
   6  14 -14    4.58    0.70
 -14  -6 -12    9.90    0.88
  14   6 -12   10.96    0.85
   6  14 -12   11.83    0.95
  -6 -14 -12   12.48    0.90
  -6  14  12   11.11    0.88
 -14   6  12   11.12    0.86
   6  14 -12   11.34    0.95
 -14  -6 -10   11.65    0.90
  14   6 -10   12.11    0.88
  -6 -14 -10   11.95    0.87
  -6  14  10   13.35    0.92
 -14   6  10   12.37    0.86
   6  14 -10   13.95    1.00
   6  14 -10   11.38    0.89
 -14  -6  -8    9.35    0.78
 -14   6   8   10.09    0.71
   6  14  -8    9.50    0.79
  -6 -14  -8   11.74    0.82
  -6  14   8   10.80    0.81
   6  14  -8    9.28    0.85
  14  -6   8    9.93    0.70
   6 -14   6    9.88    0.75
 -14  -6  -6   11.14    0.81
   6  14  -6   10.61    0.80
  -6 -14  -6   10.71    0.78
  -6 -14  -6   10.24    0.58
  -6  14   6   11.45    0.81
   6  14  -6   10.96    0.88
  14  -6   6   10.84    0.70
 -14   6   6    9.89    0.72
   6  14  -4   15.19    0.92
 -14  -6  -4   14.41    0.91
 -14   6   4   14.51    0.89
  -6 -14  -4   15.98    0.95
  -6 -14  -4   15.10    0.69
  -6  14   4   15.67    0.93
  14  -6   4   15.87    0.83
   6 -14   4   14.57    0.89
   6  14  -4   14.57    1.00
   6  14  -2    9.58    0.71
 -14  -6  -2    9.97    0.71
 -14   6   2   10.34    0.76
   6  14  -2   10.08    0.85
  -6 -14  -2    9.82    0.73
 -14  -6  -2    8.65    0.80
  -6 -14  -2    9.68    0.55
  14  -6   2    9.28    0.64
   6 -14   2    8.91    0.70
 -14  -6   0    0.48    0.44
 -14  -6   0    0.29    0.24
 -14   6   0    0.40    0.30
  -6  14   0    0.21    0.14
   6  14   0    0.27    0.13
   6  14   0    0.20    0.42
  14  -6   0    0.37    0.26
  -6 -14   0    0.35    0.18
   6 -14   0    0.39    0.29
  -6  14  -2   10.74    0.57
 -14  -6   2   10.27    0.68
 -14   6  -2   11.51    0.83
   6  14   2    9.26    0.49
  14  -6  -2   10.69    0.68
   6 -14  -2   10.50    0.74
 -14  -6   2    9.44    0.81
  -6 -14   2   10.32    0.58
  -6  14  -4   14.97    0.76
 -14   6  -4   15.10    0.97
 -14  -6   4   16.46    0.85
   6  14   4   14.87    0.72
  14  -6  -4   14.30    0.82
 -14  -6   4   15.02    0.98
 -14   6  -4   15.44    0.96
   6 -14  -4   14.17    0.88
  -6  14  -6   11.30    0.71
 -14   6  -6    9.47    0.81
 -14  -6   6   10.60    0.67
 -14  -6   6   10.01    0.83
   6  14   6    9.87    0.65
  14  -6  -6   10.51    0.71
   6 -14  -6   10.95    0.78
 -14   6  -6   11.94    0.82
  -6  14  -8    9.63    0.72
 -14   6  -8    9.32    0.79
 -14  -6   8    9.58    0.80
 -14  -6   8    8.88    0.61
   6 -14  -8    9.56    0.56
   6  14   8    9.28    0.66
  14  -6  -8    9.58    0.71
   6 -14  -8    9.70    0.76
 -14   6  -8   11.02    0.78
 -14   6 -10   10.97    0.77
 -14  -6  10   10.68    0.85
   6 -14 -10   10.90    0.59
 -14   6 -10   11.59    0.90
  -6  14 -10   11.32    0.83
 -14  -6  10   11.97    0.69
   6  14  10   12.09    0.81
   6 -14 -10   11.16    0.82
  -6  14 -12   12.75    0.80
 -14  -6  12    9.92    0.83
 -14   6 -12   12.63    0.94
  -6  14 -12   11.70    0.89
 -14  -6  12   10.45    0.66
   6  14  12   11.11    0.83
   6 -14 -12   12.83    0.91
 -14   6 -12   12.83    0.81
 -14  -6  14    3.90    0.58
  -6  14 -14    5.08    0.64
 -14   6 -14    5.69    0.67
   6  14  14    5.25    0.63
 -14  -6  16    1.97    0.47
  -6  14 -16    1.51    0.49
 -14   6 -16    2.80    0.52
   6  14  16    2.11    0.46
  -6  14 -18    6.18    0.76
 -14   6 -18    6.06    0.71
 -14   6 -18    5.86    0.79
   6  14  18    6.86    0.77
 -14   6 -20    2.33    0.52
   6  14  20    2.83    0.60
  -7 -14 -19    1.17    0.43
  14   7 -19    0.95    0.46
 -14   7  19    1.25    0.42
  -7 -14 -17    8.07    0.81
  14   7 -17    6.57    0.76
   7  14 -17    8.33    0.90
  -7  14  17   10.05    0.95
 -14   7  17    7.01    0.77
 -14  -7 -17    8.40    0.88
 -14  -7 -15    6.08    0.73
  14   7 -15    8.04    0.80
  -7 -14 -15    6.83    0.74
   7  14 -15    6.45    0.78
 -14   7  15    7.25    0.73
  -7  14  15    6.87    0.75
 -14  -7 -13   10.40    0.91
  14   7 -13   11.79    0.93
   7  14 -13   10.56    0.92
  -7 -14 -13    9.81    0.84
  -7  14  13   11.95    0.94
 -14   7  13   12.16    0.91
   7  14 -13   10.59    0.98
 -14  -7 -11    7.10    0.73
  14   7 -11    8.73    0.78
   7  14 -11    6.21    0.70
  -7 -14 -11    7.43    0.70
  -7  14  11    8.70    0.78
 -14   7  11    9.46    0.78
   7  14 -11    7.83    0.83
   7  14  -9    2.76    0.55
   7  14  -9    2.19    0.49
 -14  -7  -9    2.52    0.47
  -7 -14  -9    2.59    0.45
  -7  14   9    2.90    0.50
 -14   7   9    3.49    0.48
 -14   7   7   24.63    1.17
 -14  -7  -7   23.10    1.23
   7  14  -7   21.36    1.19
  -7 -14  -7   25.86    1.27
  -7  14   7   26.21    1.28
   7  14  -7   23.16    1.31
  14  -7   7   23.72    1.10
   7  14  -5   17.78    1.07
 -14   7   5   21.45    1.09
 -14  -7  -5   20.63    1.11
  -7 -14  -5   20.31    1.10
  -7 -14  -5   18.84    0.77
  -7  14   5   20.18    1.09
  14  -7   5   21.35    1.02
   7  14  -5   18.27    1.15
   7 -14   5   20.32    1.08
   7  14  -3    0.14    0.27
 -14  -7  -3    0.38    0.27
 -14   7   3    0.98    0.32
   7  14  -3    0.09    0.39
  -7 -14  -3    0.66    0.27
  -7 -14  -3    0.76    0.20
  14  -7   3    0.84    0.32
   7 -14   3    0.71    0.32
   7  14  -1   28.77    1.41
 -14   7   1   28.42    1.33
 -14  -7  -1   29.85    1.28
  -7 -14  -1   29.49    1.32
 -14  -7  -1   26.10    1.34
  -7 -14  -1   28.16    0.98
  14  -7   1   27.74    1.18
   7 -14   1   30.10    1.33
 -14   7  -1   30.29    1.39
  -7  14  -1   29.92    0.98
   7  14   1   29.23    1.40
 -14  -7   1   28.14    1.25
 -14  -7   1   27.17    1.35
   7  14   1   29.30    0.88
  14  -7  -1   29.63    1.22
   7 -14  -1   27.28    1.28
  -7 -14   1   28.69    1.01
  -7 -14   3    0.81    0.22
  -7  14  -3    0.59    0.23
 -14  -7   3    0.72    0.25
 -14   7  -3    1.60    0.38
   7  14   3    1.11    0.21
   7  14   3    1.06    0.46
  14  -7  -3    0.64    0.31
   7 -14  -3    1.07    0.36
 -14  -7   3    0.79    0.41
 -14   7  -5   19.95    1.15
  -7  14  -5   20.59    0.94
 -14  -7   5   19.80    0.97
   7  14   5   19.67    0.86
  14  -7  -5   19.57    1.00
   7 -14  -5   17.82    1.04
  14   7   5   19.92    1.03
 -14   7  -5   20.63    1.10
 -14  -7   5   17.62    1.09
 -14   7  -7   26.25    1.34
  -7  14  -7   23.70    1.11
 -14  -7   7   23.66    1.06
   7 -14  -7   22.99    0.90
   7  14   7   23.60    1.05
  14  -7  -7   24.26    1.15
   7 -14  -7   24.70    1.22
 -14  -7   7   23.20    1.24
  14   7   7   23.76    1.11
 -14   7  -7   24.86    1.18
  -7  14  -9    3.02    0.45
 -14   7  -9    2.31    0.47
 -14  -7   9    2.35    0.35
   7  14   9    2.26    0.39
  14  -7  -9    3.13    0.46
   7 -14  -9    3.02    0.48
 -14   7  -9    3.36    0.48
  14   7   9    2.57    0.40
 -14  -7   9    2.52    0.49
 -14   7 -11    9.02    0.81
  -7  14 -11    9.20    0.69
  -7  14 -11    7.64    0.72
 -14   7 -11    7.76    0.66
 -14  -7  11    7.88    0.59
   7  14  11    8.20    0.70
   7 -14 -11    8.41    0.75
 -14  -7  11    6.72    0.71
 -14   7 -13   11.40    0.92
  -7  14 -13   11.45    0.90
 -14  -7  13   11.35    0.88
   7  14  13    9.86    0.82
   7 -14 -13   11.86    0.91
 -14   7 -15    7.35    0.76
  -7  14 -15    6.94    0.78
 -14   7 -15    7.84    0.82
   7  14  15    6.14    0.70
 -14  -7  15    5.60    0.66
 -14   7 -17    8.31    0.84
  -7  14 -17    8.06    0.85
 -14   7 -17    8.51    0.91
   7  14  17    8.33    0.82
 -14   7 -19    1.16    0.43
   7  14  19    0.35    0.37
 -14   7 -21    0.17    0.32
  -8 -14 -18    0.60    0.36
  14   8 -18    0.21    0.39
 -14   8  18    0.48    0.38
 -14  -8 -16    4.41    0.66
  14   8 -16    4.26    0.66
  -8 -14 -16    4.09    0.61
   8  14 -16    3.41    0.66
  -8  14  16    4.95    0.69
 -14   8  16    3.40    0.58
 -14  -8 -14    6.34    0.74
  -8 -14 -14    7.22    0.76
   8  14 -14    6.26    0.77
 -14   8  14    6.46    0.71
  -8  14  14    6.78    0.75
  14   8 -14    6.58    0.76
 -14  -8 -12    1.88    0.44
   8  14 -12    2.25    0.52
  -8 -14 -12    1.81    0.43
  14   8 -12    1.51    0.46
  -8  14  12    1.90    0.44
 -14   8  12    3.31    0.51
   8  14 -12    1.90    0.55
 -14  -8 -10   11.90    0.92
  14   8 -10   11.83    0.92
   8  14 -10   10.58    0.89
  -8 -14 -10   11.89    0.90
  -8  14  10   12.41    0.93
 -14   8  10   13.88    0.95
   8  14 -10   11.15    0.97
 -14  -8  -8   21.34    1.21
   8  14  -8   20.27    1.18
  -8 -14  -8   21.76    1.20
  -8  14   8   21.19    1.20
   8  14  -8   21.77    1.29
  14  -8   8   20.31    1.06
  14  -8   6    0.48    0.31
   8 -14   6   -0.32    0.30
   8  14  -6    0.07    0.29
   8  14  -6    0.67    0.45
 -14  -8  -6    0.33    0.28
  -8 -14  -6    0.18    0.26
  -8  14   6    0.36    0.28
   8  14  -4   27.01    1.32
 -14   8   4   29.27    1.34
 -14  -8  -4   29.75    1.37
  -8 -14  -4   28.74    1.36
  14  -8   4   30.39    1.28
   8  14  -4   27.19    1.42
   8 -14   4   28.57    1.32
 -14  -8  -2   29.79    1.32
  -8 -14  -2   27.94    1.32
 -14   8   2   28.22    1.34
  -8 -14  -2   26.62    0.90
  14  -8   2   27.00    1.20
   8 -14   2   27.03    1.29
   8  14  -2   26.80    1.38
 -14   8   0    2.55    0.43
 -14  -8   0    2.58    0.42
   8  14   0    1.98    0.51
 -14  -8   0    3.73    0.58
  -8 -14   0    2.04    0.39
  -8 -14   0    2.65    0.27
  14  -8   0    2.27    0.38
   8 -14   0    1.53    0.38
 -14   8  -2   28.87    1.40
  -8  14  -2   29.84    1.03
 -14  -8   2   29.07    1.26
 -14  -8   2   28.82    1.41
  14  -8  -2   27.60    1.23
  14   8   2   28.42    1.34
   8 -14  -2   26.50    1.29
   8  14   2   30.95    1.45
  -8 -14   2   29.69    1.01
 -14   8  -4   29.19    1.43
 -14  -8   4   28.83    1.41
  -8  14  -4   30.69    1.15
   8  14   4   28.16    1.39
 -14  -8   4   27.38    1.23
   8  14   4   29.19    1.02
  14  -8  -4   28.71    1.26
   8 -14  -4   30.32    1.36
  14   8   4   29.22    1.32
  -8 -14   4   27.58    1.01
 -14   8  -6   -0.23    0.32
  -8  14  -6    0.29    0.25
 -14   8  -6    0.03    0.31
 -14  -8   6    0.09    0.21
   8  14   6    0.32    0.20
   8  14   6    1.12    0.45
  14  -8  -6    0.11    0.27
   8 -14  -6    0.48    0.34
  14   8   6    0.50    0.31
 -14  -8   6    0.84    0.40
 -14   8  -8   21.69    1.25
  -8  14  -8   22.45    1.11
 -14  -8   8   19.42    0.99
   8  14   8   19.95    0.98
  14  -8  -8   21.37    1.11
   8 -14  -8   20.48    1.14
  14   8   8   18.85    1.01
 -14   8  -8   23.71    1.14
 -14  -8   8   20.18    1.17
 -14   8 -10   11.63    0.93
  -8  14 -10   12.52    0.87
 -14  -8  10   10.47    0.71
   8  14  10   12.18    0.80
  14  -8 -10   13.34    0.89
   8 -14 -10   11.72    0.89
  14   8  10   11.52    0.76
 -14  -8  10   11.56    0.90
 -14   8 -10   11.40    0.78
 -14  -8  12    2.61    0.52
 -14   8 -12    1.89    0.46
  -8  14 -12    1.76    0.44
 -14  -8  12    1.80    0.33
   8  14  12    1.30    0.39
   8 -14 -12    2.20    0.48
 -14   8 -14    7.47    0.78
 -14  -8  14    6.28    0.69
  -8  14 -14    5.71    0.70
 -14   8 -14    7.61    0.81
   8 -14 -14    6.86    0.73
   8  14  14    6.30    0.68
 -14   8 -16    4.81    0.65
  -8  14 -16    4.21    0.66
 -14   8 -16    4.26    0.68
   8  14  16    4.00    0.59
 -14   8 -18   -0.01    0.32
  -8  14 -18    1.00    0.50
 -14   8 -18    0.95    0.48
   8  14  18    0.16    0.36
 -14   8 -20    3.99    0.62
  14   9 -17    3.22    0.62
  -9 -14 -17    3.20    0.58
 -14   9  17    2.99    0.55
  14   9 -15    0.25    0.40
 -14  -9 -15    0.37    0.36
   9  14 -15    0.63    0.41
  -9 -14 -15    1.22    0.44
  -9  14  15    0.45    0.36
 -14   9  15    1.08    0.38
  14   9 -13    4.12    0.62
 -14  -9 -13    2.91    0.53
   9  14 -13    2.39    0.55
  -9 -14 -13    3.88    0.57
  -9  14  13    3.91    0.61
 -14   9  13    3.49    0.53
   9  14 -11    5.25    0.68
 -14  -9 -11    4.61    0.62
  -9 -14 -11    5.13    0.64
  -9  14  11    5.39    0.65
 -14   9  11    4.86    0.62
  14   9 -11    4.81    0.65
   9  14 -11    5.16    0.77
  14  -9   9    0.88    0.33
   9  14  -9    0.37    0.36
 -14  -9  -9    1.21    0.38
  -9 -14  -9    0.49    0.31
  -9  14   9    0.82    0.34
 -14   9   9    0.66    0.32
   9  14  -9    0.39    0.43
   9  14  -7   10.67    0.87
 -14  -9  -7   11.27    0.87
  -9 -14  -7   11.19    0.86
  -9  14   7   11.45    0.88
   9  14  -7   11.97    0.98
  14  -9   7   12.27    0.81
   9 -14   7   11.83    0.86
   9  14  -5   20.96    1.17
 -14  -9  -5   20.02    1.15
  -9 -14  -5   22.22    1.19
   9  14  -5   19.65    1.24
  14  -9   5   20.98    1.09
   9 -14   5   19.55    1.11
 -14   9   3    9.00    0.77
 -14  -9  -3    9.46    0.76
  -9 -14  -3    8.42    0.73
  14  -9   3    8.72    0.68
   9  14  -3    8.54    0.82
   9 -14   3    9.67    0.77
 -14   9   1   18.86    1.12
 -14  -9  -1   19.14    1.06
  -9 -14  -1   19.23    1.09
  14   9  -1   19.39    1.14
  14  -9   1   20.16    1.03
   9 -14   1   20.68    1.11
   9  14  -1   18.99    1.17
 -14  -9   1   19.07    1.04
 -14   9  -1   19.98    1.15
  -9 -14   1   18.29    1.05
  14   9   1   18.72    1.11
  14  -9  -1   19.57    1.02
   9 -14  -1   18.42    1.05
   9  14   1   18.94    1.15
   9  14   3    9.25    0.85
 -14   9  -3    8.92    0.78
  -9  14  -3    8.80    0.55
 -14  -9   3    8.93    0.68
  14  -9  -3    8.06    0.67
  14   9   3    7.31    0.69
   9 -14  -3    8.11    0.73
 -14  -9   3    8.72    0.82
 -14   9  -5   20.45    1.21
   9  14   5   22.10    1.22
  -9  14  -5   20.22    0.95
 -14  -9   5   21.53    1.07
 -14  -9   5   18.99    1.15
  14  -9  -5   19.45    1.06
   9 -14  -5   20.00    1.11
  14   9   5   19.29    1.08
 -14   9  -7   11.60    0.92
   9  14   7   12.36    0.93
  -9  14  -7   10.86    0.75
 -14  -9   7   11.50    0.89
 -14  -9   7   10.28    0.73
   9  14   7   11.01    0.68
  14  -9  -7   11.38    0.82
   9 -14  -7   11.91    0.86
 -14   9  -7   12.47    0.85
  14   9   7   11.45    0.81
 -14   9  -9    1.25    0.41
  -9  14  -9    0.80    0.32
 -14  -9   9    0.15    0.33
 -14   9  -9    0.62    0.32
 -14  -9   9    0.82    0.27
   9  14   9    0.46    0.29
   9  14   9    1.10    0.49
  14  -9  -9    0.13    0.29
   9 -14  -9    0.93    0.37
  14   9   9    0.85    0.33
 -14  -9  11    5.41    0.65
 -14   9 -11    5.34    0.66
  -9  14 -11    4.98    0.60
 -14  -9  11    4.65    0.50
 -14   9 -11    4.81    0.63
   9  14  11    4.55    0.54
  14  -9 -11    5.87    0.65
   9 -14 -11    5.26    0.62
 -14   9 -13    3.40    0.57
  -9  14 -13    4.40    0.62
 -14   9 -13    4.39    0.64
   9  14  13    2.97    0.48
   9 -14 -13    3.63    0.57
 -14  -9  13    3.70    0.57
  -9  14 -15    0.23    0.33
 -14   9 -15    0.49    0.38
   9  14  15    1.11    0.41
 -14   9 -15    0.47    0.33
 -14   9 -17    2.58    0.55
  -9  14 -17    2.00    0.51
 -14   9 -17    2.28    0.59
   9  14  17    3.01    0.56
 -14   9 -19    4.65    0.68
   9  14  19    4.53    0.70
  14  10 -16    0.83    0.47
 -10 -14 -16    0.45    0.39
 -14  10  16    1.82    0.50
  14  10 -14    1.52    0.49
 -14 -10 -14    1.33    0.46
  10  14 -14    0.76    0.42
 -10 -14 -14    1.01    0.40
 -10  14  14    0.85    0.41
 -14  10  14    0.72    0.37
  14  10 -12    0.00    0.34
  10  14 -12   -0.22    0.38
 -14 -10 -12    0.48    0.37
 -10 -14 -12    0.33    0.31
  10  14 -12   -0.49    0.53
 -10  14  12    0.25    0.32
 -14  10  12   -0.03    0.29
  14 -10  10    2.80    0.49
  14  10 -10    3.86    0.58
  10  14 -10    1.59    0.48
 -14 -10 -10    3.17    0.52
 -10 -14 -10    1.95    0.47
 -10  14  10    2.23    0.48
 -14  10  10    3.07    0.51
  10  14 -10    3.51    0.67
  14 -10   8    2.71    0.47
  10 -14   8    2.83    0.49
  10  14  -8    1.52    0.43
 -14 -10  -8    2.59    0.48
 -10 -14  -8    2.52    0.49
 -10  14   8    3.30    0.52
 -14  10   8    2.92    0.48
  10  14  -8    2.72    0.60
  10  14  -6    8.62    0.79
 -14 -10  -6    9.32    0.81
 -10 -14  -6    9.60    0.81
 -10  14   6   11.89    0.89
  10  14  -6    9.73    0.89
  14 -10   6    8.82    0.73
  10 -14   6    8.86    0.76
  10  14  -4    3.00    0.59
 -14 -10  -4    4.15    0.54
 -10 -14  -4    3.96    0.53
  14 -10   4    3.89    0.52
  10 -14   4    3.96    0.54
  10  14  -2    4.55    0.65
 -14 -10  -2    4.83    0.56
 -10 -14  -2    4.07    0.55
  14  10  -2    4.73    0.64
  14 -10   2    4.82    0.56
  10 -14   2    5.77    0.62
 -14  10   0    9.05    0.78
 -14 -10   0    8.03    0.69
  10  14   0    7.95    0.80
 -10 -14   0    8.02    0.71
  14 -10   0    8.39    0.69
  10 -14   0    7.51    0.69
  14  10   0    7.13    0.74
 -14  10  -2    4.81    0.63
 -14 -10   2    6.10    0.59
  10  14   2    5.79    0.73
 -10 -14   2    5.49    0.60
  14 -10  -2    4.18    0.52
  10 -14  -2    5.97    0.63
  14  10   2    5.11    0.64
 -14  10  -4    3.89    0.56
 -10  14  -4    3.89    0.42
  10  14   4    3.15    0.55
 -14 -10   4    3.75    0.48
  14 -10  -4    4.68    0.56
  10 -14  -4    5.12    0.59
  14  10   4    4.63    0.61
  10  14   6    9.74    0.84
 -14  10  -6   10.07    0.86
 -10  14  -6    8.44    0.65
 -14 -10   6    8.95    0.71
  14 -10  -6   10.09    0.77
  10 -14  -6    8.87    0.77
  14  10   6    9.83    0.78
  14  10   8    2.33    0.45
 -14  10  -8    3.46    0.51
 -14  10  -8    2.53    0.51
 -10  14  -8    3.59    0.48
 -14  10  -8    3.23    0.50
 -14 -10   8    3.24    0.44
  10  14   8    3.16    0.61
  14 -10  -8    3.77    0.52
  10 -14  -8    3.18    0.50
 -14 -10   8    2.12    0.49
  14  10  10    3.99    0.53
 -14  10 -10    3.40    0.56
 -10  14 -10    2.89    0.48
 -14  10 -10    4.04    0.56
 -14 -10  10    3.19    0.44
  10  14  10    2.79    0.58
 -14  10 -10    3.19    0.49
  14 -10 -10    2.70    0.48
  10 -14 -10    3.87    0.56
 -14 -10  10    3.33    0.58
 -14 -10  12    0.15    0.33
 -10  14 -12    0.27    0.32
 -14  10 -12   -0.02    0.32
  14 -10 -12   -0.49    0.32
  10  14  12    0.53    0.44
  10 -14 -12    0.40    0.36
 -14  10 -12   -0.20    0.34
 -10  14 -14    0.88    0.43
 -14  10 -14    1.01    0.41
 -14  10 -14    1.29    0.46
  10 -14 -14    1.94    0.48
  10  14  14    1.40    0.50
 -14  10 -16    1.09    0.41
 -10  14 -16    0.93    0.45
 -14  10 -16    0.74    0.45
 -14  10 -18    1.56    0.47
  14  11 -15    0.38    0.42
 -11 -14 -15    1.61    0.50
 -14  11  15    1.16    0.44
  14  11 -13    1.57    0.48
 -14 -11 -13    0.93    0.40
 -11 -14 -13    1.08    0.43
  11  14 -13    0.48    0.42
 -11  14  13    1.46    0.48
 -14  11  13    0.77    0.36
  14 -11  11    1.20    0.39
  14  11 -11    1.42    0.46
  11  14 -11    0.99    0.40
 -14 -11 -11    1.86    0.50
 -11 -14 -11    2.22    0.49
  11  14 -11    1.15    0.52
 -11  14  11    2.52    0.51
 -14  11  11    1.42    0.40
  14 -11   9    3.08    0.50
  11 -14   9    3.28    0.54
  11  14  -9    1.99    0.49
 -14 -11  -9    3.26    0.54
 -11 -14  -9    3.13    0.53
 -11  14   9    3.82    0.58
 -14  11   9    3.06    0.53
  11  14  -9    3.13    0.64
  14 -11   7    2.16    0.45
  11 -14   7    1.21    0.40
  11  14  -7    1.61    0.45
 -14 -11  -7    1.61    0.42
 -11 -14  -7    1.16    0.38
 -11  14   7    2.06    0.46
  11  14  -7    1.89    0.54
 -14 -11  -5    4.46    0.57
 -11 -14  -5    3.54    0.53
  14 -11   5    4.87    0.58
  11  14  -5    4.42    0.67
  11 -14   5    4.45    0.60
  11  14  -3   -0.38    0.46
 -14 -11  -3    0.40    0.28
 -11 -14  -3    0.60    0.32
  14  11  -3   -0.09    0.40
  14 -11   3    0.50    0.34
  11 -14   3    0.49    0.34
  11  14  -1    0.93    0.47
 -14 -11  -1    1.87    0.40
 -11 -14  -1    1.08    0.32
  14  11  -1    1.12    0.42
  14 -11   1    1.42    0.38
  11 -14   1    1.90    0.42
  11  14   1    1.64    0.51
 -14 -11   1    0.93    0.32
 -11 -14   1    1.13    0.35
  14 -11  -1    0.78    0.34
  11 -14  -1    1.33    0.40
  14  11   1    2.28    0.50
 -14  11  -3    0.45    0.34
  11  14   3    0.18    0.39
 -14 -11   3    0.03    0.24
 -14  11  -3    0.46    0.27
 -11 -14   3    0.36    0.27
  14 -11  -3    0.44    0.32
  11 -14  -3    0.33    0.32
  14  11   3   -0.08    0.35
 -14  11  -5    4.25    0.63
 -14 -11   5    5.08    0.57
  11  14   5    5.06    0.67
 -14  11  -5    4.53    0.52
 -11 -14   5    4.60    0.56
  14 -11  -5    4.80    0.59
  11 -14  -5    4.63    0.59
  14  11   5    5.28    0.66
  14  11   7    1.79    0.44
 -14  11  -7    2.00    0.48
 -11  14  -7    1.79    0.36
  11  14   7    1.70    0.51
 -14  11  -7    1.55    0.39
 -14 -11   7    2.06    0.39
 -14  11  -7    2.33    0.45
  14 -11  -7    1.49    0.40
  11 -14  -7    2.12    0.47
 -14  11  -9    4.94    0.55
  14  11   9    3.11    0.52
 -14  11  -9    4.48    0.64
 -11  14  -9    3.32    0.51
 -14  11  -9    3.69    0.53
  11  14   9    2.82    0.55
 -14 -11   9    2.85    0.44
  14 -11  -9    3.69    0.55
  11 -14  -9    3.36    0.53
 -14  11 -11    1.52    0.46
 -11  14 -11    1.39    0.42
 -14  11 -11    1.45    0.41
  11  14  11    1.68    0.53
 -14 -11  11    1.42    0.36
  14 -11 -11    1.73    0.46
  11 -14 -11    1.07    0.40
 -14  11 -13    0.84    0.41
 -11  14 -13    0.96    0.42
 -14  11 -13    0.02    0.35
  11  14  13    1.58    0.48
  11 -14 -13    0.99    0.43
 -14  11 -15    1.37    0.47
 -11  14 -15    0.93    0.43
 -14  11 -15    1.34    0.51
 -11  14 -17   -0.12    0.40
  14  12 -12    4.33    0.68
  12  14 -12    2.15    0.55
 -14 -12 -12    3.21    0.60
 -12 -14 -12    3.89    0.62
 -12  14  12    4.94    0.68
 -14  12  12    2.76    0.54
  14  12 -10   12.11    1.01
  12  14 -10   10.79    0.96
 -14 -12 -10   12.51    1.01
 -12 -14 -10   12.70    1.02
  12  14 -10   11.30    1.06
 -12  14  10   13.83    1.06
 -14  12  10   12.65    1.02
  14 -12  10   12.26    0.93
  12 -14  10   12.05    0.95
  14 -12   8    1.41    0.41
  12 -14   8    1.59    0.41
 -14 -12  -8    1.55    0.45
 -12 -14  -8    1.02    0.35
 -12  14   8    1.51    0.43
 -14  12   8    1.39    0.41
  12  14  -8    1.69    0.54
  12  14  -8    1.27    0.44
 -14 -12  -6    0.50    0.35
 -12 -14  -6    0.11    0.29
 -12  14   6   -0.06    0.27
  12  14  -6    0.25    0.42
  14 -12   6    0.21    0.34
  12 -14   6    0.19    0.35
 -14 -12  -4    7.33    0.73
 -12 -14  -4    7.90    0.75
  14  12  -4    7.03    0.80
  14 -12   4    6.51    0.67
  12 -14   4    5.99    0.67
  12  14  -4    7.08    0.80
  12  14  -2    2.66    0.60
 -14 -12  -2    2.03    0.41
 -12 -14  -2    1.56    0.40
  14  12  -2    1.71    0.52
  14 -12   2    3.03    0.48
  12 -14   2    2.09    0.44
  12  14   0   -0.09    0.41
 -14 -12   0    0.21    0.30
 -12 -14   0    0.01    0.24
  14 -12   0   -0.41    0.32
  12 -14   0   -0.01    0.31
  14  12   0    0.33    0.41
  12  14   2    1.88    0.51
 -14 -12   2    2.45    0.44
 -12 -14   2    2.30    0.42
  14 -12  -2    2.16    0.45
  12 -14  -2    2.41    0.48
  14  12   2    2.99    0.56
  14  12   4    6.16    0.71
  12  14   4    6.76    0.77
 -14 -12   4    7.28    0.68
 -12 -14   4    7.28    0.69
  14 -12  -4    7.15    0.70
  12 -14  -4    8.23    0.75
  14  12   6    0.33    0.41
  12  14   6   -0.26    0.39
 -14  12  -6    0.10    0.25
 -14 -12   6    0.02    0.23
 -12 -14   6    0.10    0.24
  14 -12  -6    0.01    0.30
  12 -14  -6    0.37    0.35
  14  12   8    1.20    0.45
  12  14   8    1.82    0.51
 -12  14  -8    1.13    0.36
 -14  12  -8    1.34    0.37
 -14 -12   8    1.14    0.33
  14 -12  -8    1.54    0.42
  12 -14  -8    1.36    0.43
 -14  12  -8    1.88    0.41
 -12  14 -10   12.35    0.91
 -14  12 -10   12.08    0.92
 -14 -12  10   12.41    0.87
  14 -12 -10   12.65    0.97
  12 -14 -10   12.98    0.97
  14  12  10   11.03    0.89
  12  14  10   11.85    0.96
 -12  14 -12    2.90    0.54
 -14  12 -12    3.33    0.60
  12  14  12    3.06    0.58
  14 -12 -12    4.54    0.63
  12 -14 -12    3.98    0.59
 -12  14 -14    3.30    0.58
 -14  12 -14    3.24    0.61
 -12  14 -16    3.72    0.66
 -14  12 -16    3.78    0.67
  14 -13  11    6.64    0.73
  13 -14  11    6.16    0.70
  14  13 -11    6.68    0.82
  13  14 -11    6.38    0.78
 -14 -13 -11    6.17    0.75
 -13 -14 -11    5.76    0.73
 -13  14  11    5.79    0.75
 -14  13  11    4.82    0.68
 -14 -13  -9    8.85    0.86
 -13 -14  -9    7.51    0.80
  13  14  -9    7.52    0.90
 -13  14   9    7.36    0.81
 -14  13   9    7.04    0.79
  13  14  -9    7.53    0.81
  14 -13   9    9.22    0.82
  13 -14   9    7.64    0.77
 -14 -13  -7    6.00    0.70
 -13 -14  -7    5.52    0.68
 -13  14   7    6.73    0.74
 -14  13   7    6.13    0.73
  13  14  -7    4.70    0.73
  14 -13   7    5.82    0.66
  13 -14   7    5.26    0.66
 -14 -13  -5    4.80    0.63
 -13 -14  -5    5.87    0.68
  14  13  -5    6.35    0.78
  13  14  -5    5.58    0.77
  14 -13   5    6.59    0.70
  13 -14   5    5.81    0.67
 -14 -13  -3    1.87    0.43
 -13 -14  -3    3.14    0.51
  14  13  -3    2.70    0.61
  14 -13   3    2.78    0.49
  13 -14   3    2.68    0.50
  13  14  -3    1.89    0.51
  13  14  -1    4.12    0.69
 -14 -13  -1    4.73    0.60
 -13 -14  -1    3.65    0.56
  14 -13   1    4.32    0.56
  13 -14   1    3.64    0.54
  14  13  -1    4.39    0.67
  13  14   1    2.83    0.57
 -14 -13   1    3.91    0.54
 -13 -14   1    3.50    0.52
  14 -13  -1    5.51    0.64
  13 -14  -1    3.97    0.56
  14  13   1    4.29    0.65
  14  13   3    2.66    0.58
  13  14   3    2.74    0.56
 -14 -13   3    2.93    0.47
 -13 -14   3    2.97    0.47
  14 -13  -3    2.74    0.49
  13 -14  -3    2.75    0.50
  14  13   5    5.36    0.69
  13  14   5    6.56    0.78
 -14 -13   5    5.50    0.63
 -13 -14   5    5.53    0.63
  14 -13  -5    6.08    0.68
  13 -14  -5    6.51    0.69
  14  13   7    6.07    0.73
  13  14   7    4.73    0.68
 -14 -13   7    5.03    0.60
 -13 -14   7    5.31    0.62
  14 -13  -7    5.60    0.66
  13 -14  -7    4.99    0.67
  14  13   9    6.96    0.77
  13  14   9    6.28    0.76
 -14  13  -9    7.27    0.71
 -13  14  -9    6.28    0.66
 -14 -13   9    6.65    0.69
  14 -13  -9    8.19    0.79
  13 -14  -9    7.90    0.80
  13  14  11    6.40    0.75
 -13  14 -11    5.42    0.67
 -14  13 -11    5.36    0.67
 -14 -13  11    5.10    0.60
  14 -13 -11    6.58    0.75
  13 -14 -11    7.28    0.78
 -13  14 -13    3.23    0.59
 -14  13 -13    2.99    0.58
 -13  14 -15    6.61    0.83
 -14  13 -15    7.23    0.84
  14 -14  12    0.02    0.35
 -14 -14 -10    8.42    0.88
 -14  14  10    9.31    0.92
  14 -14  10    8.04    0.80
  14 -14   8    3.80    0.58
 -14 -14  -8    4.64    0.66
 -14  14   8    5.62    0.71
 -14 -14  -6    0.86    0.35
  14  14  -6    0.63    0.49
  14 -14   6    0.81    0.40
 -14 -14  -4    6.16    0.70
  14  14  -4    4.36    0.69
  14 -14   4    4.66    0.61
 -14 -14  -2    2.54    0.50
  14 -14   2    3.41    0.53
  14  14  -2    4.22    0.69
 -14 -14   0    9.01    0.81
  14 -14   0    8.98    0.81
  14  14   0    8.55    0.88
  14  14   2    4.68    0.70
 -14 -14   2    3.39    0.52
  14 -14  -2    3.24    0.53
  14  14   4    5.74    0.74
 -14 -14   4    4.95    0.61
  14 -14  -4    4.81    0.62
  14  14   6    0.31    0.40
 -14 -14   6    0.31    0.28
  14 -14  -6    0.39    0.33
  14  14   8    4.60    0.68
 -14 -14   8    5.07    0.61
  14 -14  -8    4.58    0.64
  14  14  10    7.81    0.82
 -14 -14  10    8.59    0.78
  14 -14 -10   10.05    0.90
 -14  14 -12   -0.23    0.36
 -14  14 -14    4.28    0.69
   0  15   1    8.22    0.53
   0  15  -1    7.76    0.55
  15   0  -1    8.61    0.46
  15   0   1    8.19    0.44
   0  15   1    7.76    0.53
   0  15  -1    7.95    0.52
   0 -15  -1    7.41    0.42
   0 -15  -1    9.40    0.65
 -15   0   1    7.72    0.75
   0 -15   1    7.87    0.62
 -15   0  -1    9.31    0.77
 -15   0  -1    8.79    0.61
 -15   0   1    7.88    0.54
   0  15  -3   27.05    1.13
 -15   0  -3   28.58    1.33
  15   0   3   26.56    0.90
   0  15   3   26.45    1.10
   0 -15  -3   27.96    1.18
   0 -15  -3   25.75    0.98
 -15   0   3   27.01    1.34
   0 -15   3   28.27    1.18
 -15   0  -3   28.83    1.20
 -15   0   3   28.57    1.03
 -15   0  -5    0.05    0.21
 -15   0   5    0.16    0.14
 -15   0   5   -0.15    0.34
   0 -15  -5    0.13    0.22
 -15   0   5    0.11    0.24
   0  15   5    0.19    0.22
 -15   0  -5   -0.22    0.35
   0 -15  -5    0.14    0.25
   0  15  -5   -0.09    0.24
   0 -15  -5    0.06    0.27
  15   0   5   -0.08    0.14
 -15   0  -7    5.07    0.54
 -15   0   7    3.75    0.57
   0  15  -7    4.79    0.53
 -15   0  -7    5.92    0.65
   0 -15  -7    5.39    0.52
 -15   0   7    4.62    0.48
   0  15  -7    6.55    0.68
   0  15   7    4.65    0.50
   0 -15  -7    4.60    0.50
   0 -15  -7    4.98    0.53
  15   0   7    4.82    0.36
   0  15  -9   42.23    1.72
 -15   0  -9   44.89    1.74
   0  15  -9   44.56    1.73
   0 -15  -9   43.64    1.60
 -15   0   9   42.84    1.52
   0 -15  -9   47.12    1.66
   0  15   9   44.65    1.68
 -15   0   9   39.80    1.76
 -15   0   9   40.84    1.50
   0 -15  -9   41.92    1.63
 -15   0  -9   45.23    1.77
  15   0   9   43.81    1.35
   0  15 -11    1.68    0.43
   0  15 -11    1.67    0.47
   0 -15 -11    2.08    0.37
 -15   0  11    1.92    0.29
   0 -15 -11    2.10    0.39
   0  15  11    2.16    0.42
 -15   0  11    1.82    0.32
   0 -15 -11    2.04    0.50
 -15   0  11    2.02    0.47
 -15   0 -11    2.79    0.49
   0  15 -13    6.17    0.69
   0 -15 -13    6.89    0.59
   0  15  13    5.96    0.65
 -15   0  13    7.18    0.60
 -15   0  13    5.73    0.69
   0  15 -13    7.99    0.76
   0 -15 -13    6.42    0.74
 -15   0 -13    7.26    0.74
   0 -15 -15   16.87    0.98
   0  15 -15   16.95    1.17
 -15   0 -15   21.07    1.25
   0  15  15   18.52    1.17
 -15   0  15   17.34    0.99
 -15   0  15   16.72    1.15
   0  15 -15   17.91    1.10
   0 -15 -15   18.14    1.19
 -15   0 -15   17.08    1.16
  15   0 -17    1.19    0.38
   0 -15 -17    1.73    0.37
   0  15 -17    1.32    0.46
   0  15  17    2.22    0.51
 -15   0 -17    2.07    0.50
 -15   0  17    1.10    0.40
 -15   0  17    2.35    0.43
   0  15 -17    2.22    0.49
   0 -15 -17    2.41    0.59
 -15   0 -17    2.68    0.53
   0  15  19    0.12    0.36
 -15   0 -19    0.04    0.33
 -15   0  19   -0.04    0.36
   0 -15 -19    0.08    0.47
 -15   0 -21    8.55    0.86
 -15  -1 -22    0.98    0.43
 -15  -1 -20    3.72    0.61
  15   1 -18    3.59    0.54
  -1 -15 -18    3.91    0.53
   1  15 -18    4.12    0.70
  -1  15  18    3.72    0.61
 -15  -1 -18    4.35    0.64
 -15   1  18    3.29    0.51
  -1 -15 -18    3.05    0.71
 -15  -1 -18    3.83    0.62
  15   1 -16    2.96    0.48
  -1 -15 -16    3.12    0.48
   1  15 -16    2.50    0.55
  -1  15  16    3.41    0.57
 -15   1  16    2.89    0.45
  -1 -15 -16    1.64    0.58
   1  15 -16    3.09    0.55
 -15  -1 -16    2.89    0.54
  -1 -15 -14    5.53    0.58
   1  15 -14    5.57    0.69
  -1  15  14    5.11    0.63
 -15   1  14    5.50    0.55
  -1 -15 -14    5.87    0.72
 -15  -1 -14    4.42    0.60
   1  15 -14    5.16    0.67
   1  15 -12   18.08    1.13
  -1 -15 -12   17.61    0.98
  -1  15  12   17.64    1.07
 -15   1  12   18.60    0.98
  -1 -15 -12   20.30    1.17
   1  15 -12   17.09    1.10
 -15  -1 -12   17.44    1.11
   1  15 -10   14.06    0.97
  -1 -15 -10   14.54    0.88
 -15   1  10   16.73    0.84
  -1 -15 -10   15.71    0.90
  -1  15  10   15.82    0.97
 -15   1  10   15.93    0.88
 -15  -1 -10   15.41    0.99
  -1 -15 -10   17.05    1.01
   1  15 -10   17.28    1.05
 -15  -1 -10   15.08    0.99
   1  15  -8   11.80    0.90
   1  15  -8   11.14    0.81
 -15  -1  -8   12.33    0.87
  -1 -15  -8   10.99    0.75
 -15   1   8   11.66    0.72
  -1 -15  -8   11.44    0.74
  -1  15   8   12.93    0.82
 -15   1   8   10.51    0.89
  -1 -15  -8   11.70    0.79
  15  -1   8   11.97    0.62
 -15  -1  -8   12.18    0.85
   1  15  -6   12.31    0.79
   1  15  -6   11.83    0.90
  -1 -15  -6   10.90    0.75
 -15   1   6   12.82    0.78
  -1 -15  -6   12.29    0.75
  -1  15   6   13.71    0.80
 -15   1   6   12.55    0.91
 -15  -1  -6   12.53    0.90
  -1 -15  -6   12.69    0.76
  15  -1   6   12.68    0.62
 -15  -1  -6   12.55    0.83
   1  15  -4   18.83    0.96
 -15  -1  -4   21.18    1.13
 -15   1   4   20.76    1.04
  -1 -15  -4   18.89    0.98
  -1  15   4   19.34    0.94
  -1 -15  -4   17.84    0.92
 -15   1   4   19.21    1.12
  15  -1   4   18.86    0.76
  -1 -15  -4   18.16    0.85
 -15   1   4   18.90    0.76
   1 -15   4   17.99    0.95
 -15  -1  -4   20.28    1.00
 -15  -1  -2    7.87    0.61
   1  15  -2    7.54    0.58
 -15  -1  -2    7.80    0.73
 -15   1   2    7.55    0.66
  15  -1   2    7.78    0.47
  -1  15   2    6.30    0.51
   1  15  -2    7.46    0.47
  -1 -15  -2    7.08    0.57
 -15   1   2    7.78    0.74
  -1 -15  -2    7.22    0.48
   1 -15   2    7.42    0.60
 -15   1   2    7.44    0.49
 -15  -1   0   16.89    0.85
  -1  15   0   16.77    0.77
  15   1   0   17.41    0.64
  15  -1   0   16.75    0.72
 -15   1   0   17.92    1.01
   1  15   0   18.21    0.79
  -1  15   0   18.12    0.85
  -1 -15   0   18.44    0.64
 -15   1   0   18.35    1.07
  -1 -15   0   16.68    0.87
   1 -15   0   16.75    0.91
   1  15   0   17.68    0.84
 -15   1   0   17.13    0.83
 -15  -1   0   18.07    1.05
 -15  -1   2    7.44    0.53
  -1  15  -2    7.53    0.54
  15  -1  -2    7.70    0.48
  15   1   2    7.10    0.37
   1  15   2    7.68    0.53
   1 -15  -2    6.85    0.60
 -15  -1   2    7.34    0.72
 -15   1  -2    7.69    0.72
  -1 -15   2    7.54    0.58
 -15   1  -2    7.49    0.58
 -15  -1   4   18.65    0.82
 -15   1  -4   20.46    1.11
  -1  15  -4   18.51    0.92
   1  15   4   19.71    0.91
  15   1   4   19.72    0.68
   1 -15  -4   19.36    0.98
   1 -15  -4   19.38    0.84
 -15  -1   4   20.96    1.15
 -15   1  -4   18.36    0.97
  -1 -15   4   18.77    0.94
 -15  -1   6   12.37    0.60
  -1  15  -6   11.84    0.77
 -15   1  -6   12.54    0.88
   1 -15  -6   12.31    0.75
   1  15   6   10.23    0.69
   1 -15  -6   12.37    0.78
   1 -15  -6   12.59    0.74
 -15  -1   6   11.52    0.87
  15   1   6   11.81    0.52
 -15   1  -6   13.68    0.84
  -1  15  -8   12.93    0.85
  -1  15  -8   13.00    0.88
   1 -15  -8   11.62    0.74
 -15  -1   8   11.82    0.73
   1 -15  -8   12.73    0.81
   1  15   8   11.05    0.76
 -15  -1   8   11.41    0.67
 -15   1  -8   12.26    0.86
 -15  -1   8   11.34    0.90
   1 -15  -8   11.40    0.77
  15   1   8   11.99    0.55
 -15   1  -8   11.90    0.83
  -1  15 -10   16.36    1.00
 -15   1 -10   18.74    1.06
  -1  15 -10   16.46    1.02
   1 -15 -10   14.77    0.85
 -15  -1  10   17.46    0.86
   1 -15 -10   16.82    0.96
   1  15  10   15.53    0.95
 -15   1 -10   16.48    1.07
 -15  -1  10   15.60    0.83
 -15  -1  10   15.13    1.04
   1 -15 -10   16.14    0.98
 -15   1 -10   17.42    1.05
  -1  15 -12   16.11    1.05
   1 -15 -12   17.13    0.92
   1 -15 -12   17.56    1.02
 -15   1 -12   19.16    1.18
   1  15  12   17.09    1.06
 -15  -1  12   16.64    0.88
 -15  -1  12   17.05    1.11
   1 -15 -12   16.53    1.05
  -1  15 -12   18.60    1.08
 -15   1 -12   17.94    1.11
 -15  -1  14    6.13    0.71
  -1  15 -14    4.93    0.63
   1 -15 -14    6.30    0.57
  -1  15 -14    5.69    0.69
   1  15  14    5.36    0.64
 -15   1 -14    4.42    0.60
 -15  -1  14    4.67    0.49
   1 -15 -14    5.24    0.71
 -15   1 -14    5.89    0.68
   1 -15 -16    2.18    0.38
  -1  15 -16    3.81    0.62
   1  15  16    4.02    0.60
 -15   1 -16    4.34    0.61
   1 -15 -16    2.83    0.60
  -1  15 -16    3.38    0.55
 -15   1 -16    3.21    0.55
 -15  -1  16    2.52    0.55
 -15  -1  18    3.66    0.60
  -1  15 -18    4.39    0.71
   1  15  18    3.57    0.61
 -15   1 -18    3.97    0.60
   1 -15 -18    4.05    0.70
 -15   1 -18    3.74    0.61
 -15   1 -20    4.73    0.66
 -15   1 -22    1.01    0.43
 -15  -2 -21    1.01    0.42
  -2 -15 -19    0.79    0.34
  15   2 -19    1.43    0.43
  -2  15  19    0.92    0.42
 -15   2  19    1.17    0.41
  -2 -15 -19    1.84    0.63
  15   2 -17    2.81    0.51
  -2 -15 -17    2.33    0.44
   2  15 -17    2.12    0.55
  -2  15  17    2.36    0.53
 -15   2  17    3.74    0.55
   2  15 -17    2.57    0.53
  -2 -15 -17    2.88    0.63
 -15  -2 -17    2.27    0.52
  15   2 -15    4.22    0.56
  -2 -15 -15    3.88    0.50
   2  15 -15    3.67    0.62
  -2  15  15    3.95    0.57
 -15   2  15    5.00    0.55
  -2 -15 -15    4.36    0.69
   2  15 -15    4.23    0.63
 -15  -2 -15    3.07    0.57
 -15  -2 -13    3.21    0.54
   2  15 -13    4.24    0.62
   2  15 -13    3.26    0.56
  -2 -15 -13    1.89    0.39
  -2  15  13    2.67    0.48
 -15   2  13    2.78    0.42
  -2 -15 -13    2.59    0.59
 -15  -2 -11    0.79    0.34
   2  15 -11    0.53    0.41
   2  15 -11   -0.03    0.33
  -2 -15 -11    0.86    0.31
 -15   2  11    1.07    0.25
  -2  15  11    1.43    0.39
 -15   2  11    1.14    0.31
  -2 -15 -11    1.33    0.46
 -15  -2  -9    4.07    0.53
   2  15  -9    4.49    0.57
 -15   2   9    4.37    0.44
   2  15  -9    3.73    0.57
  -2 -15  -9    5.01    0.53
  -2 -15  -9    4.47    0.48
 -15  -2  -9    5.16    0.64
  -2  15   9    4.42    0.52
 -15   2   9    3.09    0.41
  -2 -15  -9    4.28    0.58
  15  -2   9    4.59    0.43
  15  -2   7    2.28    0.31
 -15  -2  -7    1.60    0.38
   2  15  -7    1.91    0.41
  -2 -15  -7    1.95    0.37
 -15  -2  -7    0.61    0.39
   2  15  -7    2.22    0.52
 -15   2   7    1.64    0.32
  -2 -15  -7    1.96    0.34
  -2  15   7    2.42    0.38
  -2 -15  -7    2.00    0.45
   2 -15   5    2.53    0.41
 -15  -2  -5    2.13    0.38
   2  15  -5    3.36    0.44
  -2 -15  -5    3.40    0.44
 -15  -2  -5    2.94    0.52
 -15   2   5    3.26    0.43
   2  15  -5    3.79    0.63
 -15   2   5    3.13    0.50
  -2  15   5    2.89    0.42
   2  15  -5    3.56    0.29
  -2 -15  -5    3.41    0.41
  -2 -15  -5    4.01    0.48
 -15   2   5    2.84    0.25
  15  -2   5    2.51    0.32
   2 -15   3    0.53    0.30
 -15  -2  -3    0.39    0.24
   2  15  -3   -0.02    0.25
 -15   2   3    0.86    0.30
   2  15  -3    0.37    0.15
  -2  15   3    0.25    0.22
  -2 -15  -3   -0.08    0.22
  15  -2   3    0.32    0.19
  -2 -15  -3    0.29    0.28
 -15  -2  -3    0.32    0.36
 -15   2   3    0.59    0.40
 -15   2   3    0.60    0.18
  -2  15   1    1.10    0.24
   2  15  -1    1.07    0.28
 -15  -2  -1    0.92    0.29
 -15   2   1    1.17    0.43
 -15  -2  -1    0.93    0.42
 -15   2   1    0.71    0.32
   2  15  -1    1.00    0.21
  15  -2   1    0.98    0.23
  -2  15   1    0.92    0.26
  -2 -15  -1    1.30    0.28
  -2 -15  -1    0.86    0.28
   2 -15   1    0.88    0.31
 -15   2   1    0.83    0.23
 -15  -2   1    0.63    0.37
  -2  15  -1    0.94    0.24
 -15  -2   1    1.30    0.30
 -15   2  -1    1.07    0.44
 -15   2  -1    1.53    0.39
  15  -2  -1    1.25    0.25
   2  15   1    0.89    0.23
  -2 -15   1    0.96    0.18
   2 -15  -1    0.63    0.31
  -2 -15   1    1.14    0.29
 -15   2  -1    1.07    0.26
  -2 -15   3    0.07    0.22
 -15  -2   3    0.41    0.20
  -2  15  -3    0.49    0.24
  15  -2  -3    0.58    0.23
  15   2   3    0.31    0.10
 -15   2  -3    0.47    0.28
 -15   2  -3    0.46    0.35
   2  15   3    0.27    0.19
 -15  -2   3    0.46    0.39
   2 -15  -3    0.21    0.29
 -15   2  -3    0.52    0.25
 -15   2  -5    2.57    0.47
 -15  -2   5    3.23    0.34
  -2  15  -5    2.29    0.39
  15  -2  -5    4.00    0.40
 -15  -2   5    2.84    0.55
 -15   2  -5    2.24    0.44
   2  15   5    3.07    0.38
  15   2   5    2.74    0.21
   2 -15  -5    2.83    0.44
 -15   2  -5    2.88    0.41
  -2  15  -7    1.99    0.38
 -15  -2   7    1.80    0.25
 -15  -2   7    1.27    0.43
   2 -15  -7    1.65    0.31
 -15   2  -7    2.31    0.47
 -15   2  -7    2.01    0.44
   2  15   7    2.12    0.35
   2 -15  -7    2.30    0.41
   2 -15  -7    1.73    0.36
 -15   2  -7    2.29    0.41
  -2  15  -9    4.61    0.55
   2 -15  -9    4.62    0.47
 -15   2  -9    6.16    0.64
 -15  -2   9    5.18    0.63
  -2  15  -9    4.85    0.61
   2  15   9    4.50    0.52
 -15   2  -9    5.51    0.64
   2 -15  -9    5.06    0.55
 -15  -2   9    4.33    0.41
   2 -15  -9    4.31    0.55
 -15   2  -9    4.75    0.57
 -15  -2  11    1.23    0.42
  -2  15 -11    0.40    0.34
   2 -15 -11    0.33    0.25
  -2  15 -11    1.05    0.44
   2 -15 -11    0.81    0.33
   2  15  11    0.87    0.32
 -15  -2  11    1.12    0.25
 -15   2 -11    1.01    0.39
 -15   2 -11    1.08    0.44
 -15  -2  11    0.63    0.20
   2 -15 -11    0.84    0.42
 -15   2 -11    0.95    0.36
 -15  -2  13    2.98    0.53
  -2  15 -13    3.29    0.54
   2 -15 -13    2.80    0.38
  -2  15 -13    2.51    0.50
   2  15  13    1.95    0.43
 -15   2 -13    2.52    0.49
 -15  -2  13    2.65    0.37
   2 -15 -13    2.87    0.55
 -15   2 -13    2.47    0.49
  -2  15 -15    4.92    0.59
 -15  -2  15    3.92    0.60
   2 -15 -15    4.24    0.46
  -2  15 -15    4.28    0.62
   2  15  15    3.90    0.57
 -15   2 -15    4.25    0.59
   2 -15 -15    3.25    0.59
 -15   2 -15    3.68    0.58
 -15  -2  17    1.81    0.50
  -2  15 -17    2.50    0.57
   2  15  17    2.67    0.56
 -15   2 -17    3.01    0.55
   2 -15 -17    1.86    0.55
 -15   2 -17    2.65    0.55
 -15  -2  19    0.18    0.37
  -2  15 -19    0.36    0.39
 -15   2 -19    0.84    0.38
   2  15  19    0.48    0.37
   2 -15 -19    0.38    0.48
 -15   2 -21    0.50    0.36
  -3 -15 -20    0.33    0.32
  15   3 -20    0.36    0.39
 -15   3  20    0.85    0.38
  15   3 -18    0.27    0.33
  -3 -15 -18    0.99    0.38
   3  15 -18    0.82    0.48
  -3  15  18    1.63    0.49
 -15   3  18    0.97    0.35
  -3 -15 -18    1.44    0.61
  15   3 -16    1.16    0.44
  -3 -15 -16    1.08    0.36
   3  15 -16    1.38    0.45
  -3  15  16    1.05    0.47
 -15   3  16    1.30    0.35
   3  15 -16    1.78    0.53
  -3 -15 -16    1.61    0.54
 -15  -3 -16    0.86    0.40
 -15  -3 -14    0.52    0.37
  15   3 -14    0.40    0.31
   3  15 -14    0.36    0.36
  -3 -15 -14    0.87    0.33
  -3  15  14    1.00    0.38
 -15   3  14    0.71    0.30
  -3 -15 -14    2.01    0.59
   3  15 -14    0.29    0.43
 -15  -3 -12    2.45    0.48
   3  15 -12    1.76    0.50
   3  15 -12    3.09    0.53
  -3 -15 -12    2.29    0.42
  -3  15  12    2.53    0.47
 -15   3  12    2.56    0.42
  -3 -15 -12    2.57    0.55
 -15  -3 -10    5.02    0.61
 -15   3  10    4.03    0.43
   3  15 -10    3.93    0.64
  -3 -15 -10    4.16    0.52
  -3 -15 -10    3.95    0.45
   3  15 -10    3.82    0.56
  -3  15  10    4.96    0.57
 -15   3  10    5.12    0.53
 -15  -3  -8    4.29    0.54
   3  15  -8    4.42    0.56
   3  15  -8    3.22    0.59
  -3 -15  -8    4.10    0.51
 -15   3   8    3.39    0.42
 -15  -3  -8    3.75    0.58
  -3 -15  -8    3.71    0.43
  -3  15   8    4.57    0.52
  15  -3   8    4.12    0.42
 -15  -3  -6    0.42    0.25
   3  15  -6    0.19    0.27
  -3 -15  -6    0.37    0.24
   3  15  -6   -0.11    0.39
 -15   3   6    0.50    0.26
 -15  -3  -6    0.52    0.38
  -3 -15  -6    0.68    0.26
  -3  15   6   -0.05    0.23
  15  -3   6    0.25    0.21
   3 -15   4    3.73    0.47
 -15  -3  -4    3.31    0.45
   3  15  -4    5.09    0.53
  -3 -15  -4    4.09    0.48
 -15   3   4    4.62    0.51
   3  15  -4    5.38    0.66
  -3 -15  -4    4.97    0.45
 -15  -3  -4    4.63    0.61
   3  15  -4    4.32    0.29
  -3  15   4    4.02    0.46
  15  -3   4    4.49    0.41
 -15   3   4    4.57    0.31
 -15  -3  -2    4.23    0.59
   3  15  -2    4.64    0.49
 -15  -3  -2    4.08    0.46
 -15   3   2    3.64    0.46
   3  15  -2    4.47    0.33
  15  -3   2    4.43    0.40
  -3  15   2    4.13    0.45
  -3 -15  -2    4.03    0.41
 -15   3   2    4.15    0.35
 -15   3   2    3.94    0.56
   3 -15   2    4.29    0.50
 -15  -3   0    9.02    0.63
  -3  15   0    9.40    0.52
 -15  -3   0    8.05    0.74
 -15   3   0    9.88    0.75
   3  15   0    8.28    0.49
  15  -3   0    8.84    0.56
 -15   3   0   10.36    0.83
  -3 -15   0    8.86    0.60
   3 -15   0    9.85    0.71
 -15   3   0    9.21    0.57
 -15  -3   2    4.19    0.43
  -3  15  -2    4.30    0.40
 -15  -3   2    4.01    0.56
 -15   3  -2    3.32    0.54
  15  -3  -2    4.51    0.41
 -15   3  -2    4.28    0.54
   3  15   2    4.00    0.38
   3 -15  -2    4.12    0.49
 -15   3  -2    4.32    0.43
  -3 -15   2    3.73    0.42
  -3 -15   4    3.79    0.43
 -15  -3   4    3.76    0.39
  -3  15  -4    4.73    0.46
  15  -3  -4    4.25    0.43
   3  15   4    4.23    0.43
 -15   3  -4    4.26    0.54
 -15   3  -4    4.67    0.58
   3 -15  -4    4.70    0.51
 -15   3  -4    4.71    0.47
 -15  -3   4    3.10    0.52
  -3  15  -6    0.42    0.27
 -15  -3   6    0.12    0.16
   3 -15  -6   -0.22    0.23
  15  -3  -6   -0.01    0.21
 -15   3  -6    0.47    0.28
   3  15   6    0.65    0.25
   3 -15  -6    0.21    0.26
 -15  -3   6    0.11    0.35
 -15   3  -6    0.34    0.25
 -15   3  -6   -0.38    0.41
  -3  15  -8    4.17    0.50
 -15  -3   8    3.21    0.33
   3 -15  -8    3.77    0.42
 -15   3  -8    4.14    0.57
   3  15   8    3.15    0.43
 -15  -3   8    2.95    0.51
 -15   3  -8    4.13    0.56
   3 -15  -8    3.44    0.47
 -15  -3   8    3.68    0.36
 -15   3  -8    3.73    0.51
   3 -15 -10    4.24    0.43
  -3  15 -10    4.29    0.55
 -15   3 -10    5.18    0.60
  -3  15 -10    3.83    0.55
 -15  -3  10    4.52    0.60
   3  15  10    5.34    0.57
 -15   3 -10    5.41    0.64
   3 -15 -10    4.60    0.55
 -15  -3  10    4.04    0.38
 -15   3 -10    3.91    0.53
  -3  15 -12    2.19    0.47
   3 -15 -12    2.71    0.36
  -3  15 -12    2.67    0.47
 -15  -3  12    2.81    0.50
   3 -15 -12    2.77    0.48
 -15   3 -12    2.05    0.45
   3  15  12    2.79    0.51
   3 -15 -12    2.08    0.47
 -15   3 -12    2.33    0.47
 -15   3 -12    2.28    0.45
  -3  15 -14    0.76    0.38
  -3  15 -14   -0.14    0.33
 -15  -3  14    1.13    0.41
 -15   3 -14    0.60    0.36
   3  15  14    0.36    0.32
   3 -15 -14    0.22    0.46
 -15   3 -14    0.22    0.34
  -3  15 -16    1.57    0.46
 -15  -3  16    0.61    0.37
 -15   3 -16    1.07    0.41
   3  15  16    1.03    0.37
   3 -15 -16    0.24    0.46
  -3  15 -18    0.49    0.38
 -15  -3  18    0.78    0.39
 -15   3 -18    1.47    0.45
   3  15  18    1.47    0.43
 -15   3 -20    0.28    0.32
  15   4 -21   -1.28    0.48
  -4 -15 -21    0.03    0.32
  15   4 -19   -0.25    0.39
  -4 -15 -19    0.20    0.30
 -15   4  19    1.01    0.39
  -4 -15 -19    0.33    0.58
 -15  -4 -17    2.78    0.57
  -4 -15 -17    2.64    0.50
   4  15 -17    3.77    0.65
  15   4 -17    2.02    0.52
  -4  15  17    2.90    0.54
 -15   4  17    2.26    0.47
  -4 -15 -17    3.03    0.68
 -15  -4 -15    5.66    0.71
  15   4 -15    5.53    0.64
   4  15 -15    4.33    0.66
  -4 -15 -15    5.72    0.63
  -4  15  15    5.72    0.69
 -15   4  15    5.11    0.59
   4  15 -15    4.88    0.68
  -4 -15 -15    5.96    0.76
 -15  -4 -13    1.41    0.43
  15   4 -13    1.65    0.41
   4  15 -13    1.29    0.42
  -4 -15 -13    1.69    0.38
  -4  15  13    1.56    0.40
 -15   4  13    1.11    0.33
   4  15 -13    1.78    0.52
 -15  -4 -11   -0.15    0.31
   4  15 -11   -0.49    0.47
   4  15 -11    0.27    0.34
 -15   4  11    0.45    0.23
  -4 -15 -11    0.01    0.27
  -4  15  11    0.22    0.29
 -15   4  11    0.11    0.23
  15  -4   9    0.59    0.24
 -15  -4  -9    0.32    0.31
   4  15  -9    1.12    0.39
   4  15  -9    0.68    0.43
 -15   4   9    0.91    0.27
  -4 -15  -9    0.26    0.27
  -4 -15  -9    0.97    0.28
  -4  15   9    0.72    0.30
 -15   4   9    0.85    0.29
 -15  -4  -7   12.37    0.86
   4  15  -7   11.35    0.84
 -15   4   7   10.98    0.74
  -4 -15  -7   12.19    0.83
  -4 -15  -7   11.35    0.67
  -4  15   7   14.11    0.88
  15  -4   7   11.14    0.67
   4  15  -7   12.12    0.92
   4 -15   5    3.22    0.47
 -15  -4  -5    3.45    0.47
   4  15  -5    3.11    0.47
  -4 -15  -5    3.46    0.45
 -15   4   5    2.46    0.42
   4  15  -5    2.90    0.58
  -4 -15  -5    2.96    0.36
  -4  15   5    3.12    0.43
 -15  -4  -5    3.71    0.57
  15  -4   5    2.90    0.36
   4 -15   3    2.32    0.40
   4  15  -3    2.51    0.40
 -15  -4  -3    3.12    0.43
  -4 -15  -3    3.05    0.45
 -15   4   3    3.42    0.45
   4  15  -3    2.72    0.54
   4  15  -3    2.86    0.23
  -4  15   3    2.89    0.40
  -4 -15  -3    3.17    0.36
 -15  -4  -3    3.33    0.55
  15  -4   3    3.49    0.38
   4  15  -1    1.26    0.32
  -4  15   1    1.27    0.20
 -15  -4  -1    1.23    0.30
 -15  -4  -1    1.68    0.46
 -15   4   1    1.03    0.31
 -15   4   1    1.28    0.43
   4  15  -1    1.16    0.18
  15  -4   1    0.91    0.27
  -4 -15  -1    1.14    0.27
   4 -15   1    0.66    0.31
 -15   4  -1    1.25    0.42
  -4  15  -1    0.83    0.21
 -15  -4   1    1.28    0.30
 -15   4  -1    0.86    0.32
   4  15   1    1.11    0.20
  15  -4  -1    1.27    0.29
 -15  -4   1    0.73    0.41
 -15   4  -1    2.04    0.31
   4 -15  -1    1.25    0.35
  -4 -15   1    1.41    0.29
  -4 -15   3    2.92    0.36
  -4  15  -3    2.78    0.35
 -15  -4   3    2.90    0.38
 -15   4  -3    3.40    0.53
 -15  -4   3    2.72    0.48
   4  15   3    3.78    0.37
 -15   4  -3    2.95    0.47
  15  -4  -3    3.40    0.39
   4 -15  -3    3.06    0.45
 -15   4  -3    3.14    0.39
 -15  -4   5    2.78    0.51
  -4  15  -5    3.37    0.40
 -15  -4   5    3.19    0.36
 -15   4  -5    3.15    0.49
   4  15   5    2.93    0.37
  15  -4  -5    3.24    0.40
 -15   4  -5    3.32    0.54
   4 -15  -5    3.38    0.47
 -15   4  -5    3.15    0.42
 -15   4  -7   13.52    0.89
  -4  15  -7   12.98    0.81
 -15  -4   7   12.44    0.68
 -15   4  -7   12.71    0.93
   4 -15  -7   11.96    0.70
  15  -4  -7   12.82    0.78
   4  15   7   11.77    0.74
   4 -15  -7   12.47    0.84
 -15  -4   7   11.86    0.61
 -15   4  -7   12.85    0.85
 -15  -4   7   10.75    0.87
  -4  15  -9    1.07    0.38
 -15  -4   9    1.08    0.24
   4 -15  -9    0.72    0.23
 -15   4  -9    0.77    0.34
   4  15   9    0.29    0.29
   4 -15  -9    0.40    0.27
 -15   4  -9    0.52    0.35
 -15  -4   9    0.52    0.18
 -15  -4   9    0.49    0.35
 -15   4  -9    0.70    0.34
  -4  15 -11    0.26    0.30
   4 -15 -11    0.21    0.18
  -4  15 -11    0.64    0.38
 -15   4 -11    0.15    0.31
   4  15  11   -0.18    0.28
 -15   4 -11    0.42    0.38
   4 -15 -11    0.20    0.30
 -15  -4  11   -0.07    0.31
 -15   4 -11    0.52    0.32
  -4  15 -13    2.36    0.47
 -15   4 -13    1.71    0.43
 -15   4 -13    2.43    0.48
   4 -15 -13    2.30    0.45
   4  15  13    1.37    0.38
 -15  -4  13    2.43    0.50
  -4  15 -13    1.42    0.41
  -4  15 -15    4.87    0.67
 -15   4 -15    6.23    0.72
   4  15  15    5.13    0.65
 -15  -4  15    5.49    0.68
  -4  15 -17    2.51    0.56
 -15   4 -17    4.11    0.61
   4  15  17    2.72    0.55
 -15  -4  17    2.64    0.53
 -15   4 -19    0.20    0.32
   4  15  19   -0.18    0.34
 -15   4 -21   -0.23    0.37
  -5 -15 -20    0.48    0.33
 -15   5  20    0.39    0.34
  -5 -15 -18    8.91    0.83
  15   5 -18    9.99    0.91
 -15   5  18    9.38    0.86
  -5 -15 -18   11.18    1.05
 -15  -5 -16    2.07    0.51
  15   5 -16    1.94    0.49
   5  15 -16    1.59    0.51
  -5 -15 -16    2.20    0.46
  -5  15  16    2.81    0.55
   5  15 -16    2.60    0.60
 -15   5  16    1.82    0.42
 -15  -5 -14    3.49    0.57
  15   5 -14    2.67    0.50
   5  15 -14    2.15    0.53
  -5 -15 -14    3.42    0.53
  -5  15  14    4.81    0.64
 -15   5  14    3.30    0.50
   5  15 -14    3.63    0.63
  15   5 -12   11.79    0.91
  -5 -15 -12   13.03    0.92
  -5  15  12   12.15    0.94
 -15   5  12   12.04    0.88
   5  15 -12   12.73    1.00
   5  15 -12   13.61    1.01
 -15  -5 -12   14.03    1.01
 -15  -5 -10    9.53    0.81
 -15   5  10    9.65    0.68
   5  15 -10    9.44    0.83
  -5 -15 -10    8.91    0.75
  -5  15  10   10.26    0.83
 -15   5  10    9.47    0.76
   5  15 -10    9.96    0.87
 -15  -5  -8    5.73    0.62
 -15   5   8    5.28    0.52
   5  15  -8    4.13    0.57
   5  15  -8    4.94    0.68
  -5 -15  -8    5.65    0.59
  -5 -15  -8    4.54    0.44
  -5  15   8    4.67    0.56
  15  -5   8    5.83    0.52
 -15  -5  -6    9.55    0.75
   5  15  -6    8.30    0.73
 -15   5   6    8.58    0.67
  -5 -15  -6    9.66    0.75
  -5 -15  -6    8.74    0.57
  -5  15   6    9.49    0.73
  15  -5   6    8.83    0.62
   5  15  -6    9.21    0.84
   5 -15   6    9.38    0.73
   5 -15   4    1.53    0.37
 -15  -5  -4    1.66    0.46
   5  15  -4    1.60    0.37
 -15  -5  -4    1.26    0.34
 -15   5   4    1.41    0.34
  -5 -15  -4    1.12    0.33
   5  15  -4    1.20    0.45
  -5 -15  -4    1.29    0.26
  -5  15   4    1.94    0.38
  15  -5   4    0.86    0.26
 -15  -5  -2    1.20    0.48
   5  15  -2    0.92    0.31
 -15  -5  -2    0.57    0.26
 -15   5   2    0.64    0.30
  -5 -15  -2    0.41    0.26
   5  15  -2    1.42    0.51
  -5 -15  -2    0.73    0.24
  15  -5   2    0.87    0.26
   5 -15   2    0.64    0.31
  -5  15   0   -0.14    0.15
 -15  -5   0    0.16    0.21
 -15  -5   0   -0.01    0.35
 -15   5   0    0.70    0.33
   5  15   0    0.26    0.15
  15  -5   0    0.27    0.24
  -5 -15   0    0.34    0.21
   5 -15   0    0.18    0.27
 -15  -5   2    0.71    0.41
  -5  15  -2    0.64    0.22
 -15  -5   2    0.73    0.23
 -15   5  -2    0.87    0.33
   5  15   2    0.44    0.18
  15  -5  -2    0.89    0.29
   5 -15  -2    0.80    0.34
  -5 -15   2    1.04    0.26
 -15   5  -2    0.25    0.35
  -5 -15   4    0.91    0.25
  -5  15  -4    1.15    0.27
 -15   5  -4    1.35    0.38
 -15  -5   4    1.16    0.27
 -15   5  -4    1.49    0.39
   5  15   4    1.39    0.27
  15  -5  -4    2.10    0.36
 -15  -5   4    1.41    0.43
   5 -15  -4    1.22    0.37
  -5  15  -6    9.01    0.64
 -15  -5   6    7.54    0.75
 -15  -5   6    8.44    0.59
 -15   5  -6    9.92    0.82
   5 -15  -6    9.14    0.60
   5  15   6    8.00    0.60
  15  -5  -6    8.99    0.65
   5 -15  -6    9.73    0.75
 -15  -5   6    8.42    0.48
 -15   5  -6    9.77    0.76
 -15   5  -8    5.32    0.58
 -15  -5   8    3.75    0.57
 -15  -5   8    4.89    0.44
  -5  15  -8    4.35    0.52
 -15   5  -8    6.06    0.68
   5 -15  -8    5.07    0.44
  15  -5  -8    5.68    0.56
   5  15   8    5.74    0.55
   5 -15  -8    6.26    0.63
 -15  -5  10    9.31    0.80
  -5  15 -10   10.31    0.79
   5 -15 -10    9.21    0.58
  -5  15 -10   10.40    0.77
 -15  -5  10    8.60    0.58
 -15   5 -10   10.09    0.85
 -15   5 -10   11.20    0.80
   5  15  10    9.67    0.75
   5 -15 -10    8.10    0.73
  -5  15 -12   14.05    0.88
 -15  -5  12   12.44    0.94
  -5  15 -12   13.63    0.96
 -15   5 -12   12.33    0.98
   5  15  12   12.72    0.90
   5 -15 -12   15.20    1.00
 -15   5 -12   14.05    0.90
  -5  15 -14    3.35    0.59
 -15   5 -14    3.63    0.57
   5  15  14    3.11    0.53
 -15  -5  14    2.66    0.52
  -5  15 -16    1.91    0.51
 -15   5 -16    2.16    0.48
   5  15  16    1.63    0.45
 -15  -5  16    2.18    0.48
 -15   5 -18   10.38    0.92
  -5  15 -18    8.90    0.95
   5  15  18    9.72    0.91
 -15   5 -20    0.92    0.41
  -6 -15 -19    1.69    0.49
  15   6 -19    0.66    0.42
 -15   6  19    1.12    0.38
 -15  -6 -17    3.98    0.65
  15   6 -17    3.76    0.62
  -6 -15 -17    2.96    0.52
   6  15 -17    4.37    0.69
  -6  15  17    4.97    0.70
 -15   6  17    3.55    0.58
  15   6 -15   14.69    1.07
  -6 -15 -15   15.83    1.08
   6  15 -15   17.77    1.23
  -6  15  15   15.40    1.14
 -15   6  15   15.36    1.06
   6  15 -15   16.86    1.21
 -15  -6 -15   16.93    1.19
  15   6 -13   11.46    0.91
   6  15 -13   10.08    0.92
  -6 -15 -13   11.41    0.89
  -6  15  13   10.89    0.91
 -15   6  13   10.16    0.84
   6  15 -13   10.97    0.96
 -15  -6 -13   10.10    0.91
 -15  -6 -11    0.71    0.34
   6  15 -11    1.36    0.43
  -6 -15 -11    0.56    0.31
  -6  15  11    1.12    0.37
 -15   6  11    1.05    0.34
   6  15 -11    1.45    0.48
 -15  -6  -9   14.34    0.98
 -15   6   9   13.65    0.83
   6  15  -9   14.25    1.00
  -6 -15  -9   12.14    0.89
  -6  15   9   12.41    0.91
 -15   6   9   14.30    0.93
   6  15  -9   13.21    1.00
  15  -6   9   12.75    0.80
 -15  -6  -7   38.59    1.63
   6  15  -7   35.18    1.56
 -15   6   7   34.53    1.45
  -6 -15  -7   34.28    1.53
  -6 -15  -7   34.80    1.23
  -6  15   7   35.30    1.55
   6  15  -7   35.24    1.66
  15  -6   7   35.11    1.38
   6 -15   5    0.25    0.29
   6  15  -5    1.22    0.38
 -15  -6  -5    0.44    0.28
 -15   6   5    0.96    0.30
   6  15  -5    0.37    0.43
  -6 -15  -5    0.67    0.32
  -6 -15  -5    0.61    0.22
  -6  15   5    0.69    0.29
  15  -6   5    0.96    0.31
   6  15  -3    2.40    0.44
 -15  -6  -3    3.33    0.47
 -15   6   3    2.70    0.42
   6  15  -3    2.43    0.55
  -6 -15  -3    2.10    0.41
  -6 -15  -3    2.19    0.29
  -6  15   3    2.78    0.42
  15  -6   3    2.66    0.39
 -15  -6  -3    2.70    0.52
   6 -15   3    2.46    0.44
 -15  -6  -1    5.76    0.56
 -15   6   1    4.57    0.56
 -15  -6  -1    5.36    0.66
  -6 -15  -1    5.08    0.56
   6  15  -1    5.50    0.69
  -6 -15  -1    5.72    0.44
  15  -6   1    5.87    0.52
   6 -15   1    5.61    0.60
  -6  15  -1    6.11    0.41
 -15  -6   1    5.80    0.56
 -15   6  -1    5.68    0.62
   6  15   1    5.86    0.37
   6  15   1    6.47    0.71
  15  -6  -1    6.36    0.55
 -15  -6   1    5.34    0.65
   6 -15  -1    5.88    0.60
  -6 -15   1    6.20    0.47
  -6 -15   3    2.56    0.33
  -6  15  -3    2.51    0.32
 -15  -6   3    2.70    0.38
 -15  -6   3    2.50    0.50
 -15   6  -3    3.41    0.51
   6  15   3    2.94    0.32
  15  -6  -3    2.26    0.37
   6 -15  -3    2.90    0.43
 -15   6  -3    2.24    0.46
 -15  -6   5    0.40    0.37
 -15   6  -5    0.61    0.36
  -6  15  -5    0.66    0.28
 -15  -6   5    0.55    0.25
 -15   6  -5    0.81    0.37
   6  15   5    0.51    0.22
  15  -6  -5    0.30    0.26
   6 -15  -5    1.29    0.38
  -6  15  -7   35.89    1.42
 -15   6  -7   36.69    1.65
 -15  -6   7   34.68    1.33
   6 -15  -7   35.03    1.25
 -15  -6   7   33.40    1.56
   6  15   7   33.90    1.34
  15  -6  -7   36.37    1.44
   6 -15  -7   34.71    1.51
 -15   6  -7   34.85    1.49
 -15   6  -9   13.47    0.88
  -6  15  -9   14.45    0.90
 -15   6  -9   15.31    1.04
   6 -15  -9   13.81    0.69
 -15  -6   9   13.01    0.75
 -15  -6   9   13.66    0.97
   6  15   9   11.07    0.78
  15  -6  -9   12.93    0.86
   6 -15  -9   12.12    0.89
  -6  15 -11    1.66    0.40
 -15   6 -11    1.29    0.42
 -15  -6  11    0.63    0.38
  -6  15 -11    1.76    0.46
   6  15  11    1.52    0.38
   6 -15 -11    1.55    0.41
 -15   6 -11    0.79    0.36
 -15  -6  13   10.55    0.89
 -15   6 -13    9.49    0.88
  -6  15 -13    9.91    0.85
   6  15  13    8.83    0.77
   6 -15 -13    9.14    0.81
 -15  -6  15   14.48    1.04
 -15   6 -15   15.19    1.10
  -6  15 -15   16.08    1.14
   6  15  15   15.60    1.08
  -6  15 -17    3.87    0.65
 -15   6 -17    5.00    0.67
 -15   6 -17    5.30    0.76
   6  15  17    4.78    0.68
 -15   6 -19    1.23    0.44
   6  15  19    1.68    0.49
  15   7 -18    5.12    0.76
  -7 -15 -18    6.37    0.77
 -15   7  18    6.11    0.75
 -15  -7 -16    1.92    0.50
  15   7 -16    2.10    0.52
   7  15 -16    1.35    0.51
  -7 -15 -16    0.84    0.37
  -7  15  16    2.04    0.50
 -15   7  16    2.34    0.51
 -15  -7 -14    2.63    0.54
  15   7 -14    2.63    0.51
   7  15 -14    2.89    0.58
  -7 -15 -14    2.05    0.47
  -7  15  14    3.11    0.59
 -15   7  14    2.47    0.50
   7  15 -14    3.05    0.62
 -15  -7 -12   15.54    1.09
  15   7 -12   14.70    1.05
   7  15 -12   14.55    1.08
  -7 -15 -12   14.50    1.03
  -7  15  12   15.96    1.10
 -15   7  12   16.01    1.06
   7  15 -12   14.04    1.10
 -15  -7 -10    9.71    0.86
   7  15 -10   10.52    0.89
  -7 -15 -10   10.45    0.84
  -7  15  10   10.58    0.86
 -15   7  10    9.71    0.80
   7  15 -10   10.64    0.95
  15  -7  10   10.24    0.75
 -15   7   8    5.57    0.58
 -15  -7  -8    7.51    0.73
   7  15  -8    7.43    0.73
   7  15  -8    6.48    0.76
  -7 -15  -8    7.91    0.73
  -7  15   8    7.22    0.70
  15  -7   8    6.56    0.60
   7  15  -6    9.61    0.80
 -15  -7  -6   11.50    0.87
 -15   7   6   10.92    0.80
  -7 -15  -6   10.77    0.83
  -7  15   6   11.67    0.86
   7  15  -6   11.58    0.96
  15  -7   6   10.08    0.72
   7 -15   6    9.70    0.78
   7  15  -4    8.73    0.74
 -15  -7  -4    7.50    0.68
 -15   7   4    8.34    0.71
  -7 -15  -4    6.56    0.66
  -7 -15  -4    6.93    0.46
  -7  15   4    8.55    0.72
  15  -7   4    7.60    0.61
   7 -15   4    7.16    0.68
   7  15  -4    9.01    0.85
 -15  -7  -2    6.73    0.63
  -7 -15  -2    8.27    0.71
   7  15  -2    6.93    0.76
  -7 -15  -2    7.91    0.48
  15  -7   2    7.53    0.60
 -15  -7  -2    8.26    0.81
   7 -15   2    7.03    0.67
 -15   7   2    8.47    0.72
 -15  -7   0    2.62    0.41
 -15   7   0    2.07    0.44
  -7 -15   0    1.97    0.39
   7  15   0    1.58    0.47
  15  -7   0    2.19    0.37
  -7 -15   0    2.08    0.28
   7 -15   0    2.03    0.42
 -15  -7   0    2.15    0.51
 -15  -7   2    8.71    0.78
 -15   7  -2    7.25    0.71
  -7  15  -2    8.02    0.50
 -15  -7   2    7.90    0.63
   7  15   2    9.04    0.82
  15  -7  -2    6.98    0.61
   7 -15  -2    7.08    0.66
  -7 -15   2    7.58    0.51
 -15   7  -4    8.26    0.77
  -7  15  -4    7.86    0.55
 -15  -7   4    7.59    0.61
   7  15   4    7.82    0.51
  15  -7  -4    6.49    0.61
 -15   7  -4    7.58    0.71
   7 -15  -4    8.09    0.71
 -15  -7   4    7.41    0.74
  -7 -15   4    7.74    0.52
 -15   7  -6    9.85    0.84
  -7  15  -6   11.26    0.73
 -15  -7   6    8.87    0.66
   7  15   6    9.94    0.64
  15  -7  -6    9.76    0.72
   7 -15  -6    9.85    0.79
 -15  -7   6   10.46    0.87
 -15   7  -6   10.94    0.83
 -15  -7   8    6.04    0.71
 -15   7  -8    7.09    0.74
  -7  15  -8    7.02    0.62
 -15  -7   8    5.88    0.53
   7 -15  -8    5.54    0.43
   7  15   8    5.86    0.55
  15  -7  -8    5.60    0.60
   7 -15  -8    6.28    0.65
 -15   7  -8    6.75    0.65
 -15   7 -10   10.17    0.77
 -15   7 -10   10.54    0.89
  -7  15 -10    9.59    0.77
 -15  -7  10    7.62    0.59
   7  15  10    9.13    0.72
 -15  -7  10    9.15    0.82
   7 -15 -10    9.52    0.79
 -15   7 -12   13.21    1.03
  -7  15 -12   16.01    1.06
 -15  -7  12   14.35    1.03
   7  15  12   14.75    0.96
   7 -15 -12   14.81    1.02
 -15   7 -12   14.22    0.90
  -7  15 -14    2.67    0.52
 -15   7 -14    3.61    0.60
   7 -15 -14    2.54    0.51
   7  15  14    2.39    0.48
 -15  -7  14    2.74    0.53
  -7  15 -16    1.42    0.49
 -15   7 -16    1.31    0.49
   7  15  16    1.03    0.41
  -7  15 -18    6.68    0.81
 -15   7 -18    6.37    0.76
   7  15  18    6.03    0.77
  15   8 -17    4.68    0.72
  -8 -15 -17    3.93    0.60
 -15   8  17    4.02    0.65
 -15  -8 -15    0.29    0.33
  15   8 -15    0.07    0.36
   8  15 -15    0.44    0.39
  -8 -15 -15    0.21    0.33
  -8  15  15   -0.06    0.37
 -15   8  15    0.17    0.30
 -15  -8 -13    4.45    0.65
   8  15 -13    3.72    0.61
  -8 -15 -13    3.77    0.57
  -8  15  13    4.59    0.64
 -15   8  13    3.80    0.56
   8  15 -13    2.86    0.62
  15   8 -13    4.99    0.69
  15   8 -11    4.46    0.61
 -15  -8 -11    4.27    0.62
   8  15 -11    3.95    0.62
  -8 -15 -11    3.66    0.56
  -8  15  11    4.71    0.62
 -15   8  11    3.54    0.54
   8  15 -11    4.17    0.67
   8  15  -9    0.82    0.50
  15  -8   9   -0.25    0.30
   8  15  -9    0.30    0.36
 -15  -8  -9    0.09    0.28
  -8 -15  -9   -0.23    0.30
  -8  15   9    0.15    0.29
 -15   8   9    0.48    0.31
   8 -15   7    6.59    0.67
 -15  -8  -7    6.78    0.70
   8  15  -7    4.99    0.68
   8  15  -7    5.84    0.66
  -8 -15  -7    6.50    0.69
  -8  15   7    6.58    0.70
  15  -8   7    5.80    0.57
   8 -15   5    4.74    0.58
   8  15  -5    6.28    0.66
 -15   8   5    5.62    0.60
 -15  -8  -5    4.47    0.58
   8  15  -5    5.58    0.75
  -8 -15  -5    4.43    0.57
  -8  15   5    5.35    0.60
  15  -8   5    5.39    0.56
 -15   8   3    0.98    0.36
 -15  -8  -3    1.13    0.35
   8  15  -3    0.88    0.46
  -8 -15  -3    1.34    0.38
  15  -8   3    0.85    0.31
   8 -15   3    0.69    0.35
   8  15  -1    8.35    0.82
 -15   8   1    8.31    0.75
 -15  -8  -1    8.18    0.71
  -8 -15  -1    8.59    0.73
  15  -8   1    8.16    0.65
   8 -15   1    6.94    0.67
   8  15   1    8.14    0.80
 -15   8  -1    8.11    0.74
 -15  -8   1    8.69    0.70
  -8 -15   1    7.78    0.70
 -15  -8   1    7.64    0.76
  15  -8  -1    7.98    0.65
   8 -15  -1    7.87    0.71
  -8  15  -3    0.55    0.23
 -15   8  -3    1.15    0.40
 -15  -8   3    1.15    0.29
   8  15   3    1.97    0.51
  15  -8  -3    1.45    0.34
 -15  -8   3    0.90    0.40
   8 -15  -3    1.15    0.38
  -8 -15   3    1.16    0.24
 -15  -8   5    6.16    0.69
  -8  15  -5    5.55    0.51
 -15  -8   5    4.81    0.51
 -15   8  -5    4.81    0.63
   8  15   5    5.34    0.44
   8  15   5    5.33    0.70
  15   8   5    4.45    0.56
  15  -8  -5    5.22    0.56
   8 -15  -5    5.13    0.59
  -8 -15   5    4.64    0.41
 -15   8  -5    4.76    0.61
  -8  15  -7    5.83    0.57
 -15   8  -7    6.33    0.64
 -15  -8   7    6.36    0.56
 -15   8  -7    6.59    0.71
   8  15   7    5.45    0.50
  15  -8  -7    6.65    0.62
   8 -15  -7    5.18    0.63
 -15  -8   7    5.16    0.65
  15   8   7    4.61    0.54
  -8  15  -9    0.21    0.27
 -15   8  -9    0.35    0.33
 -15  -8   9   -0.10    0.21
   8  15   9    0.23    0.26
  15  -8  -9    0.30    0.33
 -15  -8   9    0.23    0.37
   8 -15  -9    0.24    0.35
 -15   8  -9    0.24    0.33
  15   8   9   -0.27    0.31
  -8  15 -11    2.85    0.49
 -15   8 -11    4.16    0.63
 -15  -8  11    2.90    0.54
 -15   8 -11    3.05    0.46
 -15  -8  11    3.56    0.44
   8  15  11    4.63    0.56
   8 -15 -11    3.41    0.54
 -15  -8  13    3.46    0.60
  -8  15 -13    4.93    0.65
 -15   8 -13    4.92    0.66
   8  15  13    3.34    0.51
   8 -15 -13    4.45    0.61
 -15  -8  15    0.41    0.37
 -15   8 -15    0.36    0.33
  -8  15 -15    0.68    0.41
 -15   8 -15    0.08    0.39
   8  15  15    0.29    0.34
 -15   8 -17    2.72    0.55
  -8  15 -17    3.88    0.67
 -15   8 -17    3.90    0.71
   8  15  17    4.15    0.63
   8  15  19    1.44    0.49
  15   9 -16    1.93    0.54
  -9 -15 -16    2.76    0.55
 -15   9  16    2.80    0.55
 -15  -9 -14    1.24    0.42
  15   9 -14    2.46    0.56
   9  15 -14    2.07    0.52
  -9 -15 -14    2.59    0.53
  -9  15  14    1.88    0.51
 -15   9  14    1.87    0.44
  15   9 -12    0.31    0.36
 -15  -9 -12   -0.03    0.35
   9  15 -12    0.14    0.35
  -9 -15 -12    1.07    0.40
  -9  15  12    0.54    0.38
 -15   9  12    0.73    0.37
   9  15 -12    0.13    0.42
  15  -9  10    1.31    0.36
   9  15 -10    0.96    0.40
 -15  -9 -10    1.67    0.46
  -9 -15 -10    0.70    0.33
  -9  15  10    1.63    0.44
 -15   9  10    1.27    0.37
   9  15 -10    1.49    0.52
   9  15  -8    4.77    0.71
  15  -9   8    3.36    0.49
   9 -15   8    4.05    0.56
   9  15  -8    3.13    0.56
 -15  -9  -8    2.76    0.51
  -9 -15  -8    3.16    0.53
  -9  15   8    3.23    0.52
   9  15  -6    6.92    0.70
 -15  -9  -6    8.47    0.77
  -9 -15  -6    8.15    0.75
   9  15  -6    7.40    0.81
  -9  15   6    8.35    0.76
  15  -9   6    7.14    0.66
   9 -15   6    6.66    0.69
 -15   9   4    1.50    0.39
   9  15  -4    0.88    0.44
 -15  -9  -4    1.02    0.37
  -9 -15  -4    0.90    0.36
  15  -9   4    0.85    0.33
   9 -15   4    1.11    0.41
 -15   9   2    9.10    0.78
 -15  -9  -2    6.83    0.67
   9  15  -2    7.64    0.80
  -9 -15  -2    6.93    0.68
  15  -9   2    8.22    0.67
   9 -15   2    8.29    0.74
 -15   9   0   11.01    0.88
 -15  -9   0    9.97    0.78
  -9 -15   0   10.66    0.82
  15  -9   0   11.56    0.80
   9 -15   0   10.43    0.82
   9  15   0   11.92    0.95
 -15   9  -2    8.59    0.79
 -15  -9   2    8.20    0.69
  -9 -15   2    7.25    0.69
   9  15   2    6.57    0.73
  15  -9  -2    8.75    0.69
  15   9   2    8.54    0.77
   9 -15  -2    7.11    0.68
 -15  -9   4    1.53    0.45
 -15   9  -4    1.34    0.42
 -15  -9   4    1.12    0.31
   9  15   4    1.64    0.50
  15  -9  -4    1.14    0.37
   9 -15  -4    0.58    0.32
  15   9   4    0.36    0.36
 -15   9  -6    7.37    0.77
  -9  15  -6    7.30    0.60
 -15  -9   6    7.51    0.64
 -15  -9   6    6.94    0.77
   9  15   6    7.57    0.78
  15  -9  -6    7.02    0.68
   9 -15  -6    8.20    0.74
 -15   9  -6    7.54    0.69
  15   9   6    6.56    0.66
 -15   9  -8    3.10    0.53
  -9  15  -8    4.14    0.51
 -15   9  -8    2.57    0.47
 -15  -9   8    2.56    0.40
   9  15   8    2.75    0.39
 -15  -9   8    3.24    0.59
   9  15   8    4.33    0.64
  15  -9  -8    2.93    0.48
   9 -15  -8    2.79    0.50
  15   9   8    2.80    0.47
 -15  -9  10    1.83    0.49
 -15   9 -10    1.59    0.44
  -9  15 -10    1.86    0.43
 -15  -9  10    0.96    0.27
   9  15  10    1.80    0.37
  15  -9 -10    1.46    0.41
   9 -15 -10    1.29    0.42
 -15   9 -10    1.56    0.40
 -15  -9  12    0.24    0.36
 -15   9 -12    1.20    0.43
  -9  15 -12    0.55    0.36
 -15   9 -12    1.05    0.42
 -15  -9  12    0.44    0.21
   9  15  12    0.08    0.30
   9 -15 -12    0.71    0.38
 -15   9 -14    1.77    0.49
  -9  15 -14    1.79    0.50
 -15   9 -14    1.29    0.48
   9  15  14    1.33    0.41
   9 -15 -14    1.77    0.45
 -15  -9  14    1.99    0.50
 -15   9 -16    2.48    0.55
  -9  15 -16    2.17    0.52
 -15   9 -16    2.76    0.61
   9  15  16    2.31    0.48
   9  15  18    1.58    0.48
  15  10 -15    1.73    0.55
 -10 -15 -15    1.29    0.42
 -15  10  15    0.98    0.39
  15  10 -13    0.55    0.45
 -15 -10 -13   -0.01    0.31
  10  15 -13    0.49    0.40
 -10 -15 -13   -0.11    0.33
 -10  15  13    0.25    0.36
 -15  10  13    0.38    0.34
  15 -10  11    1.31    0.41
  15  10 -11    1.60    0.48
  10  15 -11    0.74    0.40
 -15 -10 -11    0.65    0.36
 -10 -15 -11    1.11    0.40
 -10  15  11    1.22    0.46
 -15  10  11    0.92    0.38
  10  15 -11    0.77    0.50
  15 -10   9    1.20    0.38
  10 -15   9    0.51    0.37
  10  15  -9    0.67    0.35
 -15 -10  -9   -0.24    0.32
 -10 -15  -9    0.00    0.30
 -10  15   9    0.64    0.34
 -15  10   9    0.64    0.36
  10  15  -9   -0.16    0.46
  10 -15   7    1.81    0.41
  10  15  -7    2.28    0.50
 -15 -10  -7    2.62    0.49
 -10 -15  -7    2.21    0.48
 -10  15   7    2.02    0.44
  10  15  -7    2.37    0.58
  15 -10   7    1.84    0.40
  10  15  -5    5.68    0.75
 -15 -10  -5    6.39    0.68
 -10 -15  -5    5.83    0.65
 -10  15   5    6.18    0.68
  15 -10   5    6.15    0.62
  10 -15   5    6.58    0.68
  10  15  -3    4.72    0.71
 -15 -10  -3    5.31    0.61
 -10 -15  -3    5.61    0.63
  15 -10   3    3.82    0.52
  10 -15   3    5.35    0.64
 -15  10   1    2.78    0.50
  10  15  -1    1.40    0.53
 -15 -10  -1    1.53    0.38
 -10 -15  -1    1.51    0.38
  15  10  -1    2.51    0.54
  15 -10   1    0.93    0.34
  10 -15   1    1.58    0.41
 -15  10  -1    1.50    0.44
  10  15   1    1.55    0.49
 -15 -10   1    1.55    0.37
 -10 -15   1    1.54    0.38
  15 -10  -1    1.41    0.39
  15  10   1    2.65    0.53
  10 -15  -1    1.24    0.39
 -15  10  -3    4.50    0.61
 -15 -10   3    5.32    0.58
  10  15   3    5.31    0.73
 -10 -15   3    5.11    0.59
  15 -10  -3    6.46    0.64
  10 -15  -3    5.70    0.64
  15  10   3    4.40    0.62
 -15  10  -5    6.86    0.73
 -15 -10   5    5.47    0.57
  10  15   5    6.29    0.75
  15 -10  -5    6.63    0.65
  10 -15  -5    6.81    0.69
  15  10   5    5.72    0.66
 -15  10  -7    2.16    0.46
 -15  10  -7    1.62    0.46
 -10  15  -7    2.08    0.39
 -15 -10   7    2.09    0.40
  10  15   7    1.64    0.55
  15 -10  -7    1.57    0.40
  10 -15  -7    1.94    0.44
  15  10   7    1.99    0.45
 -15 -10   7    1.84    0.49
 -15  10  -9    0.80    0.39
 -10  15  -9    0.90    0.32
 -15  10  -9    0.75    0.35
 -15  10  -9    0.69    0.36
 -15 -10   9    0.60    0.26
  10  15   9    1.11    0.48
  15 -10  -9    0.17    0.33
  10 -15  -9   -0.20    0.32
 -15 -10   9    0.75    0.42
  15  10   9    0.46    0.36
 -15  10 -11    0.84    0.42
 -15 -10  11    1.09    0.43
 -10  15 -11    1.48    0.43
 -15  10 -11    0.46    0.34
 -15 -10  11    1.80    0.36
  10  15  11    0.98    0.51
  15 -10 -11    1.40    0.40
  10 -15 -11    1.66    0.45
 -15 -10  13   -0.16    0.35
 -15  10 -13   -0.04    0.37
 -10  15 -13    0.50    0.35
 -15  10 -13    0.47    0.41
  10  15  13    0.71    0.48
  10 -15 -13    0.00    0.33
 -15  10 -15    1.23    0.46
 -10  15 -15    1.65    0.49
 -15  10 -15    0.91    0.45
  15 -11  12    0.42    0.33
  15  11 -12    0.45    0.44
  11  15 -12   -0.32    0.41
 -15 -11 -12    0.41    0.37
 -11 -15 -12    0.52    0.37
 -11  15  12    0.35    0.34
 -15  11  12    0.24    0.30
  15 -11  10    1.74    0.45
  11 -15  10    1.44    0.43
  11  15 -10    0.73    0.43
 -15 -11 -10    0.68    0.37
 -11 -15 -10    1.93    0.48
 -11  15  10    0.93    0.37
 -15  11  10    1.42    0.44
  11  15 -10    1.09    0.54
  15 -11   8   -0.19    0.32
  11 -15   8   -0.13    0.30
  11  15  -8    0.04    0.33
 -15 -11  -8    0.42    0.32
 -11 -15  -8    0.12    0.30
 -11  15   8    0.27    0.35
 -15  11   8    0.10    0.31
  11  15  -8   -0.41    0.49
  11 -15   6    3.28    0.53
 -15 -11  -6    2.81    0.51
 -11 -15  -6    2.68    0.49
 -11  15   6    2.83    0.51
  11  15  -6    3.49    0.62
  15 -11   6    3.62    0.55
  11  15  -4    0.38    0.45
 -15 -11  -4    0.65    0.33
 -11 -15  -4    0.53    0.30
  15 -11   4    0.55    0.32
  11 -15   4    0.58    0.35
  11  15  -2   -0.22    0.45
 -15 -11  -2    1.28    0.36
 -11 -15  -2    0.58    0.32
  15  11  -2    0.78    0.44
  15 -11   2    0.50    0.32
  11 -15   2    0.98    0.39
  11  15   0    0.75    0.45
 -15 -11   0    1.11    0.34
 -11 -15   0    0.35    0.27
  15 -11   0    1.63    0.41
  15  11   0    0.87    0.42
  11 -15   0    1.08    0.38
 -15  11  -2    0.56    0.35
  11  15   2    0.49    0.43
 -15 -11   2    0.69    0.30
 -11 -15   2    0.72    0.31
  15 -11  -2    0.38    0.31
  11 -15  -2    1.27    0.42
  15  11   2    0.42    0.40
 -15  11  -4    0.75    0.39
  11  15   4    0.96    0.44
 -15 -11   4    1.15    0.34
 -11 -15   4    0.16    0.25
  15 -11  -4    0.15    0.29
  11 -15  -4    0.44    0.34
  15  11   4    0.74    0.43
 -15  11  -6    2.98    0.55
  11  15   6    3.91    0.65
 -15  11  -6    3.15    0.50
 -15 -11   6    2.84    0.46
 -15  11  -6    3.50    0.55
  15 -11  -6    2.96    0.51
  11 -15  -6    2.59    0.51
  15  11   6    3.15    0.53
 -15  11  -8    0.30    0.35
 -15  11  -8    0.24    0.36
 -11  15  -8   -0.29    0.29
 -15  11  -8    0.35    0.35
  11  15   8    0.98    0.45
 -15 -11   8    0.08    0.23
  15 -11  -8   -0.37    0.32
  11 -15  -8   -0.21    0.34
  15  11   8    0.12    0.33
 -15  11 -10    0.60    0.39
 -11  15 -10    2.24    0.46
 -15  11 -10    0.89    0.42
 -15 -11  10    0.79    0.29
  11  15  10    1.23    0.47
  15 -11 -10    1.97    0.47
  11 -15 -10    1.85    0.49
 -15  11 -12    0.53    0.39
 -11  15 -12    0.05    0.31
 -15  11 -12    0.37    0.38
 -15 -11  12    0.37    0.28
  11  15  12    0.87    0.50
  15 -11 -12    0.03    0.32
  11 -15 -12    0.16    0.37
 -15  11 -14   -0.21    0.33
 -11  15 -14    0.19    0.38
 -15  11 -14   -0.17    0.37
 -11  15 -16    0.51    0.45
  15 -12  13   -0.14    0.31
  15 -12  11    0.55    0.38
  12 -15  11    0.76    0.40
  12  15 -11    0.95    0.45
 -15 -12 -11    1.73    0.49
 -12 -15 -11    0.68    0.44
 -12  15  11    0.73    0.40
 -15  12  11    0.94    0.39
  15 -12   9    3.27    0.53
  12 -15   9    4.40    0.62
  12  15  -9    4.33    0.65
 -15 -12  -9    3.04    0.55
 -12 -15  -9    4.57    0.65
 -12  15   9    4.66    0.67
 -15  12   9    4.25    0.63
  12  15  -9    3.20    0.67
  12 -15   7    1.39    0.44
 -15 -12  -7    1.15    0.39
 -12 -15  -7    1.34    0.43
 -12  15   7    0.75    0.35
  12  15  -7    0.87    0.50
  15 -12   7    1.56    0.43
 -15 -12  -5    2.81    0.52
 -12 -15  -5    3.41    0.55
  15 -12   5    2.19    0.45
  12  15  -5    2.22    0.56
  12 -15   5    3.70    0.58
  12  15  -3    0.49    0.45
 -15 -12  -3    0.49    0.33
 -12 -15  -3    0.17    0.31
  15  12  -3    0.25    0.41
  15 -12   3    0.05    0.33
  12 -15   3    0.78    0.38
 -15 -12  -1    0.10    0.25
 -12 -15  -1   -0.33    0.29
  12  15  -1   -0.56    0.51
  15  12  -1   -0.09    0.41
  15 -12   1    0.23    0.29
  12 -15   1   -0.21    0.30
  12  15   1   -0.39    0.47
 -15 -12   1    0.06    0.26
 -12 -15   1   -0.41    0.32
  15 -12  -1    0.62    0.36
  12 -15  -1    0.14    0.32
  15  12   1    0.44    0.43
  12  15   3    0.39    0.45
 -15 -12   3    0.54    0.28
 -12 -15   3    0.13    0.26
  15 -12  -3    0.15    0.31
  12 -15  -3    0.25    0.37
  15  12   3    0.33    0.42
  12  15   5    3.20    0.58
 -15 -12   5    2.51    0.45
 -12 -15   5    3.68    0.53
  15 -12  -5    3.20    0.50
  12 -15  -5    3.20    0.53
  15  12   5    3.68    0.58
  12  15   7    0.68    0.44
 -15  12  -7    0.86    0.34
 -15 -12   7    0.96    0.32
 -12 -15   7    1.40    0.37
 -15  12  -7    1.56    0.40
  15 -12  -7    1.51    0.40
  12 -15  -7    2.19    0.48
  15  12   7    0.41    0.38
  15  12   9    2.57    0.54
  12  15   9    2.55    0.60
 -15  12  -9    3.22    0.52
 -15 -12   9    2.80    0.45
  15 -12  -9    3.19    0.52
  12 -15  -9    3.17    0.55
 -12  15 -11    0.19    0.30
  12  15  11    0.67    0.45
 -15  12 -11    0.47    0.35
 -15 -12  11    0.59    0.29
  15 -12 -11    1.28    0.46
  12 -15 -11    1.06    0.45
 -12  15 -13    1.07    0.42
 -15  12 -13    0.51    0.39
 -15 -12  13    0.59    0.29
 -12  15 -15    2.57    0.55
 -15  12 -15    4.00    0.66
  15 -13  12    0.25    0.37
  15 -13  10    5.01    0.66
  13 -15  10    3.52    0.59
  13  15 -10    2.59    0.57
 -15 -13 -10    4.26    0.67
 -13 -15 -10    3.68    0.65
 -13  15  10    5.36    0.74
 -15  13  10    4.45    0.68
  13 -15   8    2.52    0.50
 -15 -13  -8    2.34    0.52
 -13 -15  -8    2.83    0.56
 -13  15   8    1.54    0.47
 -15  13   8    2.30    0.51
  13  15  -8    1.25    0.54
  15 -13   8    1.82    0.45
 -15 -13  -6   -0.22    0.33
 -13 -15  -6   -0.53    0.35
 -13  15   6    0.47    0.34
  13  15  -6   -0.21    0.44
  15 -13   6    0.36    0.35
  13 -15   6    0.10    0.33
 -15 -13  -4    2.89    0.52
 -13 -15  -4    2.79    0.52
  15  13  -4    4.06    0.68
  15 -13   4    4.33    0.59
  13  15  -4    5.11    0.73
  13 -15   4    3.90    0.58
 -15 -13  -2    2.13    0.44
 -13 -15  -2    3.00    0.51
  15  13  -2    2.19    0.55
  15 -13   2    2.73    0.49
  13 -15   2    2.54    0.48
  13  15  -2    1.82    0.52
  13  15   0    1.83    0.58
 -15 -13   0    3.17    0.51
 -13 -15   0    3.69    0.56
  15 -13   0    3.42    0.53
  13 -15   0    2.11    0.48
  15  13   0    3.09    0.61
  13  15   2    2.35    0.59
 -15 -13   2    1.32    0.37
 -13 -15   2    1.06    0.38
  15 -13  -2    2.43    0.49
  13 -15  -2    2.18    0.45
  15  13   2    2.22    0.56
  13  15   4    2.68    0.57
 -15 -13   4    4.22    0.56
 -13 -15   4    4.51    0.60
  15 -13  -4    3.88    0.57
  13 -15  -4    3.74    0.59
  15  13   4    3.81    0.63
  13  15   6   -0.17    0.42
 -15 -13   6   -0.09    0.24
 -13 -15   6    0.14    0.26
  15 -13  -6    0.04    0.34
  13 -15  -6    0.10    0.37
  15  13   6    0.20    0.44
  15  13   8    2.15    0.51
  13  15   8    2.03    0.55
 -15 -13   8    1.96    0.39
 -13 -15   8    1.82    0.42
  15 -13  -8    2.46    0.52
  13 -15  -8    2.52    0.52
  13  15  10    3.27    0.65
 -15 -13  10    3.89    0.54
  15 -13 -10    3.63    0.61
  13 -15 -10    4.08    0.64
 -15  13 -12   -0.22    0.37
 -15 -13  12    0.10    0.26
 -13  15 -14    2.29    0.54
 -15  13 -14    1.63    0.50
  14 -15   9    0.11    0.35
  15 -14   9    1.12    0.41
 -15 -14  -7    2.28    0.52
 -14 -15  -7    1.93    0.48
 -14  15   7    3.59    0.61
 -15  14   7    2.33    0.53
  14  15  -7    1.60    0.57
  15 -14   7    1.29    0.45
  14 -15   7    2.07    0.49
 -15 -14  -5    9.49    0.90
 -14 -15  -5   11.32    0.96
  15  14  -5    9.76    0.99
  14  15  -5    9.88    1.00
  15 -14   5    9.86    0.87
  14 -15   5    9.30    0.86
 -15 -14  -3    6.80    0.77
 -14 -15  -3    7.48    0.78
  15 -14   3    7.32    0.76
  14 -15   3    7.99    0.80
  15  14  -3    6.81    0.85
  14  15  -3    5.63    0.78
 -15 -14  -1    7.37    0.76
 -14 -15  -1    7.54    0.78
  15 -14   1    8.02    0.78
  14 -15   1    5.19    0.66
  15  14  -1    7.00    0.84
  14  15  -1    6.90    0.85
  14  15   1    6.83    0.82
 -15 -14   1    7.99    0.79
 -14 -15   1    7.30    0.76
  15 -14  -1    8.44    0.80
  14 -15  -1    7.66    0.77
  15  14   1    6.11    0.78
  14  15   3    7.83    0.87
 -15 -14   3    7.40    0.75
 -14 -15   3    6.59    0.72
  14 -15  -3    7.27    0.76
  15 -14  -3    5.65    0.67
  15  14   3    7.37    0.83
 -15 -14   5    8.48    0.81
 -14 -15   5    8.01    0.78
  15 -14  -5    9.05    0.85
  14 -15  -5    9.61    0.86
  15  14   5   10.09    0.94
  14  15   5    8.74    0.89
  15  14   7    1.72    0.51
  14  15   7    1.84    0.54
 -15 -14   7    1.88    0.43
 -14 -15   7    1.83    0.43
  15 -14  -7    0.93    0.43
  14 -15  -7    1.64    0.47
  15  14   9    0.64    0.43
  14  15   9   -0.19    0.49
 -15 -14   9    0.24    0.29
 -14 -15   9    1.03    0.37
  15 -14  -9    0.40    0.37
 -15 -14  11    2.62    0.47
 -14 -15  11    2.00    0.44
 -15 -14  13    0.47    0.27
  15 -15   8    9.55    0.91
  15 -15   6   11.23    0.96
 -15 -15  -4    3.84    0.62
  15  15  -4    3.12    0.69
  15 -15   4    3.53    0.58
 -15 -15  -2    8.41    0.84
  15 -15   2    8.54    0.82
  15  15  -2    7.95    0.92
 -15 -15   0   39.30    1.83
  15 -15   0   39.90    1.80
  15  15   0   34.18    1.83
 -15 -15   2    8.49    0.82
  15 -15  -2    8.46    0.83
  15  15   2    8.57    0.95
  15  15   4    4.45    0.69
 -15 -15   4    3.35    0.55
  15 -15  -4    2.55    0.53
 -15 -15   6   12.14    0.97
  15 -15  -6   11.89    0.98
  15  15   6   10.26    0.98
  15  15   8    7.23    0.88
 -15 -15   8    8.74    0.82
 -15 -15  10    0.95    0.36
   0  16   0   29.03    1.11
  16   0   0   26.63    0.92
   0  16   0   27.68    1.10
   0 -16   0   28.57    1.22
 -16   0   0   27.54    1.38
 -16   0   0   27.92    1.15
 -16   0  -2    5.36    0.63
   0  16  -2    5.54    0.50
 -16   0   2    4.10    0.59
  16   0   2    4.87    0.35
   0  16  -2    5.03    0.42
   0  16   2    4.37    0.44
   0 -16  -2    5.60    0.53
   0 -16  -2    5.05    0.38
 -16   0  -2    4.57    0.49
 -16   0   2    4.26    0.41
   0 -16   2    4.71    0.51
   0  16  -4   17.96    0.93
 -16   0  -4   17.73    1.07
 -16   0   4   17.74    1.00
   0  16   4   16.92    0.89
  16   0   4   16.59    0.68
   0 -16  -4   17.34    0.93
   0 -16  -4   16.82    0.79
 -16   0   4   18.06    1.10
   0 -16   4   16.34    0.91
 -16   0  -4   18.16    0.98
 -16   0   4   16.72    0.76
   0  16  -6   17.37    0.97
   0 -16  -6   19.39    1.01
 -16   0   6   19.24    1.01
 -16   0  -6   18.79    1.11
   0  16  -6   19.50    1.13
   0 -16  -6   18.34    0.98
   0  16   6   18.20    0.97
 -16   0   6   18.49    1.15
  16   0   6   19.56    0.75
   0 -16  -6   18.10    0.91
 -16   0  -6   18.83    1.04
   0  16  -8    9.36    0.81
   0  16  -8    9.20    0.74
   0 -16  -8    9.73    0.71
 -16   0   8    8.57    0.65
   0 -16  -8    7.24    0.63
   0  16   8    8.50    0.69
 -16   0   8    8.12    0.79
 -16   0   8    8.67    0.62
   0 -16  -8    7.33    0.66
 -16   0  -8    8.37    0.77
 -16   0  -8    9.10    0.77
   0  16 -10   10.82    0.85
   0 -16 -10   11.31    0.77
 -16   0  10   11.40    0.71
 -16   0 -10   11.46    0.89
   0 -16 -10   10.98    0.79
   0  16  10   11.91    0.85
 -16   0  10   10.87    0.71
 -16   0  10   11.17    0.92
   0 -16 -10    9.23    0.77
 -16   0 -10   11.36    0.90
   0  16 -10   12.74    0.94
   0  16 -12   25.91    1.38
   0 -16 -12   24.49    1.18
   0 -16 -12   25.48    1.25
   0  16  12   24.03    1.29
 -16   0  12   23.91    1.14
 -16   0  12   23.79    1.37
   0 -16 -12   24.17    1.30
   0  16 -12   26.40    1.35
 -16   0 -12   25.58    1.38
   0  16 -14    4.15    0.62
   0  16 -14    2.86    0.55
   0 -16 -14    3.10    0.47
   0  16  14    3.13    0.51
 -16   0 -14    4.55    0.64
 -16   0  14    3.50    0.45
   0 -16 -14    3.15    0.58
 -16   0  14    2.63    0.56
 -16   0 -14    2.94    0.55
   0 -16 -16    3.30    0.48
   0  16 -16    3.11    0.60
   0  16  16    3.83    0.61
 -16   0 -16    3.04    0.57
   0 -16 -16    4.00    0.67
   0  16 -16    3.23    0.56
 -16   0  16    2.94    0.58
 -16   0 -16    3.08    0.57
   0  16 -18    6.06    0.81
   0  16  18    5.95    0.76
 -16   0 -18    6.61    0.78
   0 -16 -18    5.39    0.79
 -16   0  18    7.22    0.82
 -16   0 -20    3.44    0.62
 -16   0  20    2.68    0.57
 -16   1  19    0.11    0.38
 -16  -1 -19   -0.06    0.32
  -1 -16 -19    0.26    0.50
  -1 -16 -17    1.55    0.37
   1  16 -17    2.29    0.57
  -1  16  17    3.34    0.62
 -16  -1 -17    2.70    0.52
 -16   1  17    1.70    0.38
   1  16 -17    2.53    0.56
  -1 -16 -17    1.99    0.57
 -16  -1 -17    1.65    0.47
  -1 -16 -15   11.38    0.84
   1  16 -15   12.27    1.02
  -1  16  15   11.04    0.95
 -16   1  15   11.93    0.84
   1  16 -15   11.67    0.95
  -1 -16 -15   12.34    1.03
 -16  -1 -15   12.69    1.03
   1  16 -13    7.74    0.79
   1  16 -13    8.19    0.80
  -1 -16 -13    8.11    0.69
  -1  16  13    7.79    0.77
 -16   1  13    7.12    0.63
  -1 -16 -13    7.07    0.76
 -16  -1 -13    8.83    0.83
 -16  -1 -11    2.39    0.47
   1  16 -11    2.42    0.50
   1  16 -11    2.45    0.52
  -1 -16 -11    1.80    0.38
 -16   1  11    2.10    0.34
  -1 -16 -11    2.48    0.42
 -16   1  11    1.69    0.45
  -1  16  11    2.13    0.43
 -16   1  11    2.29    0.37
  -1 -16 -11    1.40    0.44
   1  16  -9   30.23    1.43
  -1 -16  -9   31.95    1.37
 -16   1   9   31.51    1.29
 -16  -1  -9   31.31    1.47
  -1 -16  -9   31.25    1.33
  -1  16   9   29.02    1.37
 -16   1   9   29.21    1.51
 -16   1   9   30.88    1.29
  -1 -16  -9   29.17    1.35
  16  -1   9   29.09    1.09
 -16  -1  -9   31.28    1.47
   1  16  -9   30.43    1.46
   1  16  -7    9.93    0.76
   1  16  -7   11.49    0.90
  -1 -16  -7   11.06    0.77
 -16   1   7   10.19    0.72
  -1 -16  -7   10.55    0.73
  -1  16   7   10.81    0.76
 -16   1   7   10.80    0.90
  -1 -16  -7    9.42    0.71
  16  -1   7   11.07    0.60
 -16  -1  -7   11.36    0.88
 -16  -1  -7   10.22    0.81
   1 -16   5    2.24    0.40
 -16  -1  -5    2.75    0.44
 -16   1   5    2.33    0.52
 -16  -1  -5    2.91    0.54
   1  16  -5    2.50    0.41
  -1 -16  -5    3.77    0.49
 -16   1   5    3.11    0.43
  -1  16   5    2.11    0.36
  -1 -16  -5    2.99    0.42
  -1 -16  -5    2.66    0.40
  16  -1   5    2.47    0.30
   1  16  -3   25.56    1.14
 -16  -1  -3   26.93    1.33
 -16   1   3   27.19    1.26
  16  -1   3   24.22    0.91
  -1  16   3   25.77    1.12
  -1 -16  -3   24.67    1.12
   1  16  -3   25.38    0.96
 -16   1   3   25.88    1.34
  -1 -16  -3   24.84    0.97
   1 -16   3   24.18    1.16
 -16   1   3   25.17    0.97
 -16  -1  -3   25.32    1.17
   1  16  -1   11.46    0.70
 -16  -1  -1   12.15    0.91
 -16   1   1   10.64    0.80
  16  -1   1   11.48    0.58
   1  16  -1   11.15    0.62
  -1  16   1   10.60    0.68
  -1 -16  -1   10.58    0.71
  -1 -16  -1   11.13    0.53
 -16   1   1   10.96    0.88
   1 -16   1   11.13    0.76
 -16   1   1   10.70    0.64
 -16  -1  -1   11.67    0.74
 -16  -1   1   10.54    0.67
  -1  16  -1   11.37    0.66
  16   1   1   10.67    0.48
 -16   1  -1   11.40    0.85
  16  -1  -1   10.92    0.58
   1  16   1   10.84    0.64
  -1  16  -1   10.87    0.66
   1 -16  -1   11.45    0.76
  -1 -16   1   10.72    0.71
 -16   1  -1   10.77    0.85
 -16  -1   1   12.99    0.92
 -16   1  -1   11.97    0.72
 -16  -1   3   26.87    1.05
  -1  16  -3   26.15    1.11
  16  -1  -3   25.57    0.98
  16   1   3   25.12    0.81
   1  16   3   25.91    1.08
   1 -16  -3   25.18    1.17
 -16  -1   3   26.18    1.35
  -1 -16   3   23.87    1.11
 -16   1  -3   26.58    1.17
 -16   1  -3   26.99    1.33
  -1 -16   5    2.75    0.40
 -16  -1   5    2.39    0.30
 -16  -1   5    2.61    0.49
 -16   1  -5    1.88    0.47
   1 -16  -5    2.99    0.41
   1  16   5    2.96    0.39
   1 -16  -5    1.76    0.36
   1 -16  -5    1.61    0.32
  -1  16  -5    2.36    0.37
 -16   1  -5    2.90    0.42
  -1  16  -7   11.17    0.78
   1 -16  -7   10.34    0.72
 -16  -1   7    9.16    0.70
 -16   1  -7   11.63    0.88
   1  16   7    9.82    0.72
   1 -16  -7    9.79    0.75
  -1  16  -7   11.37    0.89
 -16   1  -7   11.95    0.92
   1 -16  -7    9.82    0.70
 -16  -1   7    9.33    0.84
 -16   1  -7   10.22    0.78
  -1  16  -9   30.67    1.45
  -1  16  -9   30.44    1.41
   1 -16  -9   30.08    1.29
 -16  -1   9   31.51    1.29
 -16   1  -9   32.47    1.58
   1 -16  -9   29.29    1.34
   1  16   9   31.19    1.38
 -16  -1   9   31.04    1.24
 -16  -1   9   30.71    1.53
   1 -16  -9   29.72    1.33
 -16   1  -9   32.43    1.47
 -16   1  -9   29.72    1.44
 -16  -1  11    2.11    0.49
  -1  16 -11    1.74    0.44
   1 -16 -11    2.10    0.37
  -1  16 -11    3.19    0.54
 -16   1 -11    3.87    0.58
   1 -16 -11    2.05    0.41
   1  16  11    2.16    0.44
 -16   1 -11    3.11    0.54
 -16  -1  11    2.14    0.34
   1 -16 -11    2.23    0.47
 -16   1 -11    1.76    0.41
   1 -16 -13    8.64    0.67
  -1  16 -13    7.59    0.77
 -16   1 -13    7.98    0.81
   1  16  13    6.84    0.70
 -16  -1  13    7.31    0.59
 -16  -1  13    8.23    0.81
  -1  16 -13    8.25    0.80
   1 -16 -13    6.69    0.74
 -16   1 -13    6.74    0.73
   1 -16 -15   10.57    0.77
  -1  16 -15   10.63    0.96
 -16   1 -15   14.01    1.06
   1  16  15   12.42    0.97
 -16  -1  15   10.63    0.95
  -1  16 -15   11.76    0.92
   1 -16 -15   12.15    1.00
 -16   1 -15   11.67    0.98
 -16  -1  17    2.07    0.49
  -1  16 -17    1.82    0.53
   1  16  17    1.96    0.51
 -16   1 -17    2.24    0.51
   1 -16 -17    1.02    0.49
 -16   1 -17    1.13    0.45
 -16  -1  19   -0.03    0.37
 -16   1 -19   -0.25    0.36
   1 -16 -19   -0.35    0.53
  16   2 -18    1.24    0.45
  -2 -16 -18    2.27    0.44
  -2  16  18    1.40    0.47
 -16   2  18    1.43    0.40
  -2 -16 -18    0.81    0.53
  16   2 -16    0.02    0.29
  -2 -16 -16    0.23    0.35
   2  16 -16   -0.05    0.37
  -2  16  16    0.24    0.33
 -16   2  16    0.00    0.26
  -2 -16 -16    0.05    0.50
   2  16 -16   -0.41    0.41
 -16  -2 -16    0.48    0.39
   2  16 -14    0.73    0.43
  -2 -16 -14    1.19    0.35
  -2  16  14    1.70    0.43
 -16   2  14    0.21    0.25
  -2 -16 -14    1.47    0.50
   2  16 -14    0.27    0.42
 -16  -2 -14    1.08    0.45
 -16  -2 -12    5.93    0.68
   2  16 -12    5.17    0.68
   2  16 -12    5.91    0.70
  -2 -16 -12    5.55    0.59
  -2  16  12    6.25    0.68
 -16   2  12    5.95    0.58
  -2 -16 -12    5.37    0.67
 -16  -2 -10    4.57    0.61
 -16   2  10    4.56    0.47
   2  16 -10    5.12    0.61
   2  16 -10    3.77    0.61
  -2 -16 -10    4.97    0.54
  -2 -16 -10    4.78    0.53
  -2  16  10    4.75    0.57
 -16   2  10    4.66    0.50
  -2 -16 -10    4.87    0.63
  16  -2  10    4.34    0.43
  16  -2   8    0.79    0.25
 -16  -2  -8    0.59    0.31
 -16  -2  -8    0.16    0.37
   2  16  -8    0.11    0.28
   2  16  -8    0.34    0.50
  -2 -16  -8    0.56    0.29
 -16   2   8    0.24    0.21
  -2 -16  -8    1.34    0.33
  -2  16   8    0.69    0.30
  -2 -16  -8    1.18    0.44
   2 -16   6    2.38    0.41
 -16  -2  -6    3.15    0.46
   2  16  -6    3.18    0.46
  -2 -16  -6    3.43    0.48
   2  16  -6    3.21    0.58
 -16   2   6    3.54    0.47
  -2 -16  -6    3.09    0.42
  -2  16   6    2.43    0.39
  -2 -16  -6    3.15    0.47
 -16  -2  -6    2.93    0.57
 -16   2   6    3.04    0.55
  16  -2   6    3.04    0.34
 -16   2   4    2.65    0.54
   2 -16   4    3.41    0.47
 -16  -2  -4    2.63    0.42
 -16  -2  -4    3.47    0.56
  -2 -16  -4    3.25    0.45
 -16   2   4    3.61    0.49
   2  16  -4    4.41    0.63
   2  16  -4    3.34    0.45
   2  16  -4    3.38    0.30
  -2  16   4    3.29    0.43
  -2 -16  -4    3.58    0.42
  16  -2   4    3.11    0.34
  -2 -16  -4    3.11    0.42
 -16  -2  -2    1.24    0.31
   2  16  -2    1.47    0.33
 -16   2   2    0.67    0.38
 -16   2   2    1.20    0.33
   2  16  -2    1.66    0.24
  -2  16   2    2.05    0.35
 -16  -2  -2    1.94    0.49
  16  -2   2    1.42    0.27
  -2 -16  -2    1.43    0.31
  -2 -16  -2    1.47    0.29
 -16   2   2    1.16    0.24
   2 -16   2    1.55    0.37
  -2  16   0    0.26    0.18
 -16  -2   0    0.15    0.22
 -16  -2   0    0.68    0.40
 -16   2   0   -0.09    0.35
 -16   2   0    0.79    0.31
  16  -2   0    0.43    0.22
   2  16   0    0.21    0.18
  -2  16   0    0.44    0.24
  -2 -16   0    0.62    0.19
  -2 -16   0    0.35    0.24
   2 -16   0   -0.12    0.26
 -16   2   0    0.19    0.21
 -16  -2   2    1.35    0.29
  -2  16  -2    1.36    0.29
 -16   2  -2    1.78    0.47
 -16   2  -2    1.57    0.40
  16  -2  -2    1.92    0.30
   2  16   2    1.28    0.28
   2 -16  -2    1.15    0.34
 -16  -2   2    0.51    0.38
 -16   2  -2    1.21    0.29
  -2 -16   2    0.77    0.32
  -2 -16   4    2.95    0.40
 -16  -2   4    3.06    0.36
  -2  16  -4    2.65    0.38
  16  -2  -4    3.84    0.39
 -16   2  -4    3.49    0.53
   2  16   4    3.96    0.42
 -16  -2   4    2.21    0.50
   2 -16  -4    3.69    0.46
 -16   2  -4    3.25    0.54
 -16   2  -4    4.10    0.46
 -16  -2   6    3.05    0.34
  -2  16  -6    3.07    0.44
 -16   2  -6    2.25    0.48
   2 -16  -6    2.60    0.38
 -16  -2   6    2.72    0.52
 -16   2  -6    2.50    0.47
   2  16   6    3.12    0.41
   2 -16  -6    2.51    0.44
 -16   2  -6    3.07    0.46
 -16   2  -8    0.43    0.38
  -2  16  -8    1.10    0.39
   2 -16  -8    0.43    0.24
 -16  -2   8    0.38    0.35
  -2  16  -8    0.85    0.47
 -16   2  -8    0.04    0.31
   2  16   8    0.58    0.26
   2 -16  -8    0.85    0.34
 -16  -2   8    0.63    0.22
   2 -16  -8   -0.18    0.36
 -16   2  -8    0.90    0.33
  -2  16 -10    3.55    0.53
   2 -16 -10    3.86    0.45
 -16  -2  10    4.20    0.61
  -2  16 -10    4.90    0.65
   2  16  10    4.35    0.53
 -16   2 -10    4.90    0.63
   2 -16 -10    4.84    0.58
 -16  -2  10    3.75    0.42
 -16  -2  10    3.97    0.42
   2 -16 -10    3.75    0.52
 -16   2 -10    4.93    0.63
 -16   2 -10    5.10    0.60
   2 -16 -12    5.35    0.52
  -2  16 -12    6.11    0.68
  -2  16 -12    6.78    0.70
 -16  -2  12    4.99    0.69
   2 -16 -12    6.58    0.67
   2  16  12    5.55    0.62
 -16   2 -12    6.52    0.73
 -16   2 -12    6.92    0.71
   2 -16 -12    6.69    0.71
 -16   2 -12    5.12    0.66
  -2  16 -14    0.53    0.42
   2 -16 -14    0.71    0.25
  -2  16 -14    1.22    0.45
 -16  -2  14    1.24    0.44
   2  16  14    1.70    0.45
 -16   2 -14    0.67    0.39
   2 -16 -14    0.76    0.43
 -16   2 -14    0.58    0.36
  -2  16 -16    0.32    0.38
 -16  -2  16   -0.19    0.35
 -16   2 -16    0.62    0.35
   2  16  16    0.24    0.33
   2 -16 -16   -0.49    0.46
 -16   2 -16    0.59    0.39
  -2  16 -18    1.22    0.49
 -16  -2  18    1.54    0.49
 -16   2 -18    0.98    0.41
   2  16  18    1.10    0.42
   2 -16 -18    0.87    0.50
 -16   2 -20    0.78    0.41
  16   3 -19    0.08    0.36
  -3 -16 -19    0.68    0.35
 -16   3  19    1.08    0.40
  16   3 -17    1.57    0.49
  -3 -16 -17    2.99    0.51
   3  16 -17    2.14    0.57
  -3  16  17    2.45    0.53
   3  16 -17    1.26    0.50
 -16   3  17    2.44    0.47
  -3 -16 -17    2.66    0.63
 -16  -3 -17    2.49    0.55
 -16  -3 -15    3.47    0.59
   3  16 -15    2.61    0.55
  -3 -16 -15    2.24    0.42
  -3  16  15    3.20    0.56
 -16   3  15    1.93    0.43
  -3 -16 -15    3.31    0.64
   3  16 -15    1.52    0.52
   3  16 -13    1.46    0.49
 -16  -3 -13    1.59    0.46
   3  16 -13    1.38    0.42
  -3 -16 -13    1.82    0.40
  -3  16  13    1.06    0.39
 -16   3  13    2.16    0.40
  -3 -16 -13    1.88    0.59
 -16  -3 -11    1.50    0.41
   3  16 -11    1.81    0.50
   3  16 -11    0.85    0.38
 -16   3  11    1.62    0.29
  -3 -16 -11    1.77    0.37
  -3  16  11    1.20    0.37
 -16   3  11    1.09    0.32
  -3 -16 -11    1.98    0.52
  16  -3   9   -0.04    0.21
 -16  -3  -9   -0.17    0.32
   3  16  -9    0.56    0.36
   3  16  -9   -0.30    0.48
 -16   3   9    0.02    0.20
  -3 -16  -9    0.41    0.28
  -3 -16  -9   -0.11    0.23
  -3  16   9    0.32    0.32
 -16   3   9    0.11    0.23
  -3 -16  -9    0.36    0.40
 -16  -3  -7    4.43    0.55
   3  16  -7    4.73    0.57
 -16   3   7    4.84    0.51
  -3 -16  -7    5.29    0.57
 -16  -3  -7    4.61    0.65
   3  16  -7    5.14    0.68
  -3 -16  -7    4.22    0.46
  -3  16   7    4.72    0.55
  16  -3   7    4.54    0.44
 -16  -3  -5    1.83    0.46
   3 -16   5    1.96    0.40
 -16  -3  -5    1.23    0.34
  -3 -16  -5    1.41    0.36
   3  16  -5    1.37    0.48
 -16   3   5    1.30    0.35
   3  16  -5    1.20    0.34
  -3 -16  -5    1.98    0.33
  -3  16   5    0.89    0.32
  16  -3   5    1.79    0.30
 -16  -3  -3    5.99    0.57
   3  16  -3    5.94    0.57
 -16   3   3    6.08    0.60
 -16  -3  -3    4.66    0.64
  -3 -16  -3    4.66    0.53
   3  16  -3    6.77    0.77
   3  16  -3    5.47    0.36
  -3 -16  -3    4.75    0.47
  -3  16   3    5.87    0.55
  16  -3   3    6.15    0.47
   3 -16   3    6.11    0.59
 -16   3   3    5.89    0.68
 -16   3   1    0.04    0.36
   3  16  -1    0.61    0.30
  -3  16   1    0.60    0.19
 -16  -3  -1    0.35    0.23
 -16   3   1   -0.10    0.24
   3  16  -1    0.51    0.19
  16  -3   1    0.32    0.21
  -3  16   1    0.59    0.25
  -3 -16  -1    0.90    0.26
 -16  -3  -1    0.46    0.37
 -16   3   1    0.67    0.20
   3 -16   1    0.63    0.32
  -3  16  -1    0.75    0.22
 -16  -3   1    0.74    0.24
 -16   3  -1    0.54    0.36
 -16  -3   1    0.87    0.38
 -16   3  -1    0.10    0.27
   3  16   1    0.92    0.22
  16  -3  -1    0.61    0.23
   3 -16  -1    0.12    0.25
 -16   3  -1    0.72    0.23
  -3 -16   1    0.54    0.24
 -16  -3   3    4.71    0.45
  -3  16  -3    4.51    0.44
 -16  -3   3    3.92    0.57
  16  -3  -3    5.13    0.46
 -16   3  -3    6.15    0.66
   3  16   3    4.65    0.43
 -16   3  -3    5.26    0.61
   3 -16  -3    5.87    0.58
 -16   3  -3    4.81    0.48
  -3 -16   3    5.05    0.48
  -3 -16   5    0.79    0.29
  -3  16  -5    1.39    0.31
 -16  -3   5    0.93    0.23
  16  -3  -5    1.73    0.34
 -16   3  -5    1.40    0.40
   3  16   5    1.06    0.27
   3 -16  -5    1.74    0.38
 -16   3  -5    0.49    0.40
 -16  -3   5    1.02    0.40
 -16   3  -5    0.69    0.29
 -16  -3   7    4.62    0.41
  -3  16  -7    4.02    0.49
 -16   3  -7    4.24    0.57
   3 -16  -7    3.89    0.44
 -16   3  -7    4.18    0.57
   3  16   7    4.70    0.51
   3 -16  -7    4.86    0.56
 -16  -3   7    4.44    0.39
 -16  -3   7    3.16    0.55
 -16   3  -7    4.07    0.53
 -16   3  -9   -0.68    0.40
  -3  16  -9    0.32    0.29
   3 -16  -9   -0.11    0.21
  -3  16  -9    0.32    0.40
 -16   3  -9   -0.09    0.31
   3  16   9    0.13    0.25
 -16  -3   9    0.13    0.33
   3 -16  -9    0.23    0.27
 -16  -3   9   -0.13    0.16
 -16   3  -9    0.71    0.34
  -3  16 -11    1.01    0.38
   3 -16 -11    1.31    0.29
  -3  16 -11    1.60    0.49
 -16  -3  11    0.98    0.42
 -16   3 -11    1.33    0.42
   3  16  11    2.00    0.41
   3 -16 -11    1.57    0.42
 -16   3 -11    1.04    0.36
 -16   3 -11    1.32    0.43
  -3  16 -13    1.78    0.45
  -3  16 -13    1.76    0.47
 -16   3 -13    2.73    0.50
 -16  -3  13    1.52    0.46
   3 -16 -13    2.06    0.48
 -16   3 -13    1.83    0.46
   3  16  13    1.60    0.43
 -16   3 -13    1.13    0.41
  -3  16 -15    2.26    0.51
 -16  -3  15    2.32    0.51
 -16   3 -15    1.91    0.49
   3  16  15    2.77    0.51
 -16   3 -15    1.89    0.47
  -3  16 -17    2.49    0.56
 -16  -3  17    1.12    0.43
 -16   3 -17    2.93    0.56
   3  16  17    2.46    0.53
 -16   3 -19    1.38    0.46
  -4 -16 -20    1.16    0.41
  16   4 -20    0.95    0.45
 -16   4  20    1.23    0.48
  16   4 -18    3.24    0.60
  -4 -16 -18    3.11    0.53
 -16   4  18    2.32    0.49
  -4 -16 -18    3.16    0.67
 -16  -4 -16    0.32    0.34
  16   4 -16    0.27    0.35
  -4 -16 -16    0.15    0.30
   4  16 -16    0.02    0.41
  -4  16  16    0.70    0.39
 -16   4  16    0.06    0.28
   4  16 -16   -0.17    0.44
  -4 -16 -16    1.24    0.58
 -16  -4 -14    1.82    0.46
   4  16 -14    1.34    0.49
  -4 -16 -14    1.74    0.40
  -4  16  14    2.26    0.49
 -16   4  14    2.05    0.43
  -4 -16 -14    2.72    0.62
   4  16 -14    1.90    0.54
   4  16 -12    5.37    0.74
 -16  -4 -12    5.30    0.67
   4  16 -12    6.06    0.72
  -4 -16 -12    4.28    0.56
  -4  16  12    5.21    0.65
 -16   4  12    5.68    0.60
 -16  -4 -10    5.71    0.66
 -16   4  10    4.89    0.50
   4  16 -10    4.90    0.63
   4  16 -10    5.59    0.73
  -4 -16 -10    5.09    0.59
  -4  16  10    5.66    0.64
 -16   4  10    4.81    0.55
  16  -4  10    5.07    0.50
 -16  -4  -8    9.66    0.80
   4  16  -8    7.96    0.74
 -16   4   8    7.03    0.62
  -4 -16  -8    8.60    0.73
  -4 -16  -8    9.34    0.65
  -4  16   8    9.41    0.78
  16  -4   8    7.92    0.60
   4  16  -8    9.22    0.86
   4 -16   6    1.24    0.39
 -16  -4  -6    0.38    0.27
 -16   4   6    1.28    0.33
   4  16  -6    0.80    0.46
  -4 -16  -6    0.61    0.28
  -4 -16  -6    0.78    0.26
 -16  -4  -6    1.06    0.49
   4  16  -6    1.39    0.41
  -4  16   6    0.71    0.31
  16  -4   6    0.71    0.25
   4 -16   4    0.25    0.29
   4  16  -4   -0.10    0.25
 -16  -4  -4    0.45    0.27
 -16  -4  -4    1.10    0.45
  -4 -16  -4    0.36    0.28
 -16   4   4    0.47    0.28
   4  16  -4    0.90    0.50
  -4 -16  -4    0.49    0.23
  -4  16   4    1.15    0.34
  16  -4   4    0.78    0.26
 -16  -4  -2    4.97    0.54
   4  16  -2    4.00    0.49
  -4 -16  -2    3.81    0.49
 -16   4   2    4.44    0.54
 -16  -4  -2    4.36    0.61
   4  16  -2    5.72    0.70
  16  -4   2    4.27    0.43
  -4 -16  -2    5.14    0.47
  -4  16   2    4.19    0.48
 -16   4   2    4.90    0.66
   4 -16   2    5.29    0.57
 -16   4   0    3.15    0.56
 -16  -4   0    1.87    0.50
  -4  16   0    2.19    0.27
 -16  -4   0    2.72    0.41
 -16   4   0    1.81    0.41
   4  16   0    1.98    0.26
  16  -4   0    2.04    0.31
  -4 -16   0    2.32    0.34
   4 -16   0    1.83    0.38
 -16  -4   2    4.70    0.48
  -4  16  -2    4.12    0.39
 -16   4  -2    5.08    0.62
 -16   4  -2    4.62    0.58
   4  16   2    4.12    0.38
  16  -4  -2    5.08    0.46
 -16  -4   2    4.88    0.64
   4 -16  -2    4.67    0.54
 -16   4  -2    4.75    0.47
  -4 -16   2    4.15    0.43
  -4 -16   4    0.26    0.22
  -4  16  -4    0.29    0.24
 -16  -4   4    0.22    0.18
 -16  -4   4    0.25    0.36
 -16   4  -4    0.49    0.37
 -16   4  -4    0.92    0.38
   4  16   4    0.61    0.22
  16  -4  -4    0.72    0.28
   4 -16  -4    0.61    0.32
 -16   4  -4    0.94    0.32
 -16  -4   6    0.25    0.36
  -4  16  -6    0.95    0.32
 -16  -4   6    0.98    0.24
   4 -16  -6    0.78    0.25
 -16   4  -6    0.86    0.36
  16  -4  -6    1.09    0.30
   4  16   6    1.21    0.29
   4 -16  -6    0.43    0.30
 -16   4  -6    0.31    0.36
 -16   4  -6    1.21    0.34
  -4  16  -8    7.77    0.68
 -16  -4   8    8.42    0.56
 -16   4  -8    8.10    0.76
   4 -16  -8    9.40    0.64
 -16   4  -8    9.09    0.82
   4  16   8    7.85    0.64
   4 -16  -8    7.84    0.71
 -16   4  -8    8.31    0.72
 -16  -4   8    8.47    0.80
 -16   4 -10    5.59    0.62
  -4  16 -10    5.08    0.60
   4 -16 -10    5.21    0.48
  -4  16 -10    5.49    0.65
 -16   4 -10    4.18    0.62
   4  16  10    4.71    0.55
   4 -16 -10    5.73    0.63
 -16  -4  10    4.28    0.61
 -16   4 -10    4.94    0.60
 -16   4 -12    6.40    0.66
  -4  16 -12    5.04    0.62
  -4  16 -12    4.83    0.61
 -16   4 -12    4.77    0.65
   4  16  12    5.66    0.62
   4 -16 -12    5.60    0.64
 -16  -4  12    5.37    0.68
  -4  16 -14    1.82    0.45
 -16   4 -14    2.37    0.51
   4  16  14    1.45    0.44
 -16  -4  14    0.71    0.40
  -4  16 -16    0.92    0.43
 -16   4 -16    0.30    0.35
   4  16  16   -0.12    0.37
 -16  -4  16    0.19    0.36
  -4  16 -18    1.64    0.53
 -16   4 -18    2.93    0.56
   4  16  18    2.81    0.56
  16   5 -19    1.78    0.53
  -5 -16 -19    2.36    0.51
 -16   5  19    2.95    0.56
  16   5 -17    5.71    0.72
  -5 -16 -17    5.00    0.66
 -16   5  17    5.29    0.66
  -5 -16 -17    5.89    0.88
  16   5 -15    6.84    0.77
  -5 -16 -15    8.80    0.82
   5  16 -15    7.88    0.85
  -5  16  15    8.93    0.87
 -16   5  15    7.85    0.76
   5  16 -15    7.65    0.85
 -16  -5 -15    8.07    0.87
   5  16 -13    7.79    0.84
  -5 -16 -13    8.88    0.79
  -5  16  13   10.08    0.88
 -16   5  13    8.82    0.78
   5  16 -13    8.08    0.86
 -16  -5 -13    9.86    0.90
 -16   5  11    4.31    0.48
   5  16 -11    4.38    0.68
 -16  -5 -11    3.93    0.58
   5  16 -11    4.32    0.65
  -5 -16 -11    4.77    0.59
  -5  16  11    3.49    0.54
 -16   5  11    3.71    0.52
  16  -5   9    4.07    0.46
 -16  -5  -9    4.16    0.57
   5  16  -9    3.91    0.59
   5  16  -9    3.56    0.62
 -16   5   9    4.88    0.52
  -5 -16  -9    4.25    0.55
  -5  16   9    3.87    0.55
 -16   5   9    4.61    0.54
 -16  -5  -7   27.19    1.38
   5  16  -7   27.40    1.36
 -16   5   7   26.83    1.25
  -5 -16  -7   26.69    1.34
  -5 -16  -7   26.91    1.10
  -5  16   7   30.06    1.39
  16  -5   7   26.93    1.17
   5  16  -7   26.00    1.42
   5 -16   7   24.23    1.26
   5 -16   5    4.04    0.53
   5  16  -5    4.87    0.57
 -16   5   5    5.24    0.58
 -16  -5  -5    4.47    0.54
   5  16  -5    4.05    0.66
  -5 -16  -5    4.82    0.56
 -16  -5  -5    5.27    0.69
  -5 -16  -5    5.03    0.45
  -5  16   5    4.64    0.53
  16  -5   5    4.04    0.46
   5  16  -3    0.12    0.27
 -16  -5  -3   -0.01    0.24
 -16   5   3    0.01    0.26
  -5 -16  -3   -0.03    0.29
   5  16  -3    0.46    0.44
 -16  -5  -3    0.58    0.42
  -5 -16  -3    0.28    0.21
  -5  16   3   -0.01    0.24
  16  -5   3    0.19    0.22
   5 -16   3   -0.88    0.35
 -16  -5  -1    5.36    0.56
 -16   5   1    4.18    0.55
   5  16  -1    6.56    0.76
 -16   5   1    4.94    0.64
  16  -5   1    4.74    0.47
  -5 -16  -1    5.31    0.46
 -16  -5  -1    5.38    0.66
   5 -16   1    5.19    0.59
 -16  -5   1    5.27    0.52
 -16  -5   1    4.83    0.63
 -16   5  -1    4.85    0.59
   5  16   1    4.65    0.37
  16  -5  -1    4.56    0.46
  -5 -16   1    4.80    0.45
   5 -16  -1    5.06    0.56
 -16   5  -1    5.28    0.65
  -5 -16   3    0.48    0.23
  -5  16  -3    0.25    0.20
 -16   5  -3    0.27    0.38
 -16  -5   3   -0.04    0.20
 -16   5  -3    0.38    0.30
   5  16   3    0.36    0.20
  16  -5  -3    0.40    0.27
   5 -16  -3    0.35    0.31
 -16  -5   3    0.15    0.36
  -5  16  -5    4.77    0.48
 -16  -5   5    4.79    0.47
   5  16   5    4.44    0.45
 -16   5  -5    5.07    0.63
 -16   5  -5    4.32    0.58
  16  -5  -5    4.97    0.50
 -16  -5   5    5.44    0.67
   5 -16  -5    4.94    0.58
  -5 -16   5    4.73    0.46
  -5  16  -7   26.16    1.21
 -16  -5   7   27.38    1.12
 -16  -5   7   24.87    1.36
 -16   5  -7   27.47    1.44
   5 -16  -7   26.47    1.11
   5  16   7   24.23    1.14
  16  -5  -7   27.12    1.21
   5 -16  -7   28.24    1.34
 -16   5  -7   26.24    1.32
 -16  -5   9    3.70    0.60
  -5  16  -9    4.51    0.55
   5 -16  -9    4.15    0.42
 -16   5  -9    4.74    0.63
 -16   5  -9    4.07    0.55
   5  16   9    4.70    0.53
   5 -16  -9    4.20    0.55
 -16  -5  11    4.37    0.63
 -16   5 -11    4.82    0.60
  -5  16 -11    3.96    0.55
  -5  16 -11    4.77    0.60
 -16   5 -11    4.51    0.64
   5  16  11    4.81    0.57
   5 -16 -11    4.50    0.59
 -16  -5  13    8.92    0.84
  -5  16 -13    9.19    0.84
 -16   5 -13    8.95    0.85
 -16   5 -13    9.93    0.79
   5  16  13    7.75    0.76
   5 -16 -13   10.67    0.87
  -5  16 -13    8.69    0.74
 -16   5 -15    8.28    0.84
  -5  16 -15    7.13    0.80
   5  16  15    9.22    0.83
 -16  -5  15    7.63    0.80
 -16  -5  17    4.26    0.65
  -5  16 -17    5.19    0.75
 -16   5 -17    4.49    0.64
   5  16  17    4.10    0.66
  -6 -16 -18   14.55    1.09
  16   6 -18   15.97    1.21
 -16   6  18   15.67    1.15
  16   6 -16    2.01    0.53
   6  16 -16    2.30    0.58
  -6 -16 -16    2.10    0.50
  -6  16  16    2.41    0.54
   6  16 -16    1.58    0.55
 -16   6  16    1.85    0.48
 -16  -6 -14    2.21    0.52
  16   6 -14    1.35    0.47
   6  16 -14    2.17    0.51
  -6 -16 -14    1.75    0.45
  -6  16  14    1.56    0.46
 -16   6  14    1.48    0.40
   6  16 -14    1.90    0.54
   6  16 -12   27.27    1.50
  -6 -16 -12   29.41    1.48
  -6  16  12   27.33    1.48
 -16   6  12   29.26    1.45
   6  16 -12   27.15    1.52
 -16  -6 -12   27.41    1.51
 -16  -6 -10    9.28    0.84
   6  16 -10    7.52    0.84
   6  16 -10    8.61    0.81
  -6 -16 -10    8.36    0.76
  -6  16  10    8.98    0.80
 -16   6  10    7.26    0.70
  16  -6  10    9.05    0.70
 -16   6   8    5.32    0.56
 -16  -6  -8    4.91    0.61
   6  16  -8    4.88    0.62
   6  16  -8    4.00    0.68
  -6 -16  -8    6.31    0.66
  -6  16   8    4.94    0.60
  16  -6   8    5.57    0.54
 -16  -6  -6   20.48    1.15
   6  16  -6   19.45    1.12
 -16   6   6   19.36    1.07
  -6 -16  -6   17.66    1.08
  -6 -16  -6   17.55    0.83
  -6  16   6   19.68    1.11
  16  -6   6   19.20    0.98
   6  16  -6   18.28    1.20
   6 -16   6   17.30    1.06
   6  16  -4    6.38    0.63
 -16  -6  -4    6.72    0.65
 -16   6   4    6.81    0.66
  -6 -16  -4    6.66    0.66
   6  16  -4    6.14    0.74
  -6 -16  -4    6.05    0.47
  -6  16   4    5.68    0.60
 -16  -6  -4    7.95    0.82
   6 -16   4    6.49    0.65
  16  -6   4    5.07    0.50
 -16  -6  -2    3.38    0.47
 -16   6   2    3.01    0.47
  -6 -16  -2    3.46    0.49
   6  16  -2    3.44    0.61
  -6 -16  -2    3.15    0.35
  16  -6   2    3.03    0.40
 -16  -6  -2    2.40    0.53
   6 -16   2    3.49    0.50
 -16  -6   0    5.51    0.70
 -16  -6   0    6.61    0.61
   6  16   0    5.70    0.73
 -16   6   0    6.58    0.67
  16  -6   0    7.47    0.60
  -6 -16   0    6.52    0.50
   6 -16   0    6.26    0.63
 -16  -6   2    3.76    0.46
 -16   6  -2    2.29    0.46
 -16  -6   2    4.40    0.62
  16  -6  -2    2.44    0.39
   6 -16  -2    2.50    0.46
  -6 -16   2    3.36    0.38
 -16   6  -2    3.51    0.55
  -6  16  -4    5.91    0.50
 -16  -6   4    6.14    0.70
 -16   6  -4    6.33    0.68
 -16  -6   4    6.15    0.55
 -16   6  -4    7.29    0.73
   6  16   4    5.62    0.45
  16  -6  -4    5.92    0.57
   6 -16  -4    6.76    0.67
  -6 -16   4    5.40    0.47
  -6  16  -6   18.68    0.97
 -16  -6   6   17.99    0.93
 -16   6  -6   17.61    1.16
   6 -16  -6   19.27    0.91
   6  16   6   18.87    0.92
  16  -6  -6   17.60    0.97
 -16  -6   6   17.52    1.15
   6 -16  -6   19.72    1.12
 -16   6  -6   19.13    1.13
 -16  -6   8    5.14    0.48
  -6  16  -8    5.27    0.56
   6 -16  -8    3.56    0.39
 -16   6  -8    5.82    0.69
   6  16   8    5.43    0.54
  16  -6  -8    5.30    0.56
   6 -16  -8    5.10    0.60
 -16  -6   8    3.85    0.60
 -16   6  -8    4.59    0.60
  -6  16 -10    7.23    0.69
 -16   6 -10    9.73    0.87
 -16  -6  10    8.53    0.82
 -16   6 -10   10.04    0.81
   6  16  10    8.60    0.71
   6 -16 -10    8.48    0.78
  -6  16 -10   10.47    0.81
  -6  16 -12   26.86    1.28
  -6  16 -12   24.79    1.36
 -16  -6  12   25.57    1.41
 -16   6 -12   28.36    1.52
   6  16  12   24.91    1.31
   6 -16 -12   27.84    1.42
 -16   6 -12   27.89    1.32
  -6  16 -14    2.09    0.51
 -16   6 -14    2.30    0.51
 -16  -6  14    1.03    0.43
   6 -16 -14    2.30    0.52
   6  16  14    1.80    0.44
  -6  16 -16    1.82    0.49
 -16   6 -16    2.11    0.52
 -16  -6  16    1.16    0.43
   6  16  16    2.14    0.49
 -16   6 -18   15.15    1.15
   6  16  18   15.13    1.16
  16   7 -17    5.41    0.75
  -7 -16 -17    5.18    0.69
 -16   7  17    6.19    0.76
 -16  -7 -15    5.91    0.76
  16   7 -15    5.20    0.70
   7  16 -15    4.90    0.73
  -7 -16 -15    5.24    0.69
   7  16 -15    4.96    0.76
  -7  16  15    5.14    0.71
 -16   7  15    5.77    0.70
 -16  -7 -13    7.21    0.80
  -7 -16 -13    7.61    0.78
   7  16 -13    7.76    0.85
 -16   7  13    7.20    0.76
  -7  16  13    7.15    0.78
   7  16 -13    6.78    0.84
  16  -7  11    2.04    0.41
 -16  -7 -11    1.45    0.46
   7  16 -11    1.73    0.47
  -7 -16 -11    1.31    0.39
  -7  16  11    1.79    0.45
 -16   7  11    1.51    0.39
   7  16 -11    2.19    0.60
  16  -7   9    2.99    0.44
   7  16  -9    2.48    0.59
 -16  -7  -9    1.80    0.45
   7  16  -9    3.82    0.59
  -7 -16  -9    3.15    0.51
  -7  16   9    3.55    0.54
 -16   7   9    3.27    0.51
 -16  -7  -7   14.39    1.02
   7  16  -7   13.64    0.98
 -16   7   7   15.27    0.96
  -7 -16  -7   15.68    1.02
  -7  16   7   15.28    1.02
   7  16  -7   14.64    1.09
  16  -7   7   14.60    0.90
   7 -16   7   14.84    1.00
   7 -16   5    0.54    0.33
   7  16  -5    0.66    0.37
 -16  -7  -5    0.43    0.29
 -16   7   5    0.43    0.28
   7  16  -5    0.21    0.45
  -7 -16  -5    0.96    0.36
  -7  16   5    0.45    0.30
  16  -7   5    0.46    0.27
   7  16  -3    0.70    0.33
 -16  -7  -3    0.96    0.33
 -16   7   3    0.78    0.35
   7  16  -3    1.32    0.49
  -7 -16  -3   -0.02    0.29
  -7  16   3    0.19    0.25
  16  -7   3    0.50    0.27
   7 -16   3    1.25    0.39
 -16  -7  -1    3.31    0.49
 -16   7   1    3.38    0.50
   7  16  -1    3.18    0.60
  -7 -16  -1    3.26    0.49
 -16  -7  -1    3.24    0.58
  -7 -16  -1    2.64    0.32
  16  -7   1    3.23    0.43
   7 -16   1    2.61    0.45
 -16  -7   1    2.92    0.43
 -16   7  -1    1.63    0.43
   7  16   1    3.74    0.65
 -16  -7   1    3.03    0.57
  16  -7  -1    2.86    0.42
   7 -16  -1    1.96    0.42
  -7 -16   1    2.97    0.33
 -16  -7   3    0.59    0.26
 -16   7  -3    0.85    0.37
   7  16   3    0.67    0.50
  16  -7  -3    0.41    0.29
   7 -16  -3    0.72    0.37
 -16  -7   3    0.59    0.43
 -16   7  -3    0.48    0.36
  -7 -16   3    0.64    0.22
  -7 -16   5    0.81    0.24
 -16   7  -5    0.77    0.44
  -7  16  -5    0.61    0.22
 -16  -7   5    0.44    0.21
 -16   7  -5    1.17    0.41
 -16  -7   5    0.51    0.38
  16  -7  -5    0.31    0.27
   7 -16  -5    0.28    0.33
 -16   7  -7   16.43    1.13
  -7  16  -7   14.25    0.87
 -16  -7   7   13.80    0.83
   7 -16  -7   14.71    0.76
   7  16   7   14.87    0.83
  16  -7  -7   15.26    0.94
   7 -16  -7   14.93    0.99
 -16  -7   7   12.41    0.97
 -16   7  -7   14.38    0.97
 -16  -7   9    2.32    0.51
  -7  16  -9    2.65    0.47
 -16  -7   9    2.81    0.38
 -16   7  -9    3.47    0.58
   7  16   9    2.70    0.42
  16  -7  -9    3.62    0.52
   7 -16  -9    2.37    0.46
 -16   7  -9    3.50    0.54
  -7  16 -11    1.33    0.39
 -16   7 -11    2.05    0.49
   7  16  11    1.06    0.38
  -7  16 -11    2.10    0.46
   7 -16 -11    1.57    0.42
 -16   7 -11    1.38    0.40
 -16  -7  11    1.24    0.47
 -16   7 -13    7.58    0.81
  -7  16 -13    6.47    0.72
   7  16  13    6.92    0.70
   7 -16 -13    6.89    0.74
 -16  -7  13    6.74    0.74
  -7  16 -15    5.92    0.74
 -16   7 -15    6.02    0.74
 -16  -7  15    4.84    0.66
  -7  16 -17    5.11    0.73
 -16   7 -17    4.61    0.70
   7  16  17    5.84    0.75
  16   8 -16    0.73    0.44
  -8 -16 -16    1.13    0.42
 -16   8  16    0.86    0.38
 -16  -8 -14    0.72    0.44
  16   8 -14    0.11    0.35
   8  16 -14   -0.30    0.42
  -8 -16 -14   -0.48    0.37
  -8  16  14   -0.29    0.40
 -16   8  14    0.34    0.29
   8  16 -14    0.29    0.48
  16  -8  12    2.62    0.47
 -16  -8 -12    1.92    0.46
   8  16 -12    3.03    0.60
  -8 -16 -12    2.19    0.48
  -8  16  12    2.64    0.53
 -16   8  12    2.94    0.52
   8  16 -12    3.38    0.66
  16  -8  10    0.18    0.30
 -16  -8 -10    0.49    0.35
   8  16 -10   -0.33    0.38
  -8 -16 -10    0.08    0.29
  -8  16  10    0.73    0.34
 -16   8  10    0.10    0.27
   8  16 -10    0.36    0.44
  16  -8   8    2.83    0.44
   8 -16   8    1.93    0.46
   8  16  -8    2.81    0.61
   8  16  -8    2.93    0.55
 -16  -8  -8    2.02    0.46
  -8 -16  -8    3.30    0.54
  -8  16   8    2.93    0.51
   8 -16   6    0.24    0.30
   8  16  -6    0.12    0.31
 -16   8   6    0.00    0.25
   8  16  -6   -0.11    0.45
 -16  -8  -6   -0.02    0.31
  -8 -16  -6    0.08    0.28
  -8  16   6   -0.29    0.29
  16  -8   6    0.21    0.30
   8  16  -4    2.13    0.43
 -16   8   4    1.95    0.39
 -16  -8  -4    1.68    0.39
   8  16  -4    1.89    0.58
  -8 -16  -4    1.38    0.37
  -8  16   4    2.44    0.48
  16  -8   4    2.12    0.39
   8 -16   4    1.72    0.42
 -16   8   2    7.20    0.71
 -16  -8  -2    6.90    0.66
   8  16  -2    7.05    0.79
  -8 -16  -2    5.71    0.64
  16  -8   2    7.32    0.63
   8 -16   2    6.71    0.68
 -16  -8   0    0.69    0.30
 -16   8   0    0.76    0.36
 -16  -8   0    1.23    0.48
   8  16   0    0.55    0.43
  -8 -16   0    0.32    0.29
  16  -8   0    0.80    0.30
   8 -16   0    0.75    0.35
 -16   8  -2    7.21    0.74
 -16  -8   2    5.70    0.71
 -16  -8   2    6.60    0.63
   8  16   2    7.05    0.78
  16  -8  -2    6.26    0.59
   8 -16  -2    5.82    0.64
 -16   8  -4    2.20    0.49
 -16  -8   4    2.37    0.39
 -16  -8   4    2.84    0.57
   8  16   4    2.43    0.60
  16  -8  -4    2.18    0.42
   8 -16  -4    2.38    0.47
 -16   8  -4    2.00    0.47
 -16   8  -6   -0.19    0.35
  -8  16  -6    0.13    0.24
 -16   8  -6    0.12    0.32
 -16  -8   6    0.19    0.22
  16  -8  -6   -0.07    0.29
   8 -16  -6    0.30    0.33
 -16  -8   6    0.02    0.37
  -8  16  -8    2.38    0.41
 -16   8  -8    2.52    0.52
 -16  -8   8    2.45    0.38
   8  16   8    2.49    0.38
  16  -8  -8    2.00    0.43
 -16   8  -8    3.16    0.51
   8 -16  -8    2.69    0.50
 -16  -8   8    1.97    0.49
 -16   8 -10    0.20    0.34
  -8  16 -10    0.19    0.31
 -16   8 -10    0.84    0.38
 -16  -8  10    0.32    0.23
  16  -8 -10    0.29    0.33
   8  16  10    0.68    0.29
 -16  -8  10    0.82    0.41
   8 -16 -10    0.03    0.33
  -8  16 -12    2.54    0.50
 -16   8 -12    2.35    0.50
 -16  -8  12    2.86    0.56
   8  16  12    2.54    0.46
   8 -16 -12    3.10    0.57
  -8  16 -14    0.01    0.35
 -16   8 -14    0.02    0.32
 -16  -8  14   -0.12    0.38
 -16   8 -14    0.28    0.40
   8  16  14   -0.12    0.29
   8 -16 -14    0.23    0.34
 -16   8 -16   -0.15    0.35
  -8  16 -16    0.70    0.44
 -16   8 -16    0.50    0.46
   8  16  16    0.73    0.40
   8  16  18    0.75    0.40
  -9 -16 -15    0.68    0.36
  16   9 -13    0.68    0.40
 -16  -9 -13    0.16    0.36
   9  16 -13    1.32    0.50
  -9 -16 -13    0.57    0.37
  -9  16  13    0.49    0.39
 -16   9  13    0.49    0.32
   9  16 -13    0.15    0.48
  16  -9  11    0.83    0.34
   9  16 -11    0.19    0.36
 -16  -9 -11    0.60    0.35
  -9 -16 -11   -0.04    0.32
  -9  16  11    0.74    0.37
 -16   9  11    0.25    0.31
   9  16 -11    1.00    0.52
  16  -9   9    4.21    0.54
   9 -16   9    3.57    0.57
   9  16  -9    4.27    0.62
 -16  -9  -9    4.20    0.61
  -9 -16  -9    3.78    0.58
  -9  16   9    4.07    0.60
 -16   9   9    3.86    0.56
   9  16  -9    3.91    0.68
   9 -16   7    2.60    0.49
   9  16  -7    2.45    0.63
   9  16  -7    3.04    0.54
 -16  -9  -7    2.42    0.49
  -9 -16  -7    2.74    0.50
  -9  16   7    2.68    0.49
  16  -9   7    2.27    0.45
   9  16  -5    6.10    0.69
 -16  -9  -5    6.84    0.71
   9  16  -5    6.95    0.84
  -9 -16  -5    7.38    0.73
  -9  16   5    8.52    0.77
  16  -9   5    7.51    0.67
   9 -16   5    7.52    0.74
 -16   9   3   14.55    1.00
 -16  -9  -3   16.36    1.04
  -9 -16  -3   15.85    1.04
  16  -9   3   14.99    0.93
   9 -16   3   14.41    0.99
   9  16  -3   13.67    1.09
 -16   9   1    3.11    0.51
 -16  -9  -1    2.26    0.43
   9  16  -1    2.64    0.60
  -9 -16  -1    3.10    0.49
  16  -9   1    2.73    0.46
   9 -16   1    2.65    0.50
 -16   9  -1    2.67    0.49
 -16  -9   1    2.73    0.45
   9  16   1    4.05    0.68
  -9 -16   1    2.92    0.49
  16  -9  -1    2.98    0.45
   9 -16  -1    2.75    0.50
   9  16   3   17.16    1.16
 -16   9  -3   13.92    1.05
 -16  -9   3   14.69    0.93
  16  -9  -3   15.88    0.96
   9 -16  -3   15.46    1.02
 -16  -9   3   14.78    1.08
 -16   9  -5    6.44    0.75
 -16  -9   5    6.81    0.77
 -16  -9   5    6.61    0.62
   9  16   5    7.07    0.78
  16  -9  -5    6.68    0.64
 -16   9  -5    8.36    0.78
   9 -16  -5    6.08    0.68
 -16   9  -7    3.05    0.52
 -16   9  -7    3.18    0.57
 -16  -9   7    2.20    0.38
   9  16   7    1.81    0.53
  16  -9  -7    2.67    0.46
  16   9   7    2.21    0.43
   9 -16  -7    1.98    0.46
 -16  -9   7    2.87    0.55
 -16   9  -9    5.81    0.71
  -9  16  -9    4.01    0.54
 -16  -9   9    4.33    0.63
 -16  -9   9    3.28    0.45
  16  -9  -9    4.05    0.57
   9  16   9    3.02    0.61
 -16   9  -9    4.48    0.57
   9 -16  -9    2.65    0.49
 -16  -9  11    0.91    0.42
 -16   9 -11    0.38    0.37
  -9  16 -11    0.46    0.33
   9 -16 -11    0.34    0.34
 -16   9 -13    0.48    0.39
  -9  16 -13    0.57    0.38
 -16   9 -13    0.57    0.37
   9  16  13    0.25    0.33
   9 -16 -13    0.02    0.33
 -16  -9  13    0.46    0.43
 -16   9 -15    1.04    0.45
  -9  16 -15    1.37    0.50
 -16   9 -15    1.25    0.50
   9  16  15    0.75    0.36
   9  16  17    1.81    0.51
  16 -10  12   -0.17    0.35
  10  16 -12    0.26    0.38
 -16 -10 -12    0.13    0.35
 -10 -16 -12    0.74    0.38
 -10  16  12    0.39    0.36
 -16  10  12    0.10    0.29
  10  16 -12    0.24    0.48
  16 -10  10    2.02    0.44
  10 -16  10    1.25    0.44
  10  16 -10    1.22    0.46
 -16 -10 -10    1.91    0.50
 -10 -16 -10    1.49    0.41
 -10  16  10    2.42    0.52
 -16  10  10    1.43    0.41
  10  16 -10    2.02    0.57
  10 -16   8    2.23    0.47
  10  16  -8    1.68    0.46
 -16 -10  -8    3.09    0.55
 -10 -16  -8    2.45    0.50
 -10  16   8    2.70    0.52
 -16  10   8    2.34    0.48
  10  16  -8    1.45    0.54
  16 -10   8    3.15    0.49
  10  16  -6    8.04    0.88
  10  16  -6    8.09    0.79
 -16 -10  -6    8.92    0.82
 -10 -16  -6    7.78    0.78
 -10  16   6    8.74    0.82
  16 -10   6    8.03    0.72
  10 -16   6    8.82    0.79
  10  16  -4    2.53    0.59
 -16 -10  -4    3.01    0.52
 -10 -16  -4    3.06    0.52
  16 -10   4    2.55    0.44
  10 -16   4    2.28    0.50
 -16  10   2    7.41    0.76
 -16 -10  -2    7.31    0.72
  10  16  -2    5.98    0.77
 -10 -16  -2    6.60    0.70
  16 -10   2    7.01    0.66
  10 -16   2    7.04    0.73
 -16  10   0    7.79    0.78
 -16 -10   0    8.99    0.77
  10  16   0    8.13    0.85
 -10 -16   0    8.46    0.79
  16 -10   0    8.07    0.71
  10 -16   0    8.77    0.78
 -16  10  -2    8.84    0.84
 -16 -10   2    7.81    0.71
  10  16   2    7.51    0.84
 -10 -16   2    8.02    0.75
  16 -10  -2    6.32    0.66
  16  10   2    7.00    0.74
  10 -16  -2    6.74    0.70
 -16  10  -4    3.33    0.58
 -16 -10   4    3.27    0.46
  10  16   4    2.24    0.59
 -10 -16   4    2.62    0.47
  16 -10  -4    2.19    0.42
  10 -16  -4    2.83    0.51
  16  10   4    2.45    0.51
  10  16   6    9.18    0.88
 -16  10  -6    8.54    0.85
 -16 -10   6    7.69    0.67
  16 -10  -6    7.93    0.72
  10 -16  -6    7.45    0.74
 -16  10  -6    7.79    0.76
  16  10   6    6.49    0.69
 -16 -10   6    8.40    0.84
 -16 -10   8    1.82    0.49
 -16  10  -8    1.85    0.48
 -16  10  -8    2.24    0.48
 -16 -10   8    1.29    0.32
  10  16   8    1.98    0.55
  16 -10  -8    2.20    0.47
  10 -16  -8    1.49    0.45
  16  10   8    2.28    0.48
 -16  10 -10    1.79    0.49
 -10  16 -10    1.57    0.42
 -16  10 -10    1.72    0.47
 -16 -10  10    1.20    0.33
 -16 -10  10    1.52    0.46
  10  16  10    1.68    0.57
  16 -10 -10    1.46    0.44
  10 -16 -10    1.87    0.46
 -16 -10  12    0.20    0.37
 -16  10 -12    0.44    0.41
 -10  16 -12    0.33    0.36
 -16  10 -12    0.38    0.36
  10  16  12    1.54    0.51
  10 -16 -12    0.70    0.37
 -10  16 -14    1.76    0.52
 -16  10 -14    0.93    0.47
 -10  16 -16    2.24    0.55
  16 -11  13    0.41    0.37
  16 -11  11    1.93    0.45
  11 -16  11    2.52    0.54
  11  16 -11    2.44    0.58
 -16 -11 -11    1.20    0.44
 -11 -16 -11    3.30    0.58
 -11  16  11    1.54    0.51
 -16  11  11    1.54    0.48
  11  16 -11    1.47    0.56
  16 -11   9    0.88    0.38
  11 -16   9   -0.45    0.37
  11  16  -9    0.24    0.34
 -16 -11  -9    0.04    0.31
 -11 -16  -9   -0.03    0.31
 -11  16   9    0.56    0.43
 -16  11   9   -0.01    0.29
  11  16  -9    0.67    0.51
  11 -16   7    0.59    0.37
  11  16  -7    0.66    0.36
 -16 -11  -7    0.55    0.34
 -11 -16  -7    1.22    0.40
 -11  16   7    1.85    0.47
  11  16  -7    0.91    0.51
  16 -11   7    0.44    0.33
  11  16  -5    3.73    0.66
 -16 -11  -5    3.90    0.59
 -11 -16  -5    3.45    0.54
 -11  16   5    3.48    0.56
  16 -11   5    3.89    0.55
  11 -16   5    4.32    0.60
  11  16  -3    0.40    0.43
 -16 -11  -3    1.04    0.38
 -11 -16  -3    0.85    0.35
  16 -11   3    1.60    0.42
  11 -16   3    1.06    0.40
  11  16  -1    1.75    0.52
 -16 -11  -1    1.84    0.42
 -11 -16  -1    2.20    0.45
  16 -11   1    2.18    0.45
  11 -16   1    1.66    0.44
 -16  11  -1    1.87    0.46
  11  16   1    2.05    0.53
 -16 -11   1    1.89    0.40
 -11 -16   1    2.51    0.47
  16 -11  -1    2.14    0.43
  16  11   1    1.95    0.52
  11 -16  -1    2.33    0.46
 -16  11  -3    1.56    0.44
  11  16   3    1.35    0.49
 -16 -11   3    0.98    0.35
 -11 -16   3    1.55    0.42
  16 -11  -3    1.09    0.39
  11 -16  -3    1.97    0.47
  16  11   3    0.97    0.40
 -16  11  -5    3.94    0.61
  11  16   5    4.91    0.70
 -16 -11   5    4.19    0.54
 -11 -16   5    3.46    0.53
 -16  11  -5    4.96    0.65
  16 -11  -5    4.25    0.56
  11 -16  -5    5.17    0.64
  16  11   5    2.89    0.53
 -16  11  -7    1.22    0.43
 -16  11  -7    1.28    0.45
  11  16   7    1.30    0.51
 -16  11  -7    0.89    0.35
 -16 -11   7    0.58    0.28
  16 -11  -7    0.45    0.34
  11 -16  -7    0.99    0.42
  16  11   7    0.68    0.36
 -16  11  -9    0.18    0.36
 -16  11  -9    0.11    0.32
 -16 -11   9   -0.14    0.20
  11  16   9    0.11    0.42
  16 -11  -9   -0.05    0.31
  11 -16  -9   -0.03    0.31
 -16  11 -11    1.70    0.52
 -16  11 -11    2.60    0.56
 -16 -11  11    1.88    0.38
  11  16  11    2.26    0.57
  16 -11 -11    2.07    0.50
  11 -16 -11    2.67    0.55
 -11  16 -13    0.05    0.34
 -16  11 -13    0.35    0.35
  11  16  13    0.62    0.48
 -11  16 -15    0.34    0.38
  16 -12  12    1.16    0.41
  16 -12  10    2.39    0.53
  12 -16  10    2.45    0.55
  12  16 -10    2.53    0.59
 -16 -12 -10    3.33    0.61
 -12 -16 -10    3.78    0.65
 -12  16  10    2.47    0.56
 -16  12  10    3.16    0.59
  12  16 -10    2.83    0.68
  12 -16   8    0.67    0.35
 -16 -12  -8    1.26    0.41
 -12 -16  -8    0.58    0.36
 -12  16   8    1.23    0.42
 -16  12   8    0.80    0.38
  12  16  -8    1.54    0.56
  16 -12   8    1.30    0.41
 -16 -12  -6    0.31    0.31
 -12 -16  -6   -0.40    0.34
 -12  16   6    0.37    0.32
  12  16  -6    0.67    0.48
  16 -12   6    0.41    0.34
  12 -16   6    0.07    0.35
  12  16  -4    0.19    0.43
 -16 -12  -4   -0.23    0.36
 -12 -16  -4    1.18    0.40
  16 -12   4    1.09    0.41
  12 -16   4    0.04    0.32
  12  16  -2    0.03    0.48
 -16 -12  -2    0.64    0.34
 -12 -16  -2    0.63    0.37
  16 -12   2    1.41    0.41
  12 -16   2    1.56    0.42
  12  16   0   -0.27    0.48
 -16 -12   0    0.15    0.29
 -12 -16   0    0.35    0.30
  16  12   0    0.78    0.44
  16 -12   0    0.59    0.34
  12 -16   0    0.40    0.31
  12  16   2    1.01    0.52
 -16 -12   2    0.96    0.34
 -12 -16   2    1.71    0.43
  16 -12  -2    1.46    0.40
  12 -16  -2    1.20    0.43
  16  12   2    1.27    0.48
  12  16   4    0.90    0.53
 -16 -12   4    1.03    0.36
 -12 -16   4    0.65    0.32
  16 -12  -4    0.67    0.35
  12 -16  -4    0.78    0.40
  16  12   4    0.36    0.40
  12  16   6   -0.28    0.41
 -16 -12   6   -0.02    0.27
 -12 -16   6    0.06    0.27
 -16  12  -6    0.63    0.38
  16 -12  -6    1.14    0.42
  12 -16  -6    0.05    0.34
  16  12   6    0.35    0.36
  12  16   8    0.67    0.43
 -16 -12   8    0.84    0.32
  16 -12  -8    0.80    0.36
  12 -16  -8    1.04    0.42
  16  12   8    0.91    0.42
  12  16  10    2.38    0.62
 -16  12 -10    2.96    0.52
 -16 -12  10    1.45    0.38
  16 -12 -10    3.09    0.57
  12 -16 -10    2.93    0.57
 -16  12 -12    2.14    0.51
  12  16  12    1.40    0.52
 -16  12 -14    1.88    0.51
  16 -13  11    0.84    0.42
  16 -13   9    1.20    0.42
 -16 -13  -7    1.05    0.40
 -13 -16  -7    2.07    0.51
 -13  16   7    1.72    0.49
 -16  13   7    1.10    0.42
  13  16  -7    1.87    0.61
  16 -13   7    1.88    0.47
  13 -16   7    1.90    0.48
 -16 -13  -5    1.51    0.44
 -13 -16  -5    1.60    0.44
  16 -13   5    1.78    0.48
  13  16  -5    1.78    0.59
  13 -16   5    1.80    0.47
 -16 -13  -3    0.88    0.37
 -13 -16  -3    0.26    0.30
  16  13  -3    0.34    0.44
  16 -13   3    0.97    0.38
  13 -16   3    0.60    0.38
  13  16  -3    0.54    0.48
  13  16  -1    1.09    0.52
 -16 -13  -1    0.09    0.30
 -13 -16  -1    0.57    0.35
  16  13  -1    0.24    0.43
  16 -13   1    1.28    0.39
  13 -16   1    0.94    0.41
  13  16   1    0.12    0.52
 -16 -13   1    0.85    0.37
 -13 -16   1    0.91    0.36
  16 -13  -1    1.49    0.44
  13 -16  -1    0.20    0.34
  16  13   1    1.09    0.48
  13  16   3    0.46    0.44
 -16 -13   3    1.59    0.41
 -13 -16   3    0.38    0.29
  16 -13  -3    0.63    0.37
  13 -16  -3    0.25    0.36
  16  13   3    0.67    0.46
  13  16   5    1.48    0.53
 -16 -13   5    2.03    0.43
 -13 -16   5    0.94    0.38
  16 -13  -5    2.63    0.52
  13 -16  -5    2.10    0.49
  16  13   5    1.23    0.46
  13  16   7    1.23    0.52
 -16 -13   7    1.96    0.43
 -13 -16   7    1.65    0.43
  16 -13  -7    0.98    0.41
  13 -16  -7    1.37    0.43
  16  13   7    1.50    0.46
  13  16   9    0.75    0.46
 -16 -13   9    0.70    0.30
 -13 -16   9    1.19    0.40
  16 -13  -9    1.55    0.46
  13  16  11    0.30    0.47
 -16 -13  11    0.34    0.26
  16 -14   8    3.95    0.63
  16 -14   6    1.85    0.46
  14 -16   6    1.04    0.45
 -16 -14  -4    0.36    0.35
 -14 -16  -4    0.79    0.40
  16  14  -4    1.27    0.58
  16 -14   4    0.02    0.33
  14  16  -4    1.29    0.61
  14 -16   4    0.52    0.40
 -16 -14  -2    3.49    0.59
 -14 -16  -2    3.93    0.60
  16  14  -2    3.81    0.69
  16 -14   2    3.88    0.60
  14 -16   2    4.06    0.62
  14  16  -2    3.50    0.71
 -16 -14   0   10.82    0.92
 -14 -16   0    9.71    0.89
  16 -14   0   11.11    0.93
  14 -16   0   12.51    0.98
  14  16   0   11.81    1.09
  16  14   0    9.37    0.96
  14  16   2    3.59    0.72
 -16 -14   2    2.74    0.51
 -14 -16   2    2.54    0.51
  16 -14  -2    3.31    0.57
  14 -16  -2    2.64    0.56
  16  14   2    2.57    0.60
  14  16   4   -0.05    0.49
 -16 -14   4    0.80    0.35
 -14 -16   4    0.41    0.31
  16 -14  -4   -0.20    0.38
  14 -16  -4   -0.24    0.33
  16  14   4    0.04    0.43
  14  16   6    1.92    0.56
 -16 -14   6    1.50    0.39
 -14 -16   6    0.48    0.31
  16 -14  -6    1.14    0.44
  16  14   6    1.74    0.57
  14  16   8    3.36    0.70
 -16 -14   8    2.69    0.50
 -14 -16   8    3.90    0.59
  16  14   8    3.82    0.66
  14  16  10    1.29    0.57
 -16 -14  10    0.83    0.36
 -16 -14  12   -0.33    0.31
  16 -15   5    7.50    0.81
  16 -15   3   22.05    1.33
  15 -16   3   21.83    1.34
 -16 -15  -1    5.05    0.68
  16 -15   1    4.78    0.67
  15 -16   1    4.16    0.64
  16  15  -1    4.79    0.77
  15  16  -1    4.19    0.74
 -16 -15   1    4.93    0.66
 -15 -16   1    4.55    0.65
  16 -15  -1    5.06    0.68
  15 -16  -1    3.55    0.59
  16  15   1    4.65    0.74
  15  16   1    5.26    0.78
 -16 -15   3   23.17    1.38
 -15 -16   3   22.76    1.38
  16 -15  -3   23.78    1.39
  16  15   3   21.78    1.43
  15  16   3   23.78    1.51
  15  16   5    5.07    0.78
 -16 -15   5    5.88    0.71
 -15 -16   5    5.80    0.71
  16  15   5    5.70    0.79
  15  16   7   -0.32    0.55
 -16 -15   7   -0.11    0.27
  16  15   7    0.27    0.43
  15  16   9    6.04    0.83
  16  16   4    2.27    0.61
  16  16   6    5.79    0.83
  16  16   8    9.10    0.96
 -17   0  -1    0.11    0.20
 -17   0   1    0.05    0.18
   0  17  -1    0.55    0.27
  17   0  -1    0.29    0.17
 -17   0   1    0.44    0.41
   0  17   1    0.44    0.22
   0  17  -1    0.43    0.21
   0 -17  -1    0.76    0.30
   0 -17   1    0.80    0.31
 -17   0  -1   -0.24    0.39
 -17   0  -3    1.01    0.30
 -17   0   3    0.96    0.24
   0  17  -3    1.34    0.33
 -17   0  -3    0.98    0.46
 -17   0   3    1.04    0.41
 -17   0   3    0.97    0.34
   0  17   3    1.08    0.28
   0  17  -3    0.97    0.24
   0 -17  -3    1.60    0.36
   0 -17   3    0.94    0.32
 -17   0  -5    0.20    0.25
   0 -17   5    0.29    0.29
   0  17  -5    0.27    0.23
 -17   0   5    0.98    0.43
   0 -17  -5    0.04    0.25
 -17   0   5    0.04    0.24
   0  17   5    0.55    0.24
   0 -17  -5    0.56    0.29
   0 -17  -5   -0.31    0.30
 -17   0  -5    0.34    0.40
 -17   0  -7    3.20    0.49
   0  17  -7    2.61    0.45
 -17   0   7    2.56    0.55
   0 -17  -7    2.76    0.42
 -17   0  -7    3.62    0.59
   0  17  -7    3.71    0.63
 -17   0   7    2.61    0.41
   0  17   7    2.97    0.46
   0 -17  -7    2.80    0.43
   0 -17  -7    2.40    0.43
 -17   0   9    6.57    0.75
   0  17  -9    7.00    0.69
 -17   0  -9    8.77    0.82
   0 -17  -9    6.81    0.63
 -17   0   9    5.99    0.55
   0  17  -9    6.95    0.78
   0 -17  -9    7.09    0.64
   0  17   9    7.74    0.70
 -17   0   9    6.93    0.58
   0 -17  -9    7.07    0.66
 -17   0  -9    8.27    0.77
 -17   0  11    1.02    0.44
 -17   0 -11    1.46    0.46
   0  17 -11    0.98    0.39
   0  17 -11    0.28    0.43
   0 -17 -11    0.82    0.30
   0 -17 -11    0.66    0.34
   0  17  11    0.97    0.36
 -17   0  11    0.22    0.20
   0 -17 -11    0.01    0.41
 -17   0 -11    1.07    0.36
 -17   0  13    2.16    0.51
   0  17 -13    1.13    0.45
   0  17 -13    2.18    0.50
   0 -17 -13    2.07    0.39
   0  17  13    2.81    0.52
 -17   0 -13    2.85    0.55
 -17   0  13    2.34    0.38
   0 -17 -13    2.69    0.55
 -17   0 -13    1.55    0.43
 -17   0  15    5.00    0.70
   0 -17 -15    4.46    0.54
   0  17 -15    4.84    0.68
   0  17  15    5.74    0.70
 -17   0 -15    4.94    0.68
   0 -17 -15    4.30    0.69
 -17   0 -15    5.22    0.72
   0  17 -15    5.38    0.72
 -17   0  17    1.67    0.54
   0  17 -17    2.40    0.58
   0  17  17    1.75    0.50
 -17   0 -17    1.08    0.41
   0 -17 -17    1.20    0.52
 -17   0  19    0.20    0.43
  -1 -17 -18    1.04    0.53
 -17   1  18    0.66    0.44
  -1 -17 -16    0.48    0.32
   1  17 -16    0.55    0.46
  -1  17  16    0.45    0.37
 -17  -1 -16    0.60    0.36
  -1 -17 -16    0.74    0.52
   1  17 -16    0.68    0.45
 -17   1  16    0.26    0.38
 -17  -1 -16    0.45    0.37
   1  17 -14    1.48    0.49
   1  17 -14    1.32    0.47
  -1 -17 -14    0.47    0.32
  -1  17  14    0.74    0.38
 -17   1  14    1.09    0.33
  -1 -17 -14    0.32    0.42
 -17   1  14   -0.07    0.37
 -17  -1 -14    1.07    0.43
  -1 -17 -12    6.48    0.63
   1  17 -12    5.66    0.76
   1  17 -12    6.02    0.70
  -1  17  12    5.22    0.63
 -17   1  12    5.65    0.57
  -1 -17 -12    5.44    0.67
 -17   1  12    5.38    0.69
 -17  -1 -12    6.25    0.71
 -17  -1 -10    5.19    0.64
   1  17 -10    4.81    0.61
 -17  -1 -10    4.42    0.67
   1  17 -10    4.69    0.69
  -1 -17 -10    4.26    0.53
 -17   1  10    3.85    0.45
  -1 -17 -10    4.11    0.51
  -1  17  10    3.53    0.52
 -17   1  10    3.82    0.46
  -1 -17 -10    3.56    0.56
 -17   1  10    2.96    0.57
 -17  -1  -8    0.17    0.29
 -17   1   8   -0.44    0.41
   1  17  -8    0.11    0.29
  -1 -17  -8    0.22    0.23
 -17  -1  -8    0.33    0.41
   1  17  -8    0.56    0.47
 -17   1   8    0.20    0.22
  -1 -17  -8    0.03    0.28
  -1  17   8    0.02    0.25
  -1 -17  -8    0.21    0.35
 -17  -1  -6    1.78    0.40
   1 -17   6    2.08    0.41
 -17   1   6    1.20    0.46
   1  17  -6    1.25    0.34
  -1 -17  -6    2.44    0.41
 -17  -1  -6    1.67    0.53
   1  17  -6    3.25    0.66
 -17   1   6    1.64    0.36
  -1  17   6    2.36    0.40
  -1 -17  -6    2.70    0.41
  -1 -17  -6    1.39    0.36
   1 -17   4    4.13    0.52
 -17  -1  -4    3.52    0.47
   1  17  -4    4.34    0.51
 -17   1   4    3.71    0.61
  -1 -17  -4    3.39    0.47
 -17   1   4    3.93    0.51
  17  -1   4    3.99    0.35
  -1  17   4    4.27    0.49
   1  17  -4    3.68    0.35
  -1 -17  -4    3.27    0.44
  -1 -17  -4    4.25    0.45
 -17  -1  -4    4.54    0.64
 -17   1   2   -0.03    0.18
 -17  -1  -2    0.02    0.22
   1  17  -2    0.17    0.23
 -17   1   2    0.15    0.38
 -17  -1  -2    0.06    0.40
 -17   1   2    0.30    0.29
  17  -1   2    0.12    0.16
  -1  17   2    0.35    0.23
   1  17  -2    0.14    0.16
  -1 -17  -2    0.45    0.28
   1 -17   2    0.51    0.32
 -17   1   0    0.65    0.25
 -17  -1   0    0.84    0.29
 -17  -1   0    0.59    0.40
  -1  17   0    0.88    0.25
  17  -1   0    1.43    0.25
 -17   1   0    0.87    0.33
 -17   1   0    1.51    0.46
   1  17   0    0.65    0.21
  -1  17   0    1.04    0.27
  -1 -17   0    1.22    0.34
   1 -17   0    1.03    0.32
 -17   1  -2    0.26    0.21
 -17  -1   2    0.57    0.25
  -1  17  -2    0.39    0.25
  17  -1  -2    0.01    0.17
 -17   1  -2    0.34    0.32
   1  17   2    0.43    0.22
  -1  17  -2    0.17    0.21
 -17  -1   2    0.55    0.45
   1 -17  -2    0.33    0.29
 -17   1  -2   -0.03    0.37
  -1 -17   2    0.39    0.27
 -17  -1   4    4.56    0.42
  -1 -17   4    3.59    0.46
  -1  17  -4    4.27    0.47
 -17   1  -4    4.26    0.62
 -17   1  -4    3.85    0.56
 -17  -1   4    4.17    0.63
   1  17   4    3.77    0.45
   1 -17  -4    4.52    0.52
 -17   1  -4    3.33    0.46
  -1 -17   6    1.91    0.38
  -1  17  -6    1.46    0.36
   1 -17  -6    2.06    0.37
 -17  -1   6    1.39    0.48
 -17   1  -6    1.58    0.44
 -17  -1   6    1.59    0.35
   1  17   6    2.14    0.37
   1 -17  -6    2.03    0.39
   1 -17  -6    1.85    0.37
 -17   1  -6    2.19    0.50
 -17   1  -6    3.30    0.48
  -1  17  -8    0.33    0.30
 -17  -1   8    0.04    0.39
   1 -17  -8    0.00    0.23
 -17   1  -8    0.18    0.36
  -1  17  -8    0.78    0.49
 -17  -1   8    0.18    0.21
 -17   1  -8   -0.25    0.34
   1  17   8    0.19    0.24
   1 -17  -8    0.25    0.29
 -17  -1   8    0.10    0.19
   1 -17  -8   -0.53    0.37
 -17   1  -8    0.06    0.27
  -1  17 -10    3.66    0.55
 -17  -1  10    3.39    0.57
   1 -17 -10    3.36    0.46
  -1  17 -10    4.89    0.67
 -17   1 -10    4.80    0.64
 -17  -1  10    4.00    0.44
   1 -17 -10    4.74    0.56
   1  17  10    3.37    0.49
 -17   1 -10    2.77    0.51
 -17  -1  10    4.01    0.45
   1 -17 -10    2.93    0.51
 -17   1 -10    4.11    0.56
   1 -17 -12    5.91    0.58
  -1  17 -12    6.56    0.73
 -17  -1  12    4.99    0.69
  -1  17 -12    7.20    0.77
   1 -17 -12    6.26    0.66
   1  17  12    6.23    0.68
 -17   1 -12    5.65    0.71
   1 -17 -12    5.43    0.69
 -17   1 -12    5.55    0.67
  -1  17 -14    0.68    0.44
 -17  -1  14    0.65    0.42
  -1  17 -14    1.02    0.41
   1 -17 -14    1.22    0.33
   1  17  14    1.69    0.46
 -17   1 -14    0.99    0.42
   1 -17 -14    0.73    0.45
 -17   1 -14    1.01    0.39
 -17  -1  16    0.90    0.46
  -1  17 -16    0.93    0.43
   1  17  16    0.44    0.38
 -17   1 -16    0.62    0.38
   1 -17 -16   -0.67    0.50
 -17   1 -16    0.24    0.36
 -17  -1  18    0.93    0.49
   1 -17 -18    0.80    0.54
  -2 -17 -17    1.47    0.43
  -2  17  17    1.38    0.47
   2  17 -17    0.39    0.44
  -2 -17 -17    0.59    0.56
   2  17 -15    0.67    0.43
  -2 -17 -15    0.26    0.28
  -2  17  15   -0.09    0.32
 -17   2  15    0.18    0.25
  -2 -17 -15    0.52    0.48
   2  17 -15    0.74    0.43
 -17  -2 -15    0.26    0.37
 -17  -2 -13    0.87    0.40
   2  17 -13    0.31    0.41
   2  17 -13    0.95    0.42
  -2 -17 -13    0.44    0.28
  -2  17  13    1.80    0.46
 -17   2  13    1.34    0.36
  -2 -17 -13    1.39    0.50
 -17  -2 -11    3.30    0.54
   2  17 -11    3.60    0.56
   2  17 -11    3.43    0.62
  -2 -17 -11    3.52    0.49
  -2 -17 -11    2.82    0.44
 -17   2  11    2.11    0.50
  -2  17  11    3.53    0.54
 -17   2  11    3.31    0.45
  -2 -17 -11    3.58    0.58
 -17  -2  -9    1.08    0.37
 -17  -2  -9    1.91    0.52
   2  17  -9    0.74    0.32
   2  17  -9    0.67    0.49
  -2 -17  -9    1.01    0.35
 -17   2   9    0.62    0.27
  -2 -17  -9    0.31    0.26
 -17   2   9    0.40    0.39
  -2  17   9    0.84    0.34
 -17   2   9    0.94    0.29
  -2 -17  -9    0.61    0.38
 -17  -2  -7    1.04    0.34
   2  17  -7    1.83    0.41
  -2 -17  -7    0.91    0.32
   2  17  -7    1.92    0.57
 -17  -2  -7    1.50    0.51
 -17   2   7    1.43    0.33
  -2 -17  -7    1.63    0.37
  -2  17   7    1.51    0.36
  -2 -17  -7    1.75    0.41
  17  -2   7    1.57    0.29
 -17   2   7    1.91    0.50
   2 -17   5    3.04    0.45
 -17   2   5    2.08    0.51
 -17  -2  -5    3.96    0.53
   2  17  -5    4.15    0.52
  -2 -17  -5    3.52    0.49
 -17   2   5    2.87    0.46
   2  17  -5    2.89    0.62
 -17  -2  -5    3.05    0.57
  -2  17   5    3.61    0.47
  -2 -17  -5    3.38    0.44
  -2 -17  -5    4.19    0.48
  17  -2   5    3.27    0.35
   2  17  -3   10.02    0.73
 -17   2   3   10.78    0.82
 -17  -2  -3   10.48    0.90
  17  -2   3   10.37    0.60
  -2  17   3   10.27    0.72
  -2 -17  -3   10.83    0.72
 -17   2   3   10.42    0.91
  -2 -17  -3    9.86    0.60
   2 -17   3   11.14    0.80
 -17  -2  -3    9.50    0.74
   2  17  -1    1.69    0.34
 -17  -2  -1    1.86    0.36
 -17   2   1    1.82    0.47
 -17   2   1    1.72    0.39
 -17  -2  -1    1.22    0.46
   2  17  -1    2.01    0.29
  17  -2   1    1.55    0.26
  -2  17   1    2.38    0.38
  -2 -17  -1    1.80    0.36
   2 -17   1    1.78    0.38
 -17   2   1    1.86    0.30
 -17  -2   1    1.80    0.34
  -2  17  -1    1.66    0.29
 -17  -2   1    1.77    0.49
 -17   2  -1    2.05    0.50
 -17   2  -1    0.71    0.35
  17  -2  -1    2.14    0.31
   2  17   1    1.64    0.28
  -2  17  -1    2.34    0.35
   2 -17  -1    2.00    0.41
  -2 -17   1    2.48    0.40
 -17   2  -1    1.75    0.33
 -17  -2   3    9.42    0.63
  -2  17  -3   10.20    0.67
 -17   2  -3   12.23    0.93
  17  -2  -3    9.72    0.61
   2  17   3   10.31    0.66
   2 -17  -3   10.77    0.78
  -2 -17   3    9.28    0.68
 -17   2  -3    9.88    0.70
 -17   2  -3   10.84    0.88
 -17  -2   3    8.74    0.84
  -2 -17   5    3.39    0.45
 -17  -2   5    4.13    0.41
  -2  17  -5    4.70    0.51
 -17   2  -5    2.80    0.54
   2 -17  -5    3.20    0.44
 -17   2  -5    3.97    0.59
   2  17   5    3.53    0.42
   2 -17  -5    3.64    0.50
 -17  -2   5    2.46    0.52
 -17   2  -5    3.13    0.45
  -2  17  -7    2.04    0.40
   2 -17  -7    1.70    0.35
 -17   2  -7    1.46    0.44
 -17  -2   7    1.90    0.48
   2  17   7    1.55    0.36
   2 -17  -7    1.23    0.34
 -17   2  -7    2.03    0.49
 -17   2  -7    1.40    0.40
  -2  17  -9    0.88    0.34
   2 -17  -9    0.76    0.28
 -17   2  -9    1.18    0.43
  -2  17  -9    2.00    0.54
 -17  -2   9    0.69    0.42
 -17   2  -9    0.89    0.37
   2  17   9    0.43    0.29
 -17  -2   9    0.95    0.28
   2 -17  -9    0.20    0.30
 -17  -2   9    0.37    0.20
 -17   2  -9    2.07    0.44
  -2  17 -11    3.59    0.55
   2 -17 -11    3.08    0.43
  -2  17 -11    3.18    0.57
 -17  -2  11    2.61    0.54
   2 -17 -11    3.15    0.51
 -17   2 -11    3.80    0.59
   2  17  11    3.48    0.54
 -17   2 -11    3.21    0.60
   2 -17 -11    2.03    0.49
 -17   2 -11    3.81    0.56
  -2  17 -13    0.45    0.39
  -2  17 -13    0.99    0.46
   2 -17 -13    0.76    0.30
 -17  -2  13   -0.16    0.39
   2 -17 -13    0.99    0.38
   2  17  13    0.70    0.37
 -17   2 -13    0.87    0.43
   2 -17 -13    1.50    0.47
 -17   2 -13    0.96    0.39
  -2  17 -15    0.30    0.40
  -2  17 -15    0.49    0.35
 -17  -2  15    0.07    0.40
 -17   2 -15   -0.27    0.33
   2  17  15    0.11    0.33
   2 -17 -15   -0.23    0.48
 -17   2 -15    0.41    0.34
  -2  17 -17    0.86    0.44
 -17  -2  17    0.32    0.36
 -17   2 -17    0.23    0.37
   2  17  17    0.38    0.36
   2 -17 -17    0.71    0.52
  -3 -17 -18    0.51    0.34
 -17   3  18   -0.11    0.29
  -3 -17 -18    0.81    0.57
  -3 -17 -16    2.09    0.47
   3  17 -16    3.03    0.62
  -3  17  16    2.22    0.51
 -17   3  16    2.65    0.48
  -3 -17 -16    2.91    0.64
   3  17 -16    2.84    0.62
 -17  -3 -14    2.41    0.53
   3  17 -14    2.91    0.60
  -3 -17 -14    3.33    0.52
  -3  17  14    3.06    0.55
 -17   3  14    2.25    0.42
  -3 -17 -14    3.00    0.60
   3  17 -14    3.06    0.62
 -17  -3 -12    1.95    0.48
   3  17 -12    1.50    0.52
   3  17 -12    1.75    0.45
  -3 -17 -12    1.52    0.38
  -3  17  12    1.44    0.44
 -17   3  12    0.56    0.28
  -3 -17 -12    1.15    0.46
  17  -3  10    1.57    0.31
 -17  -3 -10    1.96    0.45
   3  17 -10    0.82    0.38
   3  17 -10    2.49    0.56
 -17   3  10    1.75    0.33
  -3 -17 -10    1.18    0.38
  -3 -17 -10    1.98    0.39
  -3  17  10    2.22    0.45
 -17   3  10    1.62    0.36
  -3 -17 -10    2.44    0.55
   3  17  -8    9.11    0.80
 -17   3   8    8.24    0.68
  -3 -17  -8    7.53    0.70
   3  17  -8    8.83    0.85
  -3 -17  -8    8.96    0.67
  -3  17   8    9.52    0.78
 -17  -3  -8   10.45    0.90
  -3 -17  -8    8.66    0.73
  17  -3   8    9.74    0.64
 -17  -3  -8    8.97    0.81
   3 -17   6    4.28    0.56
 -17  -3  -6    3.73    0.51
   3  17  -6    4.31    0.54
  -3 -17  -6    5.14    0.58
   3  17  -6    4.77    0.67
 -17   3   6    4.38    0.53
 -17   3   6    3.94    0.64
 -17  -3  -6    4.23    0.63
  -3 -17  -6    4.23    0.46
  -3  17   6    4.04    0.51
  17  -3   6    4.53    0.43
  -3 -17  -6    5.69    0.59
   3 -17   4    3.57    0.49
 -17  -3  -4    2.84    0.45
   3  17  -4    2.98    0.47
  -3 -17  -4    2.51    0.44
 -17   3   4    2.85    0.47
   3  17  -4    4.00    0.68
 -17  -3  -4    4.51    0.64
  -3  17   4    3.36    0.47
  -3 -17  -4    3.05    0.41
  17  -3   4    2.74    0.36
  -3 -17  -4    3.72    0.46
 -17   3   4    2.94    0.56
 -17  -3  -2   14.78    0.89
   3  17  -2   15.09    0.89
 -17   3   2   13.79    0.95
 -17  -3  -2   15.08    1.05
  17  -3   2   13.76    0.73
  -3  17   2   13.74    0.85
  -3 -17  -2   14.03    0.81
 -17   3   2   14.55    1.04
   3 -17   2   13.65    0.91
 -17  -3   0   16.38    0.93
 -17   3   0   17.68    1.11
 -17  -3   0   18.56    1.16
  17  -3   0   17.26    0.83
   3  17   0   16.25    0.76
  -3  17   0   16.50    0.91
 -17   3   0   20.29    1.19
  -3 -17   0   17.17    0.90
   3 -17   0   18.34    1.02
 -17   3   0   17.92    0.86
 -17  -3   2   14.44    0.83
  -3  17  -2   14.48    0.76
 -17  -3   2   12.38    0.97
 -17   3  -2   15.22    1.03
  17  -3  -2   15.12    0.78
   3  17   2   15.05    0.77
   3 -17  -2   13.66    0.90
 -17   3  -2   15.45    1.05
  -3 -17   2   13.90    0.83
 -17   3  -2   15.38    0.84
  -3 -17   4    2.49    0.37
 -17  -3   4    2.13    0.50
 -17  -3   4    2.06    0.33
  -3  17  -4    3.15    0.40
  17  -3  -4    2.27    0.36
 -17   3  -4    2.58    0.50
   3  17   4    2.61    0.36
 -17   3  -4    1.70    0.48
   3 -17  -4    2.65    0.47
 -17   3  -4    3.00    0.44
  -3 -17   6    3.71    0.46
  -3  17  -6    4.88    0.51
 -17   3  -6    2.72    0.52
   3 -17  -6    4.21    0.48
 -17   3  -6    4.13    0.60
   3  17   6    4.37    0.48
   3 -17  -6    3.73    0.53
 -17  -3   6    2.58    0.54
 -17   3  -6    4.77    0.54
  -3  17  -8    9.48    0.74
   3 -17  -8    9.62    0.68
 -17   3  -8    8.79    0.84
 -17   3  -8    8.73    0.81
   3  17   8    8.56    0.70
   3 -17  -8    9.92    0.79
 -17   3  -8    9.79    0.79
 -17  -3   8    8.99    0.86
  -3  17 -10    1.68    0.41
   3 -17 -10    1.54    0.31
  -3  17 -10    2.59    0.55
 -17   3 -10    2.08    0.49
 -17   3 -10    1.26    0.43
   3  17  10    2.50    0.43
   3 -17 -10    1.33    0.36
 -17  -3  10    1.35    0.44
 -17   3 -10    2.09    0.46
  -3  17 -12    1.34    0.40
  -3  17 -12    1.68    0.49
 -17   3 -12    1.38    0.42
   3  17  12    2.12    0.44
   3 -17 -12    0.82    0.35
 -17  -3  12    1.30    0.44
 -17   3 -12    2.03    0.50
 -17   3 -12    1.11    0.39
  -3  17 -14    1.98    0.48
  -3  17 -14    2.56    0.53
 -17   3 -14    2.76    0.55
   3  17  14    2.25    0.48
 -17  -3  14    3.48    0.64
 -17   3 -14    3.59    0.60
  -3  17 -16    1.19    0.49
 -17   3 -16    2.31    0.53
   3  17  16    1.71    0.48
 -17  -3  16    1.87    0.52
   3  17  18    0.26    0.36
 -17  -3  18    0.07    0.37
  17   4 -19    2.01    0.55
  -4 -17 -19    1.99    0.51
 -17   4  19    1.66    0.44
  -4 -17 -17    1.38    0.42
   4  17 -17    2.23    0.61
 -17   4  17    1.76    0.44
  -4 -17 -17    2.47    0.65
 -17  -4 -15    0.53    0.39
   4  17 -15    0.26    0.40
  -4 -17 -15   -0.08    0.29
  -4  17  15    0.76    0.42
 -17   4  15    0.18    0.34
  -4 -17 -15    0.79    0.53
   4  17 -15    0.18    0.46
 -17  -4 -13    2.19    0.51
   4  17 -13    2.58    0.57
  -4 -17 -13    2.55    0.49
  -4  17  13    2.71    0.51
 -17   4  13    3.17    0.49
  -4 -17 -13    3.29    0.62
   4  17 -13    2.79    0.61
  17  -4  11    3.83    0.46
 -17  -4 -11    4.06    0.60
   4  17 -11    3.22    0.62
   4  17 -11    4.59    0.65
  -4 -17 -11    4.57    0.60
  -4  17  11    2.97    0.52
 -17   4  11    4.86    0.57
  -4 -17 -11    4.12    0.62
  17  -4   9    2.53    0.40
 -17  -4  -9    2.37    0.48
   4  17  -9    2.30    0.49
   4  17  -9    3.50    0.62
 -17   4   9    3.22    0.46
  -4 -17  -9    2.93    0.48
  -4 -17  -9    2.22    0.38
  -4  17   9    2.55    0.48
 -17   4   9    2.95    0.46
   4 -17   7    5.31    0.60
 -17  -4  -7    4.77    0.59
   4  17  -7    5.49    0.64
 -17   4   7    5.33    0.56
   4  17  -7    6.81    0.81
  -4 -17  -7    4.62    0.58
  -4 -17  -7    5.28    0.51
  -4  17   7    6.43    0.65
  17  -4   7    6.07    0.53
 -17  -4  -7    7.62    0.80
   4 -17   5    4.04    0.53
 -17  -4  -5    5.52    0.61
   4  17  -5    5.52    0.59
 -17   4   5    5.72    0.60
  -4 -17  -5    6.51    0.65
   4  17  -5    5.17    0.73
  -4 -17  -5    5.62    0.51
  -4  17   5    6.05    0.62
  17  -4   5    4.75    0.47
 -17  -4  -5    6.10    0.73
 -17  -4  -3   17.69    1.03
   4  17  -3   18.88    1.04
   4  17  -3   19.54    1.22
 -17   4   3   17.58    1.07
  -4 -17  -3   16.92    1.04
  -4 -17  -3   16.63    0.88
 -17   4   3   19.32    1.21
  -4  17   3   16.99    1.00
  17  -4   3   17.04    0.87
   4 -17   3   16.65    1.01
 -17  -4  -3   19.19    1.19
 -17   4   1    0.94    0.40
 -17  -4  -1    1.25    0.35
 -17  -4  -1    1.24    0.44
 -17   4   1    2.06    0.42
  17  -4   1    1.45    0.30
  -4  17   1    1.42    0.33
  -4 -17  -1    1.12    0.29
   4 -17   1    1.50    0.38
 -17  -4   1    1.83    0.36
 -17   4  -1    1.50    0.40
  17  -4  -1    1.41    0.32
   4 -17  -1    0.73    0.34
  -4 -17   1    1.51    0.31
 -17  -4   1    2.11    0.50
 -17  -4   3   17.35    0.92
  -4  17  -3   17.41    0.85
 -17  -4   3   14.79    1.07
 -17   4  -3   18.59    1.15
  17  -4  -3   16.81    0.88
   4  17   3   15.05    0.79
   4 -17  -3   17.04    1.03
 -17   4  -3   17.30    1.12
  -4 -17   3   16.66    0.88
 -17   4  -3   17.09    0.92
 -17  -4   5    5.84    0.50
  -4  17  -5    4.22    0.47
 -17  -4   5    4.63    0.65
   4  17   5    4.88    0.48
 -17   4  -5    5.97    0.69
  17  -4  -5    4.80    0.50
   4 -17  -5    5.50    0.60
 -17   4  -5    5.15    0.64
 -17   4  -5    4.99    0.54
  -4 -17   5    5.36    0.52
 -17  -4   7    4.48    0.65
  -4  17  -7    6.05    0.59
 -17   4  -7    5.61    0.68
   4 -17  -7    5.91    0.53
 -17   4  -7    5.34    0.68
   4  17   7    5.11    0.53
   4 -17  -7    6.17    0.63
 -17   4  -7    6.23    0.62
  -4  17  -9    2.95    0.47
   4 -17  -9    2.43    0.37
 -17   4  -9    3.46    0.57
   4  17   9    2.73    0.43
  -4  17  -9    3.76    0.59
   4 -17  -9    3.21    0.51
 -17   4  -9    3.08    0.51
 -17   4  -9    3.00    0.52
 -17  -4   9    2.73    0.56
  -4  17 -11    4.16    0.58
  -4  17 -11    4.17    0.62
 -17   4 -11    4.88    0.68
   4  17  11    3.12    0.50
   4 -17 -11    4.58    0.60
 -17   4 -11    4.79    0.63
 -17  -4  11    4.28    0.64
  -4  17 -13    2.99    0.54
  -4  17 -13    2.93    0.55
 -17   4 -13    4.40    0.61
 -17   4 -13    2.83    0.55
   4  17  13    2.92    0.52
   4 -17 -13    2.93    0.53
 -17  -4  13    4.22    0.65
  -4  17 -15   -0.22    0.39
 -17   4 -15    0.59    0.40
   4  17  15   -0.29    0.38
 -17  -4  15    0.38    0.37
  -4  17 -17    2.27    0.59
 -17   4 -17    2.27    0.54
   4  17  17    0.82    0.42
 -17  -4  17    1.42    0.46
  17   5 -18    4.11    0.67
  -5 -17 -18    4.60    0.65
 -17   5  18    4.35    0.63
  -5 -17 -16    1.38    0.42
 -17   5  16    1.15    0.38
   5  17 -16    0.42    0.47
  -5 -17 -16    1.80    0.64
 -17  -5 -14    2.10    0.53
   5  17 -14    2.94    0.59
  -5 -17 -14    3.45    0.55
  -5  17  14    3.52    0.62
 -17   5  14    2.41    0.48
  -5 -17 -14    4.37    0.71
   5  17 -14    4.41    0.72
   5  17 -12    8.26    0.88
   5  17 -12    8.76    0.88
  -5 -17 -12    8.77    0.80
  -5  17  12    8.23    0.81
 -17   5  12    7.86    0.75
  17  -5  12    8.82    0.70
 -17  -5 -12    8.89    0.88
  17  -5  10    2.57    0.41
 -17  -5 -10    3.23    0.57
   5  17 -10    2.41    0.58
   5  17 -10    2.75    0.52
 -17   5  10    3.47    0.45
  -5 -17 -10    2.95    0.50
  -5  17  10    2.95    0.51
 -17   5  10    3.12    0.48
 -17  -5  -8    7.40    0.75
   5 -17   8    7.99    0.73
   5  17  -8    8.45    0.78
 -17   5   8    8.45    0.70
  -5 -17  -8    7.57    0.72
   5  17  -8    8.15    0.87
  -5 -17  -8    7.77    0.60
  -5  17   8    7.11    0.71
  17  -5   8    7.06    0.59
   5 -17   6    3.21    0.49
 -17  -5  -6    2.31    0.44
   5  17  -6    2.66    0.47
 -17   5   6    2.46    0.43
   5  17  -6    2.10    0.58
  -5 -17  -6    2.87    0.47
  -5 -17  -6    2.73    0.38
  -5  17   6    1.95    0.40
  17  -5   6    2.30    0.39
 -17  -5  -4    6.30    0.74
 -17  -5  -4    4.93    0.60
  -5 -17  -4    5.89    0.64
   5  17  -4    4.88    0.56
 -17   5   4    5.17    0.60
   5  17  -4    5.33    0.73
  -5 -17  -4    5.17    0.47
  -5  17   4    5.86    0.62
  17  -5   4    5.81    0.53
   5 -17   4    4.37    0.57
 -17  -5  -2   10.40    0.91
   5  17  -2   11.13    0.80
 -17  -5  -2   10.89    0.81
   5  17  -2   11.37    0.96
 -17   5   2    8.81    0.78
  -5 -17  -2   10.87    0.84
 -17   5   2   10.57    0.91
  -5 -17  -2   10.20    0.66
  17  -5   2   11.48    0.71
  -5  17   2   10.26    0.78
   5 -17   2   10.09    0.81
 -17   5   0    0.25    0.40
 -17  -5   0    0.01    0.25
 -17   5   0    0.12    0.31
   5  17   0    0.62    0.50
 -17  -5   0    0.20    0.37
  17  -5   0   -0.15    0.26
  -5 -17   0   -0.08    0.20
   5 -17   0    0.06    0.30
 -17  -5   2   10.84    0.75
 -17   5  -2   11.45    0.91
  17  -5  -2   10.98    0.72
 -17  -5   2    9.84    0.89
   5 -17  -2   10.29    0.80
 -17   5  -2    9.95    0.87
  -5 -17   2    9.98    0.66
 -17  -5   4    5.58    0.52
  -5  17  -4    4.95    0.47
 -17   5  -4    5.01    0.64
   5  17   4    4.87    0.45
 -17   5  -4    4.91    0.62
  17  -5  -4    5.43    0.53
   5 -17  -4    5.00    0.60
  -5 -17   4    5.22    0.50
 -17  -5   4    4.51    0.65
  -5 -17   6    1.49    0.32
  -5  17  -6    3.17    0.44
 -17  -5   6    2.39    0.36
   5 -17  -6    3.26    0.40
 -17   5  -6    2.33    0.50
   5  17   6    2.92    0.40
  17  -5  -6    2.47    0.41
 -17  -5   6    2.45    0.53
   5 -17  -6    2.50    0.48
 -17   5  -6    2.75    0.52
  -5  17  -8    6.93    0.66
 -17  -5   8    8.50    0.84
 -17   5  -8    7.33    0.72
 -17   5  -8    7.84    0.81
   5 -17  -8    8.40    0.62
   5  17   8    7.74    0.66
   5 -17  -8    7.46    0.71
  -5  17 -10    2.49    0.48
 -17  -5  10    2.36    0.53
 -17   5 -10    3.61    0.60
  -5  17 -10    4.13    0.60
   5  17  10    3.61    0.50
   5 -17 -10    2.81    0.50
 -17   5 -10    2.97    0.51
  -5  17 -12    8.45    0.77
 -17  -5  12    8.23    0.85
  -5  17 -12    9.15    0.82
 -17   5 -12    7.93    0.84
   5  17  12    8.24    0.76
   5 -17 -12    7.91    0.78
 -17   5 -12    9.91    0.83
 -17  -5  14    3.36    0.60
  -5  17 -14    2.19    0.50
 -17   5 -14    2.70    0.56
   5 -17 -14    3.15    0.57
   5  17  14    2.55    0.52
 -17  -5  16    0.54    0.41
  -5  17 -16    1.51    0.48
 -17   5 -16    1.16    0.48
   5  17  16    0.88    0.41
   5  17  18    4.39    0.68
  17   6 -17    7.97    0.88
  -6 -17 -17    7.21    0.79
 -17   6  17    7.10    0.81
  -6 -17 -17    8.85    1.02
  -6 -17 -15    1.99    0.48
  -6  17  15    1.93    0.55
 -17   6  15    1.94    0.44
   6  17 -15    2.01    0.57
   6  17 -13   11.55    1.03
  -6 -17 -13   12.04    0.97
  -6  17  13   13.22    1.07
 -17   6  13   10.82    0.91
   6  17 -13   12.22    1.06
 -17  -6 -13   12.66    1.06
   6  17 -11    5.47    0.78
  17  -6  11    4.16    0.50
 -17  -6 -11    4.09    0.63
   6  17 -11    3.39    0.61
  -6 -17 -11    5.29    0.68
  -6  17  11    5.74    0.69
 -17   6  11    5.44    0.65
  17  -6   9    3.24    0.45
 -17  -6  -9    2.33    0.50
   6  17  -9    1.85    0.45
   6  17  -9    1.99    0.58
 -17   6   9    2.97    0.46
  -6 -17  -9    2.98    0.50
  -6  17   9    2.98    0.53
 -17   6   9    2.04    0.43
 -17  -6  -7   23.37    1.31
   6  17  -7   22.13    1.26
 -17   6   7   21.73    1.18
  -6 -17  -7   22.56    1.26
  -6  17   7   24.82    1.32
  17  -6   7   22.31    1.09
   6  17  -7   23.29    1.41
   6 -17   7   20.88    1.20
   6  17  -5    5.57    0.65
 -17   6   5    5.74    0.61
 -17  -6  -5    5.86    0.64
   6  17  -5    5.84    0.78
  -6 -17  -5    6.14    0.65
  -6  17   5    7.35    0.71
  17  -6   5    7.16    0.60
   6 -17   5    6.16    0.67
   6  17  -3    0.35    0.29
 -17  -6  -3    0.07    0.24
 -17   6   3    0.05    0.28
   6  17  -3    0.45    0.45
  -6 -17  -3   -0.10    0.28
  -6 -17  -3    0.06    0.19
  -6  17   3    0.42    0.27
 -17  -6  -3    1.00    0.51
  17  -6   3    0.19    0.24
   6 -17   3    0.48    0.34
 -17  -6  -1   11.28    0.82
   6  17  -1   11.83    0.99
 -17  -6  -1   12.88    1.00
 -17   6   1   13.07    0.95
  -6 -17  -1   12.69    0.91
 -17   6   1   11.83    0.97
  17  -6   1   10.81    0.73
  -6 -17  -1   11.76    0.68
   6 -17   1   10.26    0.83
 -17  -6   1   11.76    0.81
 -17   6  -1   10.76    0.88
   6  17   1   11.27    0.96
  17  -6  -1   10.62    0.73
 -17   6  -1   12.14    0.94
   6 -17  -1   11.64    0.86
  -6 -17   1   10.33    0.65
 -17  -6   1   10.96    0.93
 -17   6  -3    0.28    0.37
 -17  -6   3    0.27    0.25
 -17   6  -3    0.31    0.34
 -17  -6   3    0.65    0.43
  17  -6  -3    0.58    0.28
   6 -17  -3    0.47    0.33
  -6 -17   3    0.41    0.22
 -17  -6   5    6.64    0.77
 -17  -6   5    6.21    0.56
 -17   6  -5    6.45    0.73
 -17   6  -5    7.09    0.74
  17  -6  -5    6.44    0.61
   6 -17  -5    6.01    0.65
  -6 -17   5    6.04    0.52
  -6  17  -7   24.47    1.15
 -17  -6   7   21.84    1.06
 -17   6  -7   21.14    1.32
   6 -17  -7   21.63    1.00
   6  17   7   20.44    1.03
 -17  -6   7   20.66    1.29
  17  -6  -7   21.68    1.13
   6 -17  -7   21.65    1.22
 -17   6  -7   23.27    1.27
  -6  17  -9    2.60    0.45
 -17   6  -9    2.72    0.52
 -17   6  -9    4.22    0.63
   6  17   9    2.20    0.40
   6 -17  -9    2.99    0.51
 -17  -6   9    2.42    0.52
 -17   6 -11    3.82    0.58
  -6  17 -11    4.54    0.61
 -17   6 -11    4.77    0.67
  -6  17 -11    4.50    0.61
   6  17  11    3.80    0.52
   6 -17 -11    4.26    0.59
 -17  -6  11    4.11    0.66
  -6  17 -13   12.35    0.97
 -17   6 -13   12.30    1.05
 -17  -6  13   10.41    0.96
   6  17  13   11.29    0.89
   6 -17 -13   11.14    0.94
  -6  17 -15    2.78    0.57
 -17   6 -15    1.80    0.50
   6  17  15    2.59    0.52
 -17  -6  15    1.69    0.50
   6  17  17    6.13    0.77
  -7 -17 -16    1.96    0.50
   7  17 -14    0.84    0.46
  -7 -17 -14    0.03    0.34
  -7  17  14    0.44    0.36
 -17   7  14    0.97    0.40
   7  17 -14   -0.03    0.48
   7  17 -12   10.05    0.95
  -7 -17 -12   11.42    0.95
  -7  17  12   10.14    0.94
 -17   7  12   10.77    0.91
   7  17 -12   10.98    1.04
  17  -7  12   10.48    0.80
 -17  -7 -12    8.97    0.89
  17  -7  10    3.11    0.48
   7  17 -10    2.54    0.61
 -17  -7 -10    2.70    0.52
   7  17 -10    1.64    0.48
  -7 -17 -10    3.33    0.54
  -7  17  10    3.13    0.55
 -17   7  10    1.80    0.43
   7 -17   8    6.32    0.68
   7  17  -8    6.22    0.70
 -17  -7  -8    5.03    0.65
   7  17  -8    5.81    0.79
 -17   7   8    5.62    0.59
  -7 -17  -8    6.35    0.69
  -7  17   8    5.32    0.66
  17  -7   8    5.87    0.58
   7 -17   6    4.80    0.59
   7  17  -6    5.11    0.63
 -17  -7  -6    5.22    0.63
 -17   7   6    5.18    0.61
   7  17  -6    4.18    0.70
  -7 -17  -6    4.96    0.62
  -7  17   6    6.07    0.67
  17  -7   6    4.22    0.50
   7  17  -4    8.06    0.76
 -17  -7  -4    9.48    0.80
 -17   7   4    8.95    0.79
  -7 -17  -4   10.20    0.85
  -7  17   4    9.65    0.80
  17  -7   4    9.33    0.70
   7 -17   4    9.89    0.82
   7  17  -4    9.37    0.92
 -17  -7  -2    6.55    0.77
 -17  -7  -2    6.28    0.64
 -17   7   2    6.16    0.67
  -7 -17  -2    6.96    0.71
   7  17  -2    6.07    0.76
  17  -7   2    6.12    0.58
   7 -17   2    5.23    0.62
 -17  -7   0    0.90    0.32
 -17   7   0    1.00    0.36
  -7 -17   0    1.53    0.40
   7  17   0    1.47    0.51
  17  -7   0    1.13    0.33
   7 -17   0    1.12    0.38
 -17  -7   0    1.35    0.50
 -17  -7   2    6.53    0.62
 -17  -7   2    6.74    0.78
 -17   7  -2    5.93    0.70
   7  17   2    6.56    0.81
  17  -7  -2    6.64    0.61
   7 -17  -2    6.34    0.67
 -17   7  -2    6.73    0.73
 -17   7  -4    9.82    0.88
 -17  -7   4    8.97    0.69
  17  -7  -4    8.51    0.71
   7  17   4    9.79    0.90
   7 -17  -4    8.20    0.75
 -17   7  -4    9.60    0.85
 -17  -7   4    8.11    0.85
  -7 -17   6    4.13    0.44
 -17  -7   6    4.20    0.48
 -17   7  -6    4.56    0.64
   7 -17  -6    4.64    0.45
 -17  -7   6    3.63    0.58
 -17   7  -6    5.08    0.64
  17  -7  -6    4.81    0.56
   7 -17  -6    3.52    0.53
  -7  17  -8    5.84    0.59
 -17  -7   8    4.80    0.72
 -17  -7   8    6.10    0.55
 -17   7  -8    6.10    0.71
  17  -7  -8    5.11    0.60
   7 -17  -8    7.00    0.72
 -17   7  -8    7.21    0.74
 -17  -7  10    1.77    0.48
  -7  17 -10    2.43    0.47
 -17   7 -10    3.05    0.60
   7  17  10    3.10    0.46
 -17   7 -10    2.83    0.52
   7 -17 -10    3.27    0.54
 -17   7 -12   11.15    0.98
  -7  17 -12    8.19    0.79
   7  17  12    8.29    0.75
   7 -17 -12    8.53    0.84
 -17  -7  12    9.71    0.91
  -7  17 -14    1.21    0.43
 -17   7 -14    0.66    0.43
   7  17  14    0.48    0.33
   7 -17 -14    0.92    0.41
 -17  -7  14    1.06    0.48
  -7  17 -16    1.24    0.50
   7  17  16    2.03    0.51
  17  -8  13    3.01    0.52
 -17  -8 -13    3.79    0.63
   8  17 -13    2.51    0.60
  -8 -17 -13    2.04    0.51
  -8  17  13    2.06    0.50
 -17   8  13    1.77    0.43
   8  17 -13    1.65    0.59
  17  -8  11    0.86    0.35
 -17  -8 -11   -0.07    0.32
   8  17 -11    0.25    0.37
  -8 -17 -11    0.95    0.40
  -8  17  11    0.56    0.37
 -17   8  11    1.45    0.43
   8  17 -11   -0.12    0.45
   8  17  -9    0.08    0.45
   8 -17   9    0.70    0.39
   8  17  -9    0.26    0.36
 -17  -8  -9    0.49    0.36
  -8 -17  -9    0.56    0.35
  -8  17   9   -0.19    0.32
 -17   8   9    0.34    0.30
  17  -8   9    0.67    0.33
 -17   8   7    8.73    0.75
 -17  -8  -7    7.71    0.77
   8  17  -7    7.69    0.78
   8  17  -7    7.36    0.87
  -8 -17  -7    7.78    0.78
  -8  17   7    7.18    0.74
  17  -8   7    8.20    0.71
   8 -17   7    7.41    0.74
   8  17  -5    6.49    0.71
 -17  -8  -5    7.47    0.75
 -17   8   5    6.99    0.71
   8  17  -5    7.04    0.86
  -8 -17  -5    7.72    0.76
  -8  17   5    7.92    0.77
  17  -8   5    6.40    0.61
   8 -17   5    6.41    0.70
 -17   8   3    6.00    0.68
 -17  -8  -3    5.25    0.62
   8  17  -3    6.04    0.77
  -8 -17  -3    5.18    0.63
  17  -8   3    6.16    0.60
  -8  17   3    5.42    0.65
   8 -17   3    5.99    0.67
   8  17  -1    8.68    0.90
 -17   8   1    8.06    0.79
 -17  -8  -1    8.33    0.74
  -8 -17  -1    8.73    0.79
  17  -8   1    7.91    0.67
   8 -17   1    8.26    0.76
   8  17   1    8.75    0.89
 -17   8  -1    9.06    0.84
 -17  -8   1    8.89    0.74
  -8 -17   1    7.97    0.75
  17  -8  -1    8.65    0.70
 -17  -8   1    7.66    0.83
   8 -17  -1    9.11    0.79
 -17   8  -3    7.05    0.77
 -17  -8   3    6.31    0.62
 -17  -8   3    8.35    0.84
   8  17   3    6.86    0.82
  17  -8  -3    7.04    0.65
   8 -17  -3    6.80    0.70
 -17   8  -3    6.55    0.74
 -17  -8   5    7.71    0.83
 -17   8  -5    8.88    0.86
 -17   8  -5    6.66    0.74
 -17  -8   5    7.07    0.63
   8  17   5    8.59    0.90
  17  -8  -5    6.36    0.64
   8 -17  -5    5.41    0.65
 -17   8  -7    7.53    0.80
 -17  -8   7    7.66    0.65
  17  -8  -7    7.09    0.68
   8 -17  -7    6.45    0.70
 -17   8  -7    8.65    0.80
 -17  -8   7    7.97    0.84
  -8  17  -9    0.49    0.31
 -17   8  -9    0.14    0.34
  17  -8  -9    0.24    0.31
   8 -17  -9   -0.06    0.31
 -17  -8   9    0.27    0.36
 -17   8  -9   -0.25    0.41
  -8  17 -11    0.67    0.35
 -17   8 -11    0.57    0.34
 -17  -8  11    1.06    0.46
   8 -17 -11    0.49    0.39
  -8  17 -13    2.57    0.54
 -17   8 -13    1.95    0.51
 -17  -8  13    3.05    0.58
   8 -17 -13    3.49    0.58
  -8  17 -15   -0.35    0.41
   8  17  15   -0.08    0.32
   8  17  17    3.47    0.61
  17  -9  14    1.62    0.41
  17  -9  12    0.32    0.34
 -17  -9 -12    0.21    0.34
   9  17 -12   -0.32    0.40
  -9 -17 -12    0.15    0.34
  -9  17  12    1.03    0.47
 -17   9  12    0.32    0.34
   9  17 -12   -0.02    0.49
  17  -9  10    4.30    0.57
   9 -17  10    2.32    0.51
   9  17 -10    3.09    0.60
 -17  -9 -10    3.65    0.60
  -9 -17 -10    3.43    0.60
  -9  17  10    4.17    0.64
 -17   9  10    3.44    0.55
   9  17 -10    4.80    0.74
   9  17  -8    9.23    0.96
 -17  -9  -8    9.90    0.90
   9  17  -8    9.49    0.89
  -9 -17  -8    8.53    0.83
  -9  17   8    9.21    0.87
  17  -9   8    7.34    0.71
   9 -17   8   10.41    0.89
   9 -17   6    5.21    0.65
   9  17  -6    5.77    0.70
   9  17  -6    6.16    0.82
 -17  -9  -6    5.41    0.68
  -9 -17  -6    5.29    0.66
  -9  17   6    6.44    0.71
  17  -9   6    4.86    0.58
 -17   9   4   11.35    0.91
 -17  -9  -4   11.92    0.93
  -9 -17  -4   13.06    0.99
  -9  17   4   12.33    0.94
  17  -9   4   11.93    0.84
   9  17  -4   12.75    1.08
   9 -17   4   11.88    0.93
 -17   9   2   15.63    1.07
 -17  -9  -2   13.73    0.99
  -9 -17  -2   12.05    0.96
  17  -9   2   14.77    0.93
   9 -17   2   13.43    0.98
   9  17  -2   14.49    1.13
 -17   9   0    9.24    0.85
 -17  -9   0    8.84    0.77
  -9 -17   0    7.70    0.76
  17  -9   0    8.81    0.74
   9 -17   0    8.73    0.80
   9  17   0    9.51    0.95
   9  17   2   13.50    1.08
 -17   9  -2   12.75    1.02
 -17  -9   2   13.12    0.91
  -9 -17   2   12.75    0.95
  17  -9  -2   12.90    0.89
   9 -17  -2   12.60    0.95
 -17  -9   2   13.86    1.07
   9  17   4   11.34    0.98
 -17   9  -4   13.11    1.04
 -17  -9   4   11.17    0.82
  17  -9  -4   11.49    0.87
 -17  -9   4   12.72    1.02
   9 -17  -4   12.06    0.93
 -17   9  -4   10.93    0.94
 -17   9  -6    5.93    0.68
 -17  -9   6    6.15    0.59
 -17   9  -6    5.82    0.73
   9  17   6    6.40    0.79
  17  -9  -6    4.72    0.58
   9 -17  -6    4.91    0.64
 -17  -9   6    6.06    0.75
 -17   9  -8   11.36    1.00
 -17  -9   8    9.30    0.89
   9  17   8   10.27    0.97
 -17  -9   8    9.37    0.74
  17  -9  -8    8.24    0.77
   9 -17  -8   10.82    0.91
 -17   9  -8   10.60    0.88
 -17   9 -10    4.11    0.65
 -17  -9  10    3.90    0.65
  17  -9 -10    3.65    0.57
   9  17  10    4.63    0.73
   9 -17 -10    3.44    0.58
 -17  -9  12    1.39    0.49
 -17   9 -12    0.58    0.40
  -9  17 -12    0.55    0.38
 -17  -9  14    2.37    0.55
  -9  17 -14    1.21    0.47
 -17   9 -14    1.58    0.53
  17 -10  15   -0.08    0.35
  17 -10  13    1.95    0.48
  17 -10  11    4.19    0.58
  10  17 -11    3.47    0.65
 -17 -10 -11    3.95    0.66
 -10 -17 -11    4.47    0.66
 -10  17  11    4.63    0.69
 -17  10  11    4.19    0.62
  10  17 -11    3.95    0.76
  10 -17   9    2.15    0.51
  10  17  -9    2.37    0.55
 -17 -10  -9    2.14    0.49
 -10 -17  -9    2.28    0.51
 -10  17   9    1.86    0.51
 -17  10   9    2.07    0.50
  10  17  -9    2.98    0.70
  17 -10   9    1.27    0.38
  10 -17   7    2.90    0.54
  10  17  -7    3.53    0.68
  10  17  -7    3.14    0.58
 -17 -10  -7    3.77    0.60
 -10 -17  -7    2.73    0.54
 -10  17   7    3.05    0.57
  17 -10   7    3.31    0.51
  10  17  -5    7.31    0.89
 -17 -10  -5    7.77    0.79
 -10 -17  -5    8.77    0.82
 -10  17   5    7.92    0.79
  17 -10   5    7.76    0.70
  10 -17   5    7.54    0.77
 -17 -10  -3   10.03    0.86
 -10 -17  -3   10.16    0.90
  17 -10   3   10.50    0.81
  10  17  -3   10.45    1.02
  10 -17   3    9.82    0.87
 -17  10   1    5.59    0.69
 -17 -10  -1    4.32    0.58
  10  17  -1    4.67    0.76
 -10 -17  -1    5.05    0.64
  17 -10   1    5.24    0.61
  10 -17   1    4.24    0.59
 -17 -10   1    5.70    0.64
 -17  10  -1    6.19    0.74
  10  17   1    4.66    0.72
 -10 -17   1    3.79    0.56
  17 -10  -1    4.47    0.57
  10 -17  -1    5.25    0.66
  10  17   3    9.37    0.92
 -17  10  -3    8.89    0.88
 -17 -10   3   10.07    0.81
 -10 -17   3    9.20    0.83
  17 -10  -3   10.94    0.83
  10 -17  -3    8.94    0.83
  10  17   5    9.19    0.93
 -17  10  -5    8.15    0.85
 -17 -10   5    7.69    0.69
  17 -10  -5    7.63    0.73
  10 -17  -5    7.16    0.76
 -17  10  -5    8.55    0.82
 -17  10  -7    3.17    0.59
 -17  10  -7    2.53    0.53
 -17 -10   7    3.38    0.49
  10  17   7    3.89    0.69
  17 -10  -7    3.70    0.56
  10 -17  -7    2.71    0.52
 -17 -10   7    3.86    0.63
 -17  10  -9    2.01    0.55
 -17 -10   9    1.51    0.35
  10  17   9    2.34    0.62
  17 -10  -9    1.82    0.47
  10 -17  -9    1.39    0.45
 -17 -10   9    1.91    0.54
 -17  10 -11    3.93    0.67
 -17 -10  11    3.78    0.65
 -17  10 -11    4.16    0.63
  17 -10 -11    3.90    0.59
  10  17  11    5.58    0.77
 -17 -10  13    1.50    0.52
 -17  10 -13    1.56    0.52
 -10  17 -15    1.18    0.48
  17 -11  12   -0.02    0.33
  17 -11  10    3.16    0.58
  11 -17   8    3.66    0.59
  11  17  -8    3.52    0.63
 -17 -11  -8    4.62    0.66
 -11 -17  -8    4.54    0.68
 -11  17   8    4.95    0.69
 -17  11   8    4.59    0.66
  11  17  -8    3.82    0.76
  17 -11   8    2.94    0.53
  11  17  -6    0.21    0.46
 -17 -11  -6    0.07    0.32
 -11 -17  -6   -0.28    0.33
 -11  17   6    0.72    0.45
  17 -11   6   -0.32    0.33
  11 -17   6    0.74    0.42
  11  17  -4    2.10    0.59
 -17 -11  -4    2.36    0.49
 -11 -17  -4    1.79    0.47
  17 -11   4    1.67    0.43
  11 -17   4    2.86    0.55
 -17 -11  -2    7.54    0.77
  11  17  -2    8.11    0.90
 -11 -17  -2    6.43    0.73
  17 -11   2    6.50    0.69
  11 -17   2    6.97    0.75
  11  17   0    1.23    0.55
 -17 -11   0    1.44    0.40
 -11 -17   0    1.10    0.38
  17 -11   0    1.27    0.40
  11 -17   0    1.36    0.46
 -17  11  -2    6.24    0.78
 -17 -11   2    7.29    0.74
  11  17   2    6.67    0.83
 -11 -17   2    6.91    0.74
  17 -11  -2    7.09    0.70
  11 -17  -2    7.08    0.75
 -17  11  -4    2.60    0.58
 -17 -11   4    2.41    0.44
  11  17   4    2.58    0.60
 -11 -17   4    2.57    0.51
 -17  11  -4    2.83    0.55
  17  11   4    1.74    0.49
  17 -11  -4    2.09    0.46
  11 -17  -4    3.52    0.58
 -17  11  -6   -0.14    0.38
 -17  11  -6    0.12    0.35
 -17 -11   6    0.36    0.28
  11  17   6    0.34    0.41
  17 -11  -6   -0.24    0.30
  11 -17  -6    0.45    0.37
  17  11   6    0.23    0.38
 -17  11  -8    4.49    0.70
 -17 -11   8    3.50    0.50
  11  17   8    3.64    0.68
  17 -11  -8    2.71    0.51
  11 -17  -8    2.49    0.51
 -17  11 -10    3.35    0.58
  11  17  10    5.45    0.77
  17 -11 -10    4.53    0.64
 -17  11 -12    0.57    0.40
  11  17  12    0.94    0.54
  17 -12  11    5.30    0.69
  17 -12   9    3.42    0.56
 -17 -12  -7    4.27    0.64
 -12 -17  -7    3.35    0.60
 -12  17   7    4.38    0.65
  12  17  -7    4.43    0.77
  17 -12   7    2.93    0.53
  12 -17   7    3.31    0.58
 -17 -12  -5    2.14    0.49
 -12 -17  -5    2.17    0.48
 -12  17   5    2.49    0.52
  17 -12   5    1.93    0.46
  12 -17   5    1.35    0.45
  12  17  -5    2.49    0.68
  12  17  -3    1.06    0.52
 -17 -12  -3    0.93    0.37
 -12 -17  -3    1.15    0.40
  17 -12   3    0.99    0.37
  12 -17   3    0.95    0.41
  12  17  -1    1.52    0.56
 -17 -12  -1    0.74    0.36
 -12 -17  -1    1.56    0.47
  17 -12   1    1.76    0.44
  12 -17   1    1.31    0.43
  12  17   1    1.48    0.54
 -17 -12   1    1.79    0.44
 -12 -17   1    0.74    0.36
  17 -12  -1    1.26    0.40
  12 -17  -1    0.57    0.36
  12  17   3    2.42    0.62
 -17 -12   3    1.71    0.41
 -12 -17   3    1.26    0.42
  17 -12  -3    1.14    0.42
  12 -17  -3    0.73    0.38
  17  12   3    0.91    0.48
  12  17   5    1.06    0.52
 -17 -12   5    2.23    0.44
 -12 -17   5    1.50    0.43
 -17  12  -5    1.83    0.54
  17 -12  -5    1.79    0.45
  12 -17  -5    1.98    0.49
  17  12   5    1.38    0.47
 -17  12  -7    4.99    0.74
  12  17   7    4.74    0.74
 -17 -12   7    5.18    0.61
 -12 -17   7    3.61    0.56
  17 -12  -7    4.33    0.62
  12 -17  -7    4.27    0.64
  17  12   7    4.39    0.64
  12  17   9    3.29    0.66
 -17 -12   9    1.98    0.42
  17 -12  -9    3.18    0.57
  12  17  11    5.13    0.79
 -17  12 -13    1.79    0.51
  17 -13   8    2.64    0.53
  17 -13   6    0.88    0.38
 -17 -13  -4    0.56    0.39
 -13 -17  -4    1.20    0.43
  17 -13   4    0.93    0.38
  13 -17   4    1.96    0.53
  13  17  -4    1.19    0.54
  13  17  -2    2.57    0.66
 -17 -13  -2    2.98    0.54
 -13 -17  -2    1.43    0.42
  17 -13   2    2.63    0.51
  13 -17   2    2.33    0.49
  13  17   0    0.09    0.48
 -17 -13   0   -0.30    0.32
 -13 -17   0   -0.32    0.32
  17  13   0   -0.41    0.50
  17 -13   0    0.67    0.38
  13 -17   0    0.31    0.38
  13  17   2    3.61    0.66
 -17 -13   2    2.66    0.50
 -13 -17   2    2.03    0.45
  17 -13  -2    2.62    0.52
  13 -17  -2    1.41    0.45
  17  13   2    1.82    0.58
  13  17   4    2.55    0.62
 -17 -13   4    1.73    0.41
 -13 -17   4    1.48    0.41
  17 -13  -4    2.09    0.49
  13 -17  -4    1.83    0.47
  17  13   4    1.66    0.51
  13  17   6   -0.10    0.49
 -17 -13   6    0.93    0.35
 -13 -17   6    0.85    0.38
  17 -13  -6    1.25    0.42
  17  13   6    0.03    0.41
  13  17   8    2.74    0.63
 -17 -13   8    2.16    0.45
  13  17  10    3.47    0.71
 -17 -13  10    3.64    0.54
  17 -14   5    2.36    0.52
  17 -14   3    2.93    0.54
 -17 -14  -1    1.17    0.43
  17  14  -1    0.88    0.53
  17 -14   1    1.27    0.45
  14  17   1    1.15    0.58
 -17 -14   1    0.86    0.36
  17 -14  -1    1.22    0.43
  17  14   1    0.75    0.49
  14  17   3    3.92    0.71
 -17 -14   3    3.49    0.56
  17 -14  -3    2.61    0.54
  17  14   3    2.95    0.63
  14  17   5    2.60    0.64
 -17 -14   5    1.81    0.43
  17  14   5    1.53    0.56
  14  17   7    0.90    0.52
 -17 -14   7    2.03    0.45
  17  14   7    1.96    0.58
  14  17   9   -0.40    0.50
 -17 -14   9    0.02    0.27
  17  15   2    7.12    0.90
  17  15   4    1.92    0.60
  17  15   6    2.13    0.65
 -18   0   0    4.42    0.48
   0  18   0    4.71    0.47
   0 -18   0    4.51    0.52
 -18   0   0    4.16    0.66
 -18   0  -2    1.16    0.31
   0  18  -2    1.08    0.30
 -18   0  -2    1.20    0.48
 -18   0   2    0.92    0.33
   0  18   2    0.97    0.28
 -18   0   2    1.82    0.53
   0  18  -2    1.58    0.29
   0 -18  -2    1.43    0.35
   0 -18   2    1.89    0.40
   0 -18   4    0.83    0.33
 -18   0  -4    0.63    0.30
   0  18  -4   -0.27    0.27
   0 -18  -4    0.10    0.27
 -18   0   4    0.52    0.40
 -18   0   4   -0.18    0.28
   0  18   4   -0.17    0.24
 -18   0  -4   -0.21    0.39
   0  18  -4    0.00    0.17
   0 -18  -4    0.59    0.30
 -18   0  -6    0.06    0.25
   0 -18   6    0.35    0.29
   0  18  -6    0.05    0.24
 -18   0  -6    0.11    0.40
 -18   0   6    0.11    0.39
   0 -18  -6    0.24    0.26
   0  18  -6    1.08    0.48
 -18   0   6    0.09    0.22
   0  18   6    0.47    0.27
   0 -18  -6    0.39    0.27
   0  18  -8    2.00    0.42
 -18   0   8    2.60    0.56
   0 -18  -8    1.94    0.37
   0  18  -8    2.64    0.60
 -18   0   8    1.48    0.33
   0  18   8    2.05    0.40
   0 -18  -8    2.19    0.41
 -18   0   8    1.58    0.31
   0 -18  -8    0.79    0.34
 -18   0  -8    2.28    0.53
 -18   0  -8    2.00    0.46
   0  18 -10    1.43    0.44
 -18   0  10    1.37    0.49
 -18   0 -10    2.10    0.52
   0 -18 -10    0.97    0.33
   0  18 -10    1.69    0.51
   0 -18 -10    1.56    0.39
   0  18  10    1.43    0.38
 -18   0 -10    1.16    0.44
 -18   0  10    1.48    0.30
   0 -18 -10    0.89    0.43
 -18   0 -10    1.32    0.40
 -18   0  12    0.79    0.46
   0  18 -12    0.87    0.40
   0  18 -12    0.94    0.47
   0 -18 -12    1.45    0.38
   0 -18 -12    1.41    0.41
   0  18  12    0.94    0.38
 -18   0 -12    1.97    0.52
   0 -18 -12    0.77    0.45
 -18   0 -12    1.70    0.45
   0  18 -14    0.87    0.51
 -18   0  14    0.70    0.42
   0  18 -14    1.36    0.45
   0 -18 -14    1.23    0.36
   0  18  14    1.15    0.43
 -18   0 -14    1.53    0.49
   0 -18 -14    1.00    0.51
 -18   0 -14    1.06    0.41
 -18   0  16    0.68    0.47
   0  18 -16   -0.42    0.40
   0  18  16   -0.40    0.35
   0 -18 -16   -0.05    0.46
   0  18 -16    0.50    0.45
  -1 -18 -17    0.66    0.50
   1  18 -15    0.07    0.39
  -1 -18 -15    0.84    0.33
  -1  18  15    1.24    0.44
 -18  -1 -15    1.46    0.50
  -1 -18 -15   -0.24    0.51
 -18  -1 -15    0.93    0.42
   1  18 -15    0.53    0.45
 -18   1  15    0.39    0.37
 -18   1  13    0.78    0.42
   1  18 -13   -0.24    0.52
   1  18 -13   -0.05    0.35
  -1 -18 -13    0.82    0.36
  -1  18  13    0.67    0.38
 -18   1  13    0.30    0.25
  -1 -18 -13   -0.08    0.43
 -18  -1 -13    0.26    0.35
 -18   1  11    1.55    0.49
   1  18 -11    1.63    0.47
   1  18 -11    0.62    0.45
  -1 -18 -11    1.98    0.43
  -1 -18 -11    1.54    0.40
  -1  18  11    1.17    0.42
 -18   1  11    1.88    0.37
  -1 -18 -11    1.08    0.47
 -18  -1 -11    1.80    0.47
 -18  -1  -9    0.60    0.34
 -18   1   9   -0.21    0.39
   1  18  -9    0.10    0.32
 -18  -1  -9    0.62    0.49
  -1 -18  -9    0.21    0.28
   1  18  -9    0.11    0.46
 -18   1   9    0.26    0.22
  -1 -18  -9    0.37    0.28
  -1  18   9    0.62    0.34
 -18   1   9   -0.14    0.27
  -1 -18  -9    0.43    0.37
 -18  -1  -7    1.24    0.36
   1 -18   7    1.32    0.36
   1  18  -7    2.25    0.44
 -18   1   7    0.96    0.42
  -1 -18  -7    2.01    0.40
   1  18  -7    1.80    0.53
 -18   1   7    1.55    0.37
  -1 -18  -7    1.99    0.39
  -1  18   7    2.45    0.43
  -1 -18  -7    1.47    0.39
 -18  -1  -7    1.66    0.49
   1 -18   5    2.71    0.46
 -18  -1  -5    3.48    0.49
   1  18  -5    2.17    0.41
 -18  -1  -5    3.14    0.62
 -18   1   5    2.95    0.60
  -1 -18  -5    3.22    0.48
 -18   1   5    2.28    0.42
   1  18  -5    3.42    0.62
  -1  18   5    3.00    0.44
  -1 -18  -5    2.92    0.45
 -18  -1  -3    4.52    0.53
   1  18  -3    6.59    0.60
 -18   1   3    5.99    0.74
 -18   1   3    5.51    0.63
  -1  18   3    5.29    0.53
  -1 -18  -3    5.64    0.57
 -18  -1  -3    5.85    0.72
   1 -18   3    5.31    0.59
 -18  -1  -1    1.85    0.38
   1  18  -1    1.55    0.36
 -18  -1  -1    0.39    0.43
 -18   1   1    2.02    0.44
 -18   1   1    1.46    0.48
   1  18  -1    1.51    0.29
  -1  18   1    1.58    0.35
  -1 -18  -1    1.19    0.35
   1 -18   1    2.00    0.40
 -18   1   1    1.32    0.29
 -18  -1   1    0.64    0.45
 -18  -1   1    0.79    0.27
  -1  18  -1    1.80    0.32
 -18   1  -1    1.79    0.43
   1  18   1    1.34    0.29
  -1  18  -1    1.13    0.29
 -18   1  -1    1.09    0.46
   1 -18  -1    1.11    0.34
  -1 -18   1    1.46    0.35
 -18   1  -1    1.50    0.34
  -1  18  -3    5.06    0.52
 -18   1  -3    4.27    0.66
   1  18   3    5.32    0.51
 -18   1  -3    4.86    0.64
  -1  18  -3    5.33    0.49
   1 -18  -3    5.63    0.59
 -18  -1   3    4.78    0.67
 -18   1  -3    5.14    0.56
  -1 -18   3    5.49    0.56
  -1 -18   5    2.93    0.45
  -1  18  -5    2.79    0.44
   1 -18  -5    3.68    0.48
 -18   1  -5    3.30    0.56
 -18  -1   5    3.39    0.49
   1  18   5    3.34    0.45
 -18  -1   5    3.04    0.56
 -18   1  -5    4.28    0.66
   1 -18  -5    3.77    0.51
 -18   1  -5    3.80    0.51
  -1 -18   7    2.06    0.40
 -18   1  -7    1.74    0.49
  -1  18  -7    1.63    0.38
   1 -18  -7    1.77    0.37
 -18  -1   7    2.45    0.56
  -1  18  -7    3.21    0.59
 -18  -1   7    2.22    0.39
 -18   1  -7    1.59    0.45
   1  18   7    2.11    0.40
   1 -18  -7    2.46    0.43
 -18   1  -7    2.48    0.45
  -1  18  -9    0.15    0.30
   1 -18  -9    0.25    0.25
 -18  -1   9    0.43    0.38
  -1  18  -9    0.60    0.46
 -18  -1   9    0.63    0.26
   1  18   9    0.25    0.26
 -18   1  -9    0.28    0.33
   1 -18  -9    0.67    0.32
 -18  -1   9   -0.03    0.17
   1 -18  -9    0.08    0.34
 -18   1  -9    1.80    0.49
 -18   1  -9    0.40    0.30
  -1  18 -11    1.00    0.39
   1 -18 -11    1.29    0.34
 -18  -1  11    0.91    0.44
  -1  18 -11    1.75    0.55
   1 -18 -11    1.83    0.42
   1  18  11    1.65    0.40
 -18   1 -11    1.07    0.45
 -18   1 -11    1.98    0.55
   1 -18 -11    1.07    0.44
 -18   1 -11    1.19    0.40
  -1  18 -13   -0.11    0.46
  -1  18 -13    0.71    0.41
   1 -18 -13    0.26    0.27
 -18  -1  13    0.24    0.40
   1  18  13    0.31    0.31
 -18   1 -13    0.30    0.32
   1 -18 -13    0.17    0.44
 -18   1 -13    0.53    0.36
  -1  18 -15    1.29    0.51
  -1  18 -15    0.73    0.40
 -18  -1  15    1.11    0.47
   1  18  15    0.53    0.36
 -18   1 -15    0.16    0.35
   1 -18 -15    0.17    0.49
 -18   1 -15    1.12    0.45
 -18  -1  17    0.06    0.41
   1 -18 -17    0.14    0.48
  -2 -18 -16    2.48    0.49
  -2  18  16    1.99    0.58
  -2 -18 -16    1.30    0.58
   2  18 -16    1.04    0.51
   2  18 -14    1.87    0.53
   2  18 -14    1.21    0.47
  -2 -18 -14    0.94    0.35
  -2  18  14    1.04    0.40
 -18   2  14    1.86    0.40
  -2 -18 -14    0.84    0.47
 -18   2  14    1.73    0.53
 -18  -2 -14    1.30    0.44
 -18  -2 -12    2.39    0.54
   2  18 -12    1.69    0.54
   2  18 -12    0.88    0.40
  -2 -18 -12    1.35    0.37
  -2  18  12    1.30    0.41
 -18   2  12    1.50    0.36
  -2 -18 -12    2.07    0.52
 -18   2  12    1.38    0.49
 -18  -2 -10    2.19    0.49
   2  18 -10    2.07    0.48
   2  18 -10    2.09    0.56
  -2 -18 -10    3.27    0.49
  -2 -18 -10    2.55    0.43
  -2  18  10    2.02    0.48
 -18   2  10    1.82    0.39
  -2 -18 -10    1.18    0.45
 -18   2  10    1.64    0.50
   2  18  -8   10.02    0.95
   2 -18   8    9.36    0.79
   2  18  -8    8.35    0.77
 -18   2   8    9.62    0.75
  -2 -18  -8   10.11    0.82
 -18  -2  -8   10.26    0.92
  -2 -18  -8   10.00    0.75
  -2  18   8    8.77    0.76
 -18   2   8    8.92    0.90
  -2 -18  -8    8.45    0.72
 -18  -2  -8    9.80    0.83
   2  18  -6   10.93    0.83
   2  18  -6   10.63    0.96
 -18   2   6   10.71    0.81
  -2 -18  -6   11.44    0.85
  -2 -18  -6   10.26    0.74
  -2  18   6   10.73    0.80
 -18   2   6    9.52    0.92
   2 -18   6    9.64    0.78
 -18  -2  -6   10.87    0.85
 -18  -2  -6   12.11    0.99
   2 -18   4    3.93    0.52
 -18  -2  -4    4.33    0.54
   2  18  -4    4.52    0.53
 -18   2   4    4.19    0.69
 -18  -2  -4    4.98    0.70
  -2 -18  -4    5.55    0.61
 -18   2   4    4.62    0.58
   2  18  -4    5.89    0.76
  -2  18   4    4.39    0.53
  -2 -18  -4    4.76    0.53
   2  18  -2   12.71    0.82
 -18   2   2   13.08    0.94
 -18  -2  -2   14.66    1.07
  -2  18   2   13.01    0.83
  -2 -18  -2   13.08    0.84
 -18   2   2   14.36    1.09
   2 -18   2   12.77    0.88
 -18  -2  -2   13.38    0.87
 -18  -2   0   22.96    1.11
 -18  -2   0   19.46    1.25
 -18   2   0   21.54    1.25
  18  -2   0   21.71    0.92
  -2  18   0   23.28    1.10
  -2 -18   0   20.76    1.06
   2 -18   0   21.54    1.14
 -18   2   0   23.90    1.35
 -18   2   0   23.14    1.04
 -18  -2   2   12.92    0.78
  -2  18  -2   13.48    0.76
 -18  -2   2   13.65    1.04
 -18   2  -2   14.40    1.02
  18  -2  -2   11.32    0.67
   2  18   2   12.96    0.75
   2 -18  -2   14.29    0.92
  -2  18  -2   13.19    0.79
  -2 -18   2   11.97    0.82
 -18   2  -2   13.59    0.82
 -18   2  -2   14.08    1.04
  -2 -18   4    4.29    0.50
 -18   2  -4    4.56    0.65
  -2  18  -4    4.09    0.46
 -18   2  -4    3.40    0.57
   2  18   4    4.11    0.46
   2 -18  -4    3.96    0.52
 -18  -2   4    4.18    0.64
 -18   2  -4    3.31    0.47
  -2  18  -6   10.72    0.77
 -18   2  -6   10.64    0.92
   2 -18  -6    9.61    0.74
 -18   2  -6   11.69    0.97
   2  18   6    9.99    0.74
   2 -18  -6    9.74    0.79
 -18  -2   6   10.99    0.94
 -18   2  -6   11.89    0.84
  -2 -18   6    9.94    0.76
  -2  18  -8    8.84    0.75
  -2  18  -8   10.68    0.92
   2 -18  -8    8.37    0.69
 -18   2  -8    9.18    0.89
 -18  -2   8   10.61    0.78
   2  18   8    8.96    0.74
   2 -18  -8    9.47    0.79
 -18   2  -8   10.35    0.89
 -18  -2   8    8.75    0.87
 -18   2  -8    8.58    0.78
 -18   2 -10    1.43    0.52
  -2  18 -10    1.75    0.43
   2 -18 -10    2.01    0.38
  -2  18 -10    2.47    0.56
 -18   2 -10    2.60    0.56
 -18  -2  10    2.04    0.54
   2  18  10    2.57    0.45
   2 -18 -10    2.01    0.44
 -18   2 -10    2.84    0.50
 -18   2 -12    2.21    0.55
  -2  18 -12    0.84    0.40
   2 -18 -12    1.15    0.33
  -2  18 -12    2.00    0.55
 -18  -2  12    1.21    0.46
   2 -18 -12    1.64    0.44
 -18   2 -12    0.93    0.42
   2  18  12    2.04    0.46
 -18   2 -12    2.51    0.49
  -2  18 -14    0.20    0.47
  -2  18 -14    1.30    0.44
 -18  -2  14    1.21    0.47
 -18   2 -14    1.11    0.46
   2  18  14    1.52    0.44
 -18   2 -14    1.42    0.42
  -2  18 -16    1.21    0.48
 -18  -2  16    1.47    0.53
   2  18  16    0.76    0.41
  -3 -18 -17    0.55    0.37
   3  18 -17   -0.10    0.48
   3  18 -15    5.15    0.74
  -3 -18 -15    2.86    0.51
  -3  18  15    5.50    0.72
 -18   3  15    4.40    0.60
  -3 -18 -15    4.62    0.75
   3  18 -15    3.91    0.69
 -18  -3 -13    0.96    0.41
   3  18 -13    0.23    0.46
   3  18 -13    0.57    0.42
  -3 -18 -13    0.64    0.33
  -3  18  13   -0.19    0.32
 -18   3  13    0.66    0.33
  -3 -18 -13    1.06    0.52
 -18  -3 -11    4.94    0.67
   3  18 -11    4.31    0.63
   3  18 -11    4.96    0.72
  -3 -18 -11    4.55    0.59
  -3  18  11    4.31    0.60
 -18   3  11    3.64    0.51
  -3 -18 -11    5.17    0.66
   3  18  -9   12.59    0.97
 -18   3   9   12.58    0.85
  -3 -18  -9   12.48    0.92
  -3 -18  -9   13.17    0.85
  -3  18   9   13.52    0.98
 -18   3   9   13.00    1.07
 -18   3   9   12.89    0.89
  -3 -18  -9   13.80    0.94
   3  18  -9   15.03    1.11
 -18  -3  -9   14.73    1.05
   3 -18   7    0.79    0.36
 -18  -3  -7   -0.08    0.30
   3  18  -7    0.16    0.31
   3  18  -7    0.19    0.46
  -3 -18  -7   -0.15    0.29
 -18   3   7    0.40    0.27
 -18  -3  -7    0.46    0.44
  -3 -18  -7    0.46    0.27
  -3  18   7    0.49    0.29
  -3 -18  -7    0.42    0.37
 -18   3   7    0.41    0.39
   3  18  -5    7.87    0.71
   3  18  -5    8.08    0.89
 -18  -3  -5    6.72    0.78
 -18   3   5    7.51    0.69
  -3 -18  -5    6.40    0.66
  -3 -18  -5    8.79    0.66
  -3  18   5    8.34    0.71
 -18   3   5    8.85    0.88
   3 -18   5    7.09    0.68
 -18  -3  -5    8.35    0.75
 -18  -3  -3   45.50    1.76
   3  18  -3   42.03    1.67
   3  18  -3   43.30    1.92
 -18   3   3   41.57    1.77
  -3 -18  -3   40.07    1.72
  18  -3   3   42.22    1.45
  -3 -18  -3   42.48    1.58
  -3  18   3   42.20    1.66
 -18   3   3   41.56    1.90
 -18  -3  -3   44.35    1.91
   3 -18   3   42.41    1.73
 -18  -3  -1    3.35    0.61
 -18  -3  -1    3.35    0.45
 -18   3   1    2.62    0.56
 -18   3   1    2.66    0.48
  18  -3   1    2.88    0.37
  -3  18   1    3.14    0.44
  -3 -18  -1    2.72    0.41
   3 -18   1    2.14    0.44
 -18  -3   1    2.05    0.36
 -18   3  -1    2.59    0.55
 -18   3  -1    2.88    0.50
  18  -3  -1    3.32    0.39
 -18  -3   1    2.70    0.57
  -3  18  -1    2.86    0.41
   3 -18  -1    2.86    0.48
  -3 -18   1    2.63    0.40
 -18   3  -1    3.51    0.43
 -18  -3   3   40.77    1.52
 -18  -3   3   39.14    1.82
 -18   3  -3   40.17    1.83
  18  -3  -3   39.44    1.43
   3  18   3   40.39    1.45
   3 -18  -3   43.32    1.72
  -3 -18   3   39.60    1.54
 -18   3  -3   41.44    1.58
 -18   3  -3   40.95    1.81
 -18   3  -5    7.79    0.80
  -3  18  -5    7.21    0.61
 -18  -3   5    6.71    0.78
 -18   3  -5    8.17    0.81
   3 -18  -5    7.74    0.66
   3  18   5    7.42    0.60
   3 -18  -5    6.57    0.66
 -18   3  -5    7.63    0.68
  -3 -18   5    8.56    0.68
  -3 -18   7    0.53    0.31
  -3  18  -7   -0.02    0.27
   3 -18  -7    0.11    0.23
 -18   3  -7   -0.10    0.32
   3  18   7    0.45    0.29
 -18   3  -7    0.06    0.42
   3 -18  -7    0.53    0.32
 -18   3  -7    0.14    0.27
 -18  -3   7   -0.37    0.42
  -3  18  -9   13.61    0.94
  -3  18  -9   14.09    1.01
   3 -18  -9   11.21    0.78
 -18   3  -9   14.33    1.09
   3  18   9   12.95    0.88
   3 -18  -9   11.91    0.91
 -18   3  -9   14.91    1.04
 -18   3  -9   13.93    0.98
 -18  -3   9   10.74    0.95
 -18   3 -11    4.36    0.63
  -3  18 -11    4.90    0.62
  -3  18 -11    4.23    0.65
 -18   3 -11    4.87    0.70
   3  18  11    3.23    0.51
   3 -18 -11    4.36    0.59
 -18  -3  11    4.04    0.66
 -18   3 -11    4.53    0.62
  -3  18 -13    0.97    0.39
  -3  18 -13    0.22    0.44
 -18   3 -13    1.35    0.47
   3 -18 -13    0.58    0.34
 -18   3 -13    0.46    0.38
   3  18  13    0.50    0.33
 -18  -3  13    0.30    0.38
 -18   3 -13    0.24    0.31
  -3  18 -15    4.12    0.66
 -18   3 -15    4.52    0.68
   3  18  15    3.85    0.61
 -18  -3  15    2.79    0.62
   3  18  17    0.64    0.40
 -18  -3  17    0.91    0.45
  -4 -18 -18    0.47    0.34
  -4 -18 -16    3.53    0.57
 -18   4  16    1.90    0.46
   4  18 -16    2.55    0.61
  -4 -18 -16    3.57    0.71
 -18  -4 -14    3.34    0.64
   4  18 -14    3.25    0.61
  -4 -18 -14    2.59    0.51
  -4  18  14    4.55    0.67
 -18   4  14    1.88    0.39
  -4 -18 -14    3.39    0.67
   4  18 -14    2.75    0.64
 -18  -4 -12    0.71    0.40
   4  18 -12    0.04    0.48
   4  18 -12    0.18    0.35
  -4 -18 -12    0.07    0.29
  -4  18  12    1.03    0.40
 -18   4  12    0.74    0.30
  -4 -18 -12    0.82    0.52
 -18  -4 -10    1.44    0.43
   4  18 -10    1.22    0.42
   4  18 -10    1.11    0.50
  -4 -18 -10    0.66    0.30
  -4  18  10    1.13    0.38
 -18   4  10    1.48    0.37
  -4 -18 -10    2.04    0.50
   4  18  -8    8.80    0.81
 -18   4   8    8.30    0.71
  -4 -18  -8    7.30    0.72
  -4 -18  -8    8.69    0.67
  -4  18   8    9.39    0.79
  -4 -18  -8    7.30    0.71
   4  18  -8   10.32    0.97
   4 -18   8    6.99    0.70
 -18  -4  -8    6.81    0.73
   4 -18   6    5.53    0.62
 -18  -4  -6    5.58    0.65
   4  18  -6    5.70    0.64
 -18   4   6    5.04    0.58
   4  18  -6    4.52    0.74
  -4 -18  -6    5.51    0.64
  -4 -18  -6    6.16    0.56
 -18   4   6    5.43    0.75
  -4  18   6    5.85    0.64
  18  -4   6    5.83    0.52
  -4 -18  -6    6.35    0.63
 -18  -4  -6    6.17    0.77
 -18  -4  -4    3.63    0.51
   4  18  -4    3.34    0.52
 -18  -4  -4    5.72    0.73
  -4 -18  -4    3.51    0.52
 -18   4   4    5.00    0.60
   4  18  -4    3.48    0.65
  18  -4   4    5.19    0.49
  -4 -18  -4    3.97    0.46
  -4  18   4    3.14    0.49
 -18   4   4    4.03    0.66
   4 -18   4    4.82    0.59
 -18  -4  -2   17.73    1.04
   4  18  -2   16.40    0.99
   4  18  -2   19.20    1.26
 -18   4   2   18.11    1.12
  -4 -18  -2   16.82    1.08
  18  -4   2   16.42    0.86
  -4 -18  -2   18.10    0.94
  -4  18   2   17.80    1.04
 -18   4   2   17.92    1.21
 -18  -4  -2   18.08    1.20
   4 -18   2   16.84    1.04
 -18  -4   0   13.25    0.86
 -18   4   0   13.85    0.99
  18  -4   0   12.30    0.75
 -18  -4   0   12.49    1.00
  -4  18   0   12.51    0.84
  -4 -18   0   12.44    0.78
 -18   4   0   14.56    1.08
   4 -18   0   13.07    0.91
 -18  -4   2   16.94    0.96
 -18   4  -2   17.43    1.16
 -18  -4   2   16.41    1.16
  18  -4  -2   17.30    0.90
   4 -18  -2   17.81    1.06
  -4 -18   2   15.97    0.90
 -18   4  -2   19.29    1.21
 -18  -4   4    3.88    0.45
 -18   4  -4    3.73    0.59
  18  -4  -4    4.18    0.46
 -18  -4   4    4.00    0.64
 -18   4  -4    4.71    0.65
   4 -18  -4    3.38    0.52
 -18   4  -4    4.62    0.52
  -4 -18   4    4.26    0.48
  -4 -18   6    4.60    0.51
 -18   4  -6    5.71    0.70
  -4  18  -6    4.99    0.52
 -18  -4   6    5.62    0.73
   4 -18  -6    5.88    0.56
 -18   4  -6    6.70    0.74
   4  18   6    4.71    0.51
   4 -18  -6    5.88    0.64
 -18   4  -6    5.86    0.60
 -18  -4   8    9.54    0.91
  -4  18  -8    8.21    0.71
   4 -18  -8    9.07    0.68
 -18   4  -8    8.75    0.87
 -18   4  -8    8.64    0.82
   4  18   8    7.72    0.68
   4 -18  -8    7.49    0.73
 -18   4  -8    7.77    0.73
 -18  -4  10    0.87    0.44
  -4  18 -10    1.61    0.44
 -18   4 -10    1.78    0.50
  -4  18 -10    1.57    0.49
 -18   4 -10    1.90    0.49
   4  18  10    1.63    0.40
   4 -18 -10    1.19    0.40
  -4  18 -12    0.86    0.39
  -4  18 -12    0.59    0.43
 -18   4 -12    1.37    0.49
 -18   4 -12    0.52    0.39
   4  18  12    0.80    0.37
   4 -18 -12    0.42    0.34
 -18  -4  12    0.46    0.40
  -4  18 -14    3.48    0.61
   4 -18 -14    3.36    0.58
 -18   4 -14    1.96    0.53
   4  18  14    2.99    0.53
 -18  -4  14    3.11    0.59
  -4  18 -16    2.11    0.55
   4  18  16    2.43    0.52
 -18  -4  16    2.08    0.55
  -5 -18 -15   -0.09    0.32
 -18   5  15    0.19    0.31
  -5 -18 -15    0.36    0.51
   5  18 -15   -0.70    0.55
 -18  -5 -13    3.21    0.59
   5  18 -13    2.66    0.57
  -5 -18 -13    2.98    0.54
  -5  18  13    3.20    0.59
 -18   5  13    2.88    0.49
  -5 -18 -13    3.61    0.66
   5  18 -13    4.32    0.78
 -18  -5 -11    1.13    0.41
   5  18 -11    2.37    0.62
   5  18 -11    1.50    0.47
  -5 -18 -11    1.36    0.41
  -5  18  11    1.51    0.45
 -18   5  11    0.94    0.36
   5 -18   9    1.12    0.40
 -18  -5  -9    1.37    0.42
   5  18  -9    0.99    0.37
   5  18  -9    0.20    0.46
 -18   5   9    1.14    0.33
  -5 -18  -9    1.45    0.41
  -5  18   9    0.11    0.29
 -18   5   9    0.51    0.29
  18  -5   9    0.53    0.26
   5 -18   7    2.66    0.49
 -18  -5  -7    2.35    0.45
   5  18  -7    3.41    0.54
 -18   5   7    2.96    0.46
   5  18  -7    2.68    0.65
  -5 -18  -7    3.04    0.52
  -5  18   7    3.25    0.53
  18  -5   7    3.15    0.41
   5 -18   5    1.32    0.40
   5  18  -5    1.30    0.40
 -18  -5  -5    1.29    0.39
 -18   5   5    1.95    0.43
   5  18  -5    2.39    0.62
  -5 -18  -5    1.58    0.42
 -18  -5  -5    1.59    0.53
  -5 -18  -5    1.81    0.33
  -5  18   5    1.29    0.38
  18  -5   5    1.24    0.33
 -18  -5  -3    8.64    0.75
   5  18  -3    9.74    0.80
 -18   5   3   10.05    0.85
 -18  -5  -3    9.25    0.91
  -5 -18  -3    9.31    0.81
   5  18  -3    8.33    0.90
  -5 -18  -3    9.93    0.67
 -18   5   3   11.61    0.99
  18  -5   3    8.99    0.67
  -5  18   3   10.27    0.80
   5 -18   3    9.43    0.80
 -18   5   1    0.36    0.44
 -18  -5  -1    1.27    0.35
 -18   5   1    1.08    0.38
  -5 -18  -1    0.57    0.32
   5  18  -1    1.71    0.58
  18  -5   1    0.78    0.29
  -5  18   1    0.75    0.30
  -5 -18  -1    0.79    0.26
 -18  -5  -1    1.09    0.54
   5 -18   1    1.32    0.40
 -18  -5   1    0.95    0.29
 -18   5  -1    0.67    0.43
 -18  -5   1    1.38    0.49
 -18   5  -1    0.12    0.28
  18  -5  -1    0.81    0.30
   5 -18  -1    1.11    0.38
  -5 -18   1    0.69    0.26
 -18  -5   3    8.73    0.68
 -18   5  -3    7.96    0.80
  18  -5  -3    7.57    0.62
 -18  -5   3    9.79    0.91
   5 -18  -3    9.66    0.80
 -18   5  -3    8.31    0.82
  -5 -18   3    8.94    0.65
  -5 -18   5    1.84    0.36
 -18  -5   5    1.05    0.29
 -18   5  -5    1.84    0.46
  18  -5  -5    0.72    0.32
 -18   5  -5    1.82    0.48
   5 -18  -5    0.65    0.35
 -18  -5   5    1.40    0.51
  -5 -18   7    2.89    0.41
 -18   5  -7    1.70    0.47
  -5  18  -7    2.65    0.44
   5 -18  -7    3.27    0.42
 -18   5  -7    4.02    0.62
 -18  -5   7    1.58    0.49
   5 -18  -7    3.10    0.51
  -5  18  -9    0.76    0.32
 -18   5  -9    1.52    0.48
 -18  -5   9    0.82    0.44
   5  18   9    0.92    0.32
   5 -18  -9    0.87    0.38
 -18   5  -9    1.14    0.43
  -5  18 -11    1.86    0.45
 -18  -5  11    1.29    0.48
 -18   5 -11    1.82    0.50
  -5  18 -11    0.86    0.44
 -18   5 -11    1.81    0.49
   5  18  11    1.21    0.38
   5 -18 -11    1.80    0.46
 -18  -5  13    2.71    0.59
  -5  18 -13    2.33    0.53
 -18   5 -13    2.73    0.59
   5  18  13    3.19    0.55
   5 -18 -13    3.45    0.55
 -18  -5  15    0.20    0.40
  -5  18 -15    0.91    0.44
   5  18  15   -0.27    0.35
   5  18  17    2.35    0.54
  -6 -18 -16    2.07    0.67
  -6 -18 -14    0.48    0.34
 -18   6  14    0.88    0.35
   6  18 -14    1.22    0.56
   6  18 -12   10.84    1.00
  -6 -18 -12    9.82    0.91
  -6  18  12   10.11    0.94
 -18   6  12    9.30    0.84
   6  18 -12    9.94    1.01
 -18  -6 -12    8.77    0.91
   6 -18  10    0.20    0.31
 -18  -6 -10    0.34    0.31
   6  18 -10    0.89    0.52
   6  18 -10    0.27    0.34
  -6 -18 -10    1.20    0.41
  -6  18  10    0.38    0.32
 -18   6  10    0.62    0.32
  18  -6  10    0.27    0.27
   6 -18   8    3.76    0.56
 -18  -6  -8    3.04    0.54
   6  18  -8    3.30    0.57
 -18   6   8    3.14    0.49
   6  18  -8    2.97    0.63
  -6 -18  -8    3.56    0.55
  -6  18   8    3.41    0.54
  18  -6   8    4.05    0.50
   6 -18   6    4.54    0.58
   6  18  -6    4.72    0.61
 -18  -6  -6    3.67    0.56
 -18   6   6    3.84    0.54
   6  18  -6    4.53    0.73
  -6 -18  -6    4.47    0.59
  -6  18   6    3.37    0.53
  18  -6   6    4.22    0.49
   6  18  -4    4.11    0.57
 -18  -6  -4    4.00    0.54
 -18   6   4    3.80    0.55
   6  18  -4    4.50    0.72
  -6 -18  -4    4.26    0.57
  -6  18   4    4.75    0.59
  18  -6   4    4.28    0.48
 -18  -6  -4    4.05    0.65
   6 -18   4    4.37    0.58
 -18  -6  -2    6.51    0.80
 -18  -6  -2    5.82    0.63
 -18   6   2    6.35    0.70
  -6 -18  -2    6.32    0.68
   6  18  -2    5.14    0.75
 -18   6   2    7.56    0.83
  18  -6   2    6.00    0.57
  -6  18   2    6.04    0.64
   6 -18   2    4.89    0.61
 -18   6   0    1.52    0.47
 -18  -6   0    1.09    0.33
 -18  -6   0    1.37    0.46
 -18   6   0    2.00    0.45
  -6 -18   0    1.80    0.43
   6  18   0    2.84    0.65
  18  -6   0    1.36    0.33
   6 -18   0    1.76    0.43
 -18  -6   2    5.74    0.60
 -18   6  -2    6.52    0.73
  18  -6  -2    5.94    0.57
   6  18   2    6.62    0.82
 -18  -6   2    6.72    0.79
 -18   6  -2    8.55    0.84
  -6 -18   2    6.66    0.55
   6 -18  -2    6.17    0.67
 -18  -6   4    3.96    0.49
 -18  -6   4    3.96    0.64
 -18   6  -4    5.25    0.68
 -18   6  -4    3.41    0.57
  18  -6  -4    4.37    0.50
   6 -18  -4    3.60    0.54
  -6 -18   4    4.07    0.46
  -6 -18   6    4.21    0.48
 -18  -6   6    3.24    0.61
 -18   6  -6    4.00    0.62
   6 -18  -6    4.10    0.47
  18  -6  -6    3.53    0.49
 -18   6  -6    4.14    0.63
   6 -18  -6    3.44    0.54
 -18   6  -8    3.98    0.62
 -18   6  -8    3.84    0.62
   6 -18  -8    3.44    0.55
 -18  -6   8    1.94    0.51
  -6  18 -10    0.99    0.38
 -18   6 -10    1.23    0.41
  -6  18 -10    1.60    0.52
   6 -18 -10    0.88    0.40
 -18  -6  10    1.36    0.47
 -18   6 -10    0.40    0.38
  -6  18 -12    7.31    0.78
 -18   6 -12    9.79    0.95
 -18  -6  12   10.26    0.95
   6  18  12    8.83    0.79
   6 -18 -12   10.18    0.92
  -6  18 -14    0.43    0.39
   6  18  14    1.16    0.42
 -18  -6  14    0.85    0.48
   6  18  16    0.23    0.34
 -18  -6  16    0.53    0.43
  18  -7  13    3.74    0.55
  -7 -18 -13    5.30    0.71
 -18   7  13    4.48    0.63
   7  18 -13    4.81    0.80
  18  -7  11    0.86    0.35
 -18  -7 -11    1.57    0.47
   7  18 -11    1.25    0.46
  -7 -18 -11    1.57    0.45
  -7  18  11    0.64    0.38
 -18   7  11    1.57    0.41
   7  18 -11    2.17    0.60
   7 -18   9    0.03    0.30
   7  18  -9   -0.38    0.53
 -18  -7  -9    0.43    0.37
   7  18  -9   -0.35    0.39
  -7 -18  -9   -0.20    0.30
  -7  18   9    0.56    0.36
 -18   7   9    0.75    0.33
  18  -7   9   -0.42    0.28
 -18  -7  -7    8.42    0.81
   7  18  -7    7.77    0.78
 -18   7   7    7.72    0.75
   7  18  -7    7.40    0.87
  -7 -18  -7    8.32    0.80
  -7  18   7   10.24    0.88
  18  -7   7    8.43    0.69
   7 -18   7    7.57    0.76
   7  18  -5    2.29    0.48
 -18  -7  -5    2.24    0.45
 -18   7   5    1.67    0.41
   7  18  -5    2.11    0.58
  -7 -18  -5    1.69    0.41
  -7  18   5    2.30    0.47
  18  -7   5    2.81    0.45
   7 -18   5    1.62    0.43
 -18  -7  -3    3.16    0.51
 -18   7   3    2.04    0.46
   7  18  -3    2.78    0.63
  -7 -18  -3    2.56    0.49
  -7  18   3    4.03    0.55
  18  -7   3    2.65    0.43
   7 -18   3    2.39    0.49
 -18  -7  -1    4.73    0.58
 -18   7   1    5.61    0.69
   7  18  -1    3.66    0.67
  -7 -18  -1    4.37    0.59
 -18   7   1    4.64    0.70
  18  -7   1    5.29    0.54
 -18  -7  -1    4.94    0.73
   7 -18   1    4.59    0.60
 -18  -7   1    5.81    0.61
 -18   7  -1    5.77    0.70
  -7 -18   1    4.93    0.63
   7  18   1    5.44    0.76
  18  -7  -1    5.46    0.56
 -18  -7   1    4.70    0.70
   7 -18  -1    4.62    0.60
 -18   7  -1    6.71    0.79
 -18  -7   3    3.29    0.63
 -18   7  -3    2.38    0.52
 -18  -7   3    2.73    0.43
 -18   7  -3    3.03    0.55
   7  18   3    3.58    0.69
  18  -7  -3    2.80    0.46
   7 -18  -3    3.54    0.55
 -18  -7   5    2.23    0.40
 -18   7  -5    2.10    0.49
 -18   7  -5    2.19    0.53
  18  -7  -5    2.43    0.44
 -18  -7   5    2.13    0.54
   7 -18  -5    2.86    0.48
 -18   7  -7    9.61    0.93
 -18  -7   7    7.77    0.84
  18  -7  -7    7.38    0.69
   7 -18  -7    8.24    0.79
 -18   7  -7    8.76    0.82
 -18  -7   9    0.31    0.41
 -18   7  -9   -0.28    0.41
 -18   7  -9   -0.33    0.37
   7 -18  -9    0.16    0.33
 -18  -7  11    1.73    0.52
  -7  18 -11    0.49    0.32
 -18   7 -11    1.06    0.47
   7 -18 -11    1.34    0.44
 -18  -7  13    4.43    0.70
  -7  18 -13    5.46    0.69
 -18  -7  15    0.28    0.43
  -7  18 -15    0.56    0.41
  18  -8  14   -0.04    0.32
  18  -8  12    1.14    0.39
  -8 -18 -12    1.68    0.46
 -18   8  12    2.21    0.52
   8  18 -12    1.38    0.59
   8 -18  10    0.83    0.42
 -18  -8 -10    0.66    0.37
   8  18 -10    0.62    0.38
  -8 -18 -10    1.04    0.44
  -8  18  10    1.10    0.44
 -18   8  10    0.56    0.33
   8  18 -10    1.15    0.54
  18  -8  10    0.82    0.36
   8 -18   8    6.84    0.74
   8  18  -8    6.97    0.86
   8  18  -8    6.02    0.72
 -18  -8  -8    5.78    0.71
  -8 -18  -8    7.39    0.79
  -8  18   8    8.34    0.82
  18  -8   8    6.35    0.64
   8  18  -6    0.18    0.33
 -18  -8  -6    0.12    0.30
 -18   8   6    0.43    0.33
   8  18  -6   -0.33    0.50
  -8 -18  -6    0.03    0.29
  -8  18   6    0.43    0.30
  18  -8   6    0.49    0.31
   8 -18   6    0.20    0.35
 -18  -8  -4    8.18    0.78
 -18   8   4    8.54    0.81
   8  18  -4    6.18    0.83
  -8 -18  -4    7.66    0.78
  -8  18   4    7.80    0.77
  18  -8   4    7.68    0.68
   8 -18   4    7.22    0.74
 -18  -8  -2    6.74    0.70
 -18   8   2    7.34    0.77
  -8 -18  -2    7.01    0.76
   8  18  -2    5.96    0.79
  18  -8   2    8.35    0.71
   8 -18   2    6.99    0.74
 -18  -8   0    1.02    0.35
 -18   8   0    1.42    0.42
   8  18   0    1.51    0.53
  -8 -18   0    1.68    0.43
 -18  -8   0    1.02    0.53
 -18   8   0    0.73    0.44
  18  -8   0    0.94    0.34
   8 -18   0    1.59    0.45
 -18  -8   2    7.69    0.70
 -18  -8   2    7.34    0.84
 -18   8  -2    6.52    0.76
  -8 -18   2    7.39    0.75
   8  18   2    8.06    0.89
  18  -8  -2    7.93    0.69
   8 -18  -2    7.88    0.77
 -18   8  -2    7.51    0.82
 -18   8  -4    8.01    0.84
 -18  -8   4    7.98    0.70
   8  18   4    8.74    0.94
  18  -8  -4    7.38    0.68
 -18  -8   4    7.96    0.86
   8 -18  -4    7.24    0.75
 -18   8  -4    8.65    0.84
 -18  -8   6    0.44    0.40
 -18  -8   6    0.01    0.22
 -18   8  -6    0.52    0.38
 -18   8  -6    0.48    0.42
  18  -8  -6   -0.26    0.33
   8 -18  -6    0.14    0.34
 -18   8  -8    6.99    0.82
  18  -8  -8    5.34    0.63
   8 -18  -8    5.02    0.65
 -18  -8   8    5.93    0.75
 -18   8  -8    6.81    0.74
 -18   8 -10    0.11    0.37
 -18  -8  10    0.97    0.46
 -18  -8  12    2.00    0.53
  -8  18 -14    0.00    0.42
 -18  -8  14   -0.04    0.40
  18  -9  15    0.67    0.39
  18  -9  13    0.24    0.31
  18  -9  11    1.04    0.39
 -18   9  11    0.22    0.32
   9 -18   9    3.15    0.56
   9  18  -9    2.53    0.56
 -18  -9  -9    3.58    0.60
  -9 -18  -9    4.00    0.62
  -9  18   9    2.96    0.56
 -18   9   9    2.98    0.53
  18  -9   9    3.91    0.55
   9  18  -9    2.69    0.67
   9 -18   7    3.50    0.58
   9  18  -7    2.98    0.71
   9  18  -7    3.38    0.60
 -18  -9  -7    3.20    0.56
  -9 -18  -7    3.26    0.57
  -9  18   7    3.38    0.57
  18  -9   7    2.86    0.49
 -18   9   5    5.34    0.67
   9  18  -5    5.89    0.82
 -18  -9  -5    6.42    0.72
  -9 -18  -5    5.45    0.69
  -9  18   5    5.43    0.68
  18  -9   5    4.52    0.56
   9 -18   5    4.62    0.65
 -18   9   3   13.79    1.04
 -18  -9  -3   14.10    1.03
  -9 -18  -3   13.01    1.02
  18  -9   3   13.22    0.91
  -9  18   3   13.23    0.99
   9 -18   3   11.12    0.91
   9  18  -3   13.50    1.12
 -18   9   1    4.24    0.64
 -18  -9  -1    5.20    0.64
   9  18  -1    4.33    0.72
  -9 -18  -1    5.24    0.66
  18  -9   1    5.70    0.61
   9 -18   1    4.82    0.64
 -18   9  -1    4.99    0.70
 -18  -9   1    4.43    0.58
   9  18   1    4.23    0.70
  -9 -18   1    3.16    0.54
 -18   9  -1    4.35    0.69
  18  -9  -1    3.95    0.52
   9 -18  -1    4.11    0.59
   9  18   3   14.47    1.17
 -18   9  -3   15.24    1.15
 -18  -9   3   14.69    0.98
  -9 -18   3   14.63    1.06
  18  -9  -3   13.54    0.93
   9 -18  -3   14.06    1.03
 -18   9  -3   16.10    1.15
 -18  -9   3   15.75    1.17
 -18   9  -5    6.21    0.76
 -18  -9   5    6.60    0.65
 -18   9  -5    4.27    0.67
 -18  -9   5    6.24    0.78
   9  18   5    5.77    0.79
  18  -9  -5    4.32    0.57
   9 -18  -5    4.52    0.64
 -18   9  -7    3.87    0.63
 -18  -9   7    2.29    0.41
 -18   9  -7    2.83    0.57
   9  18   7    4.52    0.75
  18  -9  -7    3.81    0.55
   9 -18  -7    3.00    0.56
 -18  -9   7    3.01    0.61
 -18   9  -9    4.39    0.68
 -18  -9   9    3.37    0.62
  18  -9  -9    3.58    0.57
   9  18   9    4.27    0.76
   9 -18  -9    3.54    0.61
 -18   9  -9    3.65    0.63
 -18  -9  11    0.88    0.46
   9  18  11    0.79    0.55
 -18  -9  13    0.42    0.47
 -18   9 -13    0.34    0.40
  18 -10  14    0.82    0.40
  18 -10  12    0.14    0.38
  18 -10  10    0.96    0.39
  10 -18   8    6.11    0.73
  10  18  -8    4.22    0.68
 -18 -10  -8    5.73    0.74
 -10 -18  -8    5.00    0.69
 -10  18   8    6.13    0.75
 -18  10   8    5.06    0.67
  18 -10   8    6.17    0.67
  10  18  -8    4.45    0.77
  10  18  -6    0.71    0.48
 -18 -10  -6   -0.04    0.32
 -10 -18  -6    0.33    0.31
 -10  18   6    0.54    0.36
  18 -10   6    0.58    0.35
  10 -18   6    1.16    0.45
  10  18  -4    0.66    0.51
 -18 -10  -4    0.70    0.33
 -10 -18  -4    0.89    0.40
 -10  18   4    0.67    0.38
  18 -10   4    0.70    0.35
  10 -18   4    1.56    0.47
 -18  10   2    4.22    0.65
 -18 -10  -2    5.25    0.65
  10  18  -2    2.97    0.64
 -10 -18  -2    4.12    0.60
  18 -10   2    4.05    0.55
  10 -18   2    3.92    0.59
 -18  10   0    6.47    0.77
 -18 -10   0    5.33    0.65
  10  18   0    5.81    0.81
 -10 -18   0    6.06    0.70
  18 -10   0    5.76    0.65
  10 -18   0    6.63    0.74
 -18  10  -2    5.38    0.73
 -18 -10   2    4.42    0.59
  10  18   2    5.18    0.78
 -10 -18   2    4.16    0.59
 -18  10  -2    4.50    0.67
  18 -10  -2    4.52    0.59
  10 -18  -2    5.42    0.68
 -18  10  -4    1.07    0.45
 -18  10  -4    0.93    0.43
 -18 -10   4    0.87    0.34
  10  18   4   -0.03    0.44
 -10 -18   4    1.38    0.44
  18 -10  -4    1.15    0.42
  10 -18  -4    0.99    0.42
 -18  10  -6    0.60    0.33
 -18  10  -6    0.93    0.45
 -18 -10   6    0.93    0.48
 -18 -10   6    0.43    0.28
  10  18   6    1.37    0.55
  18 -10  -6    1.22    0.39
  10 -18  -6    0.86    0.39
 -18  10  -8    4.27    0.70
 -18 -10   8    6.25    0.80
  10  18   8    5.44    0.80
  18 -10  -8    4.99    0.65
 -18  10  -8    6.28    0.74
  10 -18  -8    5.70    0.71
 -18  10 -10    1.85    0.52
  10  18  10    1.01    0.55
  18 -10 -10    1.16    0.41
 -18 -10  10    2.08    0.57
 -18 -10  12    0.75    0.45
 -18  10 -12   -0.07    0.39
  10  18  12    0.62    0.49
  10  18  14    0.71    0.55
  18 -11  11    0.96    0.41
  18 -11   9    0.86    0.40
 -18 -11  -7    5.40    0.71
 -11  18   7    6.09    0.75
  18 -11   7    6.06    0.69
  11  18  -5    0.42    0.48
 -18 -11  -5    1.82    0.47
 -11 -18  -5    0.53    0.37
 -11  18   5    1.29    0.47
  18 -11   5    0.40    0.30
  11 -18   5    1.13    0.46
  11  18  -3    0.73    0.49
 -18 -11  -3    0.03    0.32
 -11 -18  -3    0.37    0.34
  18 -11   3    0.12    0.29
  11 -18   3    0.87    0.44
  11  18  -1   -0.25    0.50
 -18 -11  -1    0.38    0.34
 -11 -18  -1    0.48    0.34
  18 -11   1    0.14    0.33
  11 -18   1    0.67    0.36
 -18  11  -1    0.47    0.40
 -18 -11   1    0.41    0.32
  11  18   1    0.18    0.48
 -11 -18   1    0.09    0.28
  18 -11  -1    0.25    0.34
  11 -18  -1    1.08    0.45
 -18  11  -3    0.35    0.38
 -18 -11   3    0.46    0.32
  11  18   3    0.25    0.48
 -11 -18   3    0.62    0.33
 -18  11  -3    1.24    0.50
  18 -11  -3    0.03    0.30
  11 -18  -3    0.64    0.40
 -18  11  -5    0.25    0.40
 -18  11  -5    0.70    0.40
 -18 -11   5    0.75    0.32
  11  18   5    0.62    0.55
 -11 -18   5   -0.06    0.29
  18 -11  -5    0.69    0.37
  11 -18  -5    1.02    0.43
 -18  11  -7    6.28    0.76
 -18 -11   7    4.85    0.59
  11  18   7    6.27    0.84
  18 -11  -7    5.70    0.69
  11  18   9    0.74    0.54
  18 -11  -9    0.09    0.34
  11  18  11    1.03    0.60
  18 -12  10    4.80    0.70
  18 -12   8    0.48    0.35
  18 -12   6    5.57    0.68
 -18 -12  -4    2.40    0.49
 -12  18   4    2.54    0.53
  18 -12   4    2.65    0.51
  12  18  -2    0.74    0.56
 -18 -12  -2    0.41    0.33
  18 -12   2    1.10    0.42
  12 -18   2    0.53    0.37
  12  18   0    2.67    0.69
 -18 -12   0    2.19    0.47
 -12 -18   0    2.37    0.53
  18 -12   0    2.05    0.49
  12 -18   0    1.71    0.46
  12  18   2    0.69    0.53
 -18 -12   2    0.49    0.34
 -12 -18   2    0.17    0.30
  18 -12  -2    0.39    0.33
  12 -18  -2    0.80    0.44
  12  18   4    2.00    0.60
 -18 -12   4    4.09    0.59
 -18  12  -4    3.75    0.64
  18 -12  -4    3.67    0.59
 -18  12  -6    6.26    0.78
  12  18   6    6.06    0.82
 -18 -12   6    6.18    0.68
  18 -12  -6    6.08    0.70
 -18 -12   8    1.00    0.36
  18 -12  -8    0.34    0.35
  12  18  10    5.12    0.81
  18 -13   7    6.89    0.76
  18 -13   5   -0.11    0.37
  18 -13   3    3.77    0.61
 -18 -13  -1    0.99    0.36
  18 -13   1    1.39    0.44
 -18 -13   1    0.39    0.33
  18 -13  -1    0.28    0.33
 -18 -13   3    3.38    0.55
  18 -13  -3    2.71    0.54
 -18 -13   5    0.82    0.36
  18  13   5   -0.13    0.45
  18 -13  -5    0.12    0.37
 -18  13  -5   -0.01    0.43
 -18 -13   7    5.54    0.65
  18  14   2    0.60    0.51
  18  14   4    0.18    0.44
  18  14   6    2.05    0.56
 -19   0  -1    1.56    0.34
 -19   0  -1    2.91    0.59
 -19   0   1    1.77    0.44
 -19   0  -1    2.64    0.50
   0  19   1    2.02    0.35
   0 -19  -1    2.51    0.46
 -19   0   1    0.80    0.43
   0 -19   1    2.75    0.45
 -19   0  -3    4.11    0.51
   0  19  -3    3.71    0.47
 -19   0  -3    4.34    0.67
 -19   0   3    3.83    0.55
 -19   0  -3    4.09    0.62
   0  19   3    3.46    0.45
 -19   0   3    3.56    0.63
   0 -19  -3    4.54    0.54
   0 -19   3    4.83    0.57
   0 -19   5    2.56    0.44
 -19   0  -5    1.64    0.49
   0  19  -5    2.24    0.42
   0 -19  -5    1.72    0.39
 -19   0   5    1.30    0.46
 -19   0   5    2.05    0.43
 -19   0  -5    1.43    0.41
   0  19   5    2.14    0.38
   0 -19  -5    1.89    0.41
 -19   0  -5    1.91    0.40
   0 -19   7    1.71    0.41
   0  19  -7    1.86    0.41
   0 -19  -7    1.56    0.39
 -19   0   7    1.96    0.54
   0  19  -7    1.56    0.55
 -19   0   7    1.92    0.38
 -19   0  -7    2.37    0.52
   0  19   7    1.54    0.38
 -19   0  -7    3.14    0.59
   0 -19  -7    2.08    0.42
 -19   0  -7    1.91    0.43
   0  19  -9    0.26    0.31
 -19   0   9    0.15    0.43
   0 -19  -9    0.10    0.28
   0  19  -9   -0.42    0.43
 -19   0   9   -0.12    0.24
   0 -19  -9    0.31    0.32
   0  19   9   -0.24    0.32
 -19   0  -9   -0.08    0.33
 -19   0  -9    0.44    0.42
 -19   0   9   -0.24    0.22
 -19   0  -9   -0.14    0.28
   0  19 -11    0.50    0.37
 -19   0  11    0.57    0.43
   0  19 -11    0.08    0.48
   0 -19 -11    0.60    0.31
   0 -19 -11   -0.19    0.28
   0  19  11    0.09    0.28
 -19   0 -11   -0.08    0.37
 -19   0 -11    0.21    0.36
   0  19 -13   -0.12    0.50
   0  19 -13   -0.29    0.36
 -19   0  13    0.59    0.45
   0 -19 -13   -0.05    0.28
   0  19  13    0.11    0.34
   0 -19 -13   -0.09    0.43
 -19   0 -13    0.00    0.31
   0  19 -15    1.27    0.53
   0  19  15    1.92    0.50
   0 -19 -15    0.85    0.50
   0 -19 -17    1.26    0.54
  -1 -19 -16   -0.26    0.49
   1  19 -16    1.05    0.53
   1  19 -14    0.33    0.46
   1  19 -14    0.21    0.37
  -1 -19 -14    0.21    0.27
  -1  19  14    0.25    0.34
  -1 -19 -14    0.82    0.49
 -19   1  12    0.17    0.38
   1  19 -12   -0.01    0.33
   1  19 -12    0.24    0.46
  -1 -19 -12    0.04    0.28
  -1  19  12    0.01    0.35
  -1 -19 -12    0.38    0.42
 -19  -1 -12    0.15    0.31
 -19  -1 -10    2.93    0.61
   1  19 -10    1.66    0.46
 -19   1  10    2.11    0.54
   1  19 -10    1.45    0.57
  -1 -19 -10    2.16    0.43
  -1 -19 -10    2.42    0.45
  -1  19  10    1.39    0.39
 -19   1  10    1.87    0.37
 -19  -1 -10    1.63    0.48
   1 -19   8    5.88    0.64
   1  19  -8    6.35    0.70
 -19   1   8    5.71    0.76
 -19   1   8    5.72    0.60
  -1 -19  -8    8.03    0.74
   1  19  -8    8.26    0.92
  -1 -19  -8    7.05    0.66
  -1  19   8    6.18    0.66
 -19  -1  -8    7.60    0.82
 -19   1   8    6.77    0.62
 -19  -1  -8    6.59    0.71
 -19  -1  -6    2.43    0.46
   1 -19   6    1.79    0.42
   1  19  -6    0.73    0.33
 -19   1   6    2.12    0.54
  -1 -19  -6    1.43    0.39
   1  19  -6    2.08    0.59
 -19   1   6    1.66    0.39
  -1  19   6    1.57    0.38
  -1 -19  -6    1.17    0.36
 -19  -1  -6    2.32    0.57
 -19  -1  -4    0.73    0.32
   1  19  -4    0.22    0.29
 -19  -1  -4   -0.01    0.43
  -1 -19  -4    0.53    0.32
 -19   1   4    0.04    0.46
 -19   1   4    0.03    0.28
  -1  19   4   -0.06    0.29
  -1 -19  -4   -0.06    0.26
   1 -19   4    0.21    0.34
 -19  -1  -2    4.65    0.53
   1  19  -2    5.15    0.54
 -19   1   2    5.18    0.63
 -19   1   2    4.40    0.70
  -1  19   2    3.33    0.46
 -19  -1  -2    4.32    0.68
  -1 -19  -2    4.83    0.54
   1 -19   2    5.02    0.58
 -19  -1   0   14.06    1.08
 -19   1   0   13.04    0.99
  -1  19   0   12.32    0.78
  -1 -19   0   12.57    0.85
   1 -19   0   13.78    0.91
 -19   1   0   14.34    1.08
 -19  -1   0   13.27    0.83
 -19  -1   2    3.97    0.66
 -19   1  -2    4.71    0.69
 -19   1  -2    5.13    0.68
   1  19   2    4.00    0.46
  -1  19  -2    5.49    0.52
   1 -19  -2    4.45    0.55
  -1 -19   2    4.67    0.55
 -19   1  -2    4.73    0.53
  -1  19  -4    0.47    0.31
   1 -19  -4    0.88    0.31
 -19   1  -4   -0.49    0.46
 -19   1  -4    0.45    0.33
 -19  -1   4    0.24    0.26
   1  19   4    0.46    0.27
   1 -19  -4    0.53    0.34
 -19  -1   4    0.60    0.42
 -19   1  -4    0.39    0.28
  -1 -19   4    0.57    0.30
 -19   1  -6    0.28    0.41
  -1 -19   6    1.47    0.36
  -1  19  -6    1.81    0.40
   1 -19  -6    1.54    0.39
 -19  -1   6    1.34    0.36
 -19   1  -6    1.94    0.47
   1  19   6    0.90    0.35
 -19  -1   6    0.98    0.45
   1 -19  -6    1.51    0.39
 -19   1  -6    1.00    0.35
  -1  19  -8    8.79    0.88
  -1  19  -8    6.05    0.65
   1 -19  -8    6.43    0.63
 -19  -1   8    7.10    0.66
   1 -19  -8    6.99    0.70
   1  19   8    6.50    0.65
 -19  -1   8    7.06    0.82
 -19   1  -8    6.38    0.77
 -19   1  -8    6.69    0.78
 -19   1  -8    7.35    0.73
  -1 -19   8    6.70    0.66
  -1  19 -10    2.00    0.47
   1 -19 -10    1.65    0.38
  -1  19 -10    1.24    0.55
 -19  -1  10    1.16    0.49
   1 -19 -10    1.57    0.41
 -19   1 -10    2.45    0.55
   1  19  10    1.71    0.40
 -19   1 -10    0.92    0.49
 -19   1 -10    2.10    0.47
  -1  19 -12    1.30    0.46
  -1  19 -12    0.64    0.55
   1 -19 -12    0.08    0.25
 -19  -1  12    0.09    0.37
   1 -19 -12    0.15    0.32
   1  19  12    0.52    0.34
 -19   1 -12    1.10    0.47
   1 -19 -12   -0.32    0.43
 -19   1 -12    0.28    0.36
  -1  19 -14   -0.52    0.54
  -1  19 -14    0.16    0.36
 -19  -1  14    0.06    0.41
   1  19  14    0.36    0.42
   1 -19 -14    0.18    0.44
 -19   1 -14    0.03    0.32
   1 -19 -16   -0.53    0.50
  -2 -19 -15    1.58    0.44
  -2 -19 -15    0.55    0.51
   2  19 -15    1.62    0.56
   2  19 -13    0.62    0.52
   2  19 -13   -0.08    0.37
  -2 -19 -13    0.06    0.28
  -2  19  13    0.54    0.36
  -2 -19 -13    0.35    0.46
 -19   2  13    0.71    0.45
 -19  -2 -13    0.50    0.36
 -19  -2 -11    3.16    0.61
 -19   2  11    1.55    0.51
   2  19 -11    1.53    0.49
   2  19 -11    2.17    0.59
  -2 -19 -11    1.78    0.43
  -2 -19 -11    1.11    0.36
  -2  19  11    1.55    0.43
 -19   2  11    1.42    0.35
  -2 -19 -11    1.64    0.49
   2 -19   9    6.58    0.68
 -19   2   9    5.21    0.75
   2  19  -9    7.70    0.76
 -19   2   9    7.72    0.68
  -2 -19  -9    6.40    0.68
   2  19  -9    6.22    0.80
  -2 -19  -9    5.12    0.58
  -2  19   9    6.76    0.71
 -19   2   9    5.93    0.62
 -19  -2  -9    8.00    0.86
 -19  -2  -9    7.72    0.80
   2 -19   7    0.03    0.29
 -19  -2  -7   -0.18    0.31
 -19   2   7    0.25    0.41
   2  19  -7    0.40    0.33
  -2 -19  -7    0.00    0.27
   2  19  -7   -0.15    0.44
 -19   2   7    0.42    0.27
  -2 -19  -7    0.31    0.27
  -2  19   7   -0.41    0.31
 -19  -2  -7    0.59    0.51
   2  19  -5    8.15    0.72
   2  19  -5   10.19    0.97
 -19   2   5    8.53    0.77
  -2 -19  -5    9.49    0.80
  -2 -19  -5    8.24    0.68
  -2  19   5    8.68    0.73
 -19   2   5    9.18    0.91
 -19  -2  -5    8.49    0.88
   2 -19   5    8.53    0.75
 -19  -2  -5    8.03    0.75
   2  19  -3   28.30    1.31
 -19   2   3   25.95    1.40
  -2 -19  -3   27.66    1.40
  -2  19   3   26.90    1.28
  -2 -19  -3   28.19    1.29
 -19  -2  -3   26.69    1.50
 -19   2   3   24.90    1.48
   2 -19   3   25.64    1.32
 -19  -2  -3   28.98    1.37
 -19  -2  -1    4.72    0.55
 -19   2   1    6.37    0.77
 -19   2   1    4.25    0.61
  -2  19   1    4.26    0.50
  -2 -19  -1    4.49    0.52
 -19  -2  -1    5.52    0.74
   2 -19   1    5.26    0.61
 -19  -2   1    4.81    0.73
 -19   2  -1    4.83    0.64
  -2  19  -1    5.06    0.53
 -19   2  -1    5.74    0.74
   2 -19  -1    4.98    0.59
  -2 -19   1    4.55    0.53
 -19  -2   1    5.80    0.56
 -19   2  -3   29.52    1.55
 -19  -2   3   23.59    1.46
 -19   2  -3   28.63    1.53
   2 -19  -3   26.90    1.34
  -2  19  -3   28.48    1.22
  -2 -19   3   27.72    1.29
 -19   2  -3   26.27    1.25
  -2  19  -5    7.54    0.65
 -19   2  -5    8.79    0.87
   2 -19  -5    8.82    0.73
 -19   2  -5    9.63    0.91
   2  19   5    7.97    0.66
   2 -19  -5    8.54    0.76
  -2 -19   5    7.10    0.65
 -19   2  -5    9.26    0.75
 -19  -2   5    8.13    0.86
 -19   2  -7    0.05    0.43
  -2 -19   7    0.24    0.28
  -2  19  -7    0.13    0.26
   2 -19  -7    0.09    0.25
 -19   2  -7   -0.16    0.33
  -2  19  -7    0.58    0.55
   2  19   7    0.01    0.27
 -19  -2   7   -0.03    0.25
   2 -19  -7   -0.40    0.33
 -19  -2   7   -0.15    0.43
 -19   2  -7    0.64    0.32
  -2  19  -9    7.32    0.72
   2 -19  -9    7.93    0.69
 -19  -2   9    7.11    0.65
  -2  19  -9    7.89    0.84
   2  19   9    6.50    0.67
 -19   2  -9    7.16    0.81
   2 -19  -9    5.58    0.65
 -19  -2   9    6.19    0.78
 -19   2  -9    8.60    0.85
 -19   2  -9    7.18    0.75
  -2  19 -11    1.38    0.42
   2 -19 -11    1.59    0.37
  -2  19 -11    2.07    0.55
 -19   2 -11    1.59    0.49
   2 -19 -11    2.61    0.50
   2  19  11    1.51    0.40
 -19  -2  11    1.12    0.45
 -19   2 -11    1.52    0.49
 -19   2 -11    1.72    0.45
  -2  19 -13    0.35    0.38
  -2  19 -13    0.37    0.52
   2 -19 -13    0.35    0.36
   2  19  13    0.75    0.39
 -19  -2  13    0.69    0.45
 -19   2 -13    0.63    0.42
  -2  19 -15    1.08    0.48
   2  19  15    1.12    0.43
  -3 -19 -16    2.53    0.49
  -3 -19 -16    2.75    0.66
   3  19 -16    2.75    0.65
  -3 -19 -14    0.14    0.30
  -3  19  14    0.53    0.37
 -19   3  14    1.31    0.39
  -3 -19 -14    1.25    0.53
   3  19 -14    1.33    0.54
 -19  -3 -12    2.05    0.52
   3  19 -12    2.64    0.63
   3  19 -12    1.68    0.48
  -3 -19 -12    1.37    0.42
  -3  19  12    2.78    0.54
 -19   3  12    1.89    0.40
  -3 -19 -12    1.78    0.56
 -19   3  12    1.92    0.52
 -19  -3 -10    2.57    0.51
   3  19 -10    1.77    0.45
   3  19 -10    1.99    0.58
  -3 -19 -10    2.15    0.45
  -3 -19 -10    1.28    0.34
  -3  19  10    2.67    0.50
 -19   3  10    2.22    0.43
 -19   3  10    1.95    0.55
   3 -19   8    4.92    0.62
 -19  -3  -8    6.61    0.74
   3  19  -8    6.14    0.69
 -19   3   8    6.53    0.65
  -3 -19  -8    6.26    0.68
   3  19  -8    7.69    0.88
 -19  -3  -8    7.36    0.83
  -3 -19  -8    5.66    0.58
  -3  19   8    6.30    0.68
 -19   3   8    5.74    0.77
   3  19  -6   14.90    1.14
   3  19  -6   12.82    0.94
 -19   3   6   14.88    1.00
  -3 -19  -6   14.64    1.01
 -19  -3  -6   15.04    1.13
  -3 -19  -6   13.82    0.86
  -3  19   6   14.43    0.97
 -19   3   6   14.37    1.13
   3 -19   6   13.62    0.95
 -19  -3  -6   13.87    1.00
   3  19  -4    6.43    0.65
 -19   3   4    7.54    0.87
 -19   3   4    6.82    0.70
  -3 -19  -4    6.69    0.71
   3  19  -4    7.22    0.87
  -3 -19  -4    7.03    0.63
  -3  19   4    8.10    0.71
 -19  -3  -4    6.87    0.82
   3 -19   4    7.85    0.74
 -19  -3  -4    7.10    0.70
 -19  -3  -2   13.77    0.92
   3  19  -2   12.93    0.87
 -19   3   2   12.44    0.98
  -3 -19  -2   12.73    0.94
   3  19  -2   14.88    1.13
  -3  19   2   12.12    0.84
  -3 -19  -2   12.37    0.82
 -19  -3  -2   13.63    1.08
 -19   3   2   12.21    1.04
   3 -19   2   11.55    0.88
 -19  -3   0   18.71    1.04
 -19   3   0   19.11    1.22
 -19  -3   0   16.38    1.19
  -3  19   0   19.10    1.04
  -3 -19   0   20.00    1.03
   3 -19   0   18.07    1.10
 -19   3   0   20.60    1.29
 -19  -3   2   13.31    0.83
 -19  -3   2   12.66    1.05
 -19   3  -2   12.94    1.02
   3 -19  -2   11.67    0.89
  -3  19  -2   13.58    0.85
  -3 -19   2   11.89    0.81
 -19   3  -2   13.83    1.06
 -19   3  -4    8.13    0.84
 -19  -3   4    6.14    0.78
  19  -3  -4    6.56    0.56
 -19   3  -4    5.59    0.72
   3 -19  -4    6.51    0.69
  -3 -19   4    7.43    0.65
 -19   3  -4    6.45    0.61
 -19  -3   6   12.23    1.06
 -19   3  -6   16.21    1.12
 -19   3  -6   14.78    1.12
   3 -19  -6   14.80    0.92
   3 -19  -6   14.47    0.98
 -19   3  -6   14.56    0.97
  -3 -19   6   12.69    0.85
 -19   3  -8    6.78    0.77
  -3  19  -8    6.51    0.65
  -3  19  -8    8.24    0.89
   3 -19  -8    6.98    0.64
   3  19   8    6.34    0.63
   3 -19  -8    6.82    0.71
 -19   3  -8    6.74    0.80
 -19   3  -8    7.19    0.72
  -3 -19   8    6.84    0.65
 -19  -3   8    5.74    0.76
  -3  19 -10    1.79    0.43
  -3  19 -10    2.14    0.58
 -19   3 -10    2.40    0.55
   3  19  10    1.25    0.40
   3 -19 -10    1.27    0.39
 -19   3 -10    2.37    0.57
 -19  -3  10    0.83    0.44
 -19   3 -10    2.54    0.52
 -19   3 -12    2.95    0.57
  -3  19 -12    2.14    0.50
  -3  19 -12    1.19    0.48
 -19   3 -12    1.81    0.48
   3  19  12    1.77    0.45
   3 -19 -12    1.99    0.48
 -19  -3  12    1.87    0.52
 -19   3 -12    2.16    0.51
  -3  19 -14    0.47    0.43
   3  19  14    0.85    0.42
 -19  -3  14    1.50    0.52
   3  19  16    2.72    0.59
  -4 -19 -15    2.83    0.53
 -19   4  15    2.88    0.51
  -4 -19 -15    3.40    0.71
   4  19 -15    3.16    0.69
   4  19 -13   -0.19    0.45
   4  19 -13   -0.39    0.42
  -4 -19 -13   -0.10    0.35
  -4  19  13   -0.73    0.40
 -19   4  13    0.23    0.33
  -4 -19 -13    0.91    0.54
 -19  -4 -11   -0.02    0.34
   4  19 -11    0.27    0.48
   4  19 -11    0.38    0.37
  -4 -19 -11    0.96    0.40
  -4  19  11    0.41    0.31
 -19   4  11    1.00    0.37
  -4 -19 -11    0.71    0.46
   4 -19   9    5.34    0.65
 -19  -4  -9    6.01    0.73
 -19   4   9    7.38    0.67
   4  19  -9    6.27    0.73
  -4 -19  -9    6.97    0.72
   4  19  -9    7.25    0.88
  -4  19   9    6.80    0.72
 -19   4   9    7.51    0.88
 -19   4   9    6.78    0.69
   4 -19   7    0.45    0.33
 -19  -4  -7    0.21    0.32
   4  19  -7    1.12    0.41
 -19   4   7    0.27    0.25
   4  19  -7    0.26    0.48
  -4 -19  -7    0.86    0.35
  -4  19   7    0.73    0.35
 -19  -4  -7    0.67    0.47
 -19   4   7    0.65    0.45
 -19   4   5    6.11    0.77
 -19  -4  -5    5.29    0.63
   4  19  -5    6.24    0.67
 -19   4   5    6.84    0.69
  -4 -19  -5    5.76    0.66
   4  19  -5    6.60    0.82
  -4 -19  -5    6.46    0.58
  -4  19   5    7.44    0.71
 -19  -4  -5    7.21    0.82
   4 -19   5    5.22    0.63
 -19  -4  -3   23.64    1.27
   4  19  -3   22.78    1.22
   4  19  -3   25.37    1.49
 -19   4   3   23.18    1.31
  -4 -19  -3   22.60    1.29
  -4 -19  -3   25.13    1.15
  -4  19   3   22.82    1.22
 -19   4   3   25.00    1.47
   4 -19   3   22.06    1.26
 -19  -4  -3   25.90    1.48
 -19  -4  -1    2.31    0.42
 -19   4   1    1.73    0.55
 -19   4   1    2.67    0.51
 -19  -4  -1    1.27    0.51
   4  19  -1    2.60    0.64
  -4  19   1    2.10    0.40
  -4 -19  -1    2.67    0.40
   4 -19   1    2.23    0.46
 -19  -4   1    1.89    0.37
 -19  -4   1    2.40    0.58
 -19   4  -1    1.71    0.53
 -19   4  -1    2.99    0.53
  19  -4  -1    2.62    0.41
  -4  19  -1    2.05    0.39
   4 -19  -1    2.40    0.47
  -4 -19   1    2.30    0.39
 -19   4  -3   22.73    1.38
 -19  -4   3   22.67    1.42
  19  -4  -3   22.13    1.06
   4 -19  -3   24.37    1.29
  -4 -19   3   23.42    1.14
 -19   4  -3   24.38    1.41
 -19   4  -5    4.94    0.71
   4 -19  -5    5.31    0.56
  19  -4  -5    5.54    0.55
 -19   4  -5    6.30    0.76
 -19  -4   5    6.57    0.80
   4 -19  -5    5.45    0.65
  -4 -19   5    6.49    0.59
  -4 -19   7    0.78    0.29
 -19  -4   7    0.78    0.45
   4 -19  -7    0.84    0.28
 -19   4  -7    1.38    0.45
 -19   4  -7    0.04    0.38
   4 -19  -7    1.05    0.40
 -19   4  -9    7.17    0.78
  -4  19  -9    7.75    0.71
 -19  -4   9    5.01    0.73
 -19   4  -9    7.06    0.83
  -4  19  -9    7.47    0.82
   4 -19  -9    6.23    0.70
 -19  -4  11    0.42    0.41
  -4  19 -11    0.55    0.39
  -4  19 -11    1.13    0.51
 -19   4 -11    0.22    0.37
   4  19  11    0.61    0.34
   4 -19 -11    0.54    0.31
 -19   4 -11    0.64    0.40
 -19  -4  13   -0.10    0.41
  -4  19 -13   -0.11    0.33
   4  19  13   -0.02    0.31
   4 -19 -13   -0.95    0.45
  -4  19 -15    3.44    0.64
   4  19  15    3.11    0.58
  -5 -19 -14    1.35    0.45
 -19   5  14    1.55    0.45
  -5 -19 -14    1.82    0.62
   5  19 -14    0.86    0.53
   5  19 -12    0.99    0.55
 -19  -5 -12    1.37    0.46
   5  19 -12    1.35    0.47
  -5 -19 -12    0.24    0.31
  -5  19  12    0.94    0.42
 -19   5  12    0.95    0.36
  -5 -19 -12    1.82    0.57
   5 -19  10    0.70    0.38
 -19  -5 -10    0.98    0.40
   5  19 -10    1.06    0.44
   5  19 -10    1.50    0.60
  -5 -19 -10    1.03    0.37
  -5  19  10    1.80    0.45
 -19   5  10    0.77    0.33
   5 -19   8    1.71    0.46
 -19  -5  -8    2.25    0.50
   5  19  -8    1.74    0.47
 -19   5   8    2.33    0.42
   5  19  -8    3.23    0.68
  -5 -19  -8    2.03    0.47
  -5  19   8    2.50    0.50
   5 -19   6    0.12    0.34
 -19  -5  -6   -0.47    0.34
   5  19  -6   -0.02    0.32
 -19   5   6    0.01    0.25
   5  19  -6   -0.08    0.46
  -5 -19  -6    0.08    0.29
 -19   5   6   -0.20    0.41
  -5  19   6    0.07    0.27
   5  19  -4    1.31    0.38
 -19  -5  -4    1.26    0.38
 -19   5   4    2.39    0.48
 -19  -5  -4    1.89    0.53
   5  19  -4    1.63    0.57
  -5 -19  -4    2.22    0.47
  -5  19   4    1.33    0.36
 -19   5   4    1.55    0.53
   5 -19   4    2.30    0.48
 -19  -5  -2    6.92    0.69
 -19   5   2    8.43    0.90
 -19  -5  -2    9.04    0.93
 -19   5   2    8.10    0.79
  -5 -19  -2    8.99    0.80
   5  19  -2    7.65    0.88
  19  -5   2    7.70    0.61
  -5  19   2    8.32    0.73
   5 -19   2    7.71    0.75
 -19  -5   0    0.46    0.28
 -19   5   0   -0.09    0.41
 -19   5   0    0.13    0.30
   5  19   0    1.11    0.55
  19  -5   0    0.33    0.25
 -19  -5   0    0.31    0.44
  -5  19   0   -0.17    0.29
  -5 -19   0   -0.19    0.23
   5 -19   0    0.11    0.30
 -19  -5   2    7.66    0.67
 -19   5  -2    8.60    0.85
  19  -5  -2    7.87    0.64
   5 -19  -2    8.34    0.77
 -19  -5   2    8.62    0.90
  -5 -19   2    7.92    0.63
 -19   5  -2    8.44    0.86
 -19  -5   4    1.17    0.51
 -19   5  -4    2.29    0.51
  19  -5  -4    1.58    0.37
 -19   5  -4    1.69    0.49
   5 -19  -4    2.27    0.47
  -5 -19   4    1.68    0.36
  -5 -19   6    0.00    0.22
 -19   5  -6   -0.22    0.43
   5 -19  -6    0.08    0.21
  19  -5  -6   -0.10    0.25
 -19   5  -6    0.58    0.37
   5 -19  -6   -0.10    0.32
 -19  -5   6   -0.26    0.43
  -5 -19   8    1.70    0.36
 -19   5  -8    1.93    0.49
 -19   5  -8    1.59    0.49
   5 -19  -8    1.74    0.45
 -19  -5   8    2.74    0.62
 -19   5 -10    1.72    0.50
  -5  19 -10    1.20    0.41
 -19   5 -10    0.66    0.42
 -19  -5  10    0.74    0.44
   5 -19 -10    1.32    0.44
  -5  19 -12    1.20    0.43
 -19  -5  12    1.16    0.48
   5 -19 -12    1.40    0.45
  -5  19 -14    1.97    0.50
 -19  -5  14    1.59    0.56
   5  19  14    1.21    0.46
   5  19  16    1.59    0.49
  -6 -19 -15    0.95    0.59
  -6 -19 -13    5.00    0.68
 -19   6  13    4.38    0.64
  -6 -19 -13    5.79    0.83
   6  19 -11    1.85    0.61
 -19  -6 -11    2.53    0.55
   6  19 -11    1.74    0.49
  -6 -19 -11    2.62    0.52
  -6  19  11    2.66    0.54
 -19   6  11    2.72    0.52
   6 -19   9    0.08    0.32
 -19  -6  -9    0.42    0.31
   6  19  -9    0.32    0.36
   6  19  -9    0.24    0.51
 -19   6   9    0.47    0.30
  -6 -19  -9    0.10    0.29
  -6  19   9    0.46    0.36
 -19   6   9    0.28    0.28
   6 -19   7    2.32    0.49
 -19  -6  -7    3.56    0.57
   6  19  -7    3.04    0.54
 -19   6   7    3.66    0.54
   6  19  -7    4.29    0.74
  -6 -19  -7    3.66    0.56
  -6  19   7    2.55    0.50
   6  19  -5    0.48    0.38
 -19  -6  -5   -0.35    0.36
 -19   6   5    0.04    0.29
   6  19  -5    0.19    0.53
  -6 -19  -5    0.75    0.37
  -6  19   5   -0.02    0.27
  19  -6   5    0.14    0.25
   6 -19   5    0.23    0.33
 -19  -6  -3    1.41    0.54
 -19  -6  -3    0.84    0.36
 -19   6   3    0.37    0.32
   6  19  -3   -0.16    0.44
  -6 -19  -3    0.78    0.39
  -6  19   3    0.25    0.29
  19  -6   3    0.61    0.31
 -19   6   3   -0.08    0.42
   6 -19   3    0.26    0.30
 -19   6   1    3.85    0.68
 -19  -6  -1    3.06    0.48
 -19   6   1    2.64    0.49
  -6 -19  -1    3.11    0.52
   6  19  -1    4.09    0.71
  19  -6   1    3.46    0.46
 -19  -6  -1    2.87    0.63
  -6  19   1    3.44    0.51
   6 -19   1    3.22    0.55
 -19  -6   1    3.40    0.64
 -19  -6   1    2.98    0.47
 -19   6  -1    3.14    0.59
 -19   6  -1    3.68    0.58
   6  19   1    3.90    0.72
  19  -6  -1    3.03    0.43
   6 -19  -1    2.91    0.50
 -19  -6   3    0.87    0.32
 -19   6  -3    0.47    0.42
 -19   6  -3    0.00    0.35
  19  -6  -3    0.33    0.27
 -19  -6   3    1.32    0.54
   6 -19  -3    0.60    0.33
 -19  -6   5    0.42    0.42
 -19   6  -5    0.05    0.32
  19  -6  -5    0.56    0.30
 -19   6  -5    0.46    0.41
   6 -19  -5    0.14    0.31
 -19   6  -7    2.91    0.59
 -19  -6   7    2.67    0.58
 -19   6  -7    3.38    0.61
  19  -6  -7    2.92    0.48
   6 -19  -7    3.02    0.52
 -19   6  -9    0.22    0.35
 -19   6  -9    0.85    0.46
   6 -19  -9    0.63    0.36
 -19  -6   9    0.16    0.43
   6 -19 -11    3.18    0.56
 -19  -6  11    2.12    0.58
  -6  19 -13    4.16    0.67
 -19  -6  13    3.06    0.62
  -6  19 -15   -0.65    0.46
 -19   7  12    5.73    0.70
   7  19 -10    0.10    0.50
 -19  -7 -10   -0.01    0.34
   7  19 -10    0.08    0.39
  -7 -19 -10    0.68    0.37
  -7  19  10    0.05    0.37
 -19   7  10   -0.93    0.37
   7 -19   8    0.82    0.39
 -19  -7  -8    1.78    0.46
   7  19  -8    1.94    0.48
   7  19  -8    1.05    0.52
 -19   7   8    0.55    0.31
  -7 -19  -8    1.41    0.43
  -7  19   8    1.37    0.46
  19  -7   8    2.00    0.42
   7  19  -6    1.84    0.47
 -19  -7  -6    1.59    0.44
 -19   7   6    1.82    0.44
   7  19  -6    1.09    0.53
  -7 -19  -6    1.07    0.41
  -7  19   6    1.66    0.44
  19  -7   6    1.53    0.36
   7 -19   6    1.39    0.42
 -19  -7  -4    0.92    0.37
 -19   7   4    0.12    0.28
   7  19  -4   -0.46    0.54
  -7 -19  -4   -0.30    0.34
  -7  19   4    0.31    0.30
  19  -7   4    0.29    0.28
   7 -19   4    0.04    0.32
 -19  -7  -2    2.78    0.48
 -19   7   2    3.72    0.59
   7  19  -2    3.71    0.71
  -7 -19  -2    3.14    0.56
 -19  -7  -2    3.69    0.67
  -7  19   2    2.80    0.50
  19  -7   2    3.25    0.48
 -19   7   2    3.21    0.65
   7 -19   2    3.15    0.57
 -19   7   0    0.86    0.46
 -19  -7   0    0.86    0.49
 -19  -7   0    0.88    0.34
 -19   7   0    0.42    0.35
  -7 -19   0    1.90    0.43
   7  19   0    1.58    0.55
  19  -7   0    0.36    0.31
   7 -19   0    1.31    0.43
 -19   7  -2    3.20    0.61
 -19  -7   2    3.08    0.48
 -19   7  -2    2.57    0.53
 -19  -7   2    3.16    0.63
   7  19   2    3.43    0.69
  19  -7  -2    3.81    0.53
   7 -19  -2    3.10    0.54
 -19  -7   4    0.36    0.28
 -19   7  -4    0.01    0.32
 -19   7  -4    0.76    0.46
   7  19   4    0.96    0.54
  19  -7  -4    0.52    0.32
   7 -19  -4    1.16    0.42
 -19  -7   4    0.77    0.48
 -19   7  -6    1.57    0.45
  19  -7  -6    1.40    0.39
 -19  -7   6    1.15    0.50
 -19   7  -6    1.49    0.48
   7 -19  -6    2.42    0.52
 -19   7  -8    1.52    0.46
 -19   7  -8    1.98    0.50
 -19  -7   8    2.00    0.54
  19  -7  -8    1.62    0.41
   7 -19  -8    1.46    0.43
 -19  -7  10    0.26    0.44
   7 -19 -10    0.40    0.37
 -19   7 -10    0.22    0.45
 -19  -7  12    4.26    0.71
 -19  -8  -9   -0.33    0.39
   8  19  -9    0.74    0.44
  -8 -19  -9    0.24    0.38
  -8  19   9   -0.01    0.32
 -19   8   9    0.42    0.31
  19  -8   9    0.15    0.30
   8 -19   7    3.67    0.59
 -19   8   7    3.35    0.54
   8  19  -7    5.20    0.69
 -19  -8  -7    4.04    0.62
   8  19  -7    2.83    0.70
  -8 -19  -7    5.21    0.70
  -8  19   7    3.91    0.61
  19  -8   7    4.22    0.53
 -19  -8  -5    0.65    0.34
 -19   8   5    1.07    0.37
   8  19  -5    1.23    0.57
  -8 -19  -5    0.22    0.31
  -8  19   5    1.02    0.40
  19  -8   5    0.95    0.36
   8 -19   5    0.60    0.32
 -19  -8  -3    4.13    0.58
 -19   8   3    4.80    0.65
   8  19  -3    5.47    0.80
  -8 -19  -3    4.98    0.65
  -8  19   3    4.90    0.62
  19  -8   3    5.05    0.57
   8 -19   3    5.21    0.65
 -19  -8  -1    0.00    0.29
 -19   8   1   -0.18    0.33
   8  19  -1   -0.05    0.47
  -8 -19  -1   -0.10    0.33
 -19   8   1    0.58    0.47
  19  -8   1    0.15    0.29
   8 -19   1    0.21    0.30
 -19   8  -1    0.23    0.40
 -19  -8   1    0.54    0.29
 -19   8  -1   -0.03    0.31
 -19  -8   1    0.12    0.45
   8  19   1   -0.03    0.46
  -8 -19   1   -0.19    0.31
  19  -8  -1    0.04    0.28
   8 -19  -1   -0.02    0.31
 -19   8  -3    3.58    0.64
 -19  -8   3    4.79    0.57
 -19   8  -3    6.20    0.78
   8  19   3    5.71    0.83
  19  -8  -3    5.03    0.59
   8 -19  -3    5.82    0.69
 -19  -8   3    5.92    0.79
 -19  -8   5    0.98    0.34
 -19   8  -5    0.35    0.36
 -19   8  -5    1.27    0.44
 -19  -8   5    2.59    0.61
   8  19   5    2.19    0.64
  19  -8  -5    1.14    0.41
   8 -19  -5    0.35    0.35
 -19  -8   7    4.58    0.71
 -19   8  -7    5.13    0.73
  19  -8  -7    3.84    0.57
   8  19   7    4.95    0.78
   8 -19  -7    4.08    0.62
 -19   8  -7    4.21    0.67
 -19   8  -9   -0.23    0.43
 -19  -8   9    0.06    0.39
 -19  -8  11    0.40    0.41
  19  -9  10    0.09    0.32
 -19  -9  -8    8.69    0.90
   9  19  -8    6.91    0.82
  -9  19   8    6.53    0.79
 -19   9   8    6.01    0.73
  19  -9   8    6.48    0.68
   9  19  -6    0.23    0.53
 -19  -9  -6    1.18    0.44
  -9 -19  -6    0.36    0.34
  -9  19   6    0.42    0.35
  19  -9   6    1.11    0.38
   9 -19   6    0.69    0.37
 -19   9   4    0.77    0.38
 -19  -9  -4    2.04    0.46
   9  19  -4    0.95    0.53
  -9 -19  -4    1.38    0.44
  -9  19   4    1.05    0.40
  19  -9   4    1.32    0.41
   9 -19   4    1.50    0.43
 -19  -9  -2    5.29    0.67
 -19   9   2    5.32    0.71
   9  19  -2    4.68    0.78
  -9 -19  -2    6.14    0.72
  -9  19   2    5.20    0.67
  19  -9   2    5.71    0.63
   9 -19   2    5.53    0.71
 -19   9   0   10.44    0.97
 -19  -9   0    9.16    0.81
   9  19   0    8.38    0.95
  -9 -19   0    7.03    0.77
  19  -9   0    7.02    0.69
 -19   9   0    9.74    0.96
   9 -19   0    8.08    0.81
 -19   9  -2    4.87    0.73
 -19  -9   2    5.24    0.62
 -19   9  -2    6.56    0.79
   9  19   2    5.50    0.82
  -9 -19   2    4.35    0.61
  19  -9  -2    3.66    0.56
   9 -19  -2    6.26    0.73
 -19   9  -4    0.75    0.42
 -19  -9   4    2.13    0.59
 -19  -9   4    0.79    0.32
 -19   9  -4    1.35    0.47
   9  19   4    1.50    0.63
  19  -9  -4    1.24    0.38
   9 -19  -4    1.19    0.43
 -19  -9   6    1.93    0.56
 -19   9  -6    1.39    0.47
 -19   9  -6    1.24    0.48
   9  19   6    1.41    0.56
  19  -9  -6    1.31    0.38
   9 -19  -6    2.05    0.51
   9  19   8    7.14    0.88
  19  -9  -8    6.31    0.71
 -19  -9   8    6.61    0.84
 -19   9  -8    6.88    0.78
 -19  -9  10    1.17    0.54
   9  19  10    1.83    0.64
  19 -10  11   -0.03    0.34
  19 -10   9   -0.01    0.34
 -19 -10  -7    3.87    0.64
 -10  19   7    3.77    0.64
  19 -10   7    2.86    0.51
 -19 -10  -5    3.55    0.59
 -10  19   5    4.03    0.62
  19 -10   5    2.84    0.50
 -19  10   3    6.19    0.75
 -19 -10  -3    5.12    0.68
  10  19  -3    4.65    0.81
 -10 -19  -3    4.86    0.68
 -10  19   3    4.19    0.62
  19 -10   3    4.50    0.59
  10 -19   3    5.34    0.69
 -19  10   1    2.04    0.49
 -19 -10  -1    1.84    0.45
  10  19  -1    1.35    0.57
 -10 -19  -1    2.60    0.54
  19 -10   1    2.56    0.49
  10 -19   1    1.49    0.46
 -19  10  -1    0.78    0.42
 -19 -10   1    1.61    0.41
  10  19   1    2.18    0.64
 -10 -19   1    1.22    0.39
 -19  10  -1    2.34    0.61
  19 -10  -1    1.42    0.40
  10 -19  -1    2.21    0.52
 -19  10  -3    4.39    0.70
 -19  10  -3    5.00    0.72
 -19 -10   3    4.72    0.60
  10  19   3    6.02    0.86
 -10 -19   3    5.89    0.72
  19 -10  -3    5.12    0.64
  10 -19  -3    5.36    0.71
 -19  10  -5    2.95    0.63
 -19 -10   5    2.47    0.45
  10  19   5    2.99    0.70
  19 -10  -5    2.53    0.53
 -19 -10   7    3.37    0.66
  10  19   7    4.06    0.77
 -19  10  -7    2.90    0.59
  19 -10  -7    3.23    0.57
  19 -10  -9    0.37    0.38
 -19  10 -11    0.39    0.42
  19 -11  10    3.75    0.59
  19 -11   8    2.08    0.49
  19 -11   6    0.61    0.37
 -19 -11  -4    3.77    0.61
 -11  19   4    2.01    0.52
  19 -11   4    3.43    0.55
 -19 -11  -2    1.23    0.44
  19 -11   2    1.01    0.41
 -19  11   0    1.40    0.48
 -19 -11   0    0.57    0.35
 -19 -11   2    0.95    0.34
 -19  11  -2    1.02    0.53
  19 -11  -2    1.23    0.43
 -19  11  -4    2.61    0.58
 -19 -11   4    1.48    0.41
  19 -11  -4    2.32    0.51
 -19  11  -6    0.56    0.44
 -19 -11   6    0.44    0.31
  19 -11  -6    1.47    0.46
  19 -11  -8    0.84    0.41
  19 -12   7    5.79    0.71
  19 -12   5    0.92    0.39
  19 -12   3    3.11    0.54
 -19 -12  -1    1.41    0.44
  19 -12   1    2.09    0.49
 -19 -12   1    1.27    0.41
  19 -12  -1    1.73    0.46
 -19 -12   3    4.41    0.62
  19 -12  -3    2.94    0.54
 -19  12  -3    4.47    0.72
 -19  12  -5    0.67    0.45
 -19 -12   5    0.78    0.36
  19 -12  -5    1.04    0.40
  19 -13   2   -0.40    0.37
  19 -13   0    2.81    0.55
 -19 -13   4    2.72    0.51
 -19  13  -4    4.05    0.70
 -19 -13   6    4.13    0.61
 -20   0   0    2.68    0.57
 -20   0   0    3.42    0.57
   0 -20   0    2.92    0.48
 -20   0  -2    0.71    0.48
 -20   0   2    0.46    0.30
 -20   0  -2    0.41    0.31
   0 -20  -2    0.45    0.30
   0 -20   2    0.79    0.31
 -20   0   2   -0.09    0.46
   0 -20  -4    0.70    0.33
 -20   0   4    0.66    0.32
 -20   0  -4    1.02    0.39
   0  20   4    0.64    0.29
   0 -20  -4    0.82    0.33
 -20   0   4   -0.30    0.45
 -20   0  -4    1.46    0.53
   0 -20   4    0.94    0.36
 -20   0  -4    0.44    0.28
   0 -20   6    1.28    0.37
   0  20  -6    1.12    0.37
   0 -20  -6    1.06    0.35
 -20   0  -6    1.27    0.52
   0  20  -6    2.69    0.67
 -20   0   6    0.65    0.31
 -20   0   6    0.51    0.42
 -20   0  -6    0.95    0.41
   0  20   6    0.97    0.35
   0 -20  -6    1.75    0.41
 -20   0  -6    1.39    0.40
   0 -20   8    0.65    0.35
   0  20  -8    0.87    0.37
 -20   0  -8    1.91    0.55
   0 -20  -8    0.82    0.34
   0  20  -8    0.93    0.51
 -20   0   8    0.34    0.41
 -20   0   8    0.92    0.30
 -20   0  -8    0.95    0.40
   0  20   8    0.80    0.35
   0 -20  -8    0.65    0.33
 -20   0  -8    0.79    0.41
   0  20 -10    4.38    0.61
   0 -20 -10    3.96    0.55
   0  20 -10    3.57    0.70
 -20   0  10    4.18    0.70
   0 -20 -10    4.21    0.58
   0  20  10    4.27    0.60
 -20   0 -10    5.12    0.74
 -20   0 -10    3.30    0.58
   0  20 -12    1.94    0.52
   0  20 -12    1.49    0.58
   0 -20 -12    1.88    0.41
   0 -20 -12    1.67    0.43
   0  20  12    2.28    0.51
 -20   0 -12    1.63    0.46
   0  20 -14    1.83    0.59
   0  20  14    2.24    0.52
   1  20 -15    3.12    0.67
   1  20 -13    0.00    0.57
   1  20 -13    1.13    0.48
  -1 -20 -13    1.04    0.38
  -1  20  13    0.50    0.40
   1  20 -11    0.60    0.42
   1  20 -11    0.68    0.51
  -1 -20 -11    0.99    0.37
  -1 -20 -11    0.96    0.38
  -1  20  11    1.38    0.40
 -20  -1 -11    0.59    0.39
   1 -20   9    0.86    0.36
   1  20  -9    1.07    0.43
 -20   1   9    0.93    0.46
  -1 -20  -9    0.15    0.28
   1  20  -9    1.19    0.55
  -1 -20  -9    0.41    0.31
  -1  20   9    0.46    0.33
 -20  -1  -9    1.12    0.53
 -20  -1  -9    0.64    0.38
 -20  -1  -7    4.47    0.62
   1 -20   7    4.50    0.59
   1  20  -7    4.35    0.59
 -20  -1  -7    5.59    0.77
 -20   1   7    4.55    0.71
  -1 -20  -7    4.43    0.60
   1  20  -7    4.38    0.73
 -20   1   7    4.89    0.59
  -1  20   7    4.48    0.58
  -1 -20  -7    4.61    0.56
 -20  -1  -5    3.74    0.56
   1  20  -5    2.84    0.47
  -1 -20  -5    3.59    0.56
 -20  -1  -5    3.46    0.66
 -20   1   5    3.81    0.67
 -20   1   5    3.36    0.54
  -1  20   5    3.45    0.48
  -1 -20  -5    3.30    0.49
   1 -20   5    4.46    0.58
 -20  -1  -3    0.69    0.34
 -20  -1  -3    1.91    0.54
  -1 -20  -3    1.89    0.43
 -20   1   3    1.15    0.38
 -20   1   3    0.83    0.47
  -1  20   3    1.31    0.33
  -1 -20  -3    1.45    0.35
   1 -20   3    0.58    0.33
 -20   1   1    0.43    0.33
 -20  -1  -1    0.47    0.47
  -1  20   1    0.40    0.25
  -1 -20  -1    1.00    0.34
 -20   1   1   -0.08    0.45
   1 -20   1    0.99    0.36
 -20   1  -1    0.33    0.43
 -20  -1   1    0.67    0.47
 -20   1  -1    1.10    0.42
 -20  -1   1    0.69    0.34
   1 -20  -1    0.92    0.34
  -1 -20   1    1.37    0.39
 -20  -1   3    1.24    0.51
 -20   1  -3    0.88    0.49
 -20   1  -3    2.34    0.51
 -20  -1   3    1.16    0.38
   1 -20  -3    1.17    0.36
  -1 -20   3    1.13    0.35
 -20   1  -3    1.62    0.38
   1 -20  -5    3.28    0.49
 -20   1  -5    3.58    0.61
 -20  -1   5    4.02    0.58
   1 -20  -5    2.69    0.48
 -20  -1   5    2.81    0.61
 -20   1  -5    3.76    0.68
 -20   1  -5    3.13    0.50
  -1 -20   5    2.61    0.45
  -1 -20   7    4.50    0.55
  -1  20  -7    3.91    0.55
 -20   1  -7    3.57    0.65
   1 -20  -7    5.01    0.60
  -1  20  -7    6.72    0.85
 -20  -1   7    5.20    0.62
 -20   1  -7    5.64    0.74
   1  20   7    5.17    0.60
   1 -20  -7    4.37    0.58
 -20  -1   7    4.01    0.69
 -20   1  -7    6.38    0.68
  -1 -20   9    0.41    0.32
  -1  20  -9    0.43    0.33
 -20   1  -9    1.09    0.48
   1 -20  -9    0.37    0.28
  -1  20  -9    0.63    0.51
 -20   1  -9    1.37    0.52
   1  20   9    0.49    0.33
   1 -20  -9    0.68    0.38
 -20  -1   9    0.35    0.39
 -20   1  -9    0.51    0.36
  -1  20 -11    1.09    0.46
 -20   1 -11    0.92    0.52
   1 -20 -11    1.46    0.38
  -1  20 -11    0.05    0.47
 -20  -1  11    1.81    0.56
   1 -20 -11    1.62    0.45
   1  20  11    1.73    0.48
 -20   1 -11    0.70    0.37
  -1  20 -13    0.36    0.36
  -1  20 -13    0.86    0.52
   1  20  13    0.66    0.40
   2  20 -14   -0.05    0.56
  -2 -20 -14   -0.02    0.33
   2  20 -12   -0.41    0.49
   2  20 -12    0.15    0.36
  -2 -20 -12   -0.10    0.30
  -2  20  12    0.71    0.38
 -20  -2 -12   -0.49    0.42
 -20  -2 -10    0.42    0.34
   2 -20  10    0.29    0.33
 -20   2  10    0.61    0.46
   2  20 -10    0.10    0.32
   2  20 -10    0.65    0.51
  -2 -20 -10    0.50    0.36
  -2 -20 -10    0.46    0.31
  -2  20  10    0.50    0.34
 -20   2  10    0.12    0.26
 -20  -2  -8    3.67    0.58
   2 -20   8    3.62    0.53
   2  20  -8    4.22    0.61
 -20   2   8    3.56    0.67
   2  20  -8    3.55    0.68
  -2 -20  -8    4.01    0.58
 -20   2   8    4.61    0.56
  -2 -20  -8    3.89    0.52
  -2  20   8    4.42    0.60
 -20   2   8    3.71    0.51
 -20  -2  -8    4.82    0.73
   2 -20   6    3.47    0.53
 -20  -2  -6    4.40    0.59
   2  20  -6    3.29    0.53
 -20   2   6    2.80    0.63
 -20  -2  -6    3.48    0.62
  -2 -20  -6    2.67    0.51
   2  20  -6    3.72    0.69
 -20   2   6    3.53    0.54
  -2 -20  -6    3.73    0.50
  -2  20   6    2.51    0.46
 -20  -2  -4   -0.14    0.29
   2  20  -4   -0.05    0.30
 -20   2   4    0.12    0.42
  -2 -20  -4    0.23    0.29
 -20   2   4    0.36    0.31
   2  20  -4    1.17    0.57
 -20  -2  -4    0.22    0.47
  -2  20   4   -0.13    0.30
  -2 -20  -4    0.06    0.25
   2 -20   4    0.57    0.36
 -20  -2  -2    3.59    0.52
 -20  -2  -2    3.85    0.69
 -20   2   2    4.65    0.63
 -20   2   2    3.55    0.65
  -2  20   2    3.33    0.47
  -2 -20  -2    4.13    0.52
   2 -20   2    2.97    0.50
 -20   2   0   12.10    0.99
 -20  -2   0   11.32    1.03
  -2  20   0   11.25    0.78
  -2 -20   0   11.37    0.81
   2 -20   0   11.20    0.87
 -20   2   0   12.96    1.07
 -20   2  -2    2.72    0.60
 -20  -2   2    2.43    0.53
 -20   2  -2    5.35    0.71
   2 -20  -2    4.13    0.56
  -2 -20   2    3.87    0.50
 -20  -2   4   -0.64    0.49
 -20   2  -4   -0.20    0.44
   2 -20  -4    0.52    0.29
 -20   2  -4    0.48    0.39
   2 -20  -4   -0.06    0.29
 -20   2  -4    0.29    0.26
  -2 -20   4    0.03    0.26
  -2 -20   6    2.62    0.45
 -20  -2   6    2.69    0.59
   2 -20  -6    3.46    0.51
 -20   2  -6    3.58    0.64
 -20  -2   6    3.46    0.52
   2 -20  -6    2.84    0.51
 -20   2  -6    2.92    0.61
 -20   2  -6    3.70    0.53
  -2 -20   8    3.83    0.52
   2 -20  -8    4.09    0.53
 -20   2  -8    4.20    0.68
  -2  20  -8    4.42    0.73
 -20   2  -8    4.41    0.69
 -20  -2   8    3.88    0.53
   2  20   8    3.20    0.52
   2 -20  -8    4.02    0.57
 -20  -2   8    3.48    0.64
 -20   2  -8    5.49    0.67
  -2  20 -10    0.61    0.38
 -20   2 -10    0.40    0.48
   2 -20 -10    0.19    0.27
  -2  20 -10    1.21    0.52
   2  20  10    0.11    0.30
   2 -20 -10    0.06    0.29
 -20  -2  10    1.24    0.47
 -20   2 -10    0.08    0.30
  -2  20 -12   -0.15    0.38
  -2  20 -12    0.35    0.51
   2 -20 -12    0.38    0.33
   2  20  12    0.08    0.35
 -20   2 -12    0.27    0.32
 -20   2 -12    0.64    0.47
  -2  20 -14   -0.52    0.38
   2  20  14   -0.21    0.35
  -3 -20 -15    0.55    0.35
   3  20 -13    0.22    0.49
  -3 -20 -13    0.06    0.31
  -3  20  13   -0.30    0.36
 -20  -3 -11    0.52    0.37
   3  20 -11   -0.01    0.35
   3  20 -11   -0.31    0.49
  -3 -20 -11    0.79    0.36
  -3  20  11    0.56    0.33
 -20   3  11    0.51    0.28
 -20  -3  -9    2.39    0.51
   3 -20   9    2.54    0.52
 -20   3   9    2.31    0.60
   3  20  -9    3.19    0.59
   3  20  -9    3.20    0.65
  -3 -20  -9    2.72    0.49
  -3  20   9    2.11    0.46
 -20   3   9    2.48    0.47
   3 -20   7    0.63    0.37
 -20  -3  -7    1.53    0.56
 -20  -3  -7    0.58    0.35
   3  20  -7    0.37    0.31
 -20   3   7   -0.05    0.42
   3  20  -7    0.67    0.50
  -3 -20  -7    0.80    0.36
 -20   3   7    0.26    0.28
  -3 -20  -7    0.88    0.34
  -3  20   7    0.57    0.33
 -20  -3  -5    4.63    0.60
   3  20  -5    4.39    0.59
 -20   3   5    5.01    0.72
  -3 -20  -5    5.25    0.65
 -20  -3  -5    5.03    0.75
 -20   3   5    3.96    0.57
   3  20  -5    4.37    0.73
  -3 -20  -5    5.09    0.56
  -3  20   5    4.95    0.60
   3 -20   5    4.41    0.61
   3  20  -3   12.86    0.91
   3  20  -3   13.49    1.15
 -20   3   3   12.96    0.99
  -3 -20  -3   13.47    1.00
  -3 -20  -3   13.76    0.88
  -3  20   3   12.12    0.88
 -20   3   3   13.53    1.12
   3 -20   3   10.22    0.86
 -20  -3  -3   11.71    1.04
 -20  -3  -3   13.43    0.95
 -20  -3  -1    2.68    0.45
 -20  -3  -1    2.65    0.63
 -20   3   1    2.20    0.49
 -20   3   1    2.41    0.60
  -3  20   1    2.08    0.41
  -3 -20  -1    1.57    0.36
   3 -20   1    1.94    0.45
 -20   3  -1    2.88    0.54
 -20   3  -1    2.38    0.60
  -3  20  -1    2.74    0.43
   3 -20  -1    2.04    0.47
  -3 -20   1    2.06    0.39
 -20  -3   1    1.39    0.53
 -20   3  -3   11.88    1.02
 -20  -3   3   11.97    1.05
 -20   3  -3   12.95    1.06
   3 -20  -3   12.75    0.94
  -3  20  -3   12.99    0.85
  -3 -20   3   11.14    0.81
 -20   3  -5    4.99    0.72
 -20  -3   5    5.22    0.77
   3 -20  -5    4.14    0.53
 -20   3  -5    4.84    0.69
   3 -20  -5    4.84    0.61
 -20   3  -5    4.39    0.56
  -3 -20   5    4.55    0.55
  -3 -20   7    0.71    0.31
 -20  -3   7    0.70    0.46
   3 -20  -7    0.90    0.33
 -20   3  -7    0.26    0.32
   3 -20  -7    1.06    0.39
 -20   3  -7    0.12    0.41
 -20   3  -7    0.30    0.28
  -3 -20   9    2.13    0.43
 -20  -3   9    1.87    0.57
 -20   3  -9    3.29    0.65
  -3  20  -9    2.62    0.62
 -20   3  -9    2.86    0.58
   3 -20  -9    3.11    0.55
 -20   3  -9    1.95    0.46
  -3  20 -11    0.53    0.33
  -3  20 -11    0.81    0.54
 -20   3 -11    0.87    0.49
   3 -20 -11    0.80    0.38
 -20   3 -11    0.32    0.35
 -20  -3  11    0.90    0.47
  -3  20 -13   -0.14    0.35
   3  20  13   -0.08    0.34
   3  20  15    0.18    0.39
 -20   4  14    2.10    0.47
   4  20 -12    0.73    0.42
  -4 -20 -12    0.00    0.32
  -4  20  12    0.17    0.39
 -20   4  12    0.31    0.32
 -20  -4 -10    1.99    0.49
   4  20 -10    1.72    0.49
   4  20 -10    2.56    0.67
  -4 -20 -10    2.44    0.50
  -4  20  10    2.45    0.52
 -20   4  10    2.81    0.50
   4 -20   8    5.16    0.65
 -20  -4  -8    6.19    0.73
   4  20  -8    5.24    0.67
   4  20  -8    5.19    0.78
 -20   4   8    6.00    0.66
  -4 -20  -8    5.54    0.66
  -4  20   8    5.80    0.68
 -20   4   8    5.64    0.80
 -20   4   6    2.32    0.62
 -20  -4  -6    3.05    0.53
   4  20  -6    2.65    0.51
 -20   4   6    2.64    0.51
   4  20  -6    2.86    0.65
  -4 -20  -6    2.96    0.52
 -20  -4  -6    3.63    0.68
  -4  20   6    2.66    0.48
   4 -20   6    2.53    0.51
 -20  -4  -4    4.07    0.58
   4  20  -4    3.99    0.56
 -20   4   4    5.04    0.77
 -20   4   4    4.39    0.60
  -4 -20  -4    5.57    0.67
   4  20  -4    5.28    0.82
 -20  -4  -4    4.62    0.71
  -4  20   4    5.38    0.62
   4 -20   4    4.68    0.61
 -20  -4  -2   11.41    0.87
   4  20  -2   11.87    1.07
 -20   4   2   11.15    0.95
  -4 -20  -2    9.79    0.87
  -4  20   2   10.98    0.84
 -20   4   2   12.38    1.08
   4 -20   2   10.89    0.88
 -20  -4  -2    9.51    0.96
 -20  -4   0    3.85    0.52
 -20  -4   0    5.04    0.76
 -20   4   0    4.14    0.70
 -20   4   0    3.48    0.57
   4  20   0    4.81    0.77
  -4  20   0    3.17    0.47
  -4 -20   0    2.84    0.44
   4 -20   0    3.85    0.57
 -20   4  -2    9.65    0.93
 -20  -4   2   11.48    1.03
   4 -20  -2    9.99    0.85
  -4  20  -2    9.70    0.77
  -4 -20   2   10.06    0.74
 -20   4  -2    9.03    0.94
 -20   4  -4    4.70    0.68
   4 -20  -4    5.00    0.64
 -20  -4   4    5.07    0.75
 -20   4  -4    4.14    0.67
  -4 -20   4    4.73    0.54
  -4 -20   6    2.75    0.44
 -20   4  -6    2.87    0.59
   4 -20  -6    2.87    0.44
 -20   4  -6    3.68    0.63
 -20  -4   6    4.21    0.71
   4 -20  -6    3.66    0.57
  -4 -20   8    5.74    0.60
 -20  -4   8    5.09    0.75
 -20   4  -8    6.71    0.83
  -4  20  -8    7.28    0.87
   4 -20  -8    6.37    0.72
 -20   4  -8    5.41    0.74
 -20  -4  10    2.55    0.60
  -4  20 -10    3.04    0.68
 -20   4 -10    2.42    0.60
   4 -20 -10    2.63    0.54
  -4  20 -12    0.63    0.38
  -4  20 -14    2.09    0.55
 -20   5  13    4.52    0.64
   5  20 -11    3.99    0.67
  -5 -20 -11    5.37    0.69
  -5  20  11    4.46    0.66
 -20   5  11    5.20    0.65
 -20  -5  -9   -0.09    0.34
   5  20  -9   -0.03    0.36
   5  20  -9   -0.08    0.50
  -5 -20  -9   -0.18    0.34
  -5  20   9    0.05    0.32
 -20   5   9    0.04    0.25
   5 -20   7    5.10    0.65
 -20  -5  -7    5.20    0.68
   5  20  -7    4.67    0.64
 -20   5   7    4.36    0.60
   5  20  -7    3.11    0.72
  -5 -20  -7    4.47    0.63
  -5  20   7    4.59    0.62
 -20   5   7    5.05    0.75
 -20   5   5    5.01    0.76
 -20  -5  -5    5.12    0.64
   5  20  -5    5.14    0.66
 -20  -5  -5    6.92    0.85
 -20   5   5    5.84    0.69
   5  20  -5    6.86    0.89
  -5 -20  -5    4.30    0.62
  -5  20   5    5.98    0.68
   5 -20   5    5.86    0.69
 -20   5   3    1.18    0.50
 -20  -5  -3    1.20    0.38
 -20   5   3    1.04    0.38
   5  20  -3    1.03    0.56
  -5  20   3    0.58    0.33
 -20  -5  -3    0.90    0.50
   5 -20   3    0.37    0.33
 -20  -5  -1    7.52    0.72
 -20  -5  -1    6.86    0.84
 -20   5   1    7.00    0.77
 -20   5   1    7.17    0.87
  -5 -20  -1    8.22    0.80
   5  20  -1    7.81    0.93
  -5  20   1    8.55    0.76
   5 -20   1    7.94    0.77
 -20  -5   1    7.21    0.68
 -20   5  -1    8.61    0.85
 -20   5  -1    7.67    0.87
   5  20   1    8.19    0.93
 -20  -5   1    7.06    0.86
  -5  20  -1    7.47    0.70
   5 -20  -1    7.35    0.75
 -20  -5   3    2.03    0.56
 -20   5  -3    1.48    0.47
 -20   5  -3    1.28    0.50
   5 -20  -3    0.97    0.38
 -20  -5   5    5.73    0.79
   5 -20  -5    5.26    0.56
 -20   5  -5    6.64    0.81
   5 -20  -5    5.40    0.66
 -20   5  -5    5.29    0.76
 -20   5  -7    4.82    0.73
 -20   5  -7    3.69    0.66
   5 -20  -7    4.88    0.64
 -20  -5   7    4.98    0.76
  -5  20  -9    1.07    0.49
   5 -20  -9   -0.14    0.32
 -20  -5   9   -0.04    0.44
 -20   5  -9    0.30    0.42
   6  20 -10    1.67    0.49
  -6 -20 -10    1.56    0.44
  -6  20  10    2.19    0.51
 -20   6  10    1.70    0.44
 -20  -6  -8    1.55    0.46
   6  20  -8    2.85    0.56
   6  20  -8    1.56    0.63
 -20   6   8    2.75    0.48
  -6 -20  -8    3.01    0.55
  -6  20   8    3.39    0.59
 -20  -6  -6    1.73    0.43
   6  20  -6    1.34    0.44
 -20   6   6    1.76    0.43
   6  20  -6    2.08    0.61
  -6 -20  -6    1.58    0.44
 -20   6   6    1.77    0.56
  -6  20   6    1.63    0.44
   6 -20   6    1.75    0.47
 -20  -6  -4    2.03    0.44
 -20   6   4    1.84    0.46
   6  20  -4    2.75    0.67
  -6 -20  -4    2.09    0.47
 -20  -6  -4    2.86    0.63
  -6  20   4    1.67    0.41
   6 -20   4    3.11    0.54
 -20   6   4    2.43    0.60
 -20   6   2    4.62    0.74
 -20  -6  -2    5.40    0.63
 -20   6   2    5.25    0.68
 -20  -6  -2    6.37    0.85
   6  20  -2    5.35    0.85
  -6 -20  -2    4.40    0.63
  -6  20   2    5.49    0.64
   6 -20   2    5.40    0.70
 -20  -6   0    2.70    0.47
 -20   6   0    3.12    0.64
 -20   6   0    2.75    0.54
  -6 -20   0    1.71    0.45
 -20  -6   0    3.54    0.67
   6  20   0    3.08    0.69
  -6  20   0    2.27    0.45
   6 -20   0    1.45    0.42
 -20  -6   2    5.56    0.61
 -20   6  -2    5.85    0.74
 -20   6  -2    4.90    0.72
   6  20   2    5.26    0.81
  20  -6  -2    5.15    0.58
   6 -20  -2    5.81    0.68
 -20  -6   2    4.29    0.72
 -20   6  -4    1.92    0.53
  20  -6  -4    1.98    0.40
 -20  -6   4    3.04    0.65
 -20   6  -4    2.23    0.57
   6 -20  -4    2.29    0.49
 -20  -6   6    1.56    0.54
 -20   6  -6    1.18    0.46
  20  -6  -6    1.29    0.38
   6 -20  -6    2.07    0.48
 -20   6  -6    1.66    0.55
 -20  -6   8    3.06    0.65
 -20   6  -8    1.98    0.54
   6 -20  -8    3.13    0.55
 -20   6 -10    2.23    0.59
   7  20  -9    0.15    0.37
  -7  20   9    0.03    0.35
 -20   7   9    0.17    0.31
   7  20  -7    4.70    0.68
 -20  -7  -7    4.83    0.69
 -20   7   7    4.78    0.66
  -7 -20  -7    6.79    0.76
  -7  20   7    4.78    0.66
 -20  -7  -5    1.67    0.42
 -20   7   5    1.70    0.42
   7  20  -5    1.93    0.64
  -7 -20  -5    2.65    0.53
 -20   7   5    1.42    0.54
  -7  20   5    2.53    0.50
   7 -20   5    1.80    0.47
 -20  -7  -3    1.23    0.40
 -20   7   3    0.52    0.33
   7  20  -3   -0.07    0.54
  -7 -20  -3    0.88    0.39
  -7  20   3    0.65    0.36
   7 -20   3    0.47    0.36
 -20   7   3    0.54    0.48
 -20   7   1    4.35    0.71
 -20  -7  -1    3.59    0.55
 -20   7   1    4.03    0.64
   7  20  -1    3.08    0.71
  -7 -20  -1    3.27    0.56
 -20  -7  -1    3.95    0.69
  20  -7   1    4.35    0.54
  -7  20   1    4.34    0.60
   7 -20   1    3.20    0.57
 -20  -7   1    2.71    0.47
 -20   7  -1    3.57    0.68
 -20   7  -1    3.89    0.64
  -7 -20   1    3.77    0.59
   7  20   1    4.94    0.78
  20  -7  -1    4.58    0.54
   7 -20  -1    3.49    0.57
 -20  -7   1    3.79    0.70
 -20  -7   3    1.43    0.55
 -20   7  -3    0.01    0.35
 -20   7  -3    0.80    0.50
   7  20   3    1.03    0.58
  20  -7  -3    0.42    0.34
   7 -20  -3    0.65    0.38
 -20   7  -5    1.69    0.48
   7  20   5    3.07    0.68
  20  -7  -5    1.43    0.40
 -20   7  -5    1.54    0.52
   7 -20  -5    1.79    0.46
 -20  -7   5    1.42    0.55
 -20   7  -7    5.54    0.74
  20  -7  -7    5.98    0.65
 -20  -7   7    6.24    0.81
 -20   7  -9    0.27    0.42
   8  20  -8    6.14    0.78
  -8  20   8    6.08    0.77
 -20  -8  -6    0.70    0.41
 -20   8   6    0.55    0.38
  -8  20   6   -0.13    0.30
 -20  -8  -4    1.64    0.46
 -20   8   4    1.95    0.48
  -8 -20  -4    2.19    0.49
  -8  20   4    1.83    0.47
  20  -8   4    0.98    0.37
 -20  -8  -2    3.99    0.58
 -20   8   2    4.26    0.65
   8  20  -2    3.97    0.79
  -8 -20  -2    4.20    0.66
  -8  20   2    3.15    0.57
  20  -8   2    5.11    0.59
   8 -20   2    3.84    0.59
 -20   8   2    2.89    0.64
 -20   8   0    2.53    0.61
 -20  -8   0    3.52    0.55
 -20   8   0    4.61    0.68
   8  20   0    4.14    0.76
 -20  -8   0    5.01    0.78
  -8 -20   0    3.08    0.57
  20  -8   0    3.46    0.50
   8 -20   0    3.72    0.61
 -20   8  -2    4.54    0.74
 -20  -8   2    3.81    0.56
 -20   8  -2    4.15    0.67
   8  20   2    5.82    0.85
  -8 -20   2    3.42    0.59
  20  -8  -2    4.14    0.56
 -20  -8   2    4.81    0.77
   8 -20  -2    4.46    0.65
 -20   8  -4    1.22    0.54
   8  20   4    2.63    0.68
  20  -8  -4    1.60    0.43
   8 -20  -4    1.58    0.51
 -20  -8   4    2.94    0.66
  20  -8  -6    0.23    0.31
 -20   8  -6    0.10    0.41
 -20   8  -8    7.61    0.86
  20  -8  -8    5.92    0.70
 -20   9   5    6.37    0.76
 -20  -9  -5    5.58    0.72
  -9  20   5    7.01    0.79
  20  -9   5    5.43    0.63
 -20  -9  -3   11.31    0.97
 -20   9   3   11.75    1.01
  20  -9   3   10.36    0.85
  -9  20   3   11.67    0.98
 -20  -9  -1    5.55    0.67
 -20   9   1    5.63    0.73
  20  -9   1    4.98    0.62
  -9  20   1    5.29    0.68
 -20   9   1    5.90    0.81
 -20   9  -1    5.75    0.80
 -20  -9   1    5.31    0.68
 -20   9  -1    5.79    0.79
  20  -9  -1    5.65    0.64
 -20  -9   3   10.60    0.89
  20  -9  -3   10.99    0.87
 -20   9  -3   13.67    1.12
 -20   9  -5    6.26    0.81
  20  -9  -5    6.56    0.70
  20  -9  -7    3.53    0.57
 -20   9  -7    3.33    0.65
  20 -10   8    6.59    0.72
  20 -10   6    1.14    0.42
 -20 -10  -4    5.85    0.74
 -10  20   4    6.35    0.76
  20 -10   4    4.60    0.61
 -20  10   2    8.73    0.91
 -20 -10  -2    7.69    0.83
 -10  20   2    9.01    0.88
  20 -10   2    6.04    0.68
 -20 -10   0   10.97    0.94
  20 -10   0   10.66    0.88
 -20  10  -2    9.17    0.96
 -20 -10   2    8.56    0.82
  20 -10  -2    7.89    0.79
 -20  10  -4    6.34    0.82
 -20 -10   4    4.48    0.60
  20 -10  -4    4.37    0.62
 -20  10  -6    0.77    0.48
  20 -10  -6    1.40    0.47
  20 -10  -8    7.96    0.82
  20 -11   7    5.80    0.70
  20 -11   5    7.07    0.76
  20 -11   3    0.91    0.41
 -20 -11  -1    5.76    0.72
  20 -11   1    6.13    0.70
 -20 -11   1    6.02    0.74
  20 -11  -1    5.19    0.67
 -20  11  -3    0.84    0.51
 -20 -11   3   -0.34    0.35
  20 -11  -3    1.01    0.44
 -20  11  -5    7.89    0.91
  20 -11  -5    7.67    0.81
  20 -12   4    4.64    0.64
  20 -12   2    5.12    0.66
  20 -12   0   -0.15    0.38
  20 -12  -2    3.78    0.62
 -20  12  -4    4.36    0.76
 -20 -12   4    4.60    0.64
 -21   0   1   -0.74    0.51
 -21   0  -1    0.29    0.47
 -21   0   1   -0.05    0.33
 -21   0  -1   -0.27    0.32
   0 -21  -1    0.22    0.29
   0 -21   1   -0.35    0.31
   0 -21  -3    3.54    0.55
 -21   0   3    3.27    0.54
 -21   0  -3    3.50    0.60
   0 -21  -3    5.07    0.61
 -21   0  -3    3.89    0.70
   0 -21   3    4.34    0.58
 -21   0   3    3.23    0.65
 -21   0  -5    0.84    0.52
   0 -21  -5    0.35    0.31
 -21   0   5   -0.04    0.28
   0  21  -5    1.45    0.65
 -21   0  -5    1.05    0.42
   0 -21  -5    0.69    0.34
 -21   0   5    0.52    0.45
 -21   0  -5    0.42    0.29
   0 -21   5    0.22    0.28
   0 -21  -7    7.19    0.73
 -21   0   7    6.91    0.74
   0  21  -7    7.67    0.91
   0 -21  -7    8.59    0.78
 -21   0  -7    9.19    0.95
   0 -21   7    8.77    0.79
 -21   0  -7    7.86    0.81
   0  21  -9   14.60    1.19
   0  21  -9   13.57    1.02
   0 -21  -9   13.26    0.98
 -21   0  -9   12.98    1.12
   0 -21  -9   11.49    0.94
   0  21   9   12.57    0.98
 -21   0  -9   13.54    1.06
   0 -21   9   13.27    0.98
   0  21 -11   -0.54    0.38
   0  21 -11   -0.13    0.57
   0 -21 -11   -0.12    0.31
   0 -21 -11    0.36    0.33
   0  21  11   -0.17    0.35
 -21   0 -11    0.26    0.36
   0  21 -13    2.54    0.64
   0  21  13    3.29    0.61
   1  21 -12    6.43    0.78
   1  21 -12    5.90    0.88
  -1 -21 -12    5.82    0.71
  -1  21  12    6.42    0.77
   1  21 -10    9.95    0.92
  -1 -21 -10    9.74    0.86
   1  21 -10   10.49    1.05
  -1 -21 -10   10.03    0.85
  -1  21  10   11.31    0.95
 -21  -1 -10   10.88    0.98
   1 -21   8    0.61    0.35
   1  21  -8    0.26    0.33
  -1 -21  -8    0.16    0.28
   1  21  -8    1.61    0.60
  -1 -21  -8    0.19    0.32
  -1  21   8    0.35    0.33
 -21  -1  -8    0.51    0.49
 -21  -1  -8    0.52    0.40
  -1 -21  -6    3.51    0.55
   1  21  -6    2.94    0.71
 -21   1   6    3.45    0.54
 -21   1   6    4.22    0.73
 -21  -1  -6    3.16    0.62
  -1  21   6    2.73    0.47
  -1 -21  -6    3.85    0.53
 -21  -1  -6    3.64    0.70
   1 -21   6    2.85    0.49
 -21  -1  -6    3.68    0.57
 -21   1   4    7.21    0.76
 -21  -1  -4    7.63    0.90
  -1 -21  -4    5.88    0.68
   1  21  -4    7.90    0.98
  -1 -21  -4    7.31    0.71
 -21  -1  -4    7.19    0.82
 -21   1   4    7.08    0.85
 -21  -1  -4    6.82    0.71
   1 -21   4    5.83    0.67
 -21   1   2    0.23    0.34
 -21  -1  -2    0.07    0.34
  -1 -21  -2    0.61    0.32
 -21   1   2    1.04    0.52
   1 -21   2    0.83    0.37
 -21  -1  -2    1.05    0.56
 -21   1   0   -0.08    0.49
 -21   1   0    0.11    0.31
 -21  -1   0   -0.51    0.50
 -21  -1   0    0.14    0.29
  -1 -21   0    0.45    0.30
   1 -21   0    0.11    0.29
 -21  -1   2   -0.19    0.48
 -21   1  -2   -0.53    0.50
 -21   1  -2    0.46    0.37
 -21  -1   2    0.63    0.34
   1 -21  -2    0.80    0.35
  -1 -21   2    0.21    0.28
 -21  -1   4    5.81    0.80
   1 -21  -4    5.93    0.67
 -21   1  -4    6.27    0.79
 -21  -1   4    6.32    0.71
   1 -21  -4    5.66    0.64
 -21   1  -4    6.58    0.83
  -1 -21   4    5.99    0.65
 -21   1  -6    3.03    0.65
   1 -21  -6    3.34    0.53
  -1  21  -6    4.08    0.76
 -21  -1   6    3.77    0.57
 -21   1  -6    3.80    0.64
   1 -21  -6    4.26    0.59
 -21  -1   6    3.55    0.68
 -21   1  -6    4.43    0.58
  -1 -21   6    3.26    0.52
  -1 -21   8   -0.41    0.31
   1 -21  -8    0.33    0.29
  -1  21  -8    0.29    0.56
   1 -21  -8    0.03    0.31
 -21   1  -8    1.07    0.52
 -21   1  -8   -0.31    0.36
   1 -21 -10   10.76    0.86
 -21   1 -10   11.24    1.04
   1 -21 -10    9.87    0.89
 -21   1 -10   10.51    0.95
  -1 -21  10    9.78    0.86
  -1  21 -10   11.28    1.08
  -1  21 -12    4.67    0.68
  -1  21 -12    5.91    0.81
   1 -21 -12    5.64    0.71
   1  21  12    5.61    0.72
  -2 -21 -13    1.05    0.41
   2  21 -11    0.50    0.39
  -2 -21 -11   -0.14    0.32
  -2  21  11    0.60    0.36
   2 -21   9    3.21    0.55
   2  21  -9    2.70    0.58
   2  21  -9    2.38    0.66
  -2 -21  -9    3.00    0.52
  -2  21   9    2.39    0.50
 -21  -2  -9    2.26    0.51
   2 -21   7    2.49    0.51
 -21  -2  -7    3.12    0.55
 -21  -2  -7    3.20    0.67
   2  21  -7    2.54    0.53
  -2 -21  -7    2.43    0.48
   2  21  -7    3.41    0.73
 -21   2   7    3.58    0.55
  -2 -21  -7    2.66    0.46
  -2  21   7    3.44    0.54
 -21  -2  -5    1.42    0.39
 -21  -2  -5    2.56    0.65
  -2 -21  -5    1.72    0.44
 -21   2   5    1.27    0.52
   2  21  -5    3.08    0.72
 -21   2   5    1.92    0.44
  -2  21   5    1.54    0.38
  -2 -21  -5    2.10    0.41
   2 -21   5    1.29    0.41
 -21  -2  -3    0.41    0.29
  -2 -21  -3    0.19    0.29
 -21  -2  -3    0.54    0.49
 -21   2   3    0.68    0.38
   2  21  -3    0.87    0.60
 -21   2   3    0.42    0.44
  -2  21   3    0.45    0.30
  -2 -21  -3    0.47    0.30
   2 -21   3    0.19    0.33
 -21  -2  -1    0.12    0.43
 -21   2   1    0.14    0.29
 -21   2   1    0.24    0.44
  -2 -21  -1    0.10    0.27
   2 -21   1    0.25    0.30
 -21   2  -1   -0.49    0.50
 -21   2  -1    0.22    0.31
 -21  -2   1    0.14    0.46
   2 -21  -1   -0.10    0.30
  -2 -21   1    0.36    0.29
 -21   2  -3   -0.23    0.51
 -21  -2   3    0.26    0.42
 -21   2  -3    0.32    0.40
 -21  -2   3    0.00    0.28
   2 -21  -3    0.25    0.31
  -2 -21   3    0.02    0.26
 -21  -2   5    2.11    0.58
   2 -21  -5    1.96    0.41
 -21   2  -5    1.62    0.49
 -21  -2   5    0.92    0.36
   2 -21  -5    2.21    0.47
 -21   2  -5    2.10    0.58
  -2 -21   5    1.41    0.39
  -2 -21   7    3.11    0.48
 -21   2  -7    2.92    0.62
   2 -21  -7    2.46    0.48
 -21  -2   7    1.89    0.42
   2 -21  -7    2.21    0.46
 -21   2  -7    2.79    0.51
  -2 -21   9    2.14    0.46
  -2  21  -9    2.18    0.62
   2 -21  -9    2.22    0.46
 -21   2  -9    1.92    0.47
 -21   2  -9    2.29    0.60
  -2 -21  11   -0.21    0.32
  -2  21 -11   -0.03    0.49
 -21   2 -11   -0.14    0.34
  -3 -21 -12    1.76    0.48
 -21  -3 -10    1.63    0.47
   3  21 -10    1.63    0.49
  -3 -21 -10    1.40    0.42
  -3  21  10    1.42    0.44
 -21   3  10    1.26    0.38
   3 -21   8    0.19    0.32
 -21  -3  -8    0.89    0.36
   3  21  -8    0.58    0.39
   3  21  -8    0.38    0.53
  -3 -21  -8    0.62    0.37
  -3  21   8    0.41    0.34
 -21   3   8    0.56    0.29
 -21  -3  -6   -0.13    0.32
   3  21  -6    0.37    0.37
 -21  -3  -6    1.04    0.53
   3  21  -6    0.55    0.55
  -3 -21  -6    0.61    0.33
 -21   3   6    0.20    0.30
  -3  21   6    0.12    0.31
   3 -21   6    0.39    0.32
 -21  -3  -4   -0.01    0.31
   3  21  -4    0.56    0.38
 -21  -3  -4    0.66    0.51
 -21   3   4    0.55    0.47
  -3 -21  -4    0.52    0.30
 -21   3   4   -0.23    0.31
   3  21  -4    0.51    0.59
  -3  21   4   -0.07    0.28
   3 -21   4    1.41    0.43
 -21  -3  -2    1.11    0.36
  -3 -21  -2    1.67    0.45
 -21   3   2    0.91    0.38
 -21   3   2    1.90    0.57
   3  21  -2    2.65    0.69
 -21  -3  -2    1.83    0.61
  -3  21   2    1.27    0.36
  -3 -21  -2    0.75    0.31
   3 -21   2    1.08    0.41
 -21  -3   0    1.12    0.53
 -21   3   0    1.57    0.44
 -21   3   0    1.39    0.52
  -3 -21   0    0.83    0.32
   3 -21   0    0.95    0.40
 -21   3  -2    0.98    0.40
   3 -21  -2    1.09    0.40
  -3 -21   2    1.03    0.33
 -21  -3   2    0.83    0.49
 -21   3  -2    1.19    0.48
 -21   3  -4    0.23    0.44
   3 -21  -4    0.39    0.28
 -21   3  -4    0.43    0.39
 -21  -3   4   -0.04    0.47
   3 -21  -4    0.67    0.35
  -3 -21   4    0.34    0.27
   3 -21  -6    0.65    0.31
 -21  -3   6    0.35    0.29
   3 -21  -6    0.12    0.34
 -21   3  -6    0.47    0.44
  -3 -21   6   -0.02    0.26
  -3 -21   8    0.86    0.36
 -21   3  -8    0.17    0.44
   3 -21  -8    0.47    0.37
 -21   3  -8    0.87    0.37
  -3 -21  10    2.15    0.45
 -21   3 -10    1.97    0.58
  -3  21 -10    2.14    0.61
 -21   3 -10    0.48    0.32
 -21   4  11    4.49    0.62
 -21  -4  -9   -0.06    0.37
   4  21  -9    0.03    0.38
  -4 -21  -9    0.68    0.36
  -4  21   9    0.50    0.34
 -21   4   9    0.06    0.26
 -21  -4  -7    2.76    0.57
   4  21  -7    2.04    0.48
 -21   4   7    2.89    0.51
  -4 -21  -7    3.30    0.55
  -4  21   7    3.28    0.54
 -21  -4  -5    2.71    0.52
   4  21  -5    2.88    0.51
 -21   4   5    4.65    0.64
   4  21  -5    5.06    0.83
  -4 -21  -5    4.01    0.60
 -21  -4  -5    4.00    0.74
  -4  21   5    4.49    0.62
   4 -21   5    3.94    0.62
 -21  -4  -3    0.18    0.28
 -21   4   3    1.06    0.48
 -21  -4  -3    1.51    0.59
 -21   4   3    0.76    0.38
  -4 -21  -3    0.95    0.38
   4  21  -3    1.41    0.62
  -4  21   3    0.17    0.31
   4 -21   3   -0.20    0.31
  -4 -21  -1    3.69    0.58
 -21   4   1    3.64    0.62
 -21   4   1    3.93    0.74
  -4  21   1    3.57    0.52
 -21  -4  -1    3.74    0.69
   4 -21   1    4.16    0.59
 -21  -4   1    3.58    0.66
 -21   4  -1    2.98    0.57
 -21   4  -1    3.94    0.69
  -4  21  -1    4.72    0.57
   4 -21  -1    3.76    0.58
 -21  -4   3   -0.44    0.46
 -21   4  -3    0.80    0.42
   4 -21  -3   -0.05    0.35
 -21   4  -3   -0.12    0.48
 -21   4  -5    3.12    0.64
   4 -21  -5    4.33    0.56
   4 -21  -5    3.16    0.55
   4 -21  -7    3.37    0.56
 -21   4  -7    2.90    0.63
  -4 -21   9    0.19    0.29
 -21   4  -9    0.44    0.50
  -4  21  -9    0.77    0.51
  -4 -21  11    3.96    0.55
 -21   4 -11    4.92    0.76
  -4  21 -11    4.74    0.77
 -21   5  10    2.76    0.51
 -21  -5  -8    3.00    0.56
   5  21  -8    4.15    0.64
  -5  21   8    5.00    0.68
 -21   5   8    3.65    0.56
 -21  -5  -6    1.75    0.46
   5  21  -6    1.52    0.47
 -21   5   6    3.06    0.53
  -5 -21  -6    2.10    0.50
  -5  21   6    1.72    0.46
 -21  -5  -4    6.84    0.87
 -21  -5  -4    6.00    0.70
 -21   5   4    5.75    0.71
  -5 -21  -4    5.64    0.71
  -5  21   4    5.11    0.64
   5 -21   4    5.02    0.67
 -21  -5  -2    6.07    0.69
 -21   5   2    7.73    0.83
 -21   5   2    8.67    0.97
  -5 -21  -2    6.58    0.75
   5  21  -2    8.36    1.02
 -21  -5  -2    7.26    0.89
  -5  21   2    5.63    0.66
   5 -21   2    6.64    0.73
 -21   5   0    4.12    0.66
  -5 -21   0    3.43    0.57
 -21   5   0    4.04    0.71
   5  21   0    4.97    0.83
  -5  21   0    3.42    0.52
   5 -21   0    3.52    0.58
 -21  -5   0    3.56    0.71
 -21   5  -2    7.50    0.85
   5  21   2    7.64    1.01
 -21  -5   2    6.27    0.84
 -21   5  -2    7.07    0.85
   5 -21  -2    7.45    0.78
  -5  21  -2    7.42    0.71
   5 -21  -4    5.58    0.71
 -21   5  -4    5.49    0.77
 -21   5  -6    2.42    0.62
   5 -21  -6    2.24    0.52
 -21   5  -8    4.29    0.73
 -21   5 -10    3.15    0.65
  -5  21 -10    2.91    0.67
 -21  -6  -7    5.21    0.70
   6  21  -7    5.89    0.74
 -21   6   7    4.55    0.62
  -6  21   7    5.00    0.69
 -21  -6  -5    2.59    0.53
 -21   6   5    2.88    0.55
  -6  21   5    2.64    0.52
 -21  -6  -3    1.19    0.41
 -21   6   3    0.77    0.36
  -6 -21  -3    1.04    0.42
  -6  21   3    0.97    0.35
   6 -21   3    1.32    0.46
 -21  -6  -1    4.85    0.61
 -21   6   1    4.80    0.74
 -21   6   1    4.63    0.67
  -6 -21  -1    5.29    0.70
  -6  21   1    5.52    0.65
   6 -21   1    5.00    0.68
 -21   6  -1    4.74    0.70
 -21   6  -1    4.25    0.72
  -6  21  -1    5.00    0.62
   6 -21  -1    5.31    0.69
 -21   6  -3    1.55    0.56
   6 -21  -3    2.15    0.49
 -21   6  -5    2.87    0.63
 -21   6  -7    3.88    0.70
  -6  21  -9    5.72    0.83
 -21   6  -9    4.04    0.70
 -21  -7  -6    3.46    0.59
 -21   7   6    2.99    0.55
  -7  21   6    3.62    0.60
 -21  -7  -4    2.59    0.51
 -21   7   4    2.75    0.56
  -7  21   4    2.83    0.53
 -21  -7  -2    0.59    0.32
 -21   7   2    0.67    0.37
  -7  21   2    1.35    0.43
 -21  -7   0    1.50    0.42
 -21   7   0    1.73    0.56
 -21   7   0    1.62    0.48
  -7  21   0    1.41    0.41
 -21   7  -2    0.71    0.48
 -21   7  -4    2.96    0.65
 -21   7  -6    2.93    0.64
 -21   7  -8    0.50    0.49
 -21   8   7    2.99    0.53
 -21  -8  -5    1.70    0.46
 -21   8   5    2.00    0.47
  -8  21   5    0.82    0.42
 -21  -8  -3    1.39    0.44
 -21   8   3    1.44    0.45
  -8  21   3    2.03    0.53
 -21  -8  -1    0.50    0.31
  -8  21   1    0.93    0.39
 -21  -8   1    0.60    0.30
 -21   8  -1    1.45    0.58
 -21   8  -3    1.09    0.51
 -21   8  -5    1.69    0.61
 -21   8  -7    3.27    0.68
 -21  -9  -2    2.90    0.56
  -9  21   2    3.13    0.58
 -21  -9   0    7.83    0.82
  -9  21   0    9.08    0.89
 -21   9  -2    2.36    0.62
  21  -9  -2    3.52    0.55
 -21   9  -4    2.08    0.59
  21  -9  -4    1.49    0.45
  21  -9  -6    0.83    0.38
 -21   9  -6    1.08    0.53
  21  -9  -8    3.51    0.59
 -21 -10  -1    3.41    0.59
  21 -10   1    4.34    0.61
 -21 -10   1    4.40    0.62
  21 -10  -1    4.86    0.63
  21 -10  -3    2.93    0.54
 -21  10  -5    5.91    0.83
  21 -10  -5    5.80    0.71
  21 -11   2    5.53    0.70
  21 -11   0    4.28    0.62
  21 -11  -2    6.26    0.73
 -22   0   0    3.10    0.57
   0 -22   0    2.51    0.48
 -22   0   2    2.27    0.51
 -22   0  -2    2.44    0.52
   0 -22  -2    2.01    0.46
   0 -22   2    2.18    0.46
   0 -22  -4    7.10    0.76
 -22   0   4    5.96    0.74
   0  22  -4    8.58    0.99
   0 -22  -4    7.09    0.73
   0 -22   4    6.50    0.70
   0 -22  -6    5.28    0.66
 -22   0   6    6.05    0.72
   0 -22  -6    5.36    0.65
   0 -22   6    6.37    0.72
   0 -22   8    1.50    0.42
   0 -22  -8    2.51    0.49
   0 -22  -8    1.91    0.46
 -22   0  -8    0.97    0.40
   0 -22 -10    7.50    0.77
   0 -22 -10    9.28    0.87
  -1 -22 -11    0.26    0.34
  -1  22  11    0.29    0.40
  -1 -22  -9   12.98    1.02
 -22  -1  -9   13.53    1.10
  -1 -22  -7    5.19    0.67
 -22   1   7    6.29    0.73
  -1 -22  -7    5.35    0.65
 -22  -1  -7    5.23    0.69
   1 -22   7    4.39    0.64
  -1 -22  -5    2.01    0.47
 -22   1   5    2.11    0.50
  -1 -22  -5    2.93    0.49
   1 -22   5    2.79    0.54
  -1 -22  -3    5.93    0.71
 -22   1   3    7.06    0.78
  -1 -22  -3    6.12    0.68
   1 -22   3    6.36    0.70
 -22   1   1    1.59    0.47
 -22  -1  -1    1.85    0.51
  -1 -22  -1    0.70    0.35
   1 -22   1    1.37    0.40
 -22   1  -1    1.26    0.48
 -22  -1   1    1.20    0.42
   1 -22  -1    1.52    0.42
  -1 -22   1    0.35    0.31
   1 -22  -3    6.40    0.70
 -22  -1   3    6.11    0.74
   1 -22  -3    6.50    0.71
 -22   1  -3    5.16    0.80
  -1 -22   3    4.80    0.61
 -22   1  -5    2.34    0.64
   1 -22  -5    2.87    0.50
 -22  -1   5    2.79    0.53
  -1  22  -5    4.24    0.81
   1 -22  -5    2.61    0.52
  -1 -22   5    2.45    0.47
   1 -22  -7    4.67    0.61
  -1  22  -7    6.89    0.92
   1 -22  -7    5.14    0.67
  -1 -22   7    5.39    0.65
   1 -22  -9   13.21    1.02
 -22   1  -9   13.80    1.09
   2  22 -10    4.38    0.68
  -2  22  10    3.45    0.61
  -2 -22  -8    1.12    0.43
  -2  22   8    0.89    0.41
 -22  -2  -8    0.99    0.41
 -22  -2  -6    0.69    0.36
  -2 -22  -6    1.26    0.41
 -22   2   6    0.70    0.35
  -2 -22  -4    5.82    0.69
 -22   2   4    6.39    0.76
   2 -22   4    7.15    0.75
  -2 -22  -2    1.03    0.39
 -22   2   2    0.85    0.39
  -2 -22  -2    0.67    0.31
   2 -22   2    1.58    0.42
 -22   2   0    0.06    0.32
 -22  -2   0   -0.07    0.31
  -2 -22   0   -0.16    0.27
   2 -22   0    0.14    0.30
 -22   2  -2    1.79    0.58
 -22  -2   2    1.72    0.45
   2 -22  -2    1.06    0.40
  -2 -22   2    1.13    0.37
   2 -22  -4    6.33    0.68
 -22  -2   4    4.75    0.67
 -22   2  -4    5.92    0.83
   2 -22  -4    6.67    0.74
  -2 -22   4    4.78    0.59
 -22   2  -6    0.75    0.55
   2 -22  -6    0.29    0.29
 -22  -2   6    0.57    0.31
   2 -22  -6    0.54    0.36
  -2 -22   6    0.61    0.33
  -2 -22   8    0.54    0.34
  -2  22  -8    1.56    0.62
 -22   2  -8    0.93    0.54
 -22   2 -10    4.83    0.70
   3  22  -9    1.49    0.47
  -3  22   9    2.02    0.50
 -22  -3  -7    0.49    0.35
 -22   3   7    1.23    0.40
  -3  22   7    0.51    0.35
 -22  -3  -5    1.70    0.46
  -3 -22  -5    2.26    0.49
 -22   3   5    1.73    0.46
  -3  22   5    1.59    0.45
  -3 -22  -3    0.59    0.36
 -22   3   3    0.17    0.30
   3 -22   3    0.04    0.32
  -3 -22  -1    0.01    0.34
 -22   3   1   -0.10    0.32
   3 -22   1    0.23    0.34
   3 -22  -1   -0.17    0.34
 -22   3  -3    0.48    0.52
   3 -22  -3    0.42    0.37
   3 -22  -5    1.12    0.38
 -22  -3   5    1.33    0.42
 -22   3  -5    1.74    0.60
   3 -22  -5    1.88    0.48
 -22   3  -7    0.83    0.51
  -3  22  -7    1.36    0.60
  -3 -22   7    0.20    0.28
  -3 -22   9    1.08    0.38
  -3  22  -9    2.05    0.68
   4  22  -8   -0.12    0.39
  -4  22   8    0.11    0.38
 -22   4   8    0.39    0.31
 -22  -4  -6    0.41    0.39
 -22   4   6    0.41    0.32
  -4  22   6    0.30    0.30
 -22  -4  -4    0.53    0.34
 -22   4   4   -0.06    0.32
  -4  22   4    0.90    0.37
 -22   4   2    1.07    0.43
   4 -22   0   -0.29    0.36
   4 -22  -2    0.51    0.31
 -22   4  -4    0.21    0.49
   4 -22  -4    0.68    0.34
 -22   4  -6   -0.12    0.46
 -22   4  -8   -0.09    0.48
  -4  22  -8    0.22    0.51
  -4  22 -10    2.37    0.70
   5  22  -7    3.00    0.60
  -5  22   7    3.87    0.63
 -22  -5  -5   -0.02    0.31
 -22   5   5    0.07    0.31
  -5  22   5    0.77    0.35
 -22  -5  -3    1.05    0.37
 -22   5   3    1.41    0.45
  -5  22   3    0.73    0.36
  -5  22   1    1.17    0.39
 -22   5  -5   -0.14    0.47
 -22   5  -7    4.10    0.73
  -5  22  -9    4.53    0.79
 -22   6   6    1.95    0.49
  -6  22   6    2.43    0.53
 -22  -6  -4    0.85    0.37
 -22   6   4    0.86    0.40
  -6  22   4    1.15    0.40
  -6  22   2   -0.02    0.31
  -6  22   0    0.21    0.32
 -22  -7  -3    0.24    0.31
  -7  22   3    0.12    0.32
  -7  22   1    0.79    0.43
  -7  22  -1    1.42    0.42
 -22  -8  -2    2.49    0.52
  -8  22   2    2.88    0.58
  -8  22   0    1.73    0.48
   0 -23  -1   -0.37    0.35
   0 -23   1    0.39    0.34
   0 -23  -3    4.72    0.63
   0 -23   3    4.18    0.59
   0 -23  -5    1.89    0.48
 -23   0   5    0.68    0.36
   0 -23  -5    0.96    0.38
   0 -23  -7    0.74    0.36
 -23   1   6    0.17    0.30
  -1 -23  -2    2.04    0.45
   1 -23   2    2.26    0.49
  -1 -23   0   -0.15    0.29
   1 -23   0    0.90    0.39
   1 -23  -2    2.69    0.51
  -1 -23   2    3.11    0.50
   1 -23  -4    6.20    0.73
   1 -23  -4    6.88    0.75
  -1 -23   4    6.15    0.69
   1 -23  -6   -0.33    0.30
 -23  -1   6    0.05    0.29
 -23   2   5    4.73    0.68
   2 -23  -3   -0.36    0.38
   2 -23  -5    4.91    0.63
 -23  -2   5    4.23    0.66
 -23   3   6    0.26    0.37
   3 -23  -4    6.87    0.74
  -6  23   3    0.37    0.38
   0   0   0    0.00    0.00
;
_shelx_hkl_checksum              92270
loop_
_space_group_symop_operation_xyz
'x, y, z'
'y, -x, -z'
'-x, -y, z'
'-y, x, -z'
'x, -y, -z'
'-x, y, -z'
'-y, -x, z'
'y, x, z'
'x+1/2, y+1/2, z+1/2'
'y+1/2, -x+1/2, -z+1/2'
'-x+1/2, -y+1/2, z+1/2'
'-y+1/2, x+1/2, -z+1/2'
'x+1/2, -y+1/2, -z+1/2'
'-x+1/2, y+1/2, -z+1/2'
'-y+1/2, -x+1/2, z+1/2'
'y+1/2, x+1/2, z+1/2'
loop_
_atom_site_label
_atom_site_type_symbol
_atom_site_fract_x
_atom_site_fract_y
_atom_site_fract_z
_atom_site_U_iso_or_equiv
_atom_site_adp_type
_atom_site_occupancy
_atom_site_site_symmetry_order
_atom_site_calc_flag
_atom_site_refinement_flags_posn
_atom_site_refinement_flags_adp
_atom_site_refinement_flags_occupancy
_atom_site_disorder_assembly
_atom_site_disorder_group
Ag1 Ag 0.5000 0.5000 0.20216(3) 0.01854(14) Uani 1 4 d S T P . .
Ag2 Ag 0.52879(2) 0.66078(2) 0.16519(2) 0.02718(10) Uani 1 1 d . . . . .
Ag3 Ag 0.5000 0.58336(5) 0.0000 0.0234(2) Uani 0.5 2 d S T P . .
S1 S 0.59908(6) 0.40092(6) 0.19701(9) 0.0228(3) Uani 1 2 d S T P . .
C1 C 0.6248(3) 0.3752(3) 0.2823(4) 0.0345(18) Uani 1 2 d S T P . .
C2 C 0.6089(5) 0.2886(4) 0.2913(4) 0.0572(19) Uani 1 1 d . . . . .
H2A H 0.6373 0.2592 0.2583 0.086 Uiso 1 1 calc GR . . . .
H2B H 0.5534 0.2788 0.2867 0.086 Uiso 1 1 calc GR . . . .
H2C H 0.6260 0.2725 0.3348 0.086 Uiso 1 1 calc GR . . . .
C3 C 0.5785(4) 0.4215(4) 0.3297(5) 0.052(2) Uani 1 2 d S T P . .
H3A H 0.5267 0.3991 0.3338 0.079 Uiso 0.5 1 calc GR . . A -1
H3B H 0.5743 0.4749 0.3142 0.079 Uiso 0.5 1 calc GR . . A -1
H3C H 0.6041 0.4209 0.3723 0.079 Uiso 0.5 1 calc GR . . A -1
S2 S 0.60114(7) 0.60114(7) 0.07235(8) 0.0260(4) Uani 1 2 d S T P . .
C4 C 0.6695(3) 0.6695(3) 0.0322(3) 0.0321(17) Uani 1 2 d S T P . .
C5 C 0.7123(3) 0.7123(3) 0.0849(4) 0.040(2) Uani 1 2 d S T P . .
H5A H 0.7312 0.6754 0.1174 0.060 Uiso 0.5 1 calc GR . . B -1
H5B H 0.6774 0.7494 0.1058 0.060 Uiso 0.5 1 calc GR . . B -1
H5C H 0.7562 0.7400 0.0658 0.060 Uiso 0.5 1 calc GR . . B -1
C6 C 0.6239(4) 0.7242(5) -0.0090(5) 0.080(3) Uani 1 1 d . . . . .
H6A H 0.5896 0.7549 0.0188 0.120 Uiso 1 1 calc GR . . . .
H6B H 0.5929 0.6949 -0.0404 0.120 Uiso 1 1 calc GR . . . .
H6C H 0.6593 0.7586 -0.0323 0.120 Uiso 1 1 calc GR . . . .
O1 O 0.6015(3) 0.6922(3) 0.2634(2) 0.0578(14) Uani 1 1 d . . . . .
C7 C 0.6571(3) 0.6571(3) 0.2848(3) 0.0273(15) Uani 1 2 d S T P . .
C8 C 0.6853(6) 0.6853(6) 0.3528(8) 0.041(5) Uani 0.621(19) 2 d DS TU P C 1
F1 F 0.6495(5) 0.6495(5) 0.3997(4) 0.082(5) Uani 0.621(19) 2 d DS T P C 1
F2 F 0.6724(10) 0.7587(5) 0.3606(7) 0.099(6) Uani 0.621(19) 1 d D U . C 1
C8B C 0.6981(9) 0.6981(9) 0.3440(14) 0.041(8) Uani 0.379(19) 2 d DS TU P C 2
F1B F 0.7495(6) 0.7495(6) 0.3287(10) 0.085(8) Uani 0.379(19) 2 d DS T P C 2
F2B F 0.6484(12) 0.7332(13) 0.3811(10) 0.091(9) Uani 0.379(19) 1 d D U . C 2
N1 N 0.5153(2) 0.7959(2) 0.1660(2) 0.0268(8) Uani 1 1 d . . . . .
C9 C 0.5746(3) 0.8411(3) 0.1842(2) 0.0284(11) Uani 1 1 d . . . . .
H9 H 0.6211 0.8169 0.1979 0.034 Uiso 1 1 calc R . . . .
C10 C 0.5713(3) 0.9206(3) 0.1840(2) 0.0260(11) Uani 1 1 d . . . . .
H10 H 0.6152 0.9501 0.1965 0.031 Uiso 1 1 calc R . . . .
C11 C 0.5029(3) 0.9574(2) 0.1654(2) 0.0224(8) Uani 1 1 d . . . . .
C12 C 0.4406(3) 0.9104(3) 0.1477(3) 0.0258(10) Uani 1 1 d . . . . .
H12 H 0.3925 0.9326 0.1354 0.031 Uiso 1 1 calc R . . . .
C13 C 0.4503(3) 0.8309(3) 0.1485(2) 0.0261(11) Uani 1 1 d . . . . .
H13 H 0.4078 0.7996 0.1358 0.031 Uiso 1 1 calc R . . . .
C14 C 0.6153(7) 0.9641(4) 0.0151(4) 0.105(3) Uani 1 1 d D U . . .
H14 H 0.5680 0.9379 0.0232 0.126 Uiso 1 1 calc R . . . .
C15 C 0.6839(7) 0.9316(7) 0.0330(6) 0.116(4) Uani 1 1 d D U . . .
H15 H 0.6840 0.8849 0.0573 0.139 Uiso 1 1 calc R . . . .
C16 C 0.7523(8) 0.9653(6) 0.0164(7) 0.157(5) Uani 1 1 d D U . . .
H16 H 0.7998 0.9411 0.0275 0.189 Uiso 1 1 calc R . . . .
loop_
_atom_site_aniso_label
_atom_site_aniso_U_11
_atom_site_aniso_U_22
_atom_site_aniso_U_33
_atom_site_aniso_U_23
_atom_site_aniso_U_13
_atom_site_aniso_U_12
Ag1 0.01535(18) 0.01535(18) 0.0249(3) 0.000 0.000 0.0015(3)
Ag2 0.02589(17) 0.01493(15) 0.0407(2) -0.00095(17) -0.00087(18) -0.00162(13)
Ag3 0.0246(4) 0.0181(4) 0.0276(5) 0.000 -0.0096(5) 0.000
S1 0.0199(5) 0.0199(5) 0.0284(8) 0.0042(5) -0.0042(5) 0.0043(6)
C1 0.039(3) 0.039(3) 0.026(4) 0.008(2) -0.008(2) 0.005(4)
C2 0.080(5) 0.043(4) 0.048(4) 0.020(3) -0.021(4) 0.006(4)
C3 0.063(4) 0.063(4) 0.031(4) 0.010(3) -0.010(3) 0.014(5)
S2 0.0286(5) 0.0286(5) 0.0207(8) -0.0017(5) -0.0017(5) -0.0098(7)
C4 0.037(3) 0.037(3) 0.023(3) 0.002(2) 0.002(2) -0.017(4)
C5 0.044(3) 0.044(3) 0.033(4) 0.001(2) 0.001(2) -0.025(4)
C6 0.074(5) 0.081(5) 0.085(6) 0.062(5) -0.040(5) -0.048(4)
O1 0.070(3) 0.045(3) 0.058(3) -0.014(2) -0.035(3) 0.016(3)
C7 0.030(2) 0.030(2) 0.022(3) 0.001(2) 0.001(2) -0.006(3)
C8 0.043(5) 0.043(5) 0.037(9) -0.007(4) -0.007(4) -0.012(7)
F1 0.109(7) 0.109(7) 0.026(5) 0.003(4) 0.003(4) -0.016(8)
F2 0.166(16) 0.036(4) 0.094(11) -0.030(5) -0.052(9) -0.003(6)
C8B 0.048(9) 0.048(9) 0.026(11) 0.002(7) 0.002(7) 0.002(10)
F1B 0.085(10) 0.085(10) 0.086(14) -0.012(7) -0.012(7) -0.055(11)
F2B 0.072(10) 0.14(2) 0.057(11) -0.068(13) 0.003(8) 0.017(12)
N1 0.028(2) 0.0192(17) 0.034(2) -0.0042(18) 0.0007(19) -0.0005(15)
C9 0.026(2) 0.021(2) 0.038(3) -0.002(2) -0.004(2) 0.003(2)
C10 0.023(2) 0.021(2) 0.034(3) -0.0038(19) 0.000(2) -0.0052(19)
C11 0.0236(19) 0.0172(19) 0.026(2) -0.0006(18) 0.002(3) -0.0013(17)
C12 0.023(2) 0.022(2) 0.033(3) -0.001(2) -0.005(2) 0.0010(19)
C13 0.025(2) 0.020(2) 0.034(3) -0.003(2) -0.004(2) -0.0004(19)
C14 0.136(8) 0.131(9) 0.047(5) 0.006(5) 0.011(5) -0.038(7)
C15 0.153(9) 0.099(7) 0.097(7) 0.028(5) 0.027(7) 0.015(7)
C16 0.153(11) 0.179(11) 0.139(10) 0.055(8) 0.023(9) 0.025(9)
loop_
_atom_type_symbol
_atom_type_description
_atom_type_scat_dispersion_real
_atom_type_scat_dispersion_imag
_atom_type_scat_source
C C 0.0033 0.0016 'International Tables Vol C Tables 4.2.6.8 and 6.1.1.4'
H H 0.0000 0.0000 'International Tables Vol C Tables 4.2.6.8 and 6.1.1.4'
Ag Ag -0.8971 1.1015 'International Tables Vol C Tables 4.2.6.8 and 6.1.1.4'
F F 0.0171 0.0103 'International Tables Vol C Tables 4.2.6.8 and 6.1.1.4'
N N 0.0061 0.0033 'International Tables Vol C Tables 4.2.6.8 and 6.1.1.4'
O O 0.0106 0.0060 'International Tables Vol C Tables 4.2.6.8 and 6.1.1.4'
S S 0.1246 0.1234 'International Tables Vol C Tables 4.2.6.8 and 6.1.1.4'
loop_
_geom_angle_atom_site_label_1
_geom_angle_atom_site_label_2
_geom_angle_atom_site_label_3
_geom_angle
_geom_angle_site_symmetry_1
_geom_angle_site_symmetry_3
Ag2 Ag1 Ag2 104.852(16) . 7_665
Ag2 Ag1 Ag2 104.854(16) 3_665 8
Ag2 Ag1 Ag2 66.983(14) . 8
Ag2 Ag1 Ag2 66.982(14) 7_665 3_665
Ag2 Ag1 Ag2 149.92(3) . 3_665
Ag2 Ag1 Ag2 149.92(3) 7_665 8
S1 Ag1 Ag2 122.680(18) 3_665 8
S1 Ag1 Ag2 55.764(14) . 3_665
S1 Ag1 Ag2 122.682(18) . .
S1 Ag1 Ag2 55.763(14) 3_665 .
S1 Ag1 Ag2 122.680(18) 3_665 3_665
S1 Ag1 Ag2 55.764(14) 3_665 7_665
S1 Ag1 Ag2 122.681(18) . 7_665
S1 Ag1 Ag2 55.764(14) . 8
S1 Ag1 S1 175.00(9) . 3_665
Ag1 Ag2 Ag2 56.509(7) . 8
S1 Ag2 Ag1 52.11(3) 3_665 .
S1 Ag2 Ag2 108.57(3) 3_665 8
S2 Ag2 Ag1 83.74(4) . .
S2 Ag2 Ag2 49.84(3) . 8
S2 Ag2 S1 117.25(5) . 3_665
O1 Ag2 Ag1 94.88(12) . .
O1 Ag2 Ag2 78.04(11) . 8
O1 Ag2 S1 109.27(14) . 3_665
O1 Ag2 S2 117.65(13) . .
N1 Ag2 Ag1 158.00(10) . .
N1 Ag2 Ag2 140.70(9) . 8
N1 Ag2 S1 109.25(10) . 3_665
N1 Ag2 S2 117.71(11) . .
N1 Ag2 O1 79.85(15) . .
Ag3 Ag3 Ag3 45.0 4_655 3_665
Ag3 Ag3 Ag3 90.0 4_655 2_565
Ag3 Ag3 Ag3 45.000(1) 2_565 3_665
Ag3 Ag3 S2 63.88(3) 2_565 .
Ag3 Ag3 S2 63.88(3) 4_655 4_655
Ag3 Ag3 S2 128.91(4) 4_655 .
Ag3 Ag3 S2 128.91(4) 2_565 4_655
S2 Ag3 Ag3 97.63(3) 4_655 3_665
S2 Ag3 Ag3 97.63(3) . 3_665
S2 Ag3 S2 164.73(7) . 4_655
Ag1 S1 Ag2 72.13(3) . 8
Ag1 S1 Ag2 72.13(3) . 3_665
Ag2 S1 Ag2 131.68(7) 3_665 8
C1 S1 Ag1 107.3(3) . .
C1 S1 Ag2 110.47(7) . 8
C1 S1 Ag2 110.47(7) . 3_665
C2 C1 S1 107.7(4) 7_665 .
C2 C1 S1 107.7(4) . .
C2 C1 C2 109.6(8) 7_665 .
C3 C1 S1 110.9(6) . .
C3 C1 C2 110.4(5) . 7_665
C3 C1 C2 110.4(5) . .
C1 C2 H2A 109.5 . .
C1 C2 H2B 109.5 . .
C1 C2 H2C 109.5 . .
H2A C2 H2B 109.5 . .
H2A C2 H2C 109.5 . .
H2B C2 H2C 109.5 . .
C1 C3 H3A 109.5 . .
C1 C3 H3B 109.5 . .
C1 C3 H3C 109.5 . .
H3A C3 H3B 109.5 . .
H3A C3 H3C 109.5 . .
H3B C3 H3C 109.5 . .
Ag2 S2 Ag2 80.31(5) . 8
Ag3 S2 Ag2 137.20(7) . 8
Ag3 S2 Ag2 137.19(7) 2_565 .
Ag3 S2 Ag2 99.55(3) 2_565 8
Ag3 S2 Ag2 99.55(3) . .
Ag3 S2 Ag3 52.24(5) . 2_565
C4 S2 Ag2 113.11(17) . .
C4 S2 Ag2 113.11(17) . 8
C4 S2 Ag3 106.2(2) . 2_565
C4 S2 Ag3 106.2(2) . .
C5 C4 S2 107.9(5) . .
C6 C4 S2 108.5(4) 8 .
C6 C4 S2 108.5(4) . .
C6 C4 C5 110.8(5) . .
C6 C4 C5 110.8(5) 8 .
C6 C4 C6 110.3(10) . 8
C4 C5 H5A 109.5 . .
C4 C5 H5B 109.5 . .
C4 C5 H5C 109.5 . .
H5A C5 H5B 109.5 . .
H5A C5 H5C 109.5 . .
H5B C5 H5C 109.5 . .
C4 C6 H6A 109.5 . .
C4 C6 H6B 109.5 . .
C4 C6 H6C 109.5 . .
H6A C6 H6B 109.5 . .
H6A C6 H6C 109.5 . .
H6B C6 H6C 109.5 . .
C7 O1 Ag2 126.5(4) . .
O1 C7 O1 130.9(7) 8 .
O1 C7 C8 114.5(4) . .
O1 C7 C8 114.5(4) 8 .
O1 C7 C8B 114.2(4) . .
O1 C7 C8B 114.2(4) 8 .
F1 C8 C7 111.5(12) . .
F2 C8 C7 111.3(10) 8 .
F2 C8 C7 111.3(10) . .
F2 C8 F1 106.9(10) 8 .
F2 C8 F1 107.0(10) . .
F2 C8 F2 109(2) . 8
F1B C8B C7 115(2) . .
F1B C8B F2B 106.1(17) . 8
F1B C8B F2B 106.1(17) . .
F2B C8B C7 111.4(16) 8 .
F2B C8B C7 111.4(16) . .
F2B C8B F2B 106(3) 8 .
C9 N1 Ag2 120.3(3) . .
C13 N1 Ag2 122.4(3) . .
C13 N1 C9 117.2(4) . .
N1 C9 H9 118.3 . .
N1 C9 C10 123.3(5) . .
C10 C9 H9 118.3 . .
C9 C10 H10 120.3 . .
C9 C10 C11 119.4(4) . .
C11 C10 H10 120.3 . .
C10 C11 C11 120.8(5) . 3_675
C10 C11 C12 117.3(4) . .
C12 C11 C11 121.8(5) . 3_675
C11 C12 H12 120.6 . .
C13 C12 C11 118.7(4) . .
C13 C12 H12 120.6 . .
N1 C13 C12 123.9(4) . .
N1 C13 H13 118.0 . .
C12 C13 H13 118.0 . .
C14 C14 H14 120.4 5_575 .
C15 C14 C14 119.3(6) . 5_575
C15 C14 H14 120.4 . .
C14 C15 H15 119.6 . .
C16 C15 C14 120.9(11) . .
C16 C15 H15 119.6 . .
C15 C16 C16 119.7(6) . 5_575
C15 C16 H16 120.2 . .
C16 C16 H16 120.2 5_575 .
loop_
_geom_bond_atom_site_label_1
_geom_bond_atom_site_label_2
_geom_bond_distance
_geom_bond_site_symmetry_2
Ag1 Ag2 2.9257(4) .
Ag1 Ag2 2.9258(4) 7_665
Ag1 Ag2 2.9258(4) 8
Ag1 Ag2 2.9258(4) 3_665
Ag1 S1 2.4261(16) .
Ag1 S1 2.4262(16) 3_665
Ag2 Ag2 3.2289(7) 8
Ag2 S1 2.5414(7) 3_665
Ag2 S2 2.5035(13) .
Ag2 O1 2.438(4) .
Ag2 N1 2.350(4) .
Ag3 Ag3 2.0392(12) 4_655
Ag3 Ag3 2.8839(18) 3_665
Ag3 Ag3 2.0392(13) 2_565
Ag3 S2 2.3160(15) 4_655
Ag3 S2 2.3159(15) .
S1 Ag2 2.5415(7) 8
S1 Ag2 2.5415(7) 3_665
S1 C1 1.862(7) .
C1 C2 1.534(8) 7_665
C1 C2 1.534(8) .
C1 C3 1.495(13) .
C2 H2A 0.9800 .
C2 H2B 0.9800 .
C2 H2C 0.9800 .
C3 H3A 0.9800 .
C3 H3B 0.9800 .
C3 H3C 0.9800 .
S2 Ag2 2.5035(13) 8
S2 Ag3 2.3159(15) 2_565
S2 C4 1.864(7) .
C4 C5 1.507(10) .
C4 C6 1.494(8) 8
C4 C6 1.494(8) .
C5 H5A 0.9800 .
C5 H5B 0.9800 .
C5 H5C 0.9800 .
C6 H6A 0.9800 .
C6 H6B 0.9800 .
C6 H6C 0.9800 .
O1 C7 1.220(5) .
C7 O1 1.220(5) 8
C7 C8 1.556(19) .
C7 C8B 1.58(3) .
C8 F1 1.301(11) .
C8 F2 1.299(8) 8
C8 F2 1.299(8) .
C8B F1B 1.296(12) .
C8B F2B 1.299(10) .
C8B F2B 1.299(10) 8
N1 C9 1.342(6) .
N1 C13 1.327(6) .
C9 H9 0.9500 .
C9 C10 1.376(7) .
C10 H10 0.9500 .
C10 C11 1.398(7) .
C11 C11 1.478(7) 3_675
C11 C12 1.398(6) .
C12 H12 0.9500 .
C12 C13 1.385(7) .
C13 H13 0.9500 .
C14 C14 1.387(11) 5_575
C14 H14 0.9500 .
C14 C15 1.363(10) .
C15 H15 0.9500 .
C15 C16 1.362(11) .
C16 C16 1.377(12) 5_575
C16 H16 0.9500 .
loop_
_geom_torsion_atom_site_label_1
_geom_torsion_atom_site_label_2
_geom_torsion_atom_site_label_3
_geom_torsion_atom_site_label_4
_geom_torsion
_geom_torsion_site_symmetry_1
_geom_torsion_site_symmetry_2
_geom_torsion_site_symmetry_3
_geom_torsion_site_symmetry_4
Ag1 S1 C1 C2 -120.9(5) . . . 7_665
Ag1 S1 C1 C2 120.9(5) . . . .
Ag1 S1 C1 C3 0.000(1) . . . .
Ag2 S1 C1 C2 -44.0(6) 8 . . 7_665
Ag2 S1 C1 C2 162.2(4) 3_665 . . 7_665
Ag2 S1 C1 C2 -162.2(4) 8 . . .
Ag2 S1 C1 C2 44.0(6) 3_665 . . .
Ag2 S1 C1 C3 -76.88(11) 3_665 . . .
Ag2 S1 C1 C3 76.88(11) 8 . . .
Ag2 S2 C4 C5 44.52(8) . . . .
Ag2 S2 C4 C5 -44.52(8) 8 . . .
Ag2 S2 C4 C6 75.5(6) 8 . . 8
Ag2 S2 C4 C6 -164.6(5) 8 . . .
Ag2 S2 C4 C6 -75.5(6) . . . .
Ag2 S2 C4 C6 164.6(5) . . . 8
Ag2 O1 C7 O1 3.2(14) . . . 8
Ag2 O1 C7 C8 -173.1(6) . . . .
Ag2 O1 C7 C8B 172.3(8) . . . .
Ag2 N1 C9 C10 178.1(4) . . . .
Ag2 N1 C13 C12 -179.3(4) . . . .
Ag3 S2 C4 C5 -152.71(4) 2_565 . . .
Ag3 S2 C4 C5 152.71(4) . . . .
Ag3 S2 C4 C6 87.3(5) 2_565 . . .
Ag3 S2 C4 C6 -87.3(5) . . . 8
Ag3 S2 C4 C6 32.7(6) . . . .
Ag3 S2 C4 C6 -32.7(6) 2_565 . . 8
O1 C7 C8 F1 88.4(6) . . . .
O1 C7 C8 F1 -88.4(6) 8 . . .
O1 C7 C8 F2 30.9(15) 8 . . 8
O1 C7 C8 F2 -30.9(15) . . . .
O1 C7 C8 F2 -152.2(11) . . . 8
O1 C7 C8 F2 152.2(11) 8 . . .
O1 C7 C8B F1B 85.5(7) 8 . . .
O1 C7 C8B F1B -85.5(7) . . . .
O1 C7 C8B F2B -35(2) 8 . . 8
O1 C7 C8B F2B -153.5(15) 8 . . .
O1 C7 C8B F2B 153.5(15) . . . 8
O1 C7 C8B F2B 35(2) . . . .
C8 C7 C8B F1B 180.000(7) . . . .
C8 C7 C8B F2B -59.0(16) . . . .
C8 C7 C8B F2B 59.0(17) . . . 8
C8B C7 C8 F1 180.000(8) . . . .
C8B C7 C8 F2 -60.7(12) . . . 8
C8B C7 C8 F2 60.7(12) . . . .
N1 C9 C10 C11 1.4(8) . . . .
C9 N1 C13 C12 0.4(8) . . . .
C9 C10 C11 C11 179.3(4) . . . 3_675
C9 C10 C11 C12 0.0(7) . . . .
C10 C11 C12 C13 -1.1(7) . . . .
C11 C11 C12 C13 179.7(4) 3_675 . . .
C11 C12 C13 N1 0.9(8) . . . .
C13 N1 C9 C10 -1.6(8) . . . .
C14 C14 C15 C16 -6(2) 5_575 . . .
C14 C15 C16 C16 3(3) . . . 5_575
