#------------------------------------------------------------------------------
#$Date: 2019-06-14 11:53:44 +0300 (Fri, 14 Jun 2019) $
#$Revision: 215970 $
#$URL: file:///home/coder/svn-repositories/cod/cif/1/55/14/1551432.cif $
#------------------------------------------------------------------------------
#
# This file is available in the Crystallography Open Database (COD),
# http://www.crystallography.net/
#
# All data on this site have been placed in the public domain by the
# contributors.
#
data_1551432
loop_
_publ_author_name
'Ren-Wu Huang'
'Yong-Sheng Wei'
'Xi-Yan Dong'
'Xiao-Hui Wu'
'Chen-Xia Du'
'Shuang-Quan Zang'
'Thomas C. W. Mak'
_publ_section_title
;
 Hypersensitive dual-function luminescence switching of a
 silver-chalcogenolate cluster-based metal-organic framework
;
_journal_name_full               'Nature Chemistry'
_journal_page_first              689
_journal_page_last               697
_journal_paper_doi               10.1038/nchem.2718
_journal_volume                  9
_journal_year                    2017
_chemical_absolute_configuration ad
_chemical_formula_moiety         'C80 H104 Ag12 F12 N8 O8 S8'
_chemical_formula_sum            'C80 H104 Ag12 F12 N8 O8 S8'
_chemical_formula_weight         3084.63
_space_group_crystal_system      tetragonal
_space_group_IT_number           121
_space_group_name_Hall           'I -4 2'
_space_group_name_H-M_alt        'I -4 2 m'
_atom_sites_solution_hydrogens   geom
_atom_sites_solution_primary     direct
_cell_angle_alpha                90
_cell_angle_beta                 90
_cell_angle_gamma                90
_cell_formula_units_Z            2
_cell_length_a                   17.33048(14)
_cell_length_b                   17.33048(14)
_cell_length_c                   20.2510(4)
_cell_measurement_reflns_used    4473
_cell_measurement_temperature    289.96(15)
_cell_measurement_theta_max      71.8050
_cell_measurement_theta_min      3.6110
_cell_volume                     6082.30(14)
_computing_cell_refinement       'CrysAlisPro 1.171.39.7b (Rigaku OD, 2015)'
_computing_data_collection       'CrysAlisPro 1.171.39.7b (Rigaku OD, 2015)'
_computing_data_reduction        'CrysAlisPro 1.171.39.7b (Rigaku OD, 2015)'
_computing_molecular_graphics    'Olex2 (Dolomanov et al., 2009)'
_computing_publication_material  'Olex2 (Dolomanov et al., 2009)'
_computing_structure_refinement  'ShelXL (Sheldrick, 2015)'
_computing_structure_solution    'ShelXS (Sheldrick, 2008)'
_diffrn_ambient_environment      oxygen
_diffrn_ambient_temperature      289.96(15)
_diffrn_detector                 'CCD plate'
_diffrn_measured_fraction_theta_full 0.997
_diffrn_measured_fraction_theta_max 0.982
_diffrn_measurement_details
;
List of Runs (angles in degrees, time in seconds):

  # Type    Start    End  Width  t~exp~   \w     \q     \k     \f   Frames
--------------------------------------------------------------------------
  1  \w    -31.00  83.00   0.50    5.00    --   45.70 -57.00  90.00  228
  2  \w     59.00 104.00   0.50   11.00    --  100.10  45.00 120.00   90
  3  \w     76.00 178.00   0.50   11.00    --  100.10  61.00  30.00  204
  4  \w    148.00 187.00   0.50   11.00    --  100.10  45.00 120.00   78
  5  \w    111.00 180.00   0.50   11.00    --  100.10  61.00 -90.00  138
  6  \w     69.00  97.00   0.50   11.00    --  100.10  61.00 -90.00   56
;
_diffrn_measurement_device       'four-circle diffractometer'
_diffrn_measurement_device_type  'XtaLAB Pro: Kappa single'
_diffrn_measurement_method       '\w scans'
_diffrn_orient_matrix_type
'CrysAlisPro convention (1999,Acta A55,543-557)'
_diffrn_orient_matrix_UB_11      0.0052376000
_diffrn_orient_matrix_UB_12      -0.0024875000
_diffrn_orient_matrix_UB_13      -0.0758309000
_diffrn_orient_matrix_UB_21      0.0027981000
_diffrn_orient_matrix_UB_22      -0.0887978000
_diffrn_orient_matrix_UB_23      0.0023285000
_diffrn_orient_matrix_UB_31      -0.0888052000
_diffrn_orient_matrix_UB_32      -0.0029346000
_diffrn_orient_matrix_UB_33      -0.0043190000
_diffrn_radiation_monochromator  graphite
_diffrn_radiation_probe          x-ray
_diffrn_radiation_type           CuK\a
_diffrn_radiation_wavelength     1.54184
_diffrn_reflns_av_R_equivalents  0.0295
_diffrn_reflns_av_unetI/netI     0.0346
_diffrn_reflns_Laue_measured_fraction_full 0.997
_diffrn_reflns_Laue_measured_fraction_max 0.982
_diffrn_reflns_limit_h_max       17
_diffrn_reflns_limit_h_min       -14
_diffrn_reflns_limit_k_max       20
_diffrn_reflns_limit_k_min       -21
_diffrn_reflns_limit_l_max       23
_diffrn_reflns_limit_l_min       -24
_diffrn_reflns_number            7808
_diffrn_reflns_point_group_measured_fraction_full 0.950
_diffrn_reflns_point_group_measured_fraction_max 0.915
_diffrn_reflns_theta_full        66.750
_diffrn_reflns_theta_max         72.743
_diffrn_reflns_theta_min         3.357
_diffrn_source                   MM007HF-DW
_diffrn_source_type              'Microfocus Rotating Anode X-ray Source'
_exptl_absorpt_coefficient_mu    16.941
_exptl_absorpt_correction_T_max  0.444
_exptl_absorpt_correction_T_min  0.120
_exptl_absorpt_correction_type   analytical
_exptl_absorpt_process_details
;
CrysAlisPro 1.171.39.7b (Rigaku Oxford Diffraction, 2015)
Analytical numeric absorption correction using a multifaceted crystal
			model based on expressions derived by R.C. Clark & J.S. Reid.
(Clark, R. C. & Reid, J. S. (1995). Acta Cryst. A51, 887-897)
Empirical absorption correction using spherical harmonics,
 implemented in SCALE3 ABSPACK scaling algorithm.
;
_exptl_crystal_colour            colourless
_exptl_crystal_colour_primary    colourless
_exptl_crystal_density_diffrn    1.684
_exptl_crystal_description       block
_exptl_crystal_F_000             3008
_exptl_crystal_size_max          0.182
_exptl_crystal_size_mid          0.131
_exptl_crystal_size_min          0.061
_refine_diff_density_max         0.786
_refine_diff_density_min         -0.370
_refine_diff_density_rms         0.087
_refine_ls_abs_structure_details
;
 Flack x determined using 1070 quotients [(I+)-(I-)]/[(I+)+(I-)]
 (Parsons and Flack (2004), Acta Cryst. A60, s61).
;
_refine_ls_abs_structure_Flack   -0.016(10)
_refine_ls_extinction_coef       .
_refine_ls_extinction_method     none
_refine_ls_goodness_of_fit_ref   1.071
_refine_ls_hydrogen_treatment    constr
_refine_ls_matrix_type           full
_refine_ls_number_parameters     192
_refine_ls_number_reflns         2910
_refine_ls_number_restraints     46
_refine_ls_restrained_S_all      1.110
_refine_ls_R_factor_all          0.0335
_refine_ls_R_factor_gt           0.0316
_refine_ls_shift/su_max          0.001
_refine_ls_shift/su_mean         0.000
_refine_ls_structure_factor_coef Fsqd
_refine_ls_weighting_details
;
 w=1/[\s^2^(Fo^2^)+(0.0552P)^2^+0.1002P]
 where P=(Fo^2^+2Fc^2^)/3
;
_refine_ls_weighting_scheme      calc
_refine_ls_wR_factor_gt          0.0846
_refine_ls_wR_factor_ref         0.0861
_reflns_Friedel_coverage         0.696
_reflns_Friedel_fraction_full    0.892
_reflns_Friedel_fraction_max     0.834
_reflns_number_gt                2729
_reflns_number_total             2910
_reflns_threshold_expression     'I > 2\s(I)'
_cod_data_source_file            nchem.2718-s9.cif
_cod_data_source_block           ag12bpy_o2_290k
_cod_original_cell_volume        6082.30(15)
_cod_database_code               1551432
_chemical_oxdiff_formula         C80H104O8N8S8Ag12F12
_chemical_oxdiff_usercomment     st
_shelx_space_group_comment
;
The symmetry employed for this shelxl refinement is uniquely defined
by the following loop, which should always be used as a source of
symmetry information in preference to the above space-group names.
They are only intended as comments.
;
_reflns_odcompleteness_completeness 99.81
_reflns_odcompleteness_iscentric 1
_reflns_odcompleteness_theta     66.97
_olex2_refinement_description
;
1. Fixed Uiso
 At 1.2 times of:
  All C(H) groups
 At 1.5 times of:
  All C(H,H,H) groups
2. Restrained distances
 F2-C9 \\sim F1B-C9 \\sim F2B-C9 \\sim F1-C9
 with sigma of 0.01
 C4-C5 \\sim C6-C4 \\sim C7-C4
 with sigma of 0.01
 C3-C1 \\sim C2-C1
 with sigma of 0.01
3. Uiso/Uaniso restraints and constraints
C8 \\sim O1: within 2A with sigma of 0.005 and sigma for terminal atoms of 0.01
Uanis(C9) \\sim Ueq, Uanis(F1B) \\sim Ueq, Uanis(F1) \\sim Ueq, Uanis(F2B)
\\sim Ueq, Uanis(F2) \\sim Ueq: with sigma of 0.005 and sigma for terminal
atoms of 0.01
4. Others
 Fixed Sof: Ag3(0.25) H3A(0.5) H3B(0.5) H3C(0.5) C7(0.5) H7A(0.5) H7B(0.5)
 H7C(0.5) H6A(0.5) H6B(0.5) H6C(0.5) F1(0.225) F2(0.45) F1B(0.275) F2B(0.55)
 C5(0.5) H5A(0.5) H5B(0.5) H5C(0.5)
5.a Aromatic/amide H refined with riding coordinates:
 C10(H10), C11(H11), C13(H13), C14(H14)
5.b Idealised Me refined as rotating group:
 C2(H2A,H2B,H2C), C3(H3A,H3B,H3C), C7(H7A,H7B,H7C), C6(H6A,H6B,H6C), C5(H5A,
 H5B,H5C)
Comments:The trifluoroacetate and t-butyl mercaptan anions were disordered.
For the trifluoroacetate anion, the F1 and F2 were split over two parts
with fixed occupancies (0.45:0.55). A similar C-F distance refinement
was applied for all C-F bonds with the "SADI" command, and the thermal
vibration parameters were restrained with "ISOR" and "SIMU". 
For the t-butyl mercaptan, the symmetry for C5 and C7 was suppressed
for chemical reasonability, and the C-C distances were also
restrained using "SADI". In addition, the guest oxygen molecules
were unable to be modelled due to the serious disorder and weak 
adsorption ability of the crystal at 290 K.
;
_shelx_res_file
;
TITL Ag12bpy_O2_290K in I-42m #121
REM reset to I-42m #121
CELL 1.54184 17.330484 17.330484 20.250983 90 90 90
ZERR 2 0.000137 0.000137 0.000372 0 0 0
LATT -2
SYMM +Y,-X,-Z
SYMM -X,-Y,+Z
SYMM -Y,+X,-Z
SYMM +X,-Y,-Z
SYMM -X,+Y,-Z
SYMM -Y,-X,+Z
SYMM +Y,+X,+Z
SFAC C H Ag F N O S
UNIT 160 208 24 24 16 16 16
SADI 0.01 F2 C9 F1B C9 F2B C9 F1 C9
SADI 0.01 C4 C5 C6 C4 C7 C4
SADI 0.01 C3 C1 C2 C1
SIMU 0.005 0.01 2 C8 O1
ISOR 0.005 0.01 C9 F1B F1 F2B F2

L.S. 20
PLAN  5
TEMP 17
BOND $H
MORE -1
CONF
fmap 2
acta 133.5
OMIT -5 5 8
OMIT -9 9 6
OMIT -4 5 9
REM <olex2.extras>
REM <HklSrc "%.\\Ag12bpy_O2_290K.hkl">
REM </olex2.extras>

WGHT    0.055200    0.100200
FVAR       0.56091
AG1   3    0.500000    0.500000    0.791654    10.25000    0.03934    0.03934 =
         0.07880    0.00000    0.00000   -0.00304
AG2   3    0.472661    0.661439    0.832614    11.00000    0.06117    0.03993 =
         0.10168    0.00369    0.01070    0.00264
AG3   3    0.416258    0.500000    1.000000    10.25000    0.05126    0.07040 =
         0.08778    0.02993    0.00000    0.00000
S1    7    0.401580    0.401580    0.797572    10.50000    0.04220    0.04220 =
         0.07792   -0.00570   -0.00570   -0.00487
C1    1    0.374769    0.374769    0.711154    10.50000    0.06991    0.06991 =
         0.07893   -0.01369   -0.01369   -0.01094
C2    1    0.391911    0.290100    0.701337    11.00000    0.15258    0.08954 =
         0.12077   -0.04586   -0.04033    0.00943
AFIX 137
H2A   2    0.445921    0.283431    0.692489    11.00000   -1.50000
H2B   2    0.362415    0.270920    0.664722    11.00000   -1.50000
H2C   2    0.378293    0.262129    0.740560    11.00000   -1.50000
AFIX   0
C3    1    0.420999    0.420999    0.662030    10.50000    0.14343    0.14343 =
         0.08143   -0.00712   -0.00712   -0.02845
PART -1
AFIX 137
H3A   2    0.401648    0.472872    0.660495    10.50000   -1.50000
H3B   2    0.416578    0.397897    0.619111    10.50000   -1.50000
H3C   2    0.474205    0.421663    0.675208    10.50000   -1.50000
AFIX   0
PART 0
S2    7    0.398786    0.601214    0.925682    10.50000    0.05522    0.05522 =
         0.06193    0.00375   -0.00375    0.00336
C4    1    0.330694    0.669306    0.966268    10.50000    0.07099    0.07099 =
         0.07001   -0.00222    0.00222    0.02009
PART -1
C7    1    0.370403    0.711244    1.020697    10.50000    0.12889    0.15063 =
         0.06726   -0.04859   -0.02044    0.04846
AFIX 137
H7A   2    0.387115    0.674996    1.053566    10.50000   -1.50000
H7B   2    0.335372    0.747549    1.040273    10.50000   -1.50000
H7C   2    0.414326    0.738228    1.003346    10.50000   -1.50000
AFIX   0
PART 0
C6    1    0.287641    0.712359    0.914396    10.50000    0.10158    0.10158 =
         0.09305    0.00230   -0.00230    0.04510
PART -1
AFIX 137
H6A   2    0.322241    0.746618    0.891792    10.50000   -1.50000
H6B   2    0.246993    0.741712    0.934549    10.50000   -1.50000
H6C   2    0.265931    0.676506    0.883402    10.50000   -1.50000
AFIX   0
PART 0
O1    6    0.395940    0.692359    0.733860    11.00000    0.11871    0.11599 =
         0.13467    0.02260   -0.03869   -0.01520
C8    1    0.341463    0.658537    0.710882    10.50000    0.09020    0.09020 =
         0.11355    0.02490   -0.02490   -0.00748
C9    1    0.311523    0.688477    0.648992    10.50000    0.11228    0.11228 =
         0.11318    0.00588   -0.00588    0.00567
N1    5    0.485701    0.796563    0.833406    11.00000    0.06919    0.04048 =
         0.10164    0.01224    0.00088    0.00393
C10   1    0.426323    0.842552    0.815940    11.00000    0.05829    0.04518 =
         0.10404    0.00917   -0.00454   -0.00545
AFIX  43
H10   2    0.381252    0.819527    0.800676    11.00000   -1.20000
AFIX   0
C11   1    0.428989    0.920874    0.819509    11.00000    0.05401    0.04332 =
         0.10415    0.00465    0.00104    0.00559
AFIX  43
H11   2    0.385690    0.950041    0.808882    11.00000   -1.20000
AFIX   0
C12   1    0.496898    0.957151    0.839161    11.00000    0.06596    0.04048 =
         0.08384    0.00195    0.00197    0.00336
C13   1    0.558739    0.909881    0.855626    11.00000    0.06233    0.05101 =
         0.10600    0.00805   -0.02061   -0.00375
AFIX  43
H13   2    0.605388    0.931343    0.868967    11.00000   -1.20000
AFIX   0
C14   1    0.550360    0.831136    0.852024    11.00000    0.06636    0.04854 =
         0.10496    0.01048   -0.01422    0.00182
AFIX  43
H14   2    0.592360    0.800425    0.863265    11.00000   -1.20000
AFIX   0
PART 1
F1    4    0.350005    0.649995    0.602696    10.22500    0.16657    0.16657 =
         0.15128    0.00097   -0.00097   -0.00777
F2    4    0.334432    0.757891    0.632296    10.45000    0.18716    0.12435 =
         0.16094    0.05925   -0.01061    0.00998
PART 0
PART 2
F1B   4    0.257663    0.742337    0.655530    10.27500    0.15970    0.15970 =
         0.16532    0.02985   -0.02985    0.04817
F2B   4    0.361769    0.717483    0.607151    10.55000    0.21036    0.18599 =
         0.13687    0.05287    0.03043   -0.00137
PART 0
PART -1
C5    1    0.267699    0.620966    0.994996    10.50000    0.09203    0.13591 =
         0.07485    0.01169    0.03237    0.02653
AFIX 137
H5A   2    0.235802    0.601280    0.960092    10.50000   -1.50000
H5B   2    0.236965    0.651845    1.024273    10.50000   -1.50000
H5C   2    0.289854    0.578712    1.019083    10.50000   -1.50000
AFIX   0
HKLF 4

REM  Ag12bpy_O2_290K in I-42m #121
REM R1 =  0.0316 for    2729 Fo > 4sig(Fo)  and  0.0335 for all    2910 data
REM    192 parameters refined using     46 restraints

END

WGHT      0.0552      0.1002

REM Highest difference peak  0.786,  deepest hole -0.370,  1-sigma level  0.087
Q1    1   0.5000  0.5000  0.5000  10.12500  0.05    0.79
Q2    1   0.5000  0.5000  0.8490  10.25000  0.05    0.46
Q3    1   0.6920  1.0000  1.0000  10.50000  0.05    0.45
Q4    1   0.6832  0.9772  0.9984  11.00000  0.05    0.44
Q5    1   0.3362  0.6638  0.7663  10.50000  0.05    0.43
;
_shelx_res_checksum              92597
_shelx_hkl_file
;
   0   0   2 166122. 5639.31   1
   0   0   4 19024.2 668.801   1
   0   0   6 345433. 11731.1   1
   0   0   8 27512.6 970.193   1
   0   0  10 421.125 43.3716   1
   0   0 -14 1075.50 70.8153   4
   0   0 -16 1241.59 79.4838   4
   0   0 -18 2680.25 131.919   4
   0   0 -20-2.46724 22.3911   4
   0   0 -22 453.779 37.2274   4
   0  -1   1 109755. 3722.74   1
  -1   0   3 49885.5 1561.84   1
   0   1   3 44019.1 1549.60   1
   1   0   3 42604.9 1542.67   1
   0  -1   3 48829.0 1549.25   1
   1   0   5 83538.4 2844.76   1
  -1   0   5 84594.7 2857.43   1
   0   1   5 81290.4 2851.41   1
   0  -1   5 84162.0 2848.97   1
  -1   0   7 4772.95 204.835   1
   0  -1   7 4934.02 199.479   1
   1   0   7 4984.05 198.800   1
   0   1   7 5219.84 208.977   1
  -1   0   9 12425.9 478.168   1
   1   0   9 12687.3 468.826   1
   0   1   9 12967.4 479.134   1
   0  -1   9 13121.9 473.042   1
  -1   0  11 14719.2 533.747   1
   0  -1  11 13773.8 522.692   1
   0  -1 -13 5180.11 213.743   4
  -1   0  13 5219.21 228.702   1
  -1   0 -15 39.7189 29.7884   4
   1   0 -15 10.7050 23.9967   4
   0  -1 -15 29.9944 25.5213   4
   0  -1 -17 118.667 31.6079   4
   1   0 -17 121.447 32.5020   4
   0   1 -17 130.095 36.0989   4
  -1   0 -17 184.185 37.4511   4
   0  -1 -19 868.017 64.1058   4
  -1   0 -19 881.995 64.7790   4
   1   0 -19 886.170 63.1658   4
   0   1 -19 953.533 65.2210   4
   1   0 -21 621.015 46.4827   4
  -1   0 -21 545.174 46.8360   4
   0  -1 -21 607.208 47.4171   4
   0   1 -21 636.547 48.8901   4
  -1   0 -23 113.970 20.3766   4
   0   1 -23 151.900 20.3294   4
  -1  -1 -22 262.378 30.5270   4
   1   1 -22 263.383 28.1584   4
   1   1 -20-16.5226 21.4222   4
  -1  -1 -20 7.59140 23.5328   4
  -1  -1 -18 1074.14 72.9312   4
   1   1 -18 1006.71 70.6559   4
  -1  -1 -16 153.116 35.0543   4
   1   1 -16 98.2737 31.4839   4
  -1  -1 -14 2132.95 110.989   4
   1  -1  10 13827.0 506.338   1
  -1   1  10 14067.2 522.852   1
  -1   1   8 5365.39 229.241   1
   1  -1   8 5546.93 214.977   1
  -1   1   6 21205.9 735.941   1
   1  -1   6 20040.4 715.822   1
  -1   1   4 18963.5 686.282   1
   1  -1   4 19581.9 671.655   1
   1  -1   2 6382.00 220.550   1
  -1  -1   0 159618. 5412.92   1
  -1  -1   2 5090.35 185.905   1
  -1  -1   4 18427.3 650.358   1
  -1  -1   6 11667.4 429.284   1
  -1  -1   8 5065.57 210.552   1
  -1  -1  10 14250.0 529.550   1
  -1  -1  12 1748.76 102.843   1
   1  -1 -14 2149.38 108.482   4
   1  -1 -16 150.962 32.7930   4
  -1   1 -16 209.053 37.5494   4
   1  -1 -18 940.083 65.3298   4
  -1   1 -18 1009.91 69.9244   4
   1   1  18 872.977 60.6244   3
  -1   1 -20 30.5337 24.2208   4
   1  -1 -20-6.91189 22.1795   4
  -1   1 -22 251.929 30.6319   4
  -1   1 -24 286.476 22.6616   4
  -2   0   0 82703.8 2816.38   1
   0  -2   2 14008.3 485.673   1
  -2   0   4 1063.48 66.7568   1
   0  -2   4 1051.11 52.1940   1
   0  -2   6 42806.1 1468.37   1
  -2   0   6 42029.9 1480.52   1
  -2   0   8 5094.75 218.391   1
   0  -2   8 5086.06 207.215   1
   0  -2  10 2230.04 111.761   1
  -2   0  10 2173.62 119.085   1
  -2   0  12 1574.02 100.948   1
  -2   0  14 1837.84 115.038   1
   0  -2 -14 1927.37 101.986   4
  -2   0 -14 1951.17 105.334   4
  -2   0 -16-11.9675 29.1195   4
   0  -2 -16 11.2548 26.1679   4
   0   2  16 20.7606 23.8712   3
   2   0 -16 18.4212 24.7643   4
   0   2  18 526.715 46.8483   3
  -2   0 -18 605.763 55.8957   4
   2   0 -18 562.004 49.0458   4
   0  -2 -18 531.869 50.2495   4
   0   2 -18 502.021 50.2341   4
  -2   0 -20 62.3904 23.9366   4
   0   2 -20 95.8442 26.4497   4
   0  -2 -20 124.879 28.7888   4
   0   2 -22 47.4678 19.0908   4
  -2   0 -22 91.3638 22.9582   4
  -2  -1 -23 37.8858 15.6297   4
  -1  -2 -21 100.720 26.5192   4
   1   2 -21 99.5687 24.8175   4
  -2  -1 -21 111.303 27.6869   4
  -1  -2 -19 730.579 57.1023   4
   1   2 -19 643.703 53.6947   4
   2   1 -19 586.608 50.1531   4
  -2  -1 -19 691.357 56.9192   4
   1   2 -17 126.606 33.7898   4
  -2  -1 -17 117.240 33.5107   4
  -1  -2 -17 187.595 35.1701   4
   2   1 -17 162.701 32.4758   4
  -1  -2 -15 2220.20 113.555   4
  -2  -1 -15 2012.61 112.141   4
  -1  -2 -13 1638.93 91.5627   4
  -2  -1 -13 1564.64 91.2077   4
  -2   1  11 3934.41 186.947   1
  -2   1   9 13992.7 501.246   1
   1  -2   9 13707.7 478.558   1
   2  -1   9 12358.7 470.288   1
   2  -1   7 8341.01 303.275   1
   1  -2   7 8029.87 307.990   1
  -1   2   7 8925.11 334.127   1
  -2   1   7 8326.85 328.573   1
  -2   1   5 18454.9 622.895   1
   2  -1   5 16865.8 588.832   1
   1  -2   5 17428.0 594.472   1
   1  -2   3 7088.82 250.045   1
  -2   1   1 20153.9 720.709   1
  -2  -1  -1 21081.0 712.471   1
  -2  -1   1 18219.4 632.093   1
  -1  -2   3 7803.32 277.316   1
  -2  -1   3 7417.87 282.936   1
  -1  -2   5 16008.8 580.475   1
  -2  -1   5 16754.7 590.685   1
  -2  -1   7 6241.74 256.309   1
  -1  -2   7 6379.16 251.607   1
  -1  -2   9 12882.0 486.345   1
  -2  -1   9 13201.8 491.557   1
  -2  -1  11 4210.82 192.783   1
  -1  -2  11 4077.50 186.906   1
   1  -2 -13 1328.52 78.9320   4
  -1  -2  13 1394.38 90.6994   1
  -2  -1  13 1521.81 98.3511   1
   2  -1 -13 1393.65 78.3951   4
   2  -1 -15 2185.69 109.075   4
  -2   1 -15 2074.08 113.958   4
   1  -2 -15 2213.51 110.926   4
  -1   2 -17 183.411 37.3158   4
   1  -2 -17 197.211 35.9189   4
   2  -1 -17 198.155 34.8656   4
  -2   1 -17 193.627 37.5405   4
   1  -2 -19 547.569 49.6788   4
  -1   2 -19 629.049 53.5869   4
   2   1  19 589.251 48.2381   3
   1   2  19 661.794 49.8215   3
  -2   1 -19 606.777 52.7479   4
  -2   1 -21 116.458 26.4555   4
  -1   2 -21 95.3475 25.5062   4
  -2   1 -23 38.5423 17.1758   4
  -1   2 -23 19.8233 15.2342   4
  -2  -2 -22 204.190 27.7759   4
   2   2 -20 349.526 37.9028   4
  -2  -2 -20 477.204 46.6309   4
  -2  -2 -18 313.628 42.4220   4
   2   2 -18 340.391 40.2146   4
  -2  -2 -16 233.296 40.6220   4
  -2  -2 -14 6181.34 253.159   4
  -2  -2 -12 9483.30 363.477   4
  -2   2  10 16154.1 606.448   1
   2  -2   8 12007.4 439.525   1
  -2   2   8 13287.8 476.653   1
  -2   2   6 14420.2 513.966   1
   2  -2   6 13375.3 478.383   1
  -2   2   4 11654.4 460.761   1
   2  -2   4 12861.6 436.363   1
  -2   2   2 13906.5 493.459   1
  -2  -2   0 2773.72 108.314   1
  -2  -2   4 10050.5 368.302   1
  -2  -2   6 11354.1 424.006   1
  -2  -2   8 11631.3 441.020   1
  -2  -2  10 15523.0 579.808   1
  -2  -2  12 7795.69 322.141   1
  -2  -2  14 5854.02 258.896   1
  -2   2 -16 119.541 35.6905   4
  -2   2 -18 307.367 41.7164   4
  -2   2 -20 350.636 41.5905   4
   2   2  20 338.044 36.7225   3
  -2   2 -22 203.355 28.0781   4
  -2   2 -24 21.6875 12.1522   4
  -3   0  -1 9813.83 345.924   1
  -3   0   1 9425.08 356.736   1
   0  -3   3 62045.8 2118.26   1
  -3   0   5 18870.4 686.728   1
   0  -3   5 18959.5 664.213   1
   0  -3   7 315.219 34.1773   1
  -3   0   7 308.948 43.7485   1
  -3   0   9 6826.36 287.289   1
   0  -3   9 6963.10 275.434   1
  -3   0  11 162.739 37.9337   1
   0  -3  11 137.415 28.3808   1
  -3   0 -13 190.686 36.3597   4
  -3   0  13 134.037 26.7564   5
  -3   0  13 212.624 45.5715   1
   0  -3 -13 186.913 33.4565   4
  -3   0 -15 708.957 61.0597   4
   0  -3 -15 604.888 55.3364   4
   0   3  15 654.443 53.5345   3
   0   3  17 196.730 33.4079   3
  -3   0 -17 132.634 35.5947   4
   0  -3 -17 173.434 35.2071   4
   0   3  19 726.641 54.2728   3
  -3   0 -19 870.215 64.3867   4
   0  -3 -19 817.164 60.4051   4
   0   3 -19 816.717 60.6661   4
   0  -3 -21-3.99036 18.2200   4
  -3   0 -21-2.30585 22.8042   4
   0   3 -21 18.9576 20.8317   4
  -3   0 -23 1.50668 14.8278   4
   0   3 -23 24.8080 14.3362   4
  -3  -1 -22 103.432 24.3851   4
   1   3 -22 108.298 20.6686   4
  -3  -1 -20 327.627 39.9856   4
   1   3 -20 292.946 35.7553   4
  -1  -3 -20 328.861 38.8714   4
   1   3 -18 186.499 33.5466   4
  -3  -1 -18 230.299 38.9073   4
  -1  -3 -18 206.910 36.3843   4
  -1   3  16 481.264 47.5915   3
  -3  -1 -16 543.819 55.3952   4
  -1  -3 -16 525.740 52.4389   4
   3   1 -16 588.007 51.0938   4
  -3  -1 -14 2573.74 127.625   4
  -1   3  14 2364.42 117.064   3
  -1  -3 -14 2480.95 124.637   4
  -3   1  12 3368.62 174.522   1
  -1  -3 -12 3455.91 156.910   4
  -3  -1 -12 3539.63 159.198   4
  -3   1  10 11750.2 443.306   1
   1  -3  10 11052.4 417.306   1
  -3   1   8 5532.80 236.251   1
   1  -3   8 5348.91 213.464   1
  -3   1   6 544.237 54.6548   1
   1  -3   6 561.343 38.1661   1
   1  -3   4 16178.5 563.469   1
  -3   1   2 13266.4 490.423   1
  -3  -1  -2 13609.0 469.510   1
  -3  -1   0 11554.1 401.470   1
  -3   1   0 11118.6 401.483   1
  -3  -1   2 14617.8 519.976   1
  -1  -3   2 14518.1 511.331   1
  -1  -3   4 18772.7 659.871   1
  -1  -3   6 760.165 51.7965   1
  -3  -1   6 734.904 60.4553   1
  -3  -1   8 5091.67 221.604   1
  -1  -3   8 5014.28 212.281   1
  -3  -1  10 12934.2 496.755   1
  -1  -3  10 12972.5 489.224   1
  -1  -3  12 3440.88 169.842   1
  -3  -1  12 3800.71 182.618   1
  -3  -1  14 2473.22 142.893   1
   1  -3 -14 2254.08 117.573   4
  -3   1 -14 2550.75 125.307   4
  -3  -1  14 2411.11 113.795   5
  -3   1 -16 519.224 51.0393   4
   1  -3 -16 479.819 47.7660   4
   1   3  18 251.199 36.0388   3
  -1   3 -18 251.995 38.3567   4
  -3   1 -18 195.788 36.5929   4
   1  -3 -18 282.443 38.0043   4
  -1   3 -20 228.347 34.6025   4
   3   1  20 206.393 31.4883   3
  -3   1 -20 244.013 38.1058   4
   1   3  20 263.166 33.1778   3
  -3   1 -22 78.6068 22.6558   4
  -1   3 -22 108.173 22.9195   4
  -1   3 -24 29.4107 10.3792   4
  -3   1 -24-2.13025 11.2935   4
  -2  -3 -21 226.891 32.5285   4
  -3  -2 -21 211.707 32.5877   4
   2   3 -21 237.815 28.5644   4
  -2  -3 -19 376.453 42.9438   4
   2   3 -19 273.018 37.3344   4
   3   2 -19 303.345 35.6967   4
  -3  -2 -19 337.407 43.8717   4
  -2  -3 -17 1205.68 80.2143   4
   3   2 -17 1186.87 75.1043   4
  -3  -2 -17 1230.18 82.1049   4
  -2  -3 -15 5930.45 245.752   4
  -3  -2 -15 5817.12 246.444   4
  -2  -3 -13 2102.78 111.073   4
  -2   3  13 1951.04 102.963   3
  -3  -2 -13 2142.72 112.624   4
  -3   2  11 10399.2 417.552   1
  -3   2   9 33654.3 1203.01   1
  -3   2   7 18717.8 660.675   1
   2  -3   7 17353.6 621.816   1
   2  -3   5 519.189 30.6320   1
   2  -3   3 56487.5 1794.78   1
   3  -2   3 51132.1 1787.15   1
  -3   2   3 52912.7 1818.63   1
  -3  -2  -1 4654.96 172.371   1
  -3   2   1 4471.67 176.222   1
  -3  -2   1 3084.95 125.722   1
  -2  -3   3 54426.0 1869.19   1
  -2  -3   5 157.299 27.8269   1
  -3  -2   5 158.927 31.4519   1
  -3  -2   7 15485.4 575.901   1
  -2  -3   7 15569.3 570.003   1
  -3  -2   9 30388.3 1099.05   1
  -2  -3   9 31069.6 1095.41   1
  -3  -2  11 8679.01 354.696   1
  -2  -3  11 8574.08 350.331   1
  -3  -2  13 2388.37 135.209   1
  -2  -3  13 2365.13 111.219   5
  -3  -2  13 2140.23 107.941   5
  -2  -3  13 2244.25 131.055   1
  -3   2 -15 5299.87 227.084   4
  -3  -2  15 5344.10 216.338   5
  -3   2 -17 1290.21 84.9548   4
  -2   3 -17 1379.01 87.1751   4
   2   3  19 271.757 36.3894   3
  -2   3 -19 251.236 39.4302   4
  -3   2 -19 239.262 39.3460   4
   3   2  19 276.734 37.0772   3
  -2   3 -21 251.817 34.1175   4
  -3   2 -21 282.997 35.4184   4
   3   2  21 294.389 32.1532   3
   2   3  21 236.149 29.4393   3
  -3   2 -23 40.0493 16.8024   4
  -2   3 -23 31.5169 15.6341   4
   3   3 -20 337.531 35.4039   4
  -3  -3 -20 386.948 41.4204   4
   3   3 -18 2138.92 111.943   4
  -3  -3 -18 2410.31 121.698   4
  -3  -3 -16 212.034 40.8247   4
  -3  -3 -14 5734.04 242.148   4
  -3  -3 -12 26428.4 943.606   4
  -3   3   8 5594.91 252.390   1
  -3   3   6 59042.1 2030.37   1
   3  -3   6 58069.6 1985.26   1
   3  -3   4 42629.7 1453.12   1
  -3  -3  -2 4834.35 186.704   1
  -3  -3   0 1676.38 78.7929   1
  -3  -3   2 3419.22 142.178   1
  -3  -3   4 38895.0 1352.55   1
  -3  -3   6 59624.4 2064.87   1
  -3  -3   8 5769.49 248.050   1
  -3  -3  10 19318.5 720.052   1
  -3  -3  12 26820.7 945.158   5
  -3  -3  14 5016.93 236.540   1
  -3  -3  14 5014.90 206.910   5
  -3  -3  16 446.554 43.2728   5
  -3   3 -18 2776.68 137.484   4
  -3   3 -20 385.865 42.9843   4
   3   3  20 359.495 39.1951   3
  -3   3 -22 117.373 25.1679   4
   3   3  22 91.1547 19.4452   3
  -3   3 -24 19.4316 11.7587   4
  -4   0   0 548.334 49.4976   1
  -4   0   2 368.918 46.9305   1
  -4   0  -2 362.508 30.4249   1
  -4   0   4 185.472 39.6743   1
   0  -4   4 180.334 22.8774   1
  -4   0   6 10036.9 400.388   1
   0  -4   6 10369.0 376.644   1
   0  -4   8 736.049 54.2367   1
  -4   0   8 719.116 67.8880   1
   0  -4  10 36.7446 23.4984   1
  -4   0  10 50.9540 33.6786   1
   0  -4 -12 151.296 31.9377   4
  -4   0  12 63.1557 23.0709   5
  -4   0  12 88.8658 39.2590   1
   0   4  14 89.8566 31.4248   3
  -4   0  14 131.567 43.1038   1
  -4   0 -14 115.141 37.9247   4
  -4   0  14 101.243 27.5562   5
   0  -4 -14 103.211 32.5867   4
   0  -4 -16 384.096 46.0940   4
   0   4  16 367.426 44.9218   3
  -4   0 -16 362.510 48.2050   4
   0  -4 -18 447.772 46.5428   4
   0   4  18 574.107 48.8133   3
  -4   0 -18 502.529 52.0600   4
   0   4 -20 84.5944 26.4395   4
  -4   0 -20 115.667 30.0639   4
   0   4  20 58.0106 22.6207   3
   0   4 -22 6.71227 15.8823   4
  -4   0 -22 3.81866 17.3287   4
   1   4 -23 28.6727 12.4085   4
   1   4 -21 19.6034 18.5618   4
   4  -1  21 14.2514 17.3143   3
  -4  -1 -21 18.3240 21.9328   4
   1   4 -19 687.796 56.7277   4
  -1  -4 -19 829.249 60.3692   4
  -4  -1 -19 671.956 59.8889   4
  -4  -1 -17 108.491 36.2962   4
  -1   4  17 138.672 31.9586   3
  -1  -4 -17 119.788 35.5534   4
  -1   4  15 188.959 38.2754   3
  -1  -4 -15 182.056 37.1549   4
  -4  -1 -15 221.644 41.3742   4
  -4  -1 -13 805.454 66.2542   4
  -1  -4 -13 901.934 67.6933   4
  -4   1  13 869.898 58.0565   5
  -1   4  13 736.241 58.3101   3
  -4   1  13 856.654 81.9607   1
  -4   1  11 2164.48 129.901   1
   1  -4   9 8848.52 340.186   1
  -4   1   9 9229.96 367.236   1
  -4   1   7 5601.79 240.305   1
   1  -4   7 5377.09 212.360   1
  -4  -1  -5 6286.54 232.773   1
   1  -4   5 7086.04 244.584   1
  -4   1   3 2453.70 125.073   1
  -4  -1  -3 2115.08 88.6205   1
   1  -4   3 2314.01 93.6062   1
  -4   1   1 1485.25 85.4088   1
  -4  -1  -1 1683.06 75.4258   1
  -4   1  -1 822.580 43.5933   1
  -4  -1   1 828.697 54.3038   1
  -1  -4   1 693.160 45.0098   1
  -1  -4   3 2398.69 107.902   1
  -4  -1   3 2767.04 125.440   1
  -1  -4   5 6636.53 253.812   1
  -4  -1   7 5929.95 256.729   1
  -1  -4   7 6086.03 243.111   1
  -1  -4   9 10088.4 388.479   1
  -4  -1   9 9942.94 400.077   1
  -1  -4  11 1868.08 111.820   1
  -4  -1  11 2059.92 123.396   1
   1  -4 -13 787.798 60.2117   4
  -4  -1  13 828.007 57.2532   5
  -4  -1  13 828.658 78.8707   1
  -1  -4  13 891.679 59.3439   5
   1  -4 -15 394.682 43.2928   4
  -4  -1  15 315.999 39.4952   5
  -4  -1  15 320.715 54.3483   1
   1   4  15 383.398 45.1535   3
   1   4  17 110.657 31.4075   3
  -4   1 -17 175.261 37.0526   4
  -1   4 -19 686.689 57.1540   4
   1   4  19 683.860 54.4104   3
  -4   1 -19 732.513 58.9496   4
  -4   1 -21 50.2889 24.0007   4
   1   4  21 15.2002 17.3198   3
   4   1  21 3.53389 18.1188   3
  -1   4 -21 25.6450 22.1233   4
  -4   1 -23 25.3588 16.5939   4
  -1   4 -23 16.0682 14.2007   4
   2   4 -22 37.1190 14.8244   4
  -4  -2 -22 35.5105 20.1965   4
  -4  -2 -20 274.583 38.4608   4
   2   4 -20 236.541 31.8496   4
  -2  -4 -20 243.877 34.4511   4
  -2  -4 -18 219.691 38.1564   4
  -4  -2 -18 269.411 40.7070   4
  -4  -2 -16 36.1607 31.9070   4
  -2   4  16 108.347 29.3579   3
  -2  -4 -16 56.6565 33.2747   4
  -2   4  14 2293.02 117.050   3
  -4  -2 -14 2368.48 126.141   4
  -2  -4 -14 2478.14 125.839   4
  -2  -4 -12 12986.2 471.553   4
  -4  -2 -12 12815.9 472.655   4
  -4   2  12 13218.7 500.145   1
  -2   4  12 11495.7 459.977   3
  -4   2  10 8420.93 352.972   1
  -4   2   8 3492.50 174.974   1
   2  -4   8 3364.54 141.786   1
   2  -4   6 22753.8 791.565   1
  -4   2   4 28528.7 1012.38   1
   2  -4   4 28587.8 978.348   1
  -4  -2  -4 28107.4 983.029   1
  -4  -2  -2 6938.39 251.628   1
  -4   2   2 6602.81 263.941   1
  -2  -4   0 5366.52 209.404   1
  -4   2   0 5507.95 206.374   1
  -4  -2   0 5591.86 210.974   1
  -4  -2   2 7050.58 269.853   1
  -2  -4   4 26669.3 934.622   1
  -2  -4   6 18835.9 691.882   1
  -4  -2   6 19926.2 707.443   1
  -2  -4   8 3376.69 163.095   1
  -4  -2   8 3742.16 175.838   1
  -2  -4  10 7616.08 316.888   1
  -4  -2  10 7782.59 325.425   1
  -4  -2  12 10980.5 407.106   5
  -4  -2  12 10684.9 442.840   1
  -2  -4  12 11272.8 436.678   1
  -2  -4  12 10858.9 407.501   5
  -4  -2  14 2056.22 132.024   1
  -2  -4  14 2065.86 104.371   5
  -4  -2  14 2014.50 104.489   5
  -4  -2  16 78.6795 28.7862   5
   2   4  18 255.793 36.6014   3
  -4   2 -18 238.635 40.0169   4
  -2   4 -18 245.537 41.5411   4
   2   4  20 182.399 31.0433   3
  -4   2 -20 220.320 36.5710   4
   4   2  20 207.045 32.5858   3
  -2   4 -20 179.575 33.4287   4
   2   4  22 40.5272 16.6703   3
  -4   2 -22 43.1693 19.3720   4
   4   2  22 21.2862 16.2792   3
  -2   4 -22 57.5027 19.8491   4
  -2   4 -24 5.67861 9.88834   4
  -4   2 -24 4.17190 10.5309   4
  -4  -3 -21 53.4225 22.7701   4
  -3  -4 -19 28.2784 25.9935   4
  -4  -3 -19-2.88501 26.6796   4
   3   4 -19 35.2716 22.0100   4
  -3  -4 -17 1533.05 96.0209   4
  -4  -3 -17 1733.96 100.551   4
  -4  -3 -15 4316.11 191.906   4
  -3  -4 -15 4086.18 190.234   4
  -3   4  13 2599.58 133.651   3
  -4  -3 -13 2936.59 143.591   4
  -3  -4 -13 2940.65 143.851   4
  -4  -3 -11 5091.02 214.205   4
  -3  -4 -11 4734.25 208.475   4
  -4   3   9 14730.5 572.089   1
  -4   3   7 19856.0 743.424   1
   3  -4   5 4415.75 157.803   1
  -4   3   5 3549.72 186.330   1
  -4   3   3 20656.7 766.731   1
  -4  -3  -3 22106.8 756.764   1
  -4  -3  -1 15352.9 546.964   1
  -3  -4  -1 15356.2 548.309   1
  -4  -3   1 14978.6 538.637   1
  -3  -4   1 15059.3 537.830   1
  -4  -3   3 18625.5 667.606   1
  -3  -4   5 4209.73 177.876   1
  -4  -3   5 3982.73 181.113   1
  -3  -4   7 18706.0 677.762   1
  -4  -3   7 18288.2 683.454   1
  -4  -3   9 15072.8 589.827   1
  -3  -4   9 15895.8 588.232   1
  -3  -4  11 4946.63 201.137   5
  -4  -3  11 4892.69 200.460   5
  -3  -4  11 4651.51 225.187   1
  -4  -3  11 4681.84 229.209   1
  -4  -3  13 3063.68 167.834   1
  -4  -3  13 2930.11 136.654   5
  -3  -4  13 2880.68 163.023   1
  -3  -4  13 2892.33 136.645   5
  -3  -4  15 4149.18 180.535   5
  -4  -3  15 4291.31 181.669   5
  -4  -3  15 4066.84 211.319   1
   3   4  17 1788.24 98.6719   3
  -3  -4  17 1782.90 94.3016   5
  -3   4 -17 1838.31 104.175   4
  -4  -3  17 1803.55 95.1782   5
   4   3  19 50.9933 26.6833   3
   3   4  19 34.6538 25.7697   3
  -4   3 -19 30.9960 27.7517   4
  -3   4 -19 39.5192 26.5941   4
  -4   3 -21 77.7238 23.0379   4
  -3   4 -21 70.1640 24.5307   4
   4   3  21 88.6712 23.4279   3
   3   4  21 92.7057 23.6411   3
   4   3  23 26.3809 11.2248   3
  -3   4 -23 27.8891 15.7927   4
  -4   3 -23 52.8117 18.1789   4
  -4  -4 -18 1114.16 75.9320   4
  -4  -4 -16 649.182 61.4531   4
  -4  -4 -14 3266.40 161.296   4
  -4  -4 -12 11738.2 451.392   4
  -4  -4 -10 6875.39 273.967   4
   4  -4   4 30131.8 1033.48   1
  -4  -4  -4 30218.1 1062.10   1
  -4  -4  -2 22776.4 805.822   1
  -4  -4   0 1328.66 73.4104   1
  -4  -4   2 26372.5 929.708   1
  -4  -4   6 25435.0 914.373   1
  -4  -4   8 14944.6 568.018   1
  -4  -4  10 7946.34 336.957   1
  -4  -4  12 11010.4 448.039   1
  -4  -4  12 10966.8 413.113   5
  -4  -4  14 2861.96 137.022   5
  -4  -4  14 2860.43 164.980   1
  -4  -4  16 444.962 46.4115   5
   4   4  18 1158.74 73.5161   3
  -4  -4  18 1076.75 67.8226   5
   4   4  20 346.023 39.3862   3
  -4   4 -20 355.560 40.2390   4
   4   4  22 144.781 22.2121   3
  -4   4 -22 128.236 22.7566   4
  -4   4 -24 9.38199 10.7747   4
  -5   0   1 3861.28 170.861   1
  -5   0  -1 3537.28 154.884   1
  -5   0   3 30182.8 1067.53   1
  -5   0  -3 29705.1 1027.83   1
   0  -5   3 30370.1 1040.62   1
   0  -5   5 16105.2 567.759   1
  -5   0   5 15509.4 595.195   1
   0  -5   7 4289.35 176.230   1
  -5   0   7 4037.19 197.374   1
  -5   0   9 3322.51 175.582   1
   0  -5   9 3515.01 158.899   1
  -5   0  11 104.469 26.3951   5
   0   5  11 56.0171 26.6368   3
  -5   0 -11 97.0631 34.7813   4
  -5   0  11 102.770 38.5755   1
   0   5  13 354.827 43.2783   3
  -5   0 -13 338.851 47.0463   4
  -5   0  13 250.653 53.9905   1
   0  -5 -13 356.836 44.9192   4
  -5   0  13 365.914 40.8034   5
   0   5  15 2623.08 134.447   3
   0  -5 -15 2972.96 140.809   4
  -5   0  15 2923.79 134.350   5
  -5   0  15 2927.30 169.523   1
   0   5  17 21.2048 27.4331   3
  -5   0 -17 12.8471 28.4157   4
   0  -5 -17 17.0841 26.0081   4
   0   5  19 764.537 55.8900   3
  -5   0 -19 721.359 62.0108   4
   0   5 -19 792.827 58.5793   4
  -5   0 -21 213.302 30.9760   4
   5   0  21 194.318 26.5422   3
   0   5 -21 196.770 28.5289   4
  -5   0 -23 114.163 19.8132   4
   0   5 -23 94.4155 16.5015   4
  -5  -1 -22 12.9854 18.8401   4
   1   5 -22 33.2196 17.2172   4
  -5  -1 -20 80.5134 27.8419   4
   1   5 -20 48.0191 23.4095   4
  -1  -5 -18 314.632 41.6353   4
  -5  -1 -18 392.246 45.3395   4
  -1   5  18 381.250 39.4813   3
  -1  -5 -16 911.119 68.3643   4
  -1   5  16 759.168 61.7604   3
  -5  -1 -16 855.488 70.4277   4
  -5   1  14 513.920 67.7635   1
  -1  -5 -14 580.718 57.1101   4
  -1   5  14 606.458 54.0559   3
  -5  -1 -12 200.369 40.4514   4
  -1  -5 -12 318.526 44.5150   4
  -1   5  12 173.678 37.2733   3
  -5   1  12 311.610 54.1319   1
  -5   1  12 279.572 36.3615   5
  -5   1  10 2754.98 153.572   1
  -5   1   8 462.565 60.5568   1
   1  -5   8 599.977 46.1136   1
   1  -5   6 8548.28 316.815   1
   1  -5   4 4539.31 178.379   1
  -5  -1  -4 4474.14 173.336   1
  -5  -1  -2 20261.0 700.460   1
  -5   1   2 19148.6 720.233   1
  -5   1   0 17199.7 633.474   1
  -5  -1   0 18473.6 639.083   1
  -1  -5   2 20345.6 713.085   1
  -5  -1   2 20772.1 731.719   1
  -5   1  -2 20049.9 699.253   1
  -5  -1   4 3669.05 179.181   1
  -1  -5   4 4014.63 161.808   1
  -1  -5   6 7991.75 305.849   1
  -1  -5   8 788.287 60.9022   1
  -5  -1   8 755.843 71.5077   1
  -1  -5  10 2693.98 142.177   1
  -5  -1  10 2972.63 159.420   1
  -5  -1  12 180.451 46.6231   1
  -1  -5  12 216.637 33.9097   5
  -1  -5  12 171.353 37.0915   1
  -5  -1  12 140.773 31.1948   5
  -5   1 -12 233.469 40.6853   4
  -5  -1  14 561.328 68.6584   1
  -1  -5  14 438.969 44.9772   5
  -5   1 -14 520.095 55.1917   4
  -5  -1  14 474.940 47.5489   5
   1   5  14 431.243 47.9724   3
   1   5  16 706.928 62.1299   3
  -5  -1  16 795.196 81.2451   1
  -5  -1  16 812.925 59.5055   5
   1   5  18 334.433 41.1348   3
  -1   5 -20 51.5100 24.8242   4
   1   5  20 47.4662 21.7300   3
  -5   1 -20 56.5651 25.4869   4
  -5   1 -22 18.4636 17.8745   4
   5   1  22-8.33587 15.1864   3
  -1   5 -22 28.6204 16.9140   4
  -5  -2 -21 42.4506 22.9072   4
   2   5 -21 10.6319 17.7231   4
   2   5 -19 234.891 34.4058   4
  -5  -2 -19 243.264 39.8101   4
  -2   5  17 298.867 38.7261   3
  -5  -2 -17 307.430 46.0581   4
  -2  -5 -17 314.753 43.3850   4
  -2  -5 -15 141.497 40.3647   4
  -5  -2 -15 179.899 39.8614   4
  -2   5  15 120.566 35.0701   3
  -2  -5 -13 286.491 46.2790   4
  -2   5  13 252.227 41.3025   3
  -5   2  13 290.654 55.5751   1
  -2  -5 -11 1400.60 85.4143   4
  -5   2  11 1289.32 102.134   1
  -5  -2 -11 1513.09 93.6435   4
  -2   5  11 1391.95 85.8886   3
  -5   2   9 1117.42 91.9326   1
   2  -5   7 452.148 35.4365   1
  -5  -2  -5 5759.71 229.526   1
   2  -5   5 6243.90 230.170   1
   2  -5   3 1668.08 75.0102   1
  -5  -2  -3 1556.35 77.1263   1
  -5   2   3 1644.73 100.571   1
  -5   2   1 1143.88 66.2913   1
  -5  -2  -1 970.247 60.0141   1
  -5   2  -1 763.910 42.5114   1
  -5  -2   1 745.311 54.9184   1
  -5  -2   3 2683.77 134.403   1
  -2  -5   3 2883.48 125.561   1
  -2  -5   5 7226.38 281.522   1
  -5  -2   7 576.637 62.6535   1
  -2  -5   7 613.951 53.2029   1
  -5  -2   9 704.406 71.5480   1
  -2  -5   9 658.610 61.2188   1
  -5  -2  11 1408.40 81.2267   5
  -5  -2  11 1435.64 106.108   1
  -2  -5  11 1380.01 97.3908   1
  -2  -5  11 1410.91 81.8890   5
  -2  -5  13 142.608 39.2083   1
  -5  -2  13 196.347 49.5314   1
  -5   2 -13 172.492 38.1006   4
  -5  -2  13 173.277 32.2388   5
  -2  -5  13 181.354 33.4981   5
  -5  -2  15 50.4582 39.8809   1
  -2  -5  15 93.2143 29.8048   5
  -5  -2  15 71.2153 28.6589   5
  -5   2 -15 60.9696 36.1770   4
   2   5  15 35.7737 32.2755   3
   2   5  17 424.904 46.6692   3
  -5  -2  17 397.438 43.9572   5
   2   5  19 227.324 34.7877   3
  -2   5 -19 204.882 35.8666   4
   2   5  21 17.5291 18.9337   3
  -5   2 -21 52.7934 22.2306   4
   5   2  21 25.2788 20.0948   3
  -2   5 -21 29.7023 21.6577   4
  -5   2 -23 5.66395 15.1375   4
   5   2  23 13.5599 11.4193   3
  -2   5 -23-9.16736 13.5519   4
  -5  -3 -20 33.4388 23.3909   4
   3   5 -20 51.8156 20.5759   4
  -3  -5 -18 289.163 41.2042   4
  -5  -3 -18 410.130 46.8307   4
  -3   5  16 44.7629 25.9489   3
  -5  -3 -16 66.1121 32.9670   4
  -3  -5 -16 26.9296 32.6186   4
  -5  -3 -14 1300.58 90.0993   4
  -3  -5 -14 1323.75 90.2223   4
  -3   5  14 1281.28 82.7625   3
  -3  -5 -12 6140.27 254.838   4
  -3   5  12 5902.71 250.131   3
  -5  -3 -10 2032.36 114.029   4
  -5   3  10 2710.98 149.844   1
  -5   3   8 2966.43 165.856   1
  -5   3   6 9128.36 376.245   1
   3  -5   6 9145.88 327.073   1
  -5  -3  -6 8810.27 344.831   1
   3  -5   4 3453.08 134.214   1
  -5   3   4 3253.75 164.235   1
  -5  -3  -4 3451.59 147.209   1
  -3  -5  -2 11135.5 425.051   1
  -5   3   2 12188.0 432.345   1
  -5  -3  -2 11450.2 422.561   1
  -5  -3   0 615.059 47.9000   1
  -3  -5   0 633.505 48.6875   1
  -5  -3   2 12096.2 449.841   1
  -5  -3   4 4257.37 190.077   1
  -3  -5   4 4268.26 182.228   1
  -5  -3   6 8456.31 363.645   1
  -3  -5   6 9890.90 360.957   1
  -3  -5   8 3212.00 156.639   1
  -5  -3   8 2945.24 164.351   1
  -5  -3  10 2878.36 163.562   1
  -5  -3  10 2886.49 134.289   5
  -3  -5  10 2848.14 155.040   1
  -3  -5  12 6938.10 299.790   1
  -3  -5  12 6601.33 268.590   5
  -5  -3  12 6521.29 303.908   1
  -5  -3  12 6820.37 269.288   5
  -5  -3  14 1187.82 100.018   1
  -3  -5  14 1128.83 75.6311   5
  -5  -3  14 1173.58 76.5159   5
   3   5  16 16.8668 28.6777   3
  -3  -5  16 44.4796 26.9561   5
  -5  -3  16 24.1156 25.8061   5
  -5   3 -16 9.57330 29.6872   4
   3   5  18 264.249 38.2686   3
  -3   5 -18 267.850 39.8076   4
  -5  -3  18 264.644 35.5745   5
  -3  -5  18 300.734 34.5466   5
   3   5  20 51.9645 24.6783   3
   5   3  20 23.7744 21.1693   3
  -3   5 -20 12.4460 22.3260   4
   3   5  22 101.004 19.8005   3
  -3   5 -22 65.9961 20.0707   4
  -5   3 -22 86.8408 20.4727   4
   5   3  22 88.9728 19.8101   3
  -3   5 -24 2.62646 8.92831   4
  -5   3 -24 4.74363 9.08224   4
   4   5 -19 534.904 43.3459   4
  -5  -4 -19 502.300 52.0055   4
  -4  -5 -17 1912.29 107.586   4
  -5  -4 -17 1763.75 106.247   4
  -5  -4 -15 728.933 67.9632   4
  -4  -5 -15 652.861 64.7090   4
  -4   5  13 3538.44 174.823   3
  -5  -4 -13 4066.60 186.697   4
  -4  -5 -13 3957.18 185.052   4
  -4  -5 -11 4432.72 196.321   4
  -4   5  11 4491.69 204.091   3
  -5  -4  -7 40636.7 1444.65   1
   4  -5   5 18649.1 653.341   1
  -5  -4  -5 19214.2 687.683   1
  -4  -5  -3 18511.5 688.127   1
  -5  -4  -3 19553.5 686.920   1
  -4  -5  -1 26337.1 947.849   1
  -5  -4  -1 27286.3 947.430   1
  -4  -5   1 25309.0 891.353   1
  -5  -4   1 24941.8 891.172   1
  -5  -4   3 19582.0 708.868   1
  -4  -5   5 20119.1 731.146   1
  -4  -5   7 49166.4 1710.37   1
  -5  -4   7 48245.0 1717.08   1
  -4  -5   9 329.538 51.5005   1
  -5  -4   9 403.273 57.1237   1
  -5  -4  11 4750.36 241.891   1
  -4  -5  11 4668.31 237.816   1
  -5  -4  11 5162.88 211.850   5
  -4  -5  11 5161.17 211.674   5
  -4  -5  13 3789.13 203.654   1
  -4  -5  13 3910.87 175.875   5
  -5  -4  13 3796.93 205.471   1
  -5  -4  13 3952.83 175.244   5
  -5  -4  15 705.767 78.3650   1
  -5  -4  15 697.824 61.1974   5
  -4  -5  15 765.834 60.9692   5
  -5   4 -17 1543.20 95.1428   4
   4   5  17 1698.24 94.9545   3
  -5  -4  17 1738.82 92.6857   5
  -4   5 -17 1514.03 93.4055   4
  -4  -5  17 1606.41 89.9693   5
  -4  -5  19 625.926 46.2772   5
   5   4  19 626.839 52.0119   3
   4   5  19 609.233 51.4752   3
  -5  -4  19 554.866 45.5861   5
   4   5  21 199.794 28.4082   3
  -4   5 -21 181.885 29.3498   4
   5   4  21 225.698 29.5402   3
   5   4  23 67.3315 13.8071   3
  -5   4 -23 32.6848 15.8368   4
  -4   5 -23 42.3186 15.8607   4
   4   5  23 46.0787 12.4076   3
  -5  -5 -16 2268.21 125.549   4
  -5  -5 -14 3255.75 165.519   4
  -5  -5 -12 2286.87 127.112   4
  -5  -5 -10 8423.10 330.430   4
  -5  -5  -6 3097.98 166.110   1
  -5  -5  -4 31195.5 1096.84   1
   5  -5   4 30558.7 1056.24   1
  -5  -5  -2 40267.9 1411.96   1
  -5  -5   0 8129.22 318.763   1
  -5  -5   2 37379.4 1314.25   1
  -5  -5   6 3520.13 174.595   1
  -5  -5   8 27748.8 1011.97   1
  -5  -5  10 11453.3 427.209   5
  -5  -5  10 11022.3 460.717   1
  -5  -5  12 2614.03 159.820   1
  -5  -5  12 2516.00 128.589   5
  -5  -5  14 2652.50 134.353   5
  -5  -5  14 2661.74 163.656   1
  -5  -5  16 2183.19 111.178   5
  -5   5 -16 1939.78 112.463   4
  -5   5 -18 327.306 41.7607   4
   5   5  18 338.451 43.1165   3
  -5  -5  18 330.026 38.5255   5
  -5   5 -20 240.892 34.0441   4
   5   5  20 246.191 35.1867   3
   5   5  22 544.510 36.9533   3
  -6   0   0 48368.0 1685.97   1
  -6   0  -2 26146.1 932.385   1
  -6   0   2 27104.0 965.413   1
   0  -6   2 27179.9 935.949   1
   0  -6   4 4001.53 168.019   1
  -6   0   4 4224.73 197.088   1
   0  -6   6 31409.5 1107.09   1
  -6   0   6 32008.9 1138.89   1
   0  -6   8 3840.19 169.564   1
  -6   0 -10 2561.98 130.911   4
   0  -6  10 2485.14 128.652   1
  -6   0  10 2490.52 118.126   5
   0   6  10 2242.63 121.856   3
  -6   0  10 2304.03 143.992   1
  -6   0  12 2661.87 162.615   1
   0   6  12 2727.98 134.840   3
  -6   0  12 2715.83 131.116   5
   0  -6  12 2875.15 132.217   5
  -6   0 -12 2962.78 144.362   4
   0  -6 -12 2666.19 134.303   4
  -6   0  14 1018.34 70.6243   5
   0  -6 -14 957.544 73.9439   4
   0   6  14 1108.57 75.6506   3
  -6   0 -14 1093.95 81.2295   4
   0  -6  14 1117.32 71.4772   5
  -6   0  14 1137.42 100.029   1
  -6   0 -16 2591.90 134.189   4
   0   6  16 2597.13 129.711   3
   0   6  18 1739.13 95.4454   3
  -6   0 -20 2.51058 24.5668   4
   0   6  20 5.86509 19.4371   3
   0   6 -20 9.33092 21.3032   4
   0   6 -22 70.1086 18.5612   4
   6   0  22 75.7852 17.6786   3
  -6   0 -22 47.8585 19.4974   4
   1   6 -23 33.9442 11.9123   4
  -6  -1 -21 242.877 32.5087   4
   1   6 -21 263.585 30.3973   4
  -6  -1 -19 460.799 50.3495   4
  -1   6  19 555.890 45.9718   3
  -1   6  17 419.839 45.9512   3
  -6  -1 -15 2164.10 125.229   4
  -1   6  15 2395.71 120.846   3
  -1  -6 -15 2365.46 125.078   4
  -6   1  13 1190.99 101.873   1
  -1  -6 -13 1234.95 85.1217   4
  -1   6  13 1108.02 77.9025   3
  -6  -1 -13 1242.93 86.2737   4
  -1  -6 -11 924.845 68.8964   4
  -6  -1 -11 1267.77 84.1611   4
   1  -6  11 1068.94 69.4829   5
  -1   6  11 1018.99 74.0235   3
  -6   1  11 1119.44 95.3738   1
  -6   1  11 1002.52 68.1046   5
  -6   1   9 9641.45 393.499   1
   1  -6   9 9281.27 359.958   1
   1  -6   7 8299.53 314.967   1
   1  -6   5 27398.8 969.839   1
  -6   1   5 28693.6 1011.91   1
   1  -6   3 67848.1 2293.83   1
  -6  -1  -3 65082.2 2294.02   1
  -6   1   3 68976.8 2335.42   1
  -6  -1  -1 22691.3 780.314   1
  -6   1   1 20647.7 776.941   1
  -1  -6   1 18356.9 691.806   1
  -6   1  -1 19677.7 688.056   1
  -1  -6   3 66739.9 2277.57   1
  -6  -1   3 65387.9 2301.04   1
  -6  -1   5 28079.5 996.664   1
  -1  -6   5 27250.6 970.397   1
  -1  -6   7 9025.67 348.148   1
  -6  -1   9 9037.82 367.458   1
  -1  -6   9 8448.76 344.213   1
  -1  -6  11 1030.85 81.8315   1
  -6   1 -11 1090.87 77.3515   4
  -1  -6  11 1099.98 72.7811   5
  -6  -1  11 1269.67 74.3229   5
   1   6  11 961.326 71.4184   3
  -6  -1  11 1096.35 94.7490   1
  -6  -1  13 961.595 67.5349   5
   1   6  13 976.984 71.1048   3
  -1  -6  13 984.438 67.8110   5
  -6   1 -13 918.619 73.5736   4
  -6  -1  13 1113.40 95.5448   1
  -6  -1  15 2312.51 151.828   1
  -6   1 -15 2284.29 125.086   4
  -6  -1  15 2524.08 121.274   5
   1   6  15 2252.39 120.506   3
  -1  -6  15 2327.67 116.630   5
  -6   1 -17 385.653 49.7829   4
   1   6  17 400.283 47.0534   3
   1   6  19 602.703 49.7016   3
  -1   6 -19 523.212 51.0480   4
   6   1  21 247.775 30.4112   3
  -1   6 -21 208.997 30.4653   4
   1   6  21 224.862 28.8156   3
  -6   1 -23 56.7825 15.8969   4
  -1   6 -23 19.9107 13.0031   4
   6   1  23 65.0397 13.0729   3
   6  -2  22 31.1782 13.9519   3
   2   6 -22 86.2825 17.3281   4
   2   6 -20 2.10783 18.2760   4
  -6  -2 -20 22.8180 24.4068   4
  -6  -2 -18 389.601 47.4271   4
  -2   6  18 275.795 36.6209   3
  -2   6  16 865.495 66.2641   3
  -2  -6 -16 955.918 72.7945   4
  -2   6  14 109.623 34.5191   3
  -6  -2 -14 99.3735 39.7325   4
  -2  -6 -14 162.744 42.8218   4
  -2   6  12 80.5699 35.4072   3
  -6   2  12 62.5426 41.6969   1
  -6  -2 -12 97.3063 38.4559   4
  -2  -6 -12 90.1082 36.4234   4
  -6   2  10 1419.59 106.858   1
  -6  -2 -10 1206.07 81.4665   4
  -2  -6 -10 1189.29 76.0810   4
  -2   6  10 1314.40 86.8619   3
   2  -6   8 7583.34 290.412   1
   2  -6   6 5843.91 227.258   1
  -6   2   6 6080.77 272.650   1
  -6   2   4 16014.1 595.574   1
  -6  -2  -4 15079.5 557.256   1
   2  -6   4 15832.2 553.587   1
  -6  -2  -2 31558.7 1102.73   1
  -6   2   2 31380.1 1115.04   1
  -6  -2   0 21242.4 766.796   1
  -6   2   0 21444.7 755.781   1
  -2  -6   2 32322.0 1117.04   1
  -6  -2   2 31306.9 1131.94   1
  -2  -6   4 15571.5 566.906   1
  -6  -2   4 15569.6 585.403   1
  -2  -6   6 5931.80 244.207   1
  -6  -2   8 7996.50 344.008   1
  -2  -6   8 8167.85 326.096   1
  -2  -6  10 1396.02 97.9750   1
  -6  -2  10 1541.80 111.932   1
  -2  -6  10 1456.53 85.8818   5
  -6  -2  10 1439.22 84.0865   5
  -6  -2  12 34.5319 39.7484   1
  -6   2 -12 177.307 38.5680   4
  -2  -6  12 146.505 32.7665   5
   2   6  12 74.8593 34.2730   3
  -2  -6  12 108.184 36.1880   1
  -6  -2  12 62.3736 29.3134   5
  -6   2 -14 122.378 35.0411   4
   2   6  14 74.8614 34.8563   3
  -2  -6  14 92.1074 30.5594   5
  -6  -2  14 119.815 47.2065   1
  -6  -2  14 103.223 31.4499   5
  -2  -6  16 997.097 66.7555   5
   2   6  16 815.616 67.7545   3
  -6   2 -16 976.321 73.1531   4
  -6  -2  16 913.482 67.5301   5
  -6  -2  16 935.968 89.3037   1
   2   6  18 367.920 43.5122   3
  -6   2 -18 341.395 43.7446   4
   2   6  20 2.09125 21.5428   3
  -2   6 -20 38.9912 25.5841   4
  -2   6 -22 92.9911 20.9294   4
   6   2  22 80.1571 18.5497   3
   2   6  22 78.1146 17.2203   3
   3   6 -21 214.151 25.4246   4
  -6  -3 -19 160.755 33.1449   4
  -3   6  17 566.553 48.6759   3
  -6  -3 -17 570.447 57.9762   4
  -3   6  15 281.510 42.4477   3
  -3  -6 -15 321.808 49.4472   4
  -3  -6 -13 98.2362 39.8630   4
  -3   6  13 137.854 36.5940   3
  -6   3  11 560.016 72.2941   1
  -3   6  11 601.353 59.5073   3
  -6  -3 -11 394.648 52.9078   4
  -3  -6 -11 595.690 56.3300   4
  -6   3   9 209.952 50.9526   1
  -6   3   7 8706.77 374.970   1
   3  -6   5 2643.77 110.312   1
  -6   3   5 2506.29 146.539   1
  -6  -3  -5 2495.29 120.424   1
  -6  -3  -3 23771.2 845.043   1
  -6   3   3 23905.1 860.791   1
  -3  -6  -1 153.416 30.4322   1
  -6  -3  -1 165.422 30.3569   1
  -6  -3   1 224.640 36.5469   1
  -3  -6   1 236.033 33.6421   1
  -6  -3   3 21392.8 778.341   1
  -3  -6   3 21412.1 768.058   1
  -6  -3   5 2252.45 130.258   1
  -3  -6   5 2349.72 120.365   1
  -3  -6   7 7317.58 300.534   1
  -3  -6   9 143.996 36.2234   1
  -6  -3   9 262.979 52.3788   1
  -6  -3  11 711.649 58.8956   5
  -3  -6  11 697.439 59.7227   5
  -3  -6  11 680.841 72.2348   1
  -6  -3  11 686.231 77.0952   1
  -6  -3  13 30.2122 39.7969   1
  -6   3 -13 55.8463 34.0667   4
  -3  -6  13 21.1554 33.1569   1
  -6  -3  13 161.211 35.3658   5
  -3  -6  13 64.5304 31.7172   5
  -3  -6  15 265.736 40.4467   5
   3   6  15 227.860 42.9792   3
  -6   3 -15 238.497 40.4093   4
  -6  -3  15 210.359 50.2693   1
  -6  -3  15 301.525 42.2783   5
   3   6  17 517.541 51.4993   3
  -6  -3  17 500.521 48.7983   5
  -3  -6  17 461.473 45.1196   5
  -6   3 -17 540.606 54.4894   4
   3   6  19 168.645 33.7360   3
  -3   6 -19 179.791 34.2523   4
  -6   3 -19 147.802 32.1684   4
   6   3  21 268.443 31.0774   3
  -3   6 -21 267.763 31.5744   4
   3   6  21 260.480 30.0813   3
   6   3  23 1.87476 10.1112   3
   3   6  23 4.22914 9.36284   3
  -3   6 -23 4.82932 12.4934   4
   4   6 -20 110.146 21.8293   4
  -6  -4 -18 162.151 38.2930   4
  -6  -4 -16 865.983 72.8412   4
  -4   6  14 1998.82 112.171   3
  -4  -6 -14 1815.67 115.273   4
  -4   6  12 464.213 55.6434   3
  -4  -6 -12 599.286 61.0127   4
  -4   6  10 3295.78 159.632   3
  -6  -4 -10 2881.39 144.148   4
  -4  -6 -10 2997.11 143.290   4
  -6  -4  -6 517.657 55.0869   1
  -6  -4  -4 8897.13 347.265   1
  -4  -6  -4 8195.35 349.291   1
   4  -6   4 9098.46 322.954   1
  -4  -6  -2 36315.6 1280.08   1
  -6  -4  -2 36470.1 1279.26   1
  -6  -4   0 31821.6 1135.23   1
  -4  -6   0 32449.6 1133.39   1
  -4  -6   2 37299.8 1302.69   1
  -6  -4   2 36867.1 1308.50   1
  -4  -6   4 6831.02 285.914   1
  -6  -4   4 7316.31 295.930   1
  -4  -6   6 579.268 58.6838   1
  -4  -6   8 14871.2 578.509   1
  -6  -4   8 15467.2 592.301   1
  -4  -6  10 3436.96 153.816   5
  -6  -4  10 3347.28 184.520   1
  -4  -6  10 3050.83 173.391   1
  -6  -4  10 3165.71 150.956   5
  -4  -6  12 600.417 70.4552   1
  -6  -4  12 528.679 73.9596   1
  -4  -6  12 663.013 58.6748   5
  -6  -4  12 583.340 55.6314   5
  -6  -4  14 1820.03 132.602   1
  -6  -4  14 1982.87 106.270   5
  -4  -6  14 1983.88 106.115   5
  -4  -6  14 1715.80 125.558   1
  -6   4 -14 1663.13 104.130   4
  -4  -6  16 1024.04 70.4775   5
  -6   4 -16 957.545 72.1022   4
  -6  -4  16 958.042 69.1875   5
   4   6  16 1031.42 72.2235   3
  -6  -4  16 992.358 91.5187   1
  -4  -6  18 151.346 28.3909   5
  -6  -4  18 175.295 32.3251   5
  -4   6 -18 166.887 36.0946   4
   4   6  18 175.324 34.7541   3
  -6   4 -18 172.166 35.5108   4
  -6   4 -20 100.002 27.6482   4
   6   4  20 95.3144 28.3290   3
   4   6  20 119.519 27.0635   3
  -4   6 -22 329.610 32.7155   4
   4   6  22 393.364 30.8006   3
  -6   4 -22 327.738 31.7282   4
   6   4  22 384.171 31.1669   3
  -6  -5 -15 114.957 40.8074   4
  -5   6  13 1807.26 113.602   3
  -5  -6 -13 2193.63 126.267   4
  -5   6  11 2032.27 126.834   3
  -5  -6 -11 2215.80 119.702   4
   5   6  -9 2468.45 115.011   2
  -6  -5  -9 2575.54 126.756   4
  -5   6   9 2797.87 142.304   3
  -5  -6  -7 14697.5 589.689   1
  -6  -5  -5 12729.0 488.302   1
  -5  -6  -5 11940.8 486.380   1
  -5  -6  -3 42685.4 1514.54   1
  -6  -5  -3 43192.4 1513.38   1
  -5  -6  -1 14973.5 560.102   1
  -6  -5  -1 14976.4 559.236   1
  -5  -6   1 14413.2 532.685   1
  -6  -5   1 13988.5 534.313   1
  -6  -5   3 42606.6 1521.74   1
  -5  -6   3 43741.7 1519.07   1
  -6  -5   7 18907.0 730.381   1
  -5  -6   7 19850.4 727.551   1
  -5  -6   9 2867.78 164.243   1
  -6  -5   9 2880.73 168.892   1
  -6  -5  11 2137.62 141.365   1
  -5  -6  11 1883.40 133.953   1
  -5  -6  11 2019.23 112.377   5
  -6  -5  11 2126.78 113.196   5
  -6  -5  13 1761.05 133.772   1
  -5  -6  13 2073.09 110.801   5
  -6  -5  13 1953.29 109.070   5
  -5  -6  13 1869.74 135.596   1
  -6  -5  15 176.722 47.2040   1
  -6  -5  15 191.826 38.6042   5
  -5  -6  15 259.248 41.7630   5
  -6   5 -15 197.084 39.3522   4
  -5  -6  17 1127.92 72.0089   5
  -6  -5  17 1046.82 71.5049   5
  -5   6 -17 1146.84 75.1836   4
  -6   5 -17 940.697 71.3565   4
   5   6  17 1032.18 73.6342   3
  -5  -6  19 253.010 32.5856   5
  -6  -5  19 349.132 36.4702   5
   5   6  19 343.474 38.6361   3
  -6   5 -19 250.243 35.5560   4
   6   5  19 339.774 39.5565   3
  -5   6 -19 288.892 37.2298   4
  -5   6 -21 655.116 47.8462   4
  -6   5 -21 557.624 44.4475   4
   5   6  21 607.870 44.2019   3
   6   5  21 695.281 46.6199   3
  -6   5 -23 10.9062 12.7663   4
   6   5  23 9.28376 10.2816   3
  -6   6  10 1302.83 100.704   3
  -6  -6  -6 3534.41 201.023   1
  -6  -6  -4 12015.4 483.355   1
  -6  -6  -2 35797.7 1277.92   1
  -6  -6   0 46392.8 1632.46   1
  -6  -6   2 35341.9 1258.29   1
  -6  -6   4 12506.7 487.522   1
  -6  -6   8 18699.8 691.276   5
  -6  -6   8 19474.4 727.552   1
  -6  -6  10 1883.61 134.532   1
  -6  -6  12 92.0420 35.2125   5
  -6  -6  12 32.4955 40.7124   1
  -6  -6  14-12.7123 35.3242   1
  -6  -6  14 9.67904 30.0032   5
  -6  -6  16 2322.72 119.982   5
  -6   6 -16 2227.65 121.653   4
   6   6  18 26.0666 26.4529   3
  -6  -6  18 4.76282 21.7520   5
  -6   6 -18 16.5541 26.5622   4
   6   6  20 57.3718 25.1765   3
  -6   6 -20 76.9747 23.5790   4
   6   6  22 459.503 32.5252   3
  -6   6 -22 447.751 33.6727   4
  -7   0   1 8628.19 358.641   1
  -7   0  -1 8833.83 338.205   1
   0  -7   3 44600.7 1554.38   1
  -7   0   3 45277.6 1590.39   1
   0  -7   5 20421.5 733.904   1
  -7   0   5 20792.3 768.599   1
  -7   0   7 2293.56 136.681   1
   0  -7   7 1996.94 106.962   1
   0  -7   9 5995.20 249.369   1
   0   7   9 5824.19 243.053   3
  -7   0   9 5913.65 241.502   5
  -7   0  11 313.977 42.9362   5
   0   7  11 284.012 45.4366   3
  -7   0  11 304.953 58.1035   1
   0  -7  11 303.619 41.7079   5
  -7   0 -11 297.860 49.3052   4
  -7   0  13 804.583 85.3449   1
   0  -7  13 845.322 61.9239   5
  -7   0  13 702.413 59.4282   5
  -7   0 -13 752.540 68.9350   4
   0   7  13 612.578 61.5009   3
   0  -7  15 1597.61 90.0293   5
  -7   0 -15 1590.14 101.990   4
   0   7  15 1542.76 94.5042   3
  -7   0  15 1639.81 125.146   1
   0   7  17 24.7562 27.3734   3
  -7   0 -17 48.8205 28.6258   4
   0   7  19 598.917 48.8233   3
  -7   0 -19 490.916 50.3337   4
   0   7 -21 225.780 29.4040   4
   0   7  21 254.539 27.6781   3
   0   7 -23 12.8890 11.5223   4
   1   7 -22 82.8770 17.3487   4
   7  -1  22 53.2082 16.7803   3
   1   7 -20 58.3368 23.1452   4
  -1   7  20 34.0489 19.5561   3
  -7  -1 -18 327.985 45.4667   4
  -1   7  18 304.751 38.3254   3
  -7  -1 -16 1565.33 100.386   4
  -1   7  16 1698.29 96.1228   3
  -7  -1 -14 462.234 57.9224   4
  -1   7  14 456.612 51.9084   3
  -7   1  14 410.092 66.4001   1
   1  -7  12 681.313 58.2351   5
  -1   7  12 636.658 62.3816   3
  -7  -1 -12 711.796 67.9836   4
  -1   7  10 2187.69 120.282   3
  -7   1  10 2299.91 143.466   1
  -7  -1 -10 2069.28 118.108   4
   1  -7  10 2186.95 110.531   5
  -7   1  10 2282.52 114.822   5
   1  -7   8 10891.3 410.927   1
   1  -7   6 14665.4 536.838   1
  -7   1   6 15065.7 577.992   1
  -7   1   4 21716.8 781.652   1
   1  -7   4 20332.0 735.880   1
  -7  -1  -2 29516.3 1032.62   1
  -7   1   2 28571.6 1047.53   1
  -7   1   0 43923.5 1585.45   1
  -7  -1   0 48315.2 1610.94   1
  -1  -7   2 28518.5 1003.14   1
  -7  -1   2 28415.6 1028.96   1
  -7   1  -2 28460.1 986.967   1
  -1  -7   4 21185.7 761.407   1
  -7  -1   4 21447.0 789.737   1
  -1  -7   6 14784.7 545.595   1
  -7  -1   6 14814.4 573.467   1
  -1  -7   8 10078.1 391.699   1
   1   7  10 2375.65 128.896   3
  -1  -7  10 2646.80 128.143   5
  -1  -7  10 2606.40 137.349   1
  -7   1 -10 2645.97 136.257   4
  -7  -1  10 2398.05 122.538   5
  -7  -1  10 2158.10 148.396   1
  -7  -1  12 577.889 53.8365   5
  -7   1 -12 581.426 61.2959   4
  -1  -7  12 616.011 56.5280   5
   1   7  12 514.753 56.6432   3
  -7  -1  12 650.536 78.5929   1
  -7  -1  14 386.295 47.3808   5
   1   7  14 463.241 53.2583   3
  -7   1 -14 473.596 58.4748   4
  -7  -1  14 441.746 68.2496   1
  -1  -7  14 489.166 50.5298   5
  -7  -1  16 1589.25 121.903   1
   1   7  16 1570.82 94.1102   3
  -7   1 -16 1547.57 97.6884   4
  -1  -7  16 1515.19 87.5586   5
  -7   1 -18 210.672 39.7784   4
   1   7  18 376.703 42.0761   3
  -7   1 -20 35.3638 22.7296   4
  -1   7 -20 65.1562 25.1313   4
   1   7  20 21.8362 20.2826   3
  -1   7 -22 48.6847 18.3409   4
   7   1  22 62.5112 17.4526   3
   1   7  22 36.2754 13.7980   3
   2   7 -21 146.547 22.4772   4
  -2   7  19 111.236 24.6568   3
  -7  -2 -17 967.823 75.2562   4
  -2   7  17 1083.60 70.6347   3
  -7  -2 -15 124.363 40.8207   4
  -2   7  15 101.746 34.0197   3
  -7   2  13 1066.86 100.216   1
  -7  -2 -13 972.174 81.2360   4
  -2   7  13 812.303 69.5211   3
   2  -7  11 342.418 42.0294   5
  -7  -2 -11 322.706 52.1874   4
  -7   2  11 428.863 67.7554   1
  -2   7  11 315.080 50.7772   3
  -2   7   9 671.415 57.8336   3
  -7  -2  -9 577.135 52.4650   4
   2   7  -9 576.569 46.7031   2
  -7   2   7 15736.7 608.040   1
   2  -7   7 15456.9 561.630   1
   2  -7   5 20062.5 731.873   1
  -7   2   5 22668.0 791.526   1
   2  -7   3 36989.1 1277.41   1
  -7   2   3 34483.5 1304.86   1
  -7  -2  -3 38140.7 1294.43   1
  -7   2   1 37125.8 1320.65   1
  -7  -2  -1 38294.8 1329.98   1
  -7   2  -1 37092.2 1292.06   1
  -7  -2   1 37885.4 1326.07   1
  -7  -2   3 33605.9 1190.14   1
  -2  -7   3 32842.5 1165.36   1
  -7  -2   5 20878.9 789.430   1
  -2  -7   5 21468.0 766.601   1
  -7  -2   7 13155.7 555.998   1
  -2  -7   7 15280.8 542.811   1
  -2  -7   9 713.790 60.4248   5
  -7  -2   9 536.492 72.4310   1
  -2  -7   9 709.179 65.0434   1
   2   7   9 689.594 59.0092   3
  -7  -2  11 300.692 42.0766   5
  -7  -2  11 180.370 51.9166   1
  -2  -7  11 365.468 53.8471   1
  -2  -7  11 272.053 42.5649   5
  -7   2 -11 281.840 45.9152   4
  -7   2 -13 1039.14 78.7411   4
  -7  -2  13 975.353 70.9183   5
   2   7  13 972.683 74.7439   3
  -7  -2  13 1099.91 100.055   1
  -2  -7  13 1128.10 75.7705   5
  -2  -7  15 197.368 37.4143   5
  -7   2 -15 162.657 38.7450   4
  -7  -2  15 176.647 38.1326   5
  -7  -2  15 170.487 48.7335   1
   2   7  15 164.866 39.7524   3
   2   7  17 1197.56 77.7335   3
  -2  -7  17 1101.16 70.0832   5
  -7   2 -17 1073.34 76.2956   4
   2   7  19 257.158 36.1496   3
  -7   2 -19 284.663 38.2595   4
  -2   7 -19 347.676 41.6344   4
  -2   7 -21 195.051 27.9087   4
   7   2  21 176.327 27.1888   3
   2   7  21 188.761 25.9954   3
  -7   2 -21 166.188 27.4610   4
   7   2  23 29.1022 11.8354   3
  -2   7 -23 46.5662 13.1071   4
   3   7 -20 5.60432 17.4765   4
  -3   7  18 174.819 29.3573   3
  -3   7  16 415.216 45.5929   3
  -3   7  14 54.8280 35.4284   3
  -7  -3 -14 197.657 46.8049   4
  -3   7  12 882.001 74.9717   3
  -7  -3 -12 939.203 80.2041   4
  -7  -3 -10 522.947 54.5415   4
  -3   7  10 603.132 62.3657   3
   3   7 -10 476.956 46.2198   2
   3  -7  10 689.293 50.8857   5
  -7   3   8 5058.66 252.802   1
  -7   3   6 426.781 70.2346   1
   3  -7   6 202.163 26.8909   1
   3  -7   4 11999.9 424.532   1
  -7   3   4 11202.8 460.018   1
  -7  -3  -4 11340.0 438.108   1
  -3  -7  -2 12346.9 465.639   1
  -7   3   2 12555.6 468.674   1
  -7  -3  -2 12088.9 465.279   1
  -3  -7   0 7102.67 280.233   1
  -7  -3   0 6815.78 286.551   1
  -7  -3   2 11700.4 456.130   1
  -7  -3   4 12337.3 485.880   1
  -3  -7   4 12446.9 469.391   1
  -3  -7   6 303.265 44.6241   1
  -7  -3   6 216.793 50.4058   1
  -7  -3   8 4708.90 206.260   5
  -3  -7   8 4797.40 208.997   5
  -3  -7   8 5194.05 225.035   1
  -7  -3  10 472.580 50.7752   5
  -7  -3  10 550.633 72.8366   1
   3   7  10 438.790 52.7308   3
  -3  -7  10 443.501 50.2942   5
  -3  -7  10 500.284 61.2873   1
  -3  -7  12 1390.05 89.2585   5
  -7   3 -12 1434.04 93.7570   4
  -7  -3  12 1233.39 112.001   1
  -7  -3  12 1458.45 88.7140   5
  -3  -7  12 1455.43 106.437   1
  -3  -7  14 122.584 38.3741   5
   3   7  14 129.368 38.5664   3
  -7   3 -14 167.843 39.6029   4
  -7  -3  14 128.221 47.1445   1
  -7  -3  14 145.433 36.4206   5
  -7  -3  16 360.120 45.5572   5
  -7  -3  16 299.498 54.7961   1
  -7   3 -16 348.185 45.2818   4
  -3  -7  16 401.401 44.7699   5
   3   7  16 420.232 47.6587   3
   3   7  18 174.465 36.7100   3
  -7   3 -18 167.776 35.5263   4
  -3  -7  18 198.908 30.3043   5
   3   7  20 8.09578 21.3419   3
   7   3  20-26.5651 23.3664   3
  -7   3 -20 13.5126 20.4388   4
   3   7  22 106.871 18.5930   3
  -3   7 -22 118.426 21.2061   4
   7   3  22 63.6801 17.7810   3
  -7   3 -22 96.0321 19.7606   4
  -4   7  17 428.048 42.0004   3
  -4   7  15 101.533 34.9329   3
  -7  -4 -13 419.212 62.1135   4
  -4   7  13 463.634 55.8279   3
  -4   7  11 668.148 71.4582   3
  -7  -4 -11 670.550 65.8916   4
  -7  -4  -9 1254.15 81.3088   4
   4   7  -9 1325.35 73.5676   2
  -4   7   9 1368.33 90.2289   3
  -4  -7  -5 6098.01 267.456   1
   4  -7   5 5971.93 226.684   1
  -7  -4  -5 5549.56 249.800   1
  -7  -4  -3 29004.0 1057.27   1
  -4  -7  -3 30251.4 1062.40   1
  -7  -4  -1 975.129 72.4422   1
  -4  -7  -1 869.502 68.3731   1
  -7  -4   1 573.103 59.3008   1
  -4  -7   1 661.343 56.7489   1
  -7  -4   3 28868.1 1043.41   1
  -4  -7   5 6729.81 285.888   1
  -7  -4   5 6825.35 297.922   1
  -4  -7   7 5257.85 239.998   1
  -4  -7   9 1242.24 98.0984   1
  -7  -4   9 1349.69 85.8592   5
  -7  -4   9 1372.57 110.127   1
  -4  -7   9 1391.70 87.1513   5
  -4  -7  11 722.810 78.4627   1
  -4  -7  11 773.767 66.3064   5
  -7  -4  11 815.032 90.7807   1
  -7  -4  11 896.962 68.1414   5
  -7  -4  13 408.691 50.8570   5
  -7  -4  13 296.463 62.4329   1
  -7   4 -13 362.184 49.1618   4
  -4  -7  13 378.793 62.4109   1
  -4  -7  13 321.368 47.2061   5
  -7  -4  15 37.8969 35.7628   1
  -4  -7  15 79.6635 31.4898   5
  -7   4 -15 86.3890 33.7988   4
  -7  -4  15 73.2119 31.8071   5
   4   7  15 73.4606 35.4919   3
  -7  -4  17 603.968 51.2368   5
  -4  -7  17 435.149 47.2623   5
  -7   4 -17 562.243 53.0347   4
   4   7  17 528.673 52.0210   3
  -4  -7  19 93.6304 22.5540   5
   7   4  19 86.3323 28.6611   3
   4   7  19 100.810 28.1000   3
  -7   4 -19 67.5477 26.3011   4
  -4   7 -19 86.9135 27.5422   4
   4   7  21 306.910 30.5543   3
   7   4  21 289.013 31.6014   3
  -7   4 -21 260.404 30.9402   4
  -4   7 -23 12.3064 11.2113   4
  -7   4 -23 5.23379 11.6869   4
  -5   7  14 113.596 36.8337   3
  -7  -5 -12 825.296 76.1888   4
  -5   7  12 847.252 77.1293   3
  -5   7  10 129.598 46.8949   3
   5   7 -10 117.447 28.3481   2
  -7  -5 -10 159.686 39.6149   4
  -5   7   8 7751.86 306.041   3
   5   7  -8 7638.80 282.315   2
  -5  -7  -6 111.500 41.8621   1
  -7  -5  -4 968.043 81.6685   1
   5  -7   4 827.703 51.9730   1
  -5  -7  -4 887.065 79.3964   1
  -5  -7  -2 20808.8 768.658   1
  -7  -5  -2 20896.0 770.453   1
  -5  -7   0 14523.3 539.136   1
  -7  -5   0 13872.5 541.251   1
  -5  -7   2 21651.5 798.340   1
  -7  -5   2 21947.4 803.904   1
  -7  -5   4 745.731 71.8829   1
  -7  -5   6 195.039 49.9866   1
  -5  -7   6 174.596 42.4134   1
  -7  -5   8 7927.53 311.921   5
  -7  -5   8 7836.03 348.856   1
  -5  -7   8 7268.57 308.609   5
  -5  -7   8 8166.42 339.753   1
  -5  -7  10 128.493 38.1206   5
  -5  -7  10 122.397 44.1164   1
  -7  -5  10 193.158 53.6866   1
  -5  -7  12 764.374 85.8915   1
  -7  -5  12 655.179 85.5467   1
  -7  -5  12 751.427 64.5375   5
  -5  -7  12 800.852 66.5911   5
  -7  -5  14 39.4745 40.7081   1
  -7   5 -14 92.6723 34.2446   4
  -7  -5  14 105.957 33.8235   5
  -5  -7  14 115.993 42.1112   1
  -5  -7  14 68.5340 35.0067   5
  -5  -7  16 1188.48 77.7602   5
  -7   5 -16 1083.67 77.6969   4
  -7  -5  16 1226.27 79.6065   5
  -7  -5  18 43.5773 23.6980   5
  -5  -7  18 23.1126 22.3806   5
  -7   5 -18 8.11785 22.4832   4
   5   7  18 2.59193 29.1744   3
   7   5  18 23.0578 28.6022   3
  -5   7 -18 11.2907 24.3110   4
   7   5  20 11.9120 22.9685   3
  -5  -7  20 10.6608 15.6838   5
  -5   7 -20 4.28972 19.4660   4
   5   7  20-5.81087 21.3497   3
  -7   5 -20 2.08676 20.0875   4
   7   5  22 231.072 24.5725   3
   5   7  22 313.108 25.9022   3
  -5   7 -22 280.136 26.2795   4
  -7   5 -22 285.683 26.9395   4
  -6   7  13 429.638 57.2251   3
  -6   7  11 1258.98 100.495   3
  -6   7   9 3090.43 163.667   3
   6   7  -9 3050.58 134.525   2
   6   7  -7 3978.56 156.631   2
  -6   7   7 4050.42 178.667   3
  -6  -7  -5 2148.44 149.001   1
  -7  -6  -5 2275.74 149.347   1
  -6  -7  -3 30781.8 1127.77   1
  -7  -6  -3 31085.7 1129.62   1
  -7  -6  -1 618.670 65.5745   1
  -6  -7  -1 558.971 63.8005   1
  -7  -6   1 972.645 84.1456   1
  -6  -7   1 1022.56 82.4794   1
  -6  -7   3 34915.6 1237.17   1
  -7  -6   3 34002.8 1239.13   1
  -7  -6   5 2547.68 150.787   1
  -6  -7   7 4297.22 217.246   1
  -6  -7   7 4283.24 195.746   5
  -7  -6   7 4482.91 197.559   5
  -6   7  -7 4179.33 177.697   3
  -7  -6   9 3247.61 159.501   5
  -6  -7   9 3105.35 184.220   1
  -7  -6   9 3421.16 194.398   1
  -6  -7   9 3379.85 162.148   5
  -6  -7  11 1288.92 111.330   1
  -7  -6  11 1430.23 119.949   1
  -6  -7  11 1381.97 92.3558   5
  -6  -7  13 473.486 70.8310   1
  -7  -6  13 340.347 50.3581   5
  -6  -7  13 514.882 57.3220   5
  -7  -6  13 423.652 69.8015   1
  -7  -6  15 522.263 52.1373   5
  -7  -6  15 520.126 70.7398   1
  -6  -7  15 484.458 52.2356   5
  -7   6 -15 610.329 57.4683   4
   6   7  15 496.656 53.6240   3
  -6  -7  15 586.059 70.7423   1
  -6  -7  17 578.003 50.7990   5
  -7   6 -17 509.673 49.5925   4
  -7  -6  17 559.673 51.0222   5
  -6   7 -17 546.056 51.3844   4
  -6  -7  19 206.270 29.7973   5
  -7   6 -19 196.565 30.6557   4
  -7  -6  19 185.367 28.3391   5
  -6   7 -19 195.598 32.3826   4
   6   7  19 256.879 34.3264   3
   7   6  19 127.789 30.3649   3
   7   6  21 419.335 33.5551   3
   6   7  21 326.491 31.4456   3
  -7   6 -21 346.183 32.2464   4
  -6   7 -21 358.694 32.2747   4
   7   7 -10 5261.77 203.513   2
  -7   7  10 4161.71 234.779   3
   7   7  -8 12791.1 449.307   2
  -7   7   8 11450.8 481.019   3
  -7  -7  -6 125.150 51.5510   1
   7   7  -6 142.671 21.7363   2
  -7   7   6 170.997 35.9089   3
  -7  -7  -4 4883.05 256.921   1
  -7  -7  -2 37795.2 1369.56   1
  -7  -7   0 9211.05 386.633   1
  -7  -7   2 37147.0 1335.63   1
  -7  -7   4 6612.26 299.059   1
  -7  -7   6 186.414 44.9912   5
  -7   7  -6 159.424 29.4900   3
  -7  -7   8 13153.5 508.710   5
  -7  -7   8 13669.7 546.749   1
  -7  -7  10 5572.82 243.813   5
  -7  -7  10 5682.38 281.517   1
  -7  -7  12 498.063 77.2373   1
  -7  -7  14 3095.21 152.550   5
   7   7  14 3123.82 148.415   3
  -7  -7  14 2900.67 182.290   1
  -7   7 -16 1962.09 113.008   4
  -7  -7  16 2125.87 113.177   5
   7   7  16 2321.40 116.147   3
  -7   7 -18 263.892 35.6914   4
  -7  -7  18 298.012 36.2736   5
  -7   7 -20 194.426 27.4273   4
   7   7  20 201.634 28.4079   3
  -7   7 -22 288.098 23.6626   4
   7   7  22 290.124 23.1624   3
  -8   0   0 2727.42 142.559   1
  -8   0   2 261.261 54.5551   1
   0  -8   2 176.496 32.5502   1
  -8   0  -2 218.261 30.2805   1
  -8   0   4 5846.36 268.088   1
   0  -8   4 5697.83 236.121   1
   0  -8   6 1107.37 73.7718   1
  -8   0   6 1267.20 101.220   1
   0  -8   8 23.6667 25.2258   1
  -8   0   8 47.1881 31.1251   5
  -8   0   8 5.67018 36.3985   1
   0   8  -8 27.7732 23.0275   2
  -8   0  10 4350.62 189.660   5
   0   8  10 4139.98 192.462   3
   0  -8  10 4358.74 187.500   5
  -8   0 -10 4064.93 193.434   4
   0  -8  12 928.939 73.3136   5
  -8   0 -12 1115.76 86.3935   4
  -8   0  12 1006.00 98.1954   1
   0   8  12 960.173 77.3488   3
  -8   0  12 1071.83 76.1047   5
   0   8  14 1867.92 108.006   3
   0  -8  14 1681.25 99.9451   5
  -8   0 -14 1949.97 114.641   4
  -8   0  14 1849.06 137.231   1
   0   8  16-17.6543 28.3267   3
   0  -8  16 27.8326 23.9507   5
  -8   0 -16 27.8594 32.0000   4
   0   8  18-10.0352 25.4560   3
  -8   0 -18 26.3786 27.2567   4
   0   8 -20 119.798 26.7949   4
   0   8  20 65.6534 21.5724   3
  -8   0 -20 49.3934 25.4959   4
   0   8 -22 70.2887 17.5013   4
   8   0  22 65.9320 17.3825   3
  -1   8  21 19.0004 13.3652   3
   1   8 -21 8.07992 15.5624   4
  -8  -1 -19 103.206 29.5718   4
  -1   8  19 134.623 27.6334   3
  -1   8  17 949.445 66.2323   3
  -8  -1 -17 837.701 68.7675   4
  -1   8  15 1414.91 90.0740   3
  -8  -1 -15 1366.99 94.4779   4
  -1   8  13 992.858 77.1071   3
  -8   1  13 980.124 100.018   1
  -8  -1 -13 1213.03 90.6741   4
   1  -8  13 1116.49 75.5531   5
  -1   8  11 381.151 52.8088   3
   1  -8  11 354.534 45.2213   5
  -8   1  11 261.174 58.0041   1
  -8  -1 -11 383.943 55.0949   4
  -8   1   9 3071.35 183.787   1
  -1   8   9 3306.22 156.858   3
   1  -8   9 3486.37 152.271   5
  -8  -1  -9 3344.88 156.019   4
   1  -8   7 15816.9 581.932   1
  -8   1   7 16033.5 621.855   1
  -8   1   5 13678.4 558.832   1
   1  -8   5 14273.8 518.047   1
  -8   1   3 1508.72 111.839   1
   1  -8   3 1575.36 87.2632   1
  -8   1   1 16735.9 620.910   1
  -8  -1  -1 16522.0 622.517   1
  -1  -8   1 17179.3 620.984   1
  -8  -1   1 16693.1 649.372   1
  -8   1  -1 16920.9 611.224   1
  -8  -1   3 1261.89 100.623   1
  -1  -8   3 1351.26 81.8211   1
  -8  -1   5 13839.8 558.758   1
  -1  -8   5 14488.6 530.738   1
  -1  -8   7 15843.7 593.237   1
  -8  -1   7 16239.0 625.212   1
  -1  -8   9 3480.00 159.372   5
  -8   1  -9 3369.58 161.948   4
  -1  -8   9 3507.49 171.595   1
  -1  -8  11 355.168 50.3401   5
  -8  -1  11 416.229 48.8178   5
   1   8  11 431.913 55.4111   3
  -1  -8  11 414.489 54.6735   1
  -8  -1  11 352.803 62.2235   1
  -8   1 -11 510.760 59.8130   4
   1   8  13 944.383 75.7279   3
  -8  -1  13 1036.46 73.7880   5
  -1  -8  13 945.174 72.4067   5
  -8  -1  13 966.126 96.9599   1
  -8   1 -13 967.506 80.1489   4
  -1  -8  15 1328.62 84.5967   5
  -8   1 -15 1440.46 93.4923   4
   1   8  15 1546.45 92.7399   3
  -8  -1  15 1217.82 113.157   1
   1   8  17 827.611 63.4418   3
  -1  -8  17 853.687 59.4498   5
  -8   1 -17 825.154 64.8788   4
  -8   1 -19 71.3884 24.3339   4
   1   8  19 119.327 26.9235   3
  -8   1 -21-1.83393 17.8589   4
   1   8  21 13.2914 15.2203   3
   8   1  21 25.2331 19.3450   3
  -1   8 -21 42.3499 18.9583   4
  -1   8 -23 32.7627 11.6600   4
   2   8 -22 11.6812 10.3546   4
   8  -2  22 29.5964 12.6562   3
  -2   8  20 105.341 20.5326   3
   2   8 -20 117.106 24.0683   4
  -2   8  18 179.308 31.3280   3
  -8  -2 -18 185.386 35.9599   4
  -2   8  16 1303.49 83.1689   3
  -8  -2 -16 1422.61 93.2549   4
  -2   8  14 1242.08 89.1401   3
  -8  -2 -14 1560.18 102.210   4
   2  -8  12 3690.15 166.237   5
  -2   8  12 3385.01 171.545   3
  -8  -2 -12 3615.12 182.515   4
  -8   2  12 3841.20 208.864   1
  -2   8  10 5035.98 221.766   3
   2  -8  10 5126.73 209.582   5
  -8  -2 -10 4924.28 217.434   4
   2   8 -10 4854.64 207.574   2
  -2   8   8 7281.39 299.183   3
  -8   2   8 8330.08 348.110   1
  -8  -2  -8 7551.33 296.037   4
   2   8  -8 7660.45 290.229   2
   2  -8   6 4095.64 176.124   1
  -8   2   6 4340.75 221.905   1
  -8   2   4 31995.7 1163.02   1
   2  -8   4 31947.8 1120.86   1
  -8   2   2 11331.3 461.059   1
  -8  -2  -2 12610.7 469.476   1
  -8  -2   0 707.516 73.4278   1
  -8   2   0 751.336 55.8691   1
  -2  -8   2 12852.6 486.687   1
  -8  -2   2 13150.3 515.913   1
  -2  -8   4 32339.1 1132.17   1
  -8  -2   4 31249.7 1158.15   1
  -8  -2   6 4321.08 217.592   1
  -2  -8   6 4202.17 192.828   1
  -2  -8   8 7646.30 314.058   1
  -2  -8   8 7403.18 296.099   5
  -8  -2   8 7744.35 300.983   5
   2   8   8 7035.47 293.033   3
  -8  -2   8 7683.76 337.700   1
  -8  -2  10 4214.29 232.700   1
  -2  -8  10 4489.77 215.029   1
  -8   2 -10 4463.91 210.165   4
   2   8  10 4450.95 203.638   3
  -2  -8  10 4724.58 202.163   5
  -8  -2  12 3981.02 222.295   1
  -8  -2  12 4069.94 182.104   5
  -8   2 -12 4177.76 193.165   4
  -2  -8  12 3845.03 181.688   5
  -2  -8  14 1406.09 90.5057   5
  -8   2 -14 1363.13 95.1553   4
  -8  -2  14 1730.51 96.5067   5
   2   8  14 1387.81 91.6777   3
  -8  -2  14 1380.39 118.558   1
  -2  -8  16 1427.39 84.6132   5
  -8   2 -16 1357.06 89.0429   4
   2   8  16 1390.00 87.7671   3
  -8  -2  16 1361.38 111.696   1
  -2  -8  18 151.354 26.5974   5
   2   8  18 189.710 35.6060   3
  -8   2 -18 151.931 30.2963   4
  -2   8 -20 113.117 25.9598   4
   2   8  20 141.642 26.5195   3
  -8   2 -20 148.003 26.5970   4
   8   2  22 35.3324 15.3897   3
  -8   2 -22 38.0245 15.1046   4
  -2   8 -22 54.2603 16.6190   4
   2   8  22 25.6740 12.3410   3
   3   8 -21 43.9005 15.7537   4
  -3   8  19-5.34607 17.2494   3
  -8  -3 -17 853.488 69.1538   4
  -3   8  17 761.634 58.4773   3
  -3   8  15 619.566 56.9596   3
  -8  -3 -15 586.905 63.4852   4
  -3   8  13 1924.72 116.045   3
  -8  -3 -13 2119.23 129.147   4
  -3   8  11 936.128 79.0519   3
   3  -8  11 762.175 61.3491   5
  -8  -3 -11 832.544 73.8719   4
  -8  -3  -9 5449.14 226.493   4
  -3   8   9 5287.66 231.950   3
   3   8  -9 5065.53 215.266   2
  -8   3   7 15197.7 586.526   1
   3   8  -7 14271.8 516.894   2
  -3   8   7 14304.4 528.680   3
  -8   3   5 3752.97 199.273   1
   3  -8   5 3584.08 155.975   1
  -8   3   3 3798.88 189.048   1
  -3  -8  -3 3517.07 180.722   1
   3  -8   3 4033.44 167.793   1
  -8  -3  -3 4087.95 191.130   1
  -3  -8  -1 8735.92 351.736   1
  -8   3   1 9156.10 347.937   1
  -8  -3  -1 8648.04 362.803   1
  -8  -3   1 8735.46 364.381   1
  -3  -8   3 3024.52 152.734   1
  -8  -3   3 3208.12 172.136   1
  -3  -8   5 4144.97 194.823   1
  -8  -3   5 4302.22 215.936   1
  -8  -3   7 13947.1 554.546   1
  -3  -8   7 14032.7 531.857   1
  -8  -3   7 13543.6 517.504   5
   3   8   9 5297.66 231.889   3
  -8  -3   9 5339.11 232.466   5
  -3  -8   9 5735.90 237.076   5
  -8   3  -9 5967.62 247.554   4
  -3  -8   9 5220.97 250.436   1
  -3  -8  11 1193.46 82.7957   5
  -8   3 -11 1164.38 87.0842   4
  -3  -8  11 973.611 89.9687   1
  -8  -3  11 1315.04 110.260   1
   3   8  11 1124.37 84.5440   3
  -3  -8  13 1757.72 104.220   5
  -8  -3  13 1980.82 138.804   1
  -8  -3  13 1877.78 103.820   5
  -8  -3  15 622.788 56.7862   5
  -3  -8  15 616.509 58.3148   5
  -8   3 -15 568.540 56.7377   4
   3   8  15 605.155 59.0322   3
  -8  -3  15 549.951 74.9334   1
   3   8  17 829.911 62.2638   3
  -3  -8  17 754.944 57.8798   5
  -8   3 -17 680.508 58.5304   4
   3   8  19 13.5388 20.4805   3
  -8   3 -19 2.42772 23.3709   4
  -3  -8  19 10.6390 17.0712   5
  -8   3 -21 39.4995 18.4998   4
   3   8  21 45.3873 18.8582   3
   8   3  21 46.0786 21.0101   3
   4   8 -20-6.25952 15.5587   4
  -8  -4 -16 171.577 41.1669   4
  -4   8  16 104.668 29.3599   3
  -4   8  14 238.657 45.4879   3
  -8  -4 -14 260.242 50.5410   4
  -4   8  12 3092.15 162.937   3
  -8  -4 -12 3336.56 170.338   4
  -4   8  10 563.171 67.0067   3
   4   8 -10 509.223 47.7235   2
  -8  -4 -10 517.808 56.7466   4
  -8  -4  -8 1141.25 72.2342   4
   4   8  -8 1062.24 63.6473   2
  -4   8   8 1074.74 77.1856   3
  -4  -8  -6 1470.81 114.201   1
  -4  -8  -4 1384.12 102.406   1
   4  -8   4 1638.00 83.5468   1
  -4  -8  -2 5775.02 253.666   1
  -8  -4  -2 5740.30 257.379   1
  -8  -4   0 91.9084 36.5919   1
  -4  -8   0 116.563 33.0133   1
  -8  -4   2 6328.79 282.102   1
  -4  -8   4 1762.56 108.302   1
  -8  -4   4 1834.58 123.302   1
  -4  -8   6 1355.95 90.9900   5
  -8  -4   6 1636.58 120.231   1
  -4  -8   6 1630.11 106.314   1
  -8  -4   8 899.699 72.3026   5
  -4  -8   8 925.149 81.9019   1
   4   8   8 1024.72 70.7353   3
  -4  -8  10 549.570 69.6138   1
  -4  -8  10 651.587 62.2854   5
  -8  -4  10 591.284 59.8632   5
  -8   4 -10 573.359 64.0203   4
  -8  -4  10 692.192 85.5529   1
   4   8  10 544.735 62.1024   3
  -8  -4  12 3587.06 169.694   5
  -4  -8  12 3901.53 175.240   5
  -4  -8  12 3605.90 198.472   1
   4   8  12 3410.23 170.812   3
  -8  -4  12 3557.17 209.078   1
  -8   4 -12 3592.45 177.085   4
  -8  -4  14 302.061 46.4603   5
  -4  -8  14 299.181 45.9278   5
  -8   4 -14 332.472 48.7909   4
  -8  -4  14 375.217 65.1010   1
   4   8  16 161.399 36.3096   3
  -4  -8  16 121.597 31.9784   5
  -8  -4  16 154.447 36.0857   5
  -8   4 -16 121.420 31.6091   4
   4   8  18 186.711 35.2862   3
  -4   8 -18 191.550 36.5894   4
  -8   4 -18 104.098 29.1130   4
  -4  -8  18 148.123 27.6721   5
   4   8  20 14.8903 20.1645   3
  -8   4 -20 3.99540 18.5777   4
  -4   8 -20 2.10151 21.1089   4
   8   4  20-9.55903 22.9524   3
   4   8  22 22.3143 12.4378   3
  -8   4 -22-5.03528 13.7601   4
   8   4  22 7.91235 13.6705   3
  -5   8  15 33.5893 29.4151   3
  -5   8  13 1036.56 82.5604   3
  -5   8  11 1439.49 106.179   3
  -5   8   9 646.534 67.8873   3
   5   8  -9 607.597 50.0092   2
  -5  -8  -7 4701.62 269.509   1
   5   8  -7 5238.84 206.891   2
   5  -8   7 5374.36 209.463   6
  -5   8   7 5401.77 225.244   3
  -5  -8  -5-12.2294 33.9848   1
  -8  -5  -3 778.845 78.3726   1
  -5  -8  -3 1052.26 86.9310   1
  -8  -5  -1 3483.60 181.283   1
  -5  -8  -1 3384.12 173.935   1
  -5  -8   1 3538.55 173.250   1
  -8  -5   1 3333.71 182.098   1
  -8  -5   3 944.717 84.9818   1
  -8  -5   5 131.123 46.0230   1
  -8   5  -5 100.238 23.7019   3
  -5  -8   5 61.4766 33.0481   1
   5   8   7 4843.49 210.170   3
  -5  -8   7 5207.16 226.868   5
  -8  -5   7 5215.91 260.958   1
  -5   8  -7 5107.73 204.603   3
  -8  -5   7 5341.94 227.736   5
  -5  -8   7 5139.55 245.183   1
  -5  -8   9 682.262 78.8231   1
  -8  -5   9 704.307 85.1341   1
   5   8   9 826.532 67.8142   3
  -8  -5   9 733.540 66.7551   5
  -5  -8  11 1224.41 87.2037   5
  -8  -5  11 1031.76 109.888   1
  -8   5 -11 1150.01 88.6775   4
   5   8  11 1274.13 89.4405   3
  -5  -8  11 1357.26 110.183   1
   5   8  13 984.184 79.2714   3
  -8   5 -13 1089.20 83.1393   4
  -8  -5  13 977.855 102.916   1
  -5  -8  13 1105.52 80.9329   5
  -8  -5  13 1178.55 82.4642   5
  -5  -8  13 968.208 96.1487   1
  -5  -8  15 95.2420 31.2022   5
  -8  -5  15 97.3005 32.1396   5
  -8  -5  15 65.1167 39.7504   1
  -8   5 -15 80.9327 31.6812   4
  -5  -8  17 729.744 56.3626   5
  -8  -5  17 626.384 56.1346   5
  -8   5 -17 672.727 56.6106   4
  -5  -8  19 3.65244 18.8147   5
   5   8  19 21.4950 24.2935   3
   8   5  19 8.72642 21.6963   3
  -8   5 -19 24.7640 20.9436   4
  -5   8 -19 42.3928 24.3768   4
   5   8  21 36.7636 17.2682   3
  -5   8 -21 18.9229 18.1513   4
   8   5  21 55.2654 19.0595   3
  -8   5 -21 47.1833 16.6867   4
  -6   8  14 522.840 55.4827   3
  -6   8  12 2114.10 131.106   3
   6   8 -10 1510.77 85.2796   2
  -6   8  10 1522.18 113.847   3
   6   8  -8 2376.40 110.754   2
  -6   8   8 2459.27 135.288   3
   6   8  -6 1037.28 60.1085   2
   6  -8   6 1035.82 63.3106   6
  -6  -8  -6 1304.75 121.618   1
  -8   6   6 1223.40 80.3363   3
  -6   8   6 1220.94 77.9357   3
  -6  -8  -4 944.916 93.4468   1
   6   8  -4 904.628 51.0671   2
  -6   8   4 871.673 59.8683   3
  -8  -6  -4 1026.05 96.5894   1
  -8  -6  -2 12044.4 499.210   1
  -6  -8  -2 12479.2 496.491   1
  -8  -6   0 250.787 49.3755   1
  -6  -8   0 180.381 43.4310   1
  -6  -8   2 12251.5 481.429   1
  -8  -6   2 11928.0 488.391   1
  -8   6  -4 1179.14 67.4719   3
  -6  -8   4 1112.68 91.5751   1
  -6   8  -4 1106.02 65.0329   3
  -8  -6   4 1096.97 96.2451   1
  -6  -8   6 1134.82 87.1630   5
  -8  -6   6 1057.57 84.0325   5
   6   8   6 1108.41 68.5349   3
  -6   8  -6 1004.17 63.7399   3
  -8  -6   6 1109.46 100.701   1
  -6  -8   6 1024.03 93.3600   1
  -6  -8   8 2546.98 136.611   5
   6   8   8 2328.23 125.049   3
  -8  -6   8 2585.75 137.003   5
  -6  -8   8 2491.63 156.813   1
  -8  -6  10 1277.38 91.8801   5
  -8  -6  10 1344.65 120.081   1
  -6  -8  10 1420.94 118.341   1
  -6  -8  12 2208.72 122.414   5
  -8  -6  12 2086.64 153.623   1
   6   8  12 2081.70 120.068   3
  -6  -8  12 2011.51 147.768   1
  -8   6 -12 2134.80 125.127   4
  -8  -6  14 510.556 55.6706   5
  -6  -8  14 568.138 56.9810   5
   6   8  14 605.344 59.2406   3
  -8  -6  14 628.780 77.6441   1
  -8   6 -14 440.076 53.2059   4
  -6  -8  14 509.956 71.6348   1
  -8  -6  16 539.722 51.1986   5
  -6  -8  16 517.395 52.0455   5
   8   6  16 533.135 54.2750   3
   6   8  16 525.838 53.0283   3
  -8   6 -16 477.402 51.3070   4
  -8  -6  18 140.509 29.2867   5
  -6  -8  18 149.401 28.8446   5
  -8   6 -18 123.654 29.4229   4
  -6   8 -18 139.543 31.2452   4
  -6  -8  20 26.2507 15.7410   5
   8   6  20 58.6789 20.9912   3
   6   8  20 33.9884 19.6387   3
  -6   8 -20 32.4127 19.3047   4
  -8   6 -20 77.3375 19.9925   4
   8   6  22 65.6374 13.4764   3
  -6   8 -22 59.6759 12.9751   4
   6   8  22 76.3563 14.2438   3
  -7   8  11 7774.19 339.538   3
   7   8  -9-6.80209 21.5819   2
  -7   8   9 72.0520 48.7075   3
  -8   7   7 12349.9 516.335   3
  -7   8   7 14081.7 517.686   3
   7   8  -7 13678.7 485.971   2
   7   8  -5 9874.20 363.770   2
   7  -8   5 10313.0 369.317   6
  -8  -7  -5 8910.46 446.846   1
  -7  -8  -5 9252.72 451.519   1
   8   7  -5 9758.63 361.380   2
  -8   7   5 10596.3 389.662   3
  -7   8   5 10381.1 386.310   3
  -8  -7  -3 6543.74 310.787   1
  -8   7   3 6425.07 246.067   3
  -7  -8  -3 6108.10 300.981   1
  -7   8   3 6008.84 242.080   3
   7   8  -3 5948.37 229.627   2
  -8  -7  -1 18861.4 719.024   1
  -7  -8  -1 18455.8 711.600   1
  -8   7   1 18469.5 654.705   3
  -7   8   1 17973.6 652.298   3
  -8   7  -1 17869.6 635.711   3
  -8  -7   1 18386.7 692.690   1
  -7  -8   1 18033.3 687.885   1
  -7   8  -1 17406.8 633.535   3
  -7  -8   3 7053.77 320.920   1
  -8   7  -3 7004.73 274.814   3
  -8  -7   3 7571.05 327.995   1
  -7  -8   5 10983.8 433.391   5
  -8  -7   5 10584.6 431.463   5
  -8  -7   5 10239.3 451.452   1
  -7   8  -5 11128.0 400.408   3
  -7  -8   5 9871.29 446.559   1
   7   8   7 13375.3 517.795   3
  -7  -8   7 14895.0 544.676   5
  -8  -7   7 14752.4 544.853   5
  -7  -8   7 13839.3 569.824   1
  -7  -8   9 13.9961 42.6085   1
  -8  -7   9 58.5199 45.1520   1
  -7  -8   9 3.90938 35.9255   5
  -8  -7   9 23.7258 37.4294   5
   7   8   9 10.1662 35.4063   3
  -8  -7  11 8841.61 345.202   5
   7   8  11 9280.59 348.510   3
  -8  -7  11 8934.23 397.061   1
  -7  -8  11 8526.13 390.953   1
   7   8  13 4696.36 204.424   3
  -8  -7  13 4464.96 244.674   1
  -7  -8  13 4108.05 238.420   1
  -8   7 -13 4547.30 209.717   4
  -7  -8  13 4506.92 204.654   5
  -8  -7  15 40.5796 30.5567   5
  -7  -8  15 28.2624 28.3341   5
   7   8  15 27.6361 30.3808   3
   8   7  15 2.97214 29.0957   3
  -7   8 -15 32.8196 27.2721   4
  -8   7 -15 26.4245 29.6126   4
   8   7  17 716.069 56.3317   3
  -8  -7  17 734.868 56.7736   5
   7   8  17 767.472 61.0313   3
  -8   7 -17 600.211 55.2680   4
  -7   8 -17 694.255 57.2468   4
  -7  -8  17 658.342 55.1841   5
  -7  -8  19 784.080 51.6192   5
  -7   8 -19 820.579 53.3774   4
  -8   7 -19 842.499 54.6869   4
  -8   7 -21 88.1518 16.2556   4
  -7   8 -21 90.7476 17.5551   4
   7   8  21 70.3553 16.2162   3
   8   7  21 92.0708 18.0198   3
   8   8 -10 10627.5 379.131   2
  -8   8  10 8703.78 417.948   3
   8   8  -8 13253.5 457.644   2
  -8   8   8 10882.0 492.456   3
  -8   8   6 563.605 60.4251   3
   8   8  -6 446.230 38.3272   2
  -8   8   4 10710.4 390.482   3
   8   8  -4 9706.94 366.572   2
  -8  -8  -4 9261.12 462.151   1
   8  -8   4 10435.2 373.871   6
  -8  -8  -2 32190.1 1185.63   1
  -8   8   2 31587.5 1103.13   3
   8   8  -2 31124.3 1087.88   2
  -8  -8   0 784.784 89.7518   1
  -8   8   0 672.860 51.6299   3
  -8   8  -2 33517.8 1169.75   3
  -8  -8   2 33226.1 1230.24   1
  -8  -8   4 9727.42 413.190   5
  -8  -8   4 9965.93 427.465   1
  -8  -8   6 321.763 59.8020   5
  -8  -8   6 364.749 66.4611   1
  -8   8  -6 323.373 43.1281   3
   8   8   8 13839.0 513.567   3
  -8  -8   8 14387.2 534.537   5
  -8  -8  10 11854.8 463.818   5
  -8  -8  10 11019.8 506.825   1
   8   8  10 12481.6 464.668   3
  -8  -8  12 1674.99 109.437   5
   8   8  12 1987.88 112.715   3
  -8  -8  12 1787.72 144.411   1
  -8  -8  14 4360.53 195.107   5
  -8   8 -14 4177.11 195.856   4
   8   8  14 4297.19 192.561   3
  -8   8 -16 1121.21 75.7292   4
  -8  -8  16 1213.36 76.3684   5
   8   8  16 1167.10 77.5570   3
  -8  -8  18 328.819 35.6163   5
  -8   8 -18 257.762 32.8677   4
   8   8  18 362.020 37.7756   3
  -8   8 -20 219.456 23.3276   4
  -9   0  -1 767.693 63.7641   1
  -9   0   1 889.327 81.9754   1
   0  -9   1 885.756 67.7737   1
   0  -9   3 5150.40 224.314   1
  -9   0   3 5464.37 262.766   1
   0  -9   5 685.219 58.8909   1
  -9   0   5 757.956 83.8351   1
  -9   0   7 7406.80 302.880   5
  -9   0   7 7668.95 338.542   1
   0   9   7 7417.98 289.893   3
   0  -9   7 7512.20 303.007   1
   0   9  -7 7241.02 284.663   2
   0  -9   9 10430.7 406.399   5
  -9   0   9 10862.8 415.604   5
  -9   0  -9 9910.79 407.476   4
   0   9  -9 10920.3 404.566   2
  -9   0   9 11865.3 459.985   1
   0  -9   9 10831.2 421.133   1
  -9   0  11 60.2258 37.0634   5
   0   9  11 102.903 42.3873   3
   0  -9  11 26.8286 34.7324   5
  -9   0 -11 4.11224 38.7223   4
   0  -9  13 63.8590 35.9978   5
  -9   0  13 62.2912 42.1934   1
   0   9  13 62.6069 40.4526   3
  -9   0 -13 72.7125 44.0999   4
   0  -9  15 4902.10 209.270   5
  -9   0  15 4684.05 253.646   1
   0   9  15 4977.73 214.570   3
  -9   0 -15 5065.65 224.318   4
   0   9  17 681.678 56.2040   3
  -9   0 -17 701.480 62.0091   4
  -9   0 -19 139.313 28.6252   4
   0   9  19 85.4454 25.9049   3
   0   9  21 7.51911 13.4573   3
   0   9 -21-1.54937 16.6377   4
   1   9 -22 37.2164 12.5939   4
   9  -1  22 29.1218 12.8569   3
   1   9 -20 418.382 37.7676   4
  -1   9  20 398.685 34.0463   3
  -1   9  18 471.395 46.1157   3
  -9  -1 -18 534.626 52.1311   4
  -1   9  16 642.672 57.9792   3
  -9  -1 -16 735.634 66.2660   4
  -9   1  14 5362.17 266.837   1
  -1   9  14 4883.03 218.950   3
   1  -9  14 4894.63 213.191   5
  -9  -1 -14 5205.66 231.805   4
  -1   9  12 4444.52 208.520   3
  -9   1  12 4712.64 246.621   1
  -9  -1 -12 4787.22 221.016   4
   1  -9  12 4490.72 202.556   5
  -1   9  10 9417.04 372.581   3
   1  -9  10 9472.87 363.511   5
  -9   1  10 9220.25 408.711   1
  -9  -1 -10 9280.88 370.668   4
  -9  -1  -8 3130.05 145.056   4
   1  -9   8 3112.03 153.574   1
  -9   1   8 3366.18 189.475   1
  -9   1   6 5693.90 272.461   1
  -1   9   6 5578.25 223.509   3
   1   9  -6 5537.07 218.507   2
   1  -9   6 5514.77 233.286   1
  -9   1   4 21630.7 755.274   1
   1  -9   4 18099.6 695.554   1
  -9   1   2 5700.73 263.344   1
   1  -9   2 5935.25 244.692   1
  -1  -9   0 2567.54 130.740   1
  -9  -1   0 2376.65 143.458   1
  -9   1   0 2327.25 125.385   1
  -9  -1   2 4904.19 251.408   1
  -1  -9   2 5294.22 224.449   1
  -9  -1   4 21007.0 794.401   1
  -1  -9   4 20706.9 758.096   1
   1   9   6 5482.83 221.132   3
  -9  -1   6 5177.99 232.153   5
  -9  -1   6 5772.06 270.412   1
  -1  -9   6 5699.90 238.586   1
  -1  -9   8 2703.71 133.619   5
  -9  -1   8 2772.72 171.619   1
  -1   9  -8 2620.73 128.280   2
   1   9   8 3026.82 136.612   3
  -1  -9   8 2555.77 142.659   1
  -9  -1   8 2674.63 141.250   5
  -1  -9  10 8988.02 342.713   5
  -9   1 -10 8439.07 345.874   4
  -1  -9  10 8110.34 353.776   1
  -1  -9  12 4112.19 191.925   5
  -9   1 -12 4392.29 208.061   4
   1   9  12 4180.11 194.537   3
  -9  -1  12 4221.80 191.165   5
  -9  -1  12 4309.94 234.970   1
  -9   1 -14 5477.36 235.808   4
  -1  -9  14 5100.48 223.244   5
  -9  -1  14 5566.33 273.377   1
   1   9  14 4887.43 225.646   3
  -1  -9  16 639.917 55.1993   5
  -9   1 -16 620.205 60.6548   4
   1   9  16 724.291 59.9441   3
  -9   1 -18 465.779 47.1042   4
   1   9  18 408.492 43.8039   3
   1   9  20 372.657 35.2863   3
  -9   1 -20 392.669 37.1215   4
  -1   9 -20 381.909 36.4248   4
   1   9  22 48.6826 11.6982   3
   9   1  22 49.9988 14.8982   3
  -1   9 -22 57.1485 14.8824   4
   2   9 -21 44.4215 15.7641   4
  -2   9  19 57.5589 19.6753   3
  -2   9  17 775.416 58.7861   3
  -9  -2 -17 813.600 66.9299   4
  -2   9  15 2283.03 123.843   3
  -9  -2 -15 2555.57 139.243   4
  -2   9  13 1127.75 84.9422   3
  -9   2  13 1272.21 112.371   1
  -9  -2 -13 1163.10 98.8288   4
   2  -9  13 1072.65 76.7444   5
  -2   9  11 1083.87 87.8329   3
   2  -9  11 1087.46 75.2284   5
  -9  -2 -11 1085.81 84.7927   4
  -9   2   9 10091.2 414.613   1
  -2   9   9 9200.80 365.957   3
  -9  -2  -9 9006.10 359.932   4
   2   9  -9 9279.32 353.749   2
  -2   9   7 14218.6 533.390   3
   2  -9   7 14845.1 539.366   1
  -9   2   7 15634.6 593.227   1
  -9  -2  -7 14246.2 527.416   4
  -9   2   5 13374.8 545.401   1
   2  -9   5 13140.0 492.136   1
   2  -9   3 3711.55 166.646   1
  -9   2   3 3579.24 189.388   1
  -9   2   1 13218.1 498.303   1
  -9  -2  -1 12828.4 520.307   1
  -9  -2   1 13402.7 539.371   1
  -2  -9   1 13467.8 510.099   1
  -9  -2   3 3448.96 195.024   1
  -2  -9   3 3789.74 175.156   1
  -9  -2   5 12989.1 531.343   1
  -2  -9   5 13161.9 501.476   1
  -9  -2   7 15354.8 564.996   5
  -9  -2   7 15008.1 602.064   1
  -2   9  -7 14953.2 548.154   2
  -2  -9   7 15529.3 574.703   1
   2   9   7 14687.2 549.216   3
  -9  -2   9 9834.04 417.305   1
  -9  -2   9 9814.15 374.733   5
   2   9   9 9479.31 370.337   3
  -2  -9   9 9495.27 373.091   5
  -2  -9   9 9399.81 389.797   1
  -9   2  -9 9124.24 373.863   4
  -9  -2  11 1532.19 124.785   1
  -2  -9  11 1510.65 99.2183   5
  -2  -9  11 1598.16 113.222   1
  -9   2 -11 1609.45 108.968   4
   2   9  11 1495.26 100.843   3
  -9  -2  13 1364.70 116.595   1
  -9  -2  13 1068.60 81.9546   5
  -2  -9  13 1072.54 80.7250   5
  -9   2 -13 1244.61 91.2100   4
  -9  -2  15 2807.52 136.656   5
  -9   2 -15 2461.59 137.808   4
  -9  -2  15 2748.25 173.355   1
   2   9  15 2675.90 134.625   3
  -2  -9  15 2703.64 133.662   5
   2   9  17 943.942 66.0137   3
  -2  -9  17 899.964 61.3879   5
  -9   2 -19 90.7135 26.1937   4
   2   9  19 61.9760 25.1386   3
  -9   2 -21 17.3578 16.9566   4
   9   2  21-4.38624 16.7305   3
  -2   9 -21 30.5666 17.2869   4
   2   9  21 33.9138 16.2405   3
   3   9 -20 56.8754 19.1124   4
  -3   9  18 309.724 34.5272   3
  -9  -3 -16-3.74353 31.5571   4
  -3   9  16-25.2728 27.0365   3
  -9  -3 -14 462.116 64.3716   4
  -3   9  14 551.904 56.9332   3
   3  -9  12 5796.60 238.708   5
  -9  -3 -12 5733.56 256.143   4
  -3   9  12 5484.90 250.026   3
  -3   9  10 3319.17 165.909   3
  -9   3  10 3396.09 198.592   1
   3  -9  10 3246.81 150.023   5
  -9  -3 -10 3030.60 156.894   4
   3   9 -10 3186.03 148.349   2
   3   9  -8 134.647 27.7738   2
  -9   3   8 142.937 55.0054   1
  -3   9   8 136.889 37.3892   3
  -9  -3  -8 129.630 31.3686   4
   3  -9   6 4937.25 204.006   6
  -9   3   6 5104.15 263.708   1
   3  -9   6 5207.50 212.405   1
   3   9  -6 5029.46 200.455   2
  -3   9   6 5096.61 208.544   3
  -9   3   4 7199.39 329.453   1
  -3  -9  -4 7522.33 325.366   1
   3  -9   4 7728.06 298.200   1
  -3  -9  -2 397.244 52.2126   1
  -9  -3  -2 433.820 62.8281   1
  -9   3   2 399.696 51.2070   1
  -9  -3   0 5325.20 247.873   1
  -3  -9   0 4652.72 218.618   1
  -3  -9   2 488.018 54.4999   1
  -9  -3   2 522.563 72.8088   1
  -3  -9   4 7480.95 310.975   1
  -9  -3   4 7371.68 336.366   1
  -3  -9   6 4893.05 217.513   5
   3   9   6 5084.17 207.874   3
  -3  -9   6 5483.13 237.201   1
  -3   9  -6 4997.11 208.524   2
  -9  -3   6 5229.24 257.235   1
  -9  -3   6 5111.48 227.525   5
   3   9   8 167.027 37.2548   3
  -9  -3   8 200.983 41.6390   5
  -3  -9   8 193.247 44.0741   1
  -9  -3   8 269.971 59.2844   1
   3   9  10 2399.84 131.506   3
  -3  -9  10 2590.53 150.933   1
  -3  -9  10 2177.19 127.876   5
  -9   3 -10 2699.68 144.076   4
  -9  -3  10 2322.57 128.784   5
   3   9  12 5758.80 246.526   3
  -3  -9  12 5592.24 243.526   5
  -9  -3  12 5857.89 291.630   1
  -9   3 -12 6094.43 258.427   4
  -3  -9  14 657.890 61.7363   5
  -9  -3  14 545.900 77.3121   1
  -9   3 -14 698.633 65.3967   4
  -9  -3  14 654.258 61.8850   5
  -3  -9  16-2.82455 26.7365   5
   3   9  16 11.8248 27.4956   3
  -9   3 -16 52.5244 31.0724   4
  -9  -3  16 11.9346 27.0822   5
  -3  -9  18 265.010 32.3753   5
   3   9  18 175.148 33.6110   3
  -9   3 -18 227.628 36.0256   4
   3   9  20 52.5467 21.2476   3
   9   3  20 57.3231 21.6510   3
  -9   3 -20 43.2411 20.4399   4
   9   3  22 8.33651 12.2396   3
   3   9  22-7.33371 9.88769   3
  -4   9  17 534.316 46.1262   3
  -4   9  15 269.955 41.1321   3
  -9  -4 -13 1674.27 112.999   4
  -4   9  13 1426.64 99.2023   3
  -9  -4 -11 2639.25 143.840   4
   4  -9  11 2650.76 130.685   5
  -4   9  11 2694.72 151.951   3
   4   9  -9 4371.25 187.708   2
  -4  -9  -9 4628.94 260.704   1
  -4   9   9 4591.97 207.777   3
   4   9  -7 3339.90 142.185   2
   4  -9   7 3120.66 143.749   6
  -4  -9  -7 3329.81 201.248   1
  -4   9   7 3380.81 154.870   3
   4  -9   5 885.486 61.4460   1
   4  -9   5 1045.36 61.7999   6
   4   9  -5 930.036 55.1257   2
  -4  -9  -5 925.129 88.3196   1
  -4   9   5 964.839 62.2935   3
   4  -9   3 639.436 51.8907   1
  -4  -9  -3 555.809 64.4292   1
  -9  -4  -1 3537.04 191.559   1
  -4  -9  -1 3529.04 178.163   1
  -4  -9   1 3763.19 181.850   1
  -9  -4   1 3540.37 195.858   1
  -9  -4   3 697.164 78.3163   1
  -4  -9   3 615.573 64.2251   1
  -9  -4   5 945.738 82.7596   5
  -4  -9   5 1011.78 76.2182   5
  -4  -9   5 1063.98 84.9103   1
  -9  -4   5 1223.93 105.007   1
  -4   9  -5 994.933 58.6841   3
  -4  -9   7 3373.25 162.186   5
  -9  -4   7 3319.63 163.513   5
  -4   9  -7 3102.73 137.275   3
   4   9   7 3184.26 147.366   3
  -4  -9   7 3147.74 174.126   1
  -9  -4   7 3092.08 187.496   1
  -4  -9   9 4495.36 224.730   1
   4   9   9 4329.83 198.472   3
  -9  -4   9 4482.61 203.020   5
  -4  -9  11 2365.55 134.167   5
   4   9  11 2686.38 140.979   3
  -9   4 -11 2568.95 145.100   4
  -9  -4  11 2713.34 175.771   1
  -4  -9  11 2371.74 157.120   1
  -9  -4  11 2584.55 134.460   5
  -4  -9  13 1620.18 101.841   5
   4   9  13 1737.89 106.866   3
  -9  -4  13 1653.74 102.288   5
  -9   4 -13 1747.38 110.813   4
  -9  -4  13 1918.69 142.223   1
  -4  -9  15 319.475 43.2884   5
  -9  -4  15 255.813 42.9204   5
  -9   4 -15 245.674 44.8750   4
  -9   4 -17 455.638 48.1759   4
   4   9  17 435.846 48.1142   3
  -4  -9  17 456.424 45.5762   5
  -4  -9  19 140.385 23.5190   5
   4   9  19 154.276 28.5629   3
  -4   9 -19 127.260 28.5780   4
  -9   4 -19 144.890 27.3863   4
   4   9  21 44.6943 16.8836   3
   9   4  21 9.66425 16.4686   3
  -9   4 -21 22.6567 13.8708   4
  -4   9 -21 2.98379 14.8456   4
  -5   9  16 439.507 44.6072   3
  -5   9  14 462.015 53.8293   3
  -5   9  12 3601.65 181.418   3
   5   9 -10 1736.64 95.5198   2
  -5   9  10 1707.08 116.672   3
  -5  -9  -8 2384.21 180.696   1
   5   9  -8 2406.10 114.069   2
  -5   9   8 2468.35 132.383   3
   5   9  -6 5724.56 225.002   2
   5  -9   6 5963.67 230.957   6
  -5  -9  -6 5711.27 294.651   1
  -5   9   6 5738.69 239.786   3
   5  -9   4 4310.92 175.479   6
  -5  -9  -4 4582.02 228.881   1
   5   9  -4 4094.06 169.426   2
  -5   9   4 4386.23 180.035   3
   5   9  -2 3616.98 142.824   2
  -5  -9  -2 3571.56 186.269   1
  -5   9   2 3388.31 146.429   3
  -9  -5  -2 3329.96 193.911   1
  -5  -9   0 10188.1 407.095   1
  -5   9   0 9655.74 363.449   3
  -9  -5   0 10492.5 426.809   1
  -5   9  -2 3360.92 139.281   3
  -9  -5   2 3189.05 185.596   1
  -5  -9   2 3231.71 171.932   1
  -5  -9   4 4290.28 207.207   5
  -9  -5   4 4468.23 232.483   1
  -9   5  -4 4373.06 184.098   3
  -5   9  -4 4443.20 178.475   3
  -9  -5   6 5560.85 250.092   5
  -5   9  -6 5557.27 221.258   3
   5   9   6 5636.98 225.995   3
  -5  -9   6 5437.89 245.405   5
  -5  -9   6 5601.32 265.204   1
  -9  -5   6 5830.87 284.662   1
  -9  -5   8 2030.53 118.740   5
  -5  -9   8 1853.78 113.898   5
  -9  -5   8 1859.81 145.431   1
   5   9   8 1938.55 107.869   3
  -5  -9   8 1903.73 131.267   1
  -9  -5  10 1518.53 100.361   5
   5   9  10 1678.44 105.903   3
  -9  -5  10 1262.59 123.161   1
  -5  -9  10 1656.97 125.924   1
  -9  -5  12 3596.76 216.018   1
  -9   5 -12 3785.07 184.710   4
   5   9  12 3786.29 178.483   3
  -5  -9  12 3166.82 196.298   1
  -5  -9  12 3605.28 173.805   5
  -9  -5  14 817.391 64.3966   5
  -9  -5  14 749.568 86.1383   1
  -5  -9  14 658.685 61.6868   5
   5   9  14 646.466 62.1743   3
  -9   5 -14 691.083 65.8358   4
  -9  -5  16 425.652 47.3338   5
  -5  -9  16 404.197 45.2179   5
  -9   5 -16 400.926 47.5757   4
   9   5  18 59.7745 26.9489   3
  -5  -9  18 46.2062 22.7091   5
  -9   5 -18 41.2996 24.4538   4
  -5   9 -18 43.0434 24.0152   4
   5   9  20 99.1517 22.4181   3
  -5  -9  20 95.7890 18.1276   5
  -9   5 -20 112.044 22.8598   4
  -5   9 -20 125.058 22.6104   4
  -6   9  15 94.7928 27.8360   3
  -6   9  13 427.809 55.1728   3
  -6   9  11 2085.45 134.122   3
   6   9  -9 1666.96 89.9110   2
  -6   9   9 1624.06 113.304   3
   6  -9   7 2322.27 111.227   6
  -6   9   7 2425.48 128.772   3
   6   9  -7 2246.70 107.980   2
  -9   6   5 183.032 36.5649   3
  -6   9   5 123.334 30.6784   3
  -6  -9  -5 231.283 60.3030   1
   6  -9   5 200.394 31.8565   6
   6   9  -5 179.717 27.2139   2
   6  -9   3 125.620 26.5534   6
  -6   9   3 126.897 27.1431   3
   6   9  -3 116.144 21.8985   2
  -9   6   3 159.906 29.0318   3
  -9  -6  -3 135.211 48.1089   1
  -6  -9  -3 195.624 50.1560   1
  -6  -9  -1 3897.57 198.592   1
  -9  -6  -1 3437.13 201.206   1
  -9   6   1 3462.39 152.831   3
  -6   9   1 3592.00 151.240   3
  -9  -6   1 3133.97 187.235   1
  -6  -9   1 3244.13 175.308   1
  -9   6  -1 3189.36 140.753   3
  -6  -9   3 106.896 38.6100   1
  -6   9  -3 194.060 27.7754   3
  -9   6  -3 129.710 28.3673   3
  -6  -9   3 121.835 46.1419   5
  -9  -6   3 58.0795 36.7333   1
  -9  -6   5 264.876 58.8306   1
  -9   6  -5 180.891 33.5330   3
  -6  -9   5 158.745 47.5987   5
  -9  -6   5 215.716 51.8800   5
  -6   9  -5 184.998 31.1598   3
  -6  -9   7 1878.57 117.974   5
  -9  -6   7 2224.60 127.712   5
   6   9   7 1798.60 102.119   3
  -9  -6   7 1847.61 141.808   1
  -6   9  -7 1844.32 98.4618   3
  -6  -9   7 1918.56 134.983   1
  -9  -6   9 1786.70 111.467   5
  -6  -9   9 1460.39 125.272   1
   6   9   9 1710.61 104.743   3
  -6  -9   9 1635.91 106.494   5
  -9  -6  11 1960.85 117.740   5
  -9   6 -11 1930.97 127.002   4
  -9  -6  11 2171.72 158.566   1
   6   9  11 2145.41 125.878   3
  -6  -9  11 1897.22 143.529   1
  -6  -9  13 412.604 52.3871   5
   6   9  13 413.994 54.0861   3
  -9   6 -13 459.019 55.2310   4
  -9  -6  13 342.169 64.2418   1
  -6  -9  13 426.798 65.9884   1
  -9  -6  15 111.861 31.8659   5
  -6  -9  15 86.9740 32.9289   5
   6   9  15 106.992 34.0050   3
  -9   6 -15 95.0250 31.5544   4
  -6  -9  17 442.040 44.1043   5
   6   9  17 512.689 48.7609   3
  -9  -6  17 491.343 45.7330   5
   9   6  17 414.335 46.3150   3
  -6   9 -17 539.692 48.7022   4
  -9   6 -17 452.697 46.1032   4
  -6   9 -19 82.2458 23.3001   4
  -6  -9  19 54.5300 21.2165   5
   9   6  19 95.2510 24.7235   3
  -9   6 -19 64.8930 21.4424   4
   6   9  21 3.43858 13.0082   3
  -9   6 -21 20.8301 11.8831   4
  -6   9 -21 8.33576 11.2764   4
  -7   9  14 1310.49 85.4090   3
  -7   9  12 1671.08 113.279   3
   7   9 -10 3024.40 139.934   2
  -7   9  10 2952.67 174.982   3
   7   9  -8 3430.78 151.811   2
  -7   9   8 3521.96 182.920   3
   7  -9   8 3585.63 155.358   6
   7  -9   6 1361.99 75.9625   6
   7   9  -6 1305.64 71.8155   2
  -9   7   6 1272.28 93.4423   3
  -7   9   6 1333.57 89.8054   3
   7  -9   4 2418.45 109.861   6
  -7  -9  -4 2313.84 169.846   1
   7   9  -4 2135.92 101.596   2
  -9   7   4 2316.80 120.875   3
  -7   9   4 2252.94 115.994   3
  -9  -7  -2 7923.62 379.302   1
  -9   7   2 8202.57 311.975   3
  -7   9   2 8217.38 308.303   3
  -7  -9  -2 7909.65 368.565   1
   7   9  -2 7986.67 297.056   2
   9   7  -2 7778.36 292.709   2
  -7  -9   0 542.872 75.9535   1
  -9  -7   0 761.125 90.1065   1
  -9   7   0 627.418 50.4797   3
  -7   9   0 599.469 48.8552   3
  -9   7  -2 8548.56 322.679   3
  -7  -9   2 8154.43 367.178   1
  -9  -7   2 8296.67 380.598   1
  -9  -7   4 2245.31 148.746   5
  -7  -9   4 2254.59 147.988   5
  -7  -9   4 2396.41 153.210   1
  -9  -7   4 2434.08 160.982   1
  -9   7  -4 2402.83 117.958   3
  -7   9  -4 2450.41 115.534   3
  -9  -7   6 1006.16 92.9331   5
  -7   9  -6 1115.35 72.8070   3
  -9  -7   6 1125.22 107.753   1
  -7  -9   6 1151.88 96.0455   5
   7   9   8 3855.80 179.345   3
  -9  -7   8 4032.55 197.621   5
  -7  -9   8 4014.10 220.791   1
  -7  -9   8 3874.62 193.423   5
  -9  -7  10 3438.50 214.716   1
  -7  -9  10 3617.80 178.868   5
  -9  -7  10 3631.11 178.784   5
   7   9  10 3858.19 180.805   3
  -7  -9  10 3374.00 210.211   1
  -9  -7  12 1912.41 113.921   5
   7   9  12 1836.85 111.785   3
  -9   7 -12 1782.35 115.862   4
  -7  -9  12 1628.17 134.728   1
  -9  -7  12 1620.50 138.072   1
   9   7  14 1388.79 88.1604   3
  -7  -9  14 1216.18 87.2069   5
  -9   7 -14 1358.60 91.5299   4
   7   9  14 1539.93 93.8295   3
  -7  -9  16 346.896 43.2510   5
   7   9  16 428.928 46.7708   3
   9   7  16 424.558 44.8237   3
  -9   7 -16 373.659 43.6624   4
  -7   9 -16 404.236 45.5840   4
  -9  -7  16 337.244 43.9485   5
   7   9  18 130.890 29.5009   3
  -7  -9  18 136.084 27.1721   5
   9   7  18 172.655 29.1569   3
  -9   7 -18 141.318 26.7900   4
  -7   9 -18 143.060 27.3969   4
  -9  -7  18 106.659 25.2303   5
   9   7  20 89.4715 19.1567   3
  -9   7 -20 93.8557 17.3499   4
  -7   9 -20 96.4087 17.9783   4
  -8   9  11 2099.48 136.840   3
  -8   9   9 793.451 86.1456   3
   8   9  -9 1010.59 62.0238   2
   8  -9   7 7070.59 266.966   6
  -8   9   7 7001.85 299.010   3
   8   9  -7 7065.58 263.636   2
   9  -8   5 4705.09 187.366   6
   9   8  -5 4407.50 181.355   2
   8   9  -5 4610.20 184.397   2
  -9   8   5 4790.38 214.145   3
   8  -9   5 4825.32 190.715   6
  -8   9   5 4562.07 207.045   3
  -8   9   3 303.792 40.0933   3
   8  -9   3 307.221 36.8092   6
   8   9  -3 306.744 32.3396   2
  -9   8   3 307.391 43.4730   3
   9   8  -3 278.154 29.9738   2
  -8  -9  -3 267.868 70.2259   1
  -9  -8  -3 281.620 76.3457   1
  -8  -9  -1 8050.32 386.079   1
  -9   8   1 8724.81 326.305   3
  -8   9   1 8156.01 320.921   3
  -9  -8  -1 8030.44 396.917   1
  -9  -8   1 8779.81 400.488   1
  -9   8  -1 8539.84 333.389   3
  -8  -9   1 8500.44 389.236   1
  -8   9  -1 8746.49 332.626   3
  -8  -9   3 460.561 75.2587   5
  -9  -8   3 567.731 78.7597   1
  -8  -9   3 561.752 74.5745   1
  -9   8  -3 571.935 52.3477   3
  -8  -9   5 4656.69 240.954   5
  -8   9  -5 4857.88 204.545   3
  -9   8  -5 4864.41 206.714   3
  -9  -8   5 4764.92 243.709   5
  -9  -8   5 4736.39 257.982   1
  -8  -9   5 4697.70 254.362   1
  -9  -8   7 6670.21 304.649   5
  -8  -9   7 6882.98 303.946   5
  -9  -8   7 6951.69 339.017   1
   8   9   7 6832.17 274.035   3
   8   9   9 774.344 72.6257   3
  -8  -9   9 1064.69 85.8695   5
   9   8   9 898.662 72.9476   3
  -8  -9   9 881.433 100.536   1
  -9  -8   9 860.169 81.2382   5
  -9  -8  11 2388.67 140.886   5
  -9  -8  11 2570.60 179.800   1
  -8  -9  11 2504.40 140.234   5
  -8  -9  11 2367.16 172.100   1
   8   9  11 2946.16 149.455   3
   9   8  11 2745.19 141.939   3
  -9  -8  13 2227.67 124.382   5
   8   9  13 2538.14 128.850   3
  -9   8 -13 2140.49 127.978   4
   9   8  13 2288.09 122.022   3
   8   9  15 240.758 39.9892   3
   9   8  15 367.886 45.7692   3
  -9   8 -15 282.285 40.7664   4
  -8   9 -15 306.031 42.1846   4
  -9  -8  15 239.436 38.6276   5
  -8  -9  15 252.852 38.1175   5
  -8  -9  17 226.564 32.8697   5
  -9  -8  17 238.821 32.9996   5
   8   9  17 247.993 34.4978   3
  -8   9 -17 232.701 31.6651   4
   9   8  17 216.440 33.6019   3
  -9   8 -17 206.801 31.6313   4
   8   9  19 370.330 32.6085   3
   9   8  19 380.057 33.2034   3
  -8  -9  19 345.985 31.4639   5
  -9   8 -19 331.390 29.6680   4
  -8   9 -19 300.322 29.2019   4
  -9   9  10 1525.99 116.028   3
   9   9  -8 2008.82 97.7692   2
  -9   9   8 1554.21 125.517   3
   9   9  -6 400.336 38.6612   2
   9  -9   6 358.572 41.2667   6
   9  -9   4 2052.47 102.502   6
   9   9  -4 2019.93 96.7382   2
  -9   9   4 2237.48 122.281   3
  -9  -9  -2 2326.01 184.500   1
  -9   9   2 2237.71 119.735   3
   9   9  -2 2324.61 105.062   2
  -9  -9   0 6202.10 322.409   1
  -9   9   0 6203.42 253.760   3
  -9   9  -2 2282.59 119.818   3
  -9  -9   2 2613.70 177.919   1
  -9   9  -4 1796.88 99.4617   3
  -9  -9   4 1793.51 143.519   1
  -9  -9   4 1477.57 129.270   5
  -9  -9   6 253.247 63.1961   1
  -9  -9   6 207.852 61.0543   5
  -9  -9   8 2261.76 136.906   5
   9   9   8 1911.07 109.827   3
  -9  -9  10 2465.85 140.954   5
   9   9  10 2583.52 135.343   3
  -9  -9  10 2215.83 168.566   1
  -9  -9  12 827.534 72.0489   5
   9   9  12 952.297 75.5787   3
   9   9  14 936.014 68.3876   3
  -9   9 -14 816.377 67.6555   4
  -9  -9  16 36.0409 26.0439   5
   9   9  16 34.7222 24.1967   3
  -9   9 -16 11.9694 20.4845   4
  -9  -9  18 136.624 23.1394   5
   9   9  18 131.541 24.0109   3
  -9   9 -18 128.512 20.1235   4
   9   9  20 24.4731 11.0022   3
   0 -10   0 3695.34 179.095   1
 -10   0   0 3681.97 182.241   1
 -10   0   2 125.572 48.7787   1
   0 -10   2 151.623 34.5259   1
   0 -10   4 12165.2 464.932   6
 -10   0   4 13575.2 533.726   1
   0 -10   4 13660.8 488.803   1
   0  10  -4 12521.5 457.547   2
   0  10   4 12413.1 458.238   3
   0  10   6 5024.41 208.110   3
   0 -10   6 4879.10 222.751   1
 -10   0   6 5397.32 264.018   1
   0  10  -6 5045.23 204.637   2
   0  10   8 114.551 37.0232   3
 -10   0   8 67.5678 44.5310   1
   0 -10   8 61.8980 30.9129   1
   0  10  -8 109.878 33.8102   2
   0 -10  10 7561.86 301.793   5
 -10   0  10 7559.87 346.282   1
 -10   0 -10 7027.02 303.242   4
   0  10  12 1764.12 113.212   3
   0 -10  12 1775.19 107.846   5
 -10   0 -12 1873.94 122.230   4
   0  10  14 5259.53 227.821   3
 -10   0  14 5392.90 274.043   1
   0 -10  14 5070.81 222.479   5
 -10   0 -14 5290.95 240.941   4
   0  10  16 128.563 35.2915   3
 -10   0 -16 62.9765 31.5901   4
   0 -10  16 154.695 32.0621   5
   0  10  18 224.109 34.1786   3
 -10   0 -18 186.654 33.9653   4
   0  10  20 286.835 28.4019   3
   0  10 -20 299.418 31.2351   4
  10   0  22 41.7721 12.8754   3
   0  10 -22 56.2701 12.5633   4
   1  10 -21 20.5393 13.8470   4
  -1  10  21-2.93604 10.6504   3
  -1  10  19 168.328 26.8661   3
 -10  -1 -17 852.307 65.7094   4
  -1  10  17 759.427 58.8579   3
  -1  10  15 4524.03 199.412   3
 -10  -1 -15 4461.33 208.447   4
   1 -10  15 4378.91 191.187   5
 -10   1  13 831.169 93.9918   1
   1 -10  13 866.268 69.3748   5
  -1  10  13 716.056 70.1545   3
 -10  -1 -13 786.204 81.0590   4
  -1  10  11 2061.54 122.870   3
 -10   1  11 2128.11 148.965   1
 -10  -1 -11 1854.92 117.816   4
   1 -10  11 1840.09 110.550   5
 -10   1   9 11056.3 444.966   1
   1 -10   9 10501.7 389.539   5
 -10  -1  -9 10272.1 390.289   4
  -1  10   7 7030.63 282.787   3
   1 -10   7 7276.97 294.152   1
 -10   1   7 6605.29 328.985   1
   1  10  -7 7130.51 276.615   2
 -10   1   5 4303.42 237.113   1
   1 -10   5 4032.01 181.801   6
   1 -10   5 4548.87 198.427   1
   1  10  -5 4492.37 178.245   2
  -1  10   5 4315.04 180.936   3
   1 -10   3 4139.16 178.165   6
   1  10  -3 4170.04 170.463   2
 -10   1   3 4372.28 224.473   1
   1 -10   3 4689.44 198.298   1
   1 -10   1 3314.84 161.441   1
 -10   1   1 3109.50 165.082   1
 -10  -1   1 4075.35 214.763   1
  -1 -10   1 3799.95 186.388   1
  -1 -10   3 3838.57 168.163   6
 -10  -1   3 3912.75 217.185   1
  -1 -10   3 3975.23 186.805   1
   1  10   5 4539.97 183.436   3
 -10  -1   5 4204.01 193.054   5
 -10  -1   5 4605.65 239.697   1
  -1  10  -5 4408.80 181.556   2
  -1 -10   5 4423.05 205.067   1
   1  10   7 6220.98 259.005   3
 -10  -1   7 6835.96 314.240   1
  -1  10  -7 6511.79 257.295   2
  -1 -10   7 6402.03 278.326   1
 -10  -1   7 6388.62 277.512   5
 -10  -1   9 10304.6 463.375   1
  -1 -10   9 10843.4 417.119   5
 -10  -1   9 11037.7 423.389   5
   1  10   9 10674.9 415.979   3
  -1 -10   9 10768.5 433.339   1
 -10   1 -11 1689.99 114.979   4
  -1 -10  11 1867.09 109.733   5
   1  10  13 685.977 66.0521   3
 -10  -1  13 731.468 87.9383   1
  -1 -10  13 705.483 64.6595   5
 -10   1 -13 815.711 79.0631   4
   1  10  15 4725.24 206.796   3
  -1 -10  15 4653.00 202.937   5
 -10   1 -15 4725.17 215.699   4
   1  10  17 747.029 61.4438   3
  -1 -10  17 831.670 57.1183   5
 -10   1 -17 842.898 64.7818   4
   1  10  19 186.031 29.6737   3
 -10   1 -19 166.825 29.6477   4
   1  10  21 3.42397 12.3650   3
  10   1  21-10.3996 15.4388   3
  -1  10 -21-4.19160 15.7231   4
  -2  10  20 137.001 20.2916   3
   2  10 -20 148.254 22.9279   4
  -2  10  18 39.9616 21.4897   3
  -2  10  16 165.979 34.1900   3
 -10  -2 -16 246.861 42.8435   4
  -2  10  14 1733.38 107.167   3
   2 -10  14 1970.54 104.801   5
 -10  -2 -14 1949.70 121.576   4
  -2  10  12 1925.62 124.449   3
   2 -10  12 2282.99 120.646   5
 -10  -2 -12 2086.79 130.305   4
  -2  10  10 5245.62 238.406   3
   2 -10  10 5378.54 227.198   5
 -10   2  10 5500.90 277.423   1
 -10  -2 -10 5280.11 233.459   4
   2  10 -10 5275.19 225.679   2
  -2  10   8 184.563 40.3946   3
 -10   2   8 184.231 55.5336   1
 -10  -2  -8 161.033 33.4499   4
   2 -10   6 1773.23 94.7239   6
   2  10  -6 1736.02 89.2880   2
   2 -10   6 1761.62 101.626   1
  -2  10   6 1549.93 92.0797   3
   2 -10   4 11176.3 421.890   6
 -10   2   4 11555.2 478.135   1
   2 -10   4 11616.2 438.718   1
   2  10  -4 11627.9 416.150   2
  -2  10   4 11229.8 418.794   3
   2 -10   2 3965.96 169.863   6
 -10   2   2 3803.54 200.405   1
  -2 -10  -2 4278.26 202.728   1
   2 -10   2 4398.87 190.676   1
   2  10  -2 4052.99 162.804   2
 -10  -2   0 910.576 95.5969   1
 -10  -2   2 3829.63 216.102   1
  -2 -10   2 3997.21 191.441   1
  -2 -10   4 13146.9 509.328   1
 -10  -2   4 13221.9 544.594   1
   2  10   6 2487.73 119.458   3
 -10  -2   6 2439.96 135.058   5
  -2 -10   6 2633.93 142.725   1
 -10  -2   6 2653.42 167.098   1
  -2  10  -6 2591.46 119.547   2
  -2  10  -6 2319.75 106.822   3
  -2 -10   8 295.248 48.3968   5
 -10  -2   8 385.996 69.6613   1
  -2 -10   8 325.543 51.5909   1
   2  10   8 345.564 45.8366   3
 -10  -2   8 409.463 55.1392   5
   2  10  10 5543.82 242.143   3
 -10  -2  10 5354.78 240.509   5
 -10  -2  10 5901.44 289.348   1
 -10   2 -10 5316.14 244.624   4
  -2 -10  10 5705.96 243.752   5
  -2 -10  10 5398.77 257.326   1
   2  10  12 2217.48 131.111   3
 -10   2 -12 2591.84 147.031   4
  -2 -10  12 2306.45 128.239   5
  -2 -10  14 2129.66 115.898   5
 -10   2 -14 2071.73 125.225   4
 -10  -2  14 2096.77 151.760   1
  -2 -10  16 138.440 32.2622   5
 -10   2 -16 117.441 34.0628   4
   2  10  16 189.029 37.0660   3
  -2 -10  18 71.1677 21.6177   5
   2  10  18 34.6907 24.3277   3
 -10   2 -18 30.4547 25.0191   4
   2  10  20 174.948 23.6653   3
  10   2  20 137.837 24.4863   3
 -10   2 -20 113.939 22.8044   4
  -2  10 -22 63.4520 13.1907   4
   3  10 -21 8.11927 10.6058   4
  -3  10  19 48.2330 17.3707   3
  -3  10  17 58.7938 23.5856   3
  -3  10  15 496.265 51.0961   3
  -3  10  13 405.537 53.9131   3
   3 -10  13 400.271 48.2354   5
 -10  -3 -13 462.214 63.7914   4
   3 -10  11 174.933 39.9154   5
 -10  -3 -11 93.4218 40.9097   4
  -3  10  11 202.272 52.0899   3
 -10   3   9 5062.39 259.418   1
   3  10  -9 4822.14 201.550   2
  -3  10   9 4522.41 213.312   3
 -10   3   7 3033.74 190.359   1
   3  10  -7 2810.13 130.186   2
  -3  10   7 2820.43 139.832   3
   3 -10   5 2234.70 109.953   6
  -3 -10  -5 2090.67 144.856   1
 -10   3   5 2181.01 153.124   1
   3 -10   5 2309.37 118.803   1
   3 -10   3 1563.68 96.0537   1
 -10   3   3 1639.84 115.068   1
  -3 -10  -3 1816.42 119.631   1
   3 -10   3 1634.75 87.2409   6
   3  10  -3 1666.12 80.7192   2
  -3  10   3 1643.65 84.2337   3
   3 -10   1 1820.70 86.1537   6
 -10  -3  -1 1349.96 120.335   1
  -3 -10  -1 1776.60 111.736   1
  -3  10   1 1490.76 76.6649   3
   3  10  -1 1419.91 73.9233   2
 -10  -3   1 1443.69 118.760   1
  -3  10  -1 1402.16 71.1804   3
 -10  -3   3 1533.06 125.434   1
  -3  10  -3 1627.05 78.0497   3
  -3 -10   3 1484.24 104.431   1
   3  10   5 2271.71 108.396   3
  -3 -10   5 2407.90 136.185   1
  -3 -10   5 2203.08 120.089   5
 -10  -3   5 2208.05 155.417   1
  -3  10  -5 2150.99 109.365   2
  -3  10  -5 2286.32 102.225   3
 -10  -3   5 2171.88 124.996   5
   3  10   7 2756.87 134.651   3
  -3 -10   7 2753.58 143.082   5
 -10  -3   7 2959.72 153.705   5
 -10  -3   7 2935.92 181.560   1
  -3 -10   7 2807.00 158.585   1
  -3  10  -7 2728.73 122.255   3
 -10  -3   9 4708.10 215.169   5
 -10  -3   9 4900.44 257.975   1
   3  10   9 4723.96 210.510   3
  -3 -10   9 4685.62 232.759   1
 -10  -3  11 211.527 44.2278   5
  -3 -10  11 188.339 46.9135   5
 -10   3 -11 266.916 55.8696   4
  -3 -10  11 168.576 45.8825   1
   3  10  11 267.289 53.2745   3
   3  10  13 478.010 59.4111   3
 -10  -3  13 332.332 66.2073   1
 -10   3 -13 468.384 59.8766   4
  -3 -10  13 479.256 55.4581   5
  -3 -10  15 548.400 52.4934   5
 -10   3 -15 490.397 54.4989   4
  -3 -10  17 73.7876 25.9185   5
   3  10  17 85.3560 30.7173   3
 -10   3 -17 74.6798 26.5199   4
   3  10  19 44.4622 21.5631   3
  -3 -10  19 57.8211 17.4931   5
 -10   3 -19 43.0125 21.3725   4
  -3  10 -19 70.7538 24.6425   4
   3  10  21 17.2677 13.3234   3
  10   3  21 3.78077 15.1349   3
   4  10 -20 159.900 20.6700   4
  -4  10  18-3.57075 17.1861   3
  -4  10  16 341.076 40.6798   3
  -4  10  14 1131.01 80.4452   3
   4 -10  12 1703.01 99.8262   5
  -4  10  12 1720.38 112.314   3
   4  10 -10 3535.39 160.793   2
  -4  10  10 3458.36 179.208   3
   4  10  -8 5641.64 233.923   2
  -4 -10  -8 5927.18 310.474   1
  -4  10   8 6059.55 251.268   3
   4  10  -6 382.728 39.4618   2
   4 -10   6 394.552 44.7952   6
  -4 -10  -6 473.804 75.8719   1
  -4  10   6 377.649 45.2846   3
   4 -10   4 9902.52 374.561   6
   4 -10   4 10449.4 388.634   1
   4  10  -4 9979.79 368.255   2
  -4 -10  -4 9752.39 424.642   1
   4 -10   2 10724.8 399.836   6
  -4 -10  -2 10576.9 442.730   1
  -4  10   2 11019.7 398.527   3
 -10  -4   0 696.291 84.9795   1
  -4 -10   0 676.517 69.7464   1
  -4  10   0 771.554 49.4911   3
 -10   4  -2 10545.2 402.973   3
 -10  -4   2 11430.6 475.465   1
  -4  10  -2 10953.0 396.214   3
   4  10   4 9654.26 349.316   3
 -10  -4   4 9297.46 375.126   5
  -4 -10   4 9184.15 390.209   1
  -4 -10   4 8849.76 371.353   5
 -10  -4   4 9373.14 418.110   1
  -4  10  -4 9671.16 349.361   3
  -4  10  -6 759.699 51.5310   3
   4  10   6 744.781 56.4996   3
 -10  -4   6 678.318 72.3005   5
  -4 -10   6 681.436 68.7734   5
  -4 -10   6 597.256 69.4967   1
 -10  -4   6 688.390 88.1628   1
   4  10   8 5390.48 230.738   3
 -10  -4   8 5430.40 284.215   1
  -4 -10   8 5412.05 239.481   5
 -10  -4   8 5262.66 242.262   5
  -4 -10   8 5782.26 264.357   1
 -10  -4  10 3390.93 166.895   5
   4  10  10 3406.36 165.834   3
  -4 -10  10 3229.16 186.475   1
 -10  -4  10 2881.25 194.558   1
 -10  -4  12 2016.66 117.845   5
  -4 -10  12 2005.14 119.856   5
 -10  -4  12 2190.71 157.767   1
 -10   4 -12 2112.33 131.858   4
  -4 -10  12 1889.50 136.967   1
   4  10  12 2223.95 123.942   3
 -10  -4  14 1347.51 92.0228   5
  -4 -10  14 1567.23 96.1694   5
 -10  -4  14 1338.10 120.069   1
 -10   4 -14 1396.53 97.8179   4
   4  10  14 1544.26 95.0806   3
  -4 -10  16 284.856 39.1336   5
 -10   4 -16 227.618 37.9428   4
   4  10  18 22.1003 23.0884   3
  -4 -10  18 9.84243 18.8445   5
 -10   4 -18-4.71226 20.2869   4
   4  10  20 174.420 23.2168   3
 -10   4 -20 131.299 21.9938   4
  -4  10 -20 180.194 24.8929   4
  -5  10  17 447.145 39.8889   3
  -5  10  15 72.1885 29.4003   3
  -5  10  13 2191.88 124.938   3
   5 -10  11 4163.33 184.362   5
  -5  10  11 4187.28 207.858   3
   5  10  -9 2861.19 136.544   2
  -5  10   9 3071.55 159.053   3
   5 -10   7 6417.66 251.521   6
   5  10  -7 6305.48 246.098   2
  -5 -10  -7 5826.83 319.686   1
  -5  10   7 5960.51 260.312   3
   5 -10   5 10633.1 398.566   6
   5  10  -5 10632.8 392.417   2
  -5 -10  -5 10376.4 463.663   1
  -5  10   5 10892.8 406.071   3
   5 -10   3 905.735 59.4672   6
  -5 -10  -3 739.622 84.7424   1
   5 -10   3 851.608 65.3916   1
   5  10  -3 860.296 52.9624   2
  -5  10   3 747.525 56.3537   3
  -5 -10  -1 10840.5 450.262   1
 -10   5   1 11161.9 410.234   3
 -10  -5  -1 10599.0 473.389   1
  -5  10   1 10993.3 404.437   3
  -5 -10   1 11486.2 487.283   5
  -5  10  -1 12943.5 451.998   3
 -10   5  -1 12491.9 456.649   3
  -5 -10   1 11939.0 494.251   1
 -10  -5   1 12201.2 522.431   1
 -10  -5   3 814.813 93.5528   1
  -5 -10   3 925.239 81.5121   5
 -10   5  -3 874.143 62.0415   3
  -5  10  -3 907.259 57.6518   3
   5  10   5 10899.7 395.175   3
 -10  -5   5 11042.9 438.047   5
  -5 -10   5 10198.2 424.862   5
  -5  10  -5 10592.7 394.183   3
 -10  -5   5 10674.1 465.158   1
  -5 -10   5 10151.6 438.270   1
   5  10   7 5677.42 237.683   3
 -10  -5   7 6133.09 264.918   5
  -5 -10   7 5830.67 255.361   5
 -10  -5   7 5758.87 295.803   1
  -5  10  -7 5668.99 231.373   3
  -5 -10   7 5627.00 275.658   1
  -5 -10   9 3128.23 163.930   5
   5  10   9 3189.68 157.759   3
 -10  -5   9 3336.59 204.403   1
 -10  -5   9 3528.68 170.824   5
  -5 -10   9 2923.55 183.185   1
 -10  -5  11 4267.19 200.451   5
   5  10  11 4436.27 203.659   3
  -5 -10  11 3854.70 224.362   1
   5  10  13 2749.95 137.470   3
 -10  -5  13 2601.24 173.395   1
 -10   5 -13 2363.64 141.062   4
  -5 -10  13 2385.23 132.386   5
   5  10  15 42.2732 32.4785   3
 -10  -5  15 55.7060 29.8495   5
  -5 -10  15 36.7920 29.5730   5
 -10   5 -15 92.2854 32.8649   4
   5  10  17 466.413 47.3624   3
  -5 -10  17 541.748 47.3884   5
 -10   5 -17 552.597 49.5149   4
  -5 -10  19 264.845 27.4642   5
  10   5  19 237.072 31.1762   3
 -10   5 -19 190.434 27.4918   4
  -5  10 -19 265.789 30.8761   4
  -5  10 -21-1.11231 11.5102   4
   5  10  21 9.30337 11.5856   3
  -6  10  16 227.230 31.5314   3
  -6  10  14 262.155 41.1876   3
  -6  10  12 1665.47 110.508   3
   6  10 -10 1139.09 75.8103   2
  -6  10  10 1202.08 101.163   3
   6  10  -8 1855.44 96.9355   2
  -6  10   8 1747.66 114.095   3
   6 -10   6 936.821 65.6416   6
   6  10  -6 860.110 58.7163   2
  -6 -10  -6 818.595 108.431   1
  -6  10   6 914.368 71.3690   3
   6 -10   4 5657.51 227.339   6
   6  10  -4 5633.96 221.449   2
  -6 -10  -4 5748.07 294.842   1
  -6  10   4 5652.20 233.419   3
   6 -10   2 4693.96 201.351   6
  -6 -10  -2 4782.72 253.130   1
 -10   6   2 5200.52 211.619   3
  -6  10   2 5097.02 205.001   3
 -10  -6  -2 4696.87 270.114   1
   6  10  -2 5116.01 197.286   2
  -6 -10   0 2614.48 160.617   1
 -10   6   0 2632.23 125.300   3
 -10  -6   0 2561.79 176.871   1
  -6 -10   2 5077.26 241.945   1
 -10   6  -2 4856.99 202.739   3
  -6 -10   2 4564.10 242.529   5
 -10  -6   2 4719.83 259.102   1
  -6  10  -2 4855.34 197.280   3
 -10  -6   4 5825.69 266.113   5
  -6 -10   4 5128.96 253.806   5
 -10   6  -4 5249.85 225.471   3
 -10  -6   4 5609.83 287.108   1
  -6  10  -4 5592.58 221.390   3
 -10  -6   6 772.299 82.4342   5
  -6 -10   6 687.397 74.0529   5
 -10  -6   6 687.459 91.6031   1
   6  10   6 716.188 56.9104   3
  -6 -10   6 754.054 83.8047   1
  -6  10  -6 728.889 56.0475   3
   6  10   8 1710.32 100.951   3
  -6 -10   8 1698.36 111.032   5
 -10  -6   8 1643.26 139.198   1
 -10  -6   8 1705.80 115.724   5
  -6 -10   8 1526.27 126.390   1
 -10  -6  10 1132.94 88.0537   5
   6  10  10 1206.99 87.6328   3
  -6 -10  10 1232.29 111.061   1
  -6 -10  10 1060.97 85.5784   5
 -10  -6  12 2005.85 116.629   5
   6  10  12 2127.61 122.329   3
 -10  -6  12 2123.40 155.834   1
  -6 -10  12 1804.49 140.527   1
  -6 -10  14 439.104 49.2185   5
 -10   6 -14 340.429 50.5194   4
   6  10  14 326.571 49.2670   3
 -10  -6  16 265.291 39.0745   5
  -6 -10  16 263.417 37.2044   5
  10   6  16 308.557 39.2703   3
 -10   6 -16 259.584 38.5885   4
   6  10  16 281.516 41.4804   3
  -6 -10  18 1.87679 18.1796   5
   6  10  18 32.2060 22.4772   3
  10   6  18 40.1839 22.9851   3
 -10   6 -18 18.6397 20.4944   4
  -6  10 -18 22.8942 19.9352   4
  10   6  20 95.8697 18.9715   3
 -10   6 -20 84.9293 15.8810   4
  -6  10 -20 105.407 19.0788   4
  -7  10  15 84.1746 24.7770   3
  -7  10  13 321.276 47.8173   3
  -7  10  11 480.571 66.6993   3
  -7  10   9 940.915 91.5524   3
   7  10  -9 1057.15 69.2452   2
   7 -10   7 1873.85 98.0609   6
   7  10  -7 1566.56 89.8382   2
  -7  10   7 1836.27 115.459   3
   7  10  -5 848.217 56.0243   2
  -7 -10  -5 781.394 106.533   1
 -10   7   5 804.493 73.5778   3
   7 -10   5 853.918 60.9584   6
  -7  10   5 864.254 69.3937   3
  -7  10   3 179.318 33.7033   3
   7 -10   3 181.340 32.5122   6
  -7 -10  -3 157.646 58.0178   1
   7  10  -3 193.258 28.4221   2
 -10   7   3 139.025 35.0786   3
  -7  10   1 236.729 34.7197   3
  -7 -10  -1 214.145 55.7431   1
 -10  -7  -1 217.213 66.7078   1
 -10   7   1 255.301 37.7584   3
 -10   7  -1 225.932 38.6206   3
  -7 -10   1 170.665 47.6707   1
 -10  -7   1 291.304 68.4848   1
  -7  10  -3 154.376 33.3735   3
 -10  -7   3 255.534 64.4922   1
  -7 -10   3 135.937 59.6732   5
 -10   7  -3 129.022 33.6454   3
  -7 -10   3 97.1440 43.8549   1
 -10  -7   5 707.397 95.7197   1
  -7 -10   5 764.957 84.5643   5
 -10  -7   5 663.410 85.0733   5
  -7  10  -5 800.445 60.4024   3
  -7 -10   7 1715.31 115.479   5
   7  10   7 1642.12 94.1913   3
 -10  -7   7 1678.55 120.147   5
 -10  -7   7 1455.81 133.244   1
  -7  10  -7 1557.51 93.0636   3
  -7 -10   7 1522.00 126.825   1
 -10  -7   9 1101.17 95.1163   5
  -7 -10   9 1322.88 97.5321   5
 -10  -7   9 1352.31 125.199   1
  -7 -10   9 1267.91 116.260   1
   7  10   9 1345.29 90.0241   3
   7  10  11 427.065 60.5354   3
 -10  -7  11 428.177 58.7039   5
  -7 -10  11 431.436 56.2186   5
  -7 -10  11 416.231 70.1765   1
 -10  -7  11 394.064 73.0668   1
   7  10  13 374.991 49.7728   3
  10   7  13 325.390 47.9337   3
 -10  -7  13 364.327 48.2667   5
  -7  10 -15 146.830 32.1003   4
  -7 -10  15 141.056 34.5783   5
   7  10  15 162.324 37.1382   3
  10   7  15 75.2310 30.7788   3
 -10   7 -15 122.081 33.2489   4
   7  10  17 174.802 31.9359   3
 -10  -7  17 150.618 29.7571   5
  -7 -10  17 175.222 31.4731   5
  10   7  17 156.161 31.0116   3
 -10   7 -17 128.218 27.2915   4
  -7  10 -17 147.812 27.9937   4
  -7 -10  19 48.2887 16.7528   5
   7  10  19 33.0437 17.7088   3
  10   7  19 55.4934 18.7019   3
 -10   7 -19 55.6815 15.3603   4
  -7  10 -19 34.9517 15.9211   4
  -8  10  12 590.917 64.1131   3
  -8  10  10 1298.75 109.672   3
   8  10 -10 1285.35 80.2576   2
  -8  10   8 919.243 89.7961   3
   8  10  -8 963.287 64.8063   2
   8 -10   6 179.837 36.2630   6
 -10   8   6 183.569 50.4183   3
  -8  10   6 285.241 50.5129   3
   8  10  -6 218.009 33.0416   2
   8 -10   4 1362.89 81.7279   6
  10  -8   4 1435.73 78.8725   6
  -8 -10  -4 1395.75 146.158   1
   8  10  -4 1524.19 79.1945   2
 -10   8   4 1322.47 98.1068   3
  -8  10   4 1540.02 95.5142   3
 -10  -8  -2 1093.70 131.610   1
 -10   8   2 1189.60 80.6972   3
  -8 -10  -2 1113.11 118.495   1
  -8  10   2 946.073 70.8590   3
   8  10  -2 994.080 61.8296   2
  10   8  -2 1085.07 59.8079   2
  -8 -10   0 2015.94 156.748   1
 -10   8   0 2172.82 116.234   3
  -8  10   0 2191.54 111.394   3
 -10  -8   0 2088.08 172.316   1
 -10  -8   2 849.229 104.890   1
 -10   8  -2 996.709 70.9483   3
  -8 -10   2 982.236 102.559   1
  -8 -10   4 1122.18 109.642   5
 -10  -8   4 1218.02 117.599   5
 -10   8  -4 1287.70 84.9548   3
  -8  10  -4 1535.70 85.9731   3
 -10  -8   4 1304.09 128.065   1
  -8 -10   4 1403.95 118.903   1
  -8  10  -6 166.908 35.9525   3
 -10  -8   6 219.489 64.9282   1
 -10  -8   6 141.293 54.2915   5
  -8 -10   6 179.026 59.3134   5
 -10  -8   8 1142.70 97.1232   5
   8  10   8 974.511 72.5126   3
 -10  -8   8 972.064 110.650   1
  -8 -10   8 940.873 84.9207   5
  -8 -10   8 980.560 103.926   1
 -10  -8  10 1351.01 100.361   5
  -8 -10  10 1495.69 100.041   5
  10   8  10 1336.46 92.7595   3
  -8 -10  10 1436.00 128.076   1
   8  10  10 1352.00 93.4484   3
   8  10  12 804.830 71.4674   3
 -10  -8  12 738.135 68.3978   5
  -8 -10  12 839.831 70.8238   5
  10   8  12 824.619 68.6324   3
 -10  -8  14 392.706 45.8901   5
   8  10  14 422.718 49.2503   3
  10   8  14 342.137 43.8820   3
  -8  10 -14 421.409 46.2779   4
 -10  -8  16 2.41704 21.9355   5
   8  10  16 4.62426 23.6936   3
  10   8  16-9.15621 24.0252   3
 -10   8 -16-2.46379 21.3593   4
  -8  10 -16 6.97991 19.8920   4
  -8 -10  16 14.2362 23.8328   5
  -8 -10  18 55.8761 18.9499   5
   8  10  18 47.8172 19.9462   3
  10   8  18 80.4422 21.4711   3
  -8  10 -18 35.5737 17.6365   4
  10   8  20 21.7445 11.7598   3
   8  10  20 10.5252 9.91416   3
  -9  10  11 642.214 71.0225   3
  -9  10   9 285.049 59.9103   3
   9  10  -9 329.365 38.5833   2
   9 -10   7 2720.55 121.586   6
   9  10  -7 2495.36 115.757   2
  -9  10   7 2340.38 146.372   3
   9 -10   5 3274.39 150.396   6
  10  -9   5 3453.29 149.501   6
  10   9  -5 3331.70 143.004   2
   9  10  -5 3288.69 145.135   2
 -10   9   5 3139.97 176.860   3
  -9  10   5 3325.68 172.988   3
  -9 -10  -3 940.214 126.727   1
   9 -10   3 943.787 66.2328   6
 -10   9   3 1132.59 84.3800   3
  -9  10   3 1075.86 79.3958   3
  10   9  -3 932.919 58.1590   2
   9  10  -3 961.930 60.7454   2
  10  -9   3 914.347 64.6591   6
  -9 -10  -1 2686.48 202.049   1
 -10   9   1 3065.31 149.426   3
  -9  10   1 2971.45 145.641   3
   9  10  -1 2892.65 128.769   2
  10   9  -1 2798.79 126.363   2
 -10  -9  -1 3014.86 224.280   1
  -9 -10   1 2930.64 199.907   1
 -10   9  -1 3184.09 152.701   3
  -9  10  -1 3102.52 148.109   3
 -10  -9   1 2967.16 212.381   1
  -9  10  -3 1078.51 74.8912   3
  -9 -10   3 885.137 105.456   1
 -10   9  -3 1095.39 76.4274   3
 -10  -9   3 786.064 104.863   1
 -10  -9   5 2370.42 175.010   5
  -9 -10   5 2533.04 173.567   5
 -10   9  -5 3238.75 150.067   3
 -10  -9   5 3313.39 207.410   1
  -9 -10   5 2915.71 192.570   1
  -9 -10   7 2783.95 161.076   5
 -10  -9   7 2644.50 164.245   5
 -10  -9   7 2871.96 192.130   1
  -9 -10   9 246.767 61.3894   1
 -10  -9   9 287.917 57.5592   5
   9  10   9 261.270 42.6764   3
  10   9   9 243.107 41.8284   3
  -9 -10   9 265.415 51.1938   5
 -10  -9  11 964.233 79.5537   5
  -9 -10  11 950.857 78.1279   5
  10   9  11 901.779 75.5799   3
   9  10  11 994.010 77.6718   3
 -10  -9  13 48.6644 31.7578   5
  -9 -10  13 25.5723 30.7823   5
   9  10  13 30.6478 30.0020   3
  10   9  13 6.01121 28.7841   3
   9  10  15 385.229 42.9962   3
  10   9  15 441.511 43.6775   3
  -9 -10  17 168.543 26.1372   5
   9  10  17 139.913 25.1249   3
 -10  -9  17 151.455 27.0017   5
  10   9  17 151.094 25.7532   3
   9  10  19 11.9174 12.3581   3
  10   9  19 29.9023 13.4643   3
 -10  10  10 3355.58 181.665   3
  10  10  -8 3612.52 148.408   2
 -10  10   8 2483.08 176.399   3
  10  10  -6 201.180 32.0454   2
  10 -10   6 237.266 36.8032   6
 -10  10   6 133.701 50.3862   3
  10 -10   4 6604.38 258.948   6
  10  10  -4 6431.65 252.102   2
 -10  10   4 6239.67 284.434   3
  10 -10   2 6621.50 264.779   6
 -10  10   2 7142.25 285.586   3
 -10  10   0 13287.2 500.452   3
  10  10   0 13272.4 480.120   2
 -10 -10   0 12374.1 589.279   1
 -10  10  -2 7670.70 308.415   3
 -10 -10   2 7357.31 380.548   1
 -10  10  -4 6839.33 281.556   3
 -10 -10   4 6852.87 349.503   1
 -10 -10   6 95.7613 51.6100   1
 -10 -10   6 98.1816 53.2320   5
 -10 -10   8 4081.44 247.897   1
 -10 -10   8 4504.51 221.138   5
 -10 -10  10 5459.14 243.102   5
  10  10  10 5310.39 227.846   3
  10  10  12 66.4381 33.5794   3
 -10 -10  12 57.7067 31.2591   5
  10  10  14 850.016 60.8722   3
 -10 -10  14 847.599 63.2815   5
  10  10  16 696.512 48.6469   3
  10  10  18 18.2905 13.0346   3
 -11   0   1 4180.96 211.617   1
   0 -11  -1 3978.92 177.843   6
   0 -11  -1 4285.18 206.350   1
   0 -11   1 4049.09 178.641   6
   0  11  -1 3982.52 167.788   2
   0  11   1 4360.27 168.312   3
   0  11   1 4312.08 168.634   2
   0 -11   1 4388.14 204.448   1
   0  11  -3 44.8407 22.1040   2
   0 -11  -3-10.7590 27.9836   6
   0  11   3 5.97334 17.8711   3
 -11   0   3 93.9472 54.3893   1
   0 -11   3 82.1033 34.2591   1
   0 -11   3 64.8661 29.4257   6
   0 -11   5 6702.76 285.018   1
 -11   0   5 6840.64 326.499   1
   0  11  -5 6568.08 259.235   2
   0  11   5 6462.02 259.615   3
   0  11   7 2603.16 132.551   3
   0 -11   7 2511.41 144.971   1
 -11   0   7 2793.28 180.055   1
   0  11  -7 2726.20 129.696   2
   0  11   9 2834.58 150.168   3
 -11   0   9 3137.70 190.720   1
   0  11  -9 2923.76 145.622   2
   0 -11   9 2851.48 147.984   5
 -11   0  11 350.130 71.4995   1
   0 -11  11 408.558 58.6661   5
 -11   0 -11 305.083 53.6541   4
   0 -11  13 96.1438 36.6730   5
 -11   0 -13 231.449 53.0850   4
   0  11  13 134.651 40.4345   3
   0  11  15 1345.54 86.1957   3
 -11   0 -15 1277.14 92.7280   4
   0 -11  15 1357.38 82.8947   5
   0  11  17 173.844 32.3937   3
   0 -11  17 181.721 28.6561   5
 -11   0 -17 129.573 33.4689   4
   0  11  19 523.732 40.0444   3
   0  11  21 74.9376 12.2676   3
  11   0  21 26.2749 14.1921   3
   0  11 -21 36.0589 14.2395   4
  -1  11  20 166.451 20.9613   3
   1  11 -20 207.822 25.1290   4
  -1  11  18 14.1347 21.1986   3
  -1  11  16 60.4586 28.7431   3
   1 -11  16 30.6620 22.4945   5
  -1  11  14 2239.52 124.108   3
   1 -11  14 2351.85 121.461   5
 -11  -1 -14 2314.64 137.577   4
  -1  11  12 403.292 58.5521   3
   1 -11  12 353.104 52.2273   5
 -11  -1 -12 357.610 56.7544   4
 -11   1  12 316.054 66.5640   1
   1 -11  10 3641.10 171.531   5
 -11   1  10 3994.30 220.205   1
  -1  11   8 700.848 63.8367   3
 -11   1   8 698.185 91.9832   1
   1  11  -8 628.930 57.1630   2
   1  11  -6 410.859 43.9513   2
 -11   1   6 504.366 81.1485   1
   1 -11   6 435.223 52.5342   1
  -1  11   6 471.468 48.1192   3
 -11   1   4 5145.88 263.497   1
   1  11  -4 4897.09 197.436   2
   1 -11   4 4931.29 222.922   1
  -1  11   4 4752.89 198.174   3
   1 -11   2 3620.50 166.933   6
 -11   1   2 3902.19 203.400   1
   1 -11   2 4105.04 190.765   1
  -1 -11  -2 3668.92 170.382   6
   1  11  -2 4026.53 161.177   2
  -1  11   2 3889.86 157.836   2
  -1  11   2 4096.77 162.076   3
  -1 -11   0 13209.5 493.969   6
   1 -11   0 13340.7 520.067   1
   1 -11   0 13345.8 490.457   6
  -1  11   0 13366.5 479.710   2
  -1  11   0 13287.9 478.926   3
   1  11   0 13358.3 479.950   2
  -1 -11   0 13775.1 523.896   1
  -1 -11   2 3895.86 172.438   6
 -11  -1   2 4277.48 229.728   1
   1 -11  -2 3799.45 168.522   6
  -1 -11   2 4019.42 195.303   1
  -1  11  -2 3904.84 161.055   2
  -1  11  -2 3887.66 156.090   3
   1  11   2 3889.31 158.374   3
   1 -11  -4 4431.15 197.435   6
 -11  -1   4 4600.35 253.436   1
  -1 -11   4 4879.70 223.488   1
  -1  11  -4 4696.40 192.858   2
   1  11   4 4838.06 192.083   3
   1  11   6 593.221 53.4885   3
  -1 -11   6 590.477 64.0308   1
  -1  11  -6 578.039 50.8012   2
 -11  -1   6 520.432 80.4239   1
  -1 -11   8 502.543 57.8520   5
 -11  -1   8 510.256 79.3275   1
  -1 -11   8 540.472 63.7138   1
   1  11   8 588.538 58.9303   3
  -1  11  -8 515.436 53.9827   2
   1  11  10 3659.11 180.004   3
  -1 -11  10 3723.39 180.025   5
 -11  -1  10 3724.14 217.868   1
 -11  -1  12 329.338 64.8473   1
  -1 -11  12 275.786 48.4894   5
 -11   1 -12 344.138 59.3328   4
   1  11  14 2290.20 126.706   3
  -1 -11  14 2360.18 124.091   5
 -11   1 -14 2452.04 139.126   4
   1  11  16 33.7276 25.2326   3
  -1 -11  16 63.9033 26.8715   5
 -11   1 -16 37.3672 29.6896   4
   1  11  18 33.7710 23.2022   3
  -1 -11  18 47.6396 17.5694   5
 -11   1 -18 28.9014 21.8967   4
  -1  11 -20 148.741 23.4151   4
   1  11  20 114.074 19.9766   3
   2  11 -21 46.6535 12.3970   4
  -2  11  19 398.174 33.4110   3
  -2  11  17 73.7267 24.5338   3
  -2  11  15 223.866 39.0149   3
   2 -11  15 238.422 35.1409   5
  -2  11  13 539.301 56.8768   3
   2 -11  13 555.695 56.6040   5
   2 -11  11 2858.53 146.141   5
 -11   2  11 2820.01 183.777   1
  -2  11  11 2761.03 154.896   3
 -11   2   9 629.665 89.8190   1
  -2  11   9 665.600 67.0020   3
   2  11  -7 374.665 43.6168   2
 -11   2   7 486.410 80.2626   1
 -11   2   5 8313.22 396.015   1
   2 -11   5 8582.64 335.223   6
   2 -11   5 8635.74 350.147   1
   2  11  -5 8752.46 327.987   2
  -2  11   5 8699.04 332.059   3
 -11   2   3 1795.78 130.685   1
  -2 -11  -3 1605.44 122.527   1
   2  11  -3 1941.94 92.5768   2
   2 -11   3 1915.40 113.511   1
  -2  11   3 1921.04 94.1561   3
  -2 -11  -1 3673.06 171.792   6
   2 -11   1 4055.32 189.479   1
   2 -11   1 3638.45 164.148   6
   2  11  -1 3810.70 156.204   2
  -2  11   1 3913.84 157.916   3
   2 -11  -1 4250.18 183.358   6
 -11  -2   1 4643.33 251.103   1
  -2 -11   1 4155.51 210.489   1
  -2  11  -1 4255.96 175.049   2
  -2  11  -1 4509.55 174.447   3
   2 -11  -3 2033.32 105.652   6
 -11  -2   3 1983.50 151.819   1
  -2 -11   3 1956.63 127.132   1
  -2  11  -3 2102.95 100.487   2
  -2  11  -3 1976.21 93.0314   3
   2  11   3 2062.09 96.3824   3
   2  11   5 8349.39 305.121   3
 -11  -2   5 7796.18 319.259   5
 -11  -2   5 7566.79 366.748   1
  -2  11  -5 7611.96 303.821   2
  -2  11  -5 7785.55 293.595   3
  -2 -11   5 7957.92 337.517   1
  -2 -11   7 196.513 44.7329   5
 -11  -2   7 261.907 66.9897   1
   2  11   7 206.652 38.8741   3
 -11  -2   7 247.119 55.1866   5
  -2 -11   7 189.527 44.9514   1
  -2  11  -7 187.046 38.1484   2
 -11  -2   9 645.779 70.1864   5
   2  11   9 583.916 63.5395   3
  -2 -11   9 619.061 68.0031   5
  -2 -11   9 605.111 71.2247   1
 -11  -2   9 707.976 92.1928   1
   2  11  11 2986.53 160.063   3
 -11  -2  11 3062.60 158.026   5
  -2 -11  11 3179.46 160.183   5
 -11  -2  11 3387.92 202.217   1
  -2 -11  13 701.093 64.1276   5
 -11   2 -13 510.680 67.3836   4
   2  11  13 569.259 61.6026   3
  -2 -11  15 284.774 41.2272   5
 -11   2 -15 264.116 46.2450   4
   2  11  17 56.5572 26.5987   3
  -2 -11  17 61.8015 25.0194   5
 -11   2 -17 59.4586 27.6286   4
   2  11  19 363.882 34.4585   3
   2  11  21 35.8215 12.1577   3
  11   2  21 34.6649 14.5065   3
   3  11 -20 10.0301 13.4071   4
  -3  11  18 250.431 29.8144   3
  -3  11  16 154.519 30.4743   3
  -3  11  14 126.208 33.2652   3
   3 -11  14 113.830 30.5527   5
   3 -11  12 728.827 64.8854   5
  -3  11  12 714.014 71.3343   3
  -3 -11 -10 1870.90 157.963   1
   3 -11  10 1657.40 101.857   5
   3  11 -10 1720.27 100.559   2
  -3  11  10 1579.75 110.174   3
 -11   3   8 1118.32 116.680   1
  -3 -11  -8 1156.40 118.317   1
   3  11  -8 1230.97 77.5618   2
  -3  11   8 1123.73 83.2719   3
   3 -11   6 2172.46 113.209   6
 -11   3   6 2158.27 160.920   1
  -3 -11  -6 1960.04 152.498   1
  -3 -11  -4 5505.47 261.900   1
 -11   3   4 4936.19 253.532   1
   3 -11   4 5001.99 210.564   6
   3 -11   4 5020.79 224.702   1
   3  11  -4 4979.29 202.450   2
  -3  11   4 5108.50 208.299   3
   3 -11   2 3320.52 168.256   1
   3  11  -2 3351.51 143.111   2
  -3 -11  -2 3364.88 185.027   1
  -3  11   2 3486.25 147.015   3
 -11  -3   0 7470.54 368.531   1
   3 -11   0 7601.30 297.420   6
  -3  11   0 7810.05 290.600   3
  -3 -11   2 2990.43 167.062   1
 -11  -3   2 2878.44 190.981   1
  -3  11  -2 3114.93 131.896   3
   3  11   4 5015.78 196.534   3
  -3 -11   4 4730.30 232.422   1
 -11  -3   4 4445.47 258.581   1
  -3  11  -4 4526.09 199.456   2
  -3  11  -4 5018.49 194.376   3
 -11  -3   4 5003.94 214.169   5
   3  11   6 2687.30 127.253   3
  -3 -11   6 2641.03 139.633   5
 -11  -3   6 2667.90 150.367   5
  -3 -11   6 2460.36 152.685   1
 -11  -3   6 2550.61 176.236   1
  -3  11  -6 2600.44 129.178   2
  -3  11  -6 2550.45 116.980   3
  -3 -11   8 955.061 91.4797   1
   3  11   8 1105.75 80.1363   3
  -3 -11   8 1210.03 89.9400   5
 -11  -3   8 1240.20 95.6190   5
 -11  -3   8 1294.43 119.842   1
   3  11  10 1859.42 113.040   3
 -11  -3  10 1854.79 115.069   5
 -11  -3  10 1799.85 145.796   1
  -3 -11  10 1726.03 112.005   5
  -3 -11  10 1859.56 129.126   1
   3  11  12 676.649 67.7241   3
  -3 -11  12 607.412 63.9763   5
 -11   3 -12 709.606 79.3394   4
 -11  -3  12 647.961 64.0606   5
   3  11  14 153.414 37.3402   3
  -3 -11  14 190.633 39.2960   5
 -11   3 -14 154.354 41.4251   4
  -3 -11  16 163.884 33.2675   5
 -11   3 -16 146.090 35.4098   4
   3  11  18 291.040 34.3179   3
  -3 -11  18 310.078 32.2009   5
 -11   3 -18 254.979 34.6457   4
   3  11  20 42.1675 16.3582   3
  -3  11 -20 24.1270 15.5675   4
  -4  11  19 305.609 25.7541   3
  -4  11  17 261.736 32.1273   3
  -4  11  15 136.786 33.6662   3
   4 -11  13 2120.48 113.207   5
  -4  11  13 2097.73 119.315   3
   4 -11  11 1501.47 94.8500   5
  -4  11  11 1500.18 108.038   3
  -4  11   9 136.297 45.4101   3
  -4 -11  -9 180.248 67.5810   1
   4  11  -9 157.120 36.1710   2
  -4 -11  -7 7842.63 381.654   1
   4  11  -7 8097.89 305.336   2
  -4  11   7 7409.22 314.317   3
   4 -11   5 11606.9 428.028   6
   4  11  -5 11311.1 420.185   2
  -4 -11  -5 11031.8 486.902   1
   4 -11   3 2678.02 128.758   6
  -4 -11  -3 2649.51 165.306   1
  -4  11   3 2669.38 125.357   3
   4 -11   3 2728.35 140.837   1
  -4 -11  -1 10565.3 442.779   1
  -4  11   1 10863.2 396.293   3
   4  11  -1 10589.9 391.539   2
 -11  -4   1 10946.4 488.935   1
 -11   4  -1 11077.9 416.913   3
  -4  11  -1 11118.4 407.774   3
  -4 -11   3 3098.38 171.746   1
  -4 -11   3 3199.58 160.592   5
 -11  -4   3 2843.91 193.327   1
  -4  11  -3 2996.17 133.303   3
   4  11   5 11128.6 400.148   3
 -11  -4   5 11052.0 431.528   5
  -4 -11   5 10693.3 446.349   1
  -4 -11   5 10244.8 420.569   5
  -4  11  -5 10120.6 406.552   2
 -11  -4   5 10208.0 468.105   1
  -4  11  -5 10979.7 397.107   3
   4  11   7 6659.59 263.397   3
  -4 -11   7 6308.92 297.377   1
  -4 -11   7 6410.52 277.821   5
 -11  -4   7 6133.93 285.106   5
 -11  -4   7 6772.63 328.350   1
  -4  11  -7 6267.55 251.386   3
 -11  -4   9 120.370 56.5549   1
   4  11   9 100.460 41.3374   3
  -4 -11   9 158.763 42.9993   5
  -4 -11   9 136.933 47.8503   1
 -11  -4   9 86.5258 41.3754   5
   4  11  11 1476.43 102.526   3
 -11  -4  11 1319.87 96.1570   5
 -11  -4  11 1463.21 128.305   1
  -4 -11  11 1267.52 111.041   1
  -4 -11  11 1423.26 95.9401   5
   4  11  13 1948.46 116.189   3
 -11  -4  13 1971.22 115.962   5
  -4 -11  13 2020.06 114.051   5
 -11   4 -13 1966.44 126.532   4
  -4 -11  15 119.317 31.0099   5
   4  11  15 53.4813 31.1818   3
 -11   4 -15 92.2377 35.4428   4
  -4 -11  17 252.991 33.5151   5
 -11   4 -17 273.216 37.0396   4
  -4 -11  19 300.869 27.0012   5
   4  11  19 261.797 29.7000   3
  11   4  19 260.201 29.8560   3
 -11   4 -19 233.565 27.4421   4
  -4  11 -19 348.222 32.9189   4
  -5  11  18 74.5828 17.1205   3
  -5  11  16 934.100 62.0312   3
  -5  11  14 911.497 70.6047   3
   5 -11  12 486.426 50.8118   5
  -5  11  12 357.252 55.4532   3
   5  11 -10 4783.04 202.868   2
  -5  11  10 4410.13 218.989   3
   5  11  -8 4875.40 205.618   2
  -5 -11  -8 4474.86 279.824   1
  -5  11   8 5031.70 225.094   3
  -5 -11  -6 748.934 97.6889   1
   5 -11   6 628.852 58.2556   6
  -5  11   6 585.131 58.9825   3
   5  11  -6 699.014 55.0806   2
   5 -11   4 14173.4 517.040   6
  -5 -11  -4 13973.8 584.592   1
   5  11  -4 13993.0 509.451   2
   5 -11   2 13821.8 511.959   1
  -5 -11  -2 14127.2 551.117   1
   5 -11   2 13235.9 491.674   6
  -5  11   2 12719.8 488.862   3
   5  11  -2 13538.8 483.928   2
 -11  -5   0 433.676 82.9654   1
 -11   5   0 574.061 50.6715   3
  -5 -11   0 629.202 73.5300   1
  -5  11   0 500.673 44.6300   3
  -5 -11   2 13221.5 539.327   5
 -11  -5   2 14151.3 594.127   1
 -11   5  -2 13248.0 509.993   3
  -5  11  -2 14441.3 503.525   3
  -5 -11   4 14018.1 558.537   1
 -11  -5   4 13983.2 539.485   5
  -5 -11   4 13869.5 542.250   5
 -11  -5   4 12713.8 580.582   1
  -5  11  -4 14284.0 509.202   3
   5  11   6 817.992 59.4423   3
 -11  -5   6 668.731 82.0838   5
  -5 -11   6 687.722 75.1764   5
  -5  11  -6 706.328 55.6378   3
  -5 -11   6 769.817 83.2972   1
 -11  -5   6 785.064 98.2277   1
   5  11   8 4485.02 197.975   3
 -11  -5   8 4503.98 217.982   5
  -5 -11   8 4407.02 209.881   5
 -11  -5   8 4518.84 256.120   1
  -5 -11   8 4207.79 232.047   1
   5  11  10 4271.07 196.604   3
 -11  -5  10 4061.70 201.326   5
  -5 -11  10 4029.55 195.998   5
 -11  -5  10 4182.93 244.575   1
  -5 -11  10 4234.83 229.403   1
  -5 -11  12 491.935 68.3858   1
   5  11  12 486.458 59.5641   3
 -11  -5  12 421.243 55.8926   5
  -5 -11  12 376.008 52.6290   5
   5  11  14 1082.72 76.7733   3
  -5 -11  14 903.575 73.1712   5
   5  11  16 904.439 65.2389   3
  -5 -11  16 1002.58 66.7776   5
 -11   5 -16 876.891 67.4432   4
  -5 -11  18 45.2533 19.0291   5
   5  11  18 32.2961 21.0212   3
  11   5  18 78.7617 24.6589   3
 -11   5 -18 55.2980 21.3821   4
  -5  11 -18 72.5847 21.9217   4
   5  11  20 188.296 21.8874   3
  11   5  20 191.108 22.4804   3
  -5  11 -20 209.917 22.5908   4
  -6  11  15 68.0228 24.3601   3
  -6  11  13 1111.06 80.1869   3
   6 -11  11 2352.89 120.624   5
  -6  11  11 2141.30 137.027   3
   6  11  -9 507.642 52.0658   2
  -6  11   9 611.616 72.5889   3
  -6 -11  -7 3085.51 230.265   1
   6 -11   7 3654.55 163.767   6
   6  11  -7 3621.60 158.419   2
  -6  11   7 3472.16 173.446   3
  -6 -11  -5 3937.16 244.044   1
   6 -11   5 3964.65 175.425   6
   6  11  -5 3887.40 168.726   2
  -6  11   5 4148.81 184.153   3
   6 -11   3 154.603 34.4295   6
  -6  11   3 239.157 35.9545   3
  -6 -11  -3 287.196 64.8580   1
   6  11  -3 217.109 31.1381   2
  -6 -11  -1 4722.09 242.495   1
   6 -11   1 4604.99 191.629   6
 -11   6   1 4386.35 197.757   3
   6  11  -1 4461.60 183.537   2
 -11   6  -1 4797.21 198.837   3
 -11  -6   1 4266.06 263.519   1
  -6  11  -1 4442.89 188.567   3
  -6 -11   1 4305.83 232.412   1
 -11  -6   3 215.564 62.7963   1
  -6 -11   3 145.776 49.3813   1
  -6  11  -3 202.717 33.6236   3
  -6 -11   3 170.153 60.4128   5
 -11   6  -3 184.766 36.3144   3
 -11  -6   5 4387.68 228.108   5
 -11  -6   5 4035.93 243.199   1
  -6 -11   5 4172.57 224.178   1
  -6 -11   5 3931.20 209.042   5
  -6  11  -5 4184.32 179.561   3
   6  11   7 2958.50 142.565   3
  -6 -11   7 2807.30 158.427   5
 -11  -6   7 3053.97 199.426   1
  -6  11  -7 3059.33 140.924   3
 -11  -6   7 2851.97 169.490   5
  -6 -11   7 2843.55 180.302   1
  -6 -11   9 455.617 72.0666   1
 -11  -6   9 566.736 69.3741   5
  -6 -11   9 536.752 64.3684   5
   6  11   9 520.406 59.5596   3
 -11  -6   9 392.720 77.4077   1
   6  11  11 2621.03 141.041   3
 -11  -6  11 2581.37 139.519   5
  -6 -11  11 2379.38 165.115   1
  -6 -11  11 2433.76 135.504   5
   6  11  13 1030.41 79.1148   3
 -11  -6  13 1127.53 81.0651   5
  -6 -11  13 937.306 73.8510   5
   6  11  15 64.3265 28.1198   3
  11   6  15 28.1469 24.6616   3
  -6 -11  15 22.5566 25.4581   5
   6  11  17 233.028 33.3407   3
  11   6  17 287.843 34.3219   3
 -11   6 -17 209.280 31.6870   4
  -6  11 -17 314.908 35.2188   4
  -6 -11  17 299.752 32.8636   5
   6  11  19 301.648 28.8363   3
  -6 -11  19 284.493 26.0191   5
  11   6  19 333.567 30.2906   3
  -6  11 -19 253.990 26.6461   4
  -7  11  14 190.201 34.6605   3
  -7  11  12 346.503 50.0567   3
  -7  11  10 711.128 78.9046   3
   7  11 -10 699.323 58.2929   2
   7  11  -8 82.3577 30.6116   2
  -7  11   8 69.4123 42.5995   3
   7  11  -6 63.8687 27.1415   2
   7 -11   6 44.4056 33.1349   6
  -7  11   6 46.8262 37.8174   3
  -7 -11  -6 77.8749 59.7605   1
   7 -11   4 146.344 35.5044   6
  -7  11   4 82.2502 34.0878   3
   7  11  -4 101.026 28.2436   2
  -7 -11  -4 163.069 63.1884   1
 -11   7   4 106.528 38.1254   3
   7 -11   2 749.826 60.7084   6
  -7 -11  -2 754.443 96.1779   1
 -11   7   2 772.974 68.6286   3
  -7  11   2 783.335 61.6882   3
   7  11  -2 888.962 57.1713   2
  -7 -11   0 1501.05 126.336   1
 -11   7   0 1644.40 97.5690   3
 -11  -7   0 1385.45 143.357   1
  -7 -11   2 844.206 90.3904   1
 -11  -7   2 803.101 105.827   1
 -11   7  -2 813.616 66.4541   3
  -7  11  -2 797.046 60.5292   3
  -7  11  -4 298.013 41.7452   3
  -7 -11   4 185.552 61.3312   5
 -11  -7   4 294.695 72.4138   1
  -7 -11   4 347.967 63.4934   1
 -11  -7   6 88.2963 53.7928   1
 -11  -7   6 81.9137 53.5299   5
  -7 -11   6 75.1831 50.8975   5
  -7 -11   6 57.8239 45.2553   1
  -7  11  -6 41.6665 29.3492   3
   7  11   8 74.6757 35.0507   3
 -11  -7   8 42.9521 46.2531   5
  -7 -11   8 37.2696 43.4767   1
  -7 -11   8 8.85323 41.6833   5
 -11  -7   8 69.4462 54.3198   1
 -11  -7  10 607.378 68.2946   5
  -7 -11  10 598.640 63.1665   5
   7  11  10 482.666 57.8770   3
  -7 -11  10 464.027 75.9639   1
 -11  -7  10 663.784 91.6600   1
 -11  -7  12 402.557 55.3844   5
   7  11  12 431.783 56.7554   3
  -7 -11  12 488.621 55.2993   5
  11   7  12 471.302 53.8929   3
 -11  -7  14 253.058 43.0489   5
   7  11  14 303.491 44.0906   3
  11   7  14 261.440 40.5253   3
  -7 -11  16 134.295 28.5934   5
   7  11  16 138.883 29.6953   3
  11   7  16 130.151 28.3514   3
  -7  11 -16 92.6990 26.9766   4
  -7 -11  18 54.3618 18.6679   5
   7  11  18 14.3295 18.2985   3
  11   7  18 21.8330 19.0088   3
  -7  11 -18 18.0743 15.4600   4
  -8  11  13 46.3201 29.2671   3
  -8  11  11 395.783 58.8008   3
  -8  11   9 276.299 57.0245   3
   8  11  -9 197.042 34.8010   2
   8 -11   7 842.607 64.1459   6
  -8  11   7 737.087 76.6330   3
   8  11  -7 754.265 57.8649   2
  -8 -11  -5 1826.70 176.624   1
   8  11  -5 2154.41 104.509   2
   8 -11   5 2106.13 110.559   6
 -11   8   5 1746.14 128.796   3
  -8  11   5 2174.96 124.866   3
  -8 -11  -3 2309.96 192.121   1
   8 -11   3 2713.59 130.077   6
 -11   8   3 2882.09 152.896   3
   8  11  -3 2652.39 123.712   2
  -8  11   3 2725.77 137.769   3
  -8 -11  -1 1377.13 133.521   1
 -11  -8  -1 1390.15 155.225   1
 -11   8   1 1551.42 100.647   3
   8 -11   1 1524.59 88.8511   6
  -8  11   1 1508.03 91.1820   3
   8  11  -1 1565.91 82.3843   2
  11   8  -1 1458.06 75.2674   2
  -8 -11   1 1495.24 132.191   1
 -11   8  -1 1403.14 92.0388   3
 -11  -8   1 1311.71 143.299   1
 -11   8  -3 2728.46 137.829   3
  -8 -11   3 2685.56 174.232   1
  -8  11  -3 2748.98 131.248   3
 -11  -8   3 2792.49 198.960   1
  -8 -11   5 2336.19 155.386   5
 -11  -8   5 2481.64 187.999   1
  -8  11  -5 2731.98 131.883   3
  -8 -11   5 2460.16 168.854   1
 -11  -8   7 980.044 113.516   1
 -11  -8   7 905.576 97.4674   5
  -8 -11   7 739.680 93.0648   1
  -8 -11   7 1104.43 94.3577   5
  -8 -11   9 205.735 56.7480   1
 -11  -8   9 219.597 56.1204   5
  -8 -11   9 206.340 48.2249   5
   8  11   9 278.736 42.3906   3
 -11  -8   9 217.390 64.7110   1
 -11  -8  11 349.188 52.9565   5
  -8 -11  11 294.537 47.5876   5
   8  11  11 274.962 45.5635   3
  11   8  11 377.196 48.9266   3
 -11  -8  13 59.5429 33.2447   5
  -8 -11  13 12.5529 29.0301   5
   8  11  13 9.31503 30.8878   3
  11   8  13 52.2727 28.5891   3
 -11  -8  15 311.634 38.1201   5
  11   8  15 216.394 33.9050   3
  -8  11 -15 247.740 33.0796   4
   8  11  15 174.499 34.1844   3
  -8 -11  17 123.922 24.6904   5
   8  11  17 156.075 26.1264   3
  11   8  17 161.380 25.0505   3
  -8  11 -17 125.261 21.4252   4
   8  11  19 66.2648 14.7655   3
  11   8  19 65.9700 14.0117   3
  -9  11  12 41.0119 29.6609   3
  -9  11  10 1722.25 119.871   3
   9  11  -8 1597.09 90.1033   2
  -9  11   8 1583.42 117.727   3
   9 -11   6 1020.60 70.6886   6
   9  11  -6 1006.65 66.1498   2
  -9  11   6 1172.02 92.5067   3
   9 -11   4 447.340 48.7059   6
   9  11  -4 421.512 42.5664   2
 -11   9   4 414.864 65.9096   3
  11  -9   4 456.496 45.1626   6
  -9  11   4 440.847 57.4075   3
   9 -11   2 2227.94 118.004   6
  -9 -11  -2 2086.06 184.847   1
 -11   9   2 2695.78 143.909   3
  -9  11   2 2606.11 131.427   3
  11   9  -2 2208.06 106.297   2
   9  11  -2 2322.88 112.126   2
  -9 -11   0 10116.4 473.651   1
 -11   9   0 10303.5 406.540   3
  -9  11   0 10713.2 398.575   3
 -11  -9   0 9365.85 498.454   1
   9  11   0 10375.3 382.005   2
  11   9   0 9889.71 376.376   2
  -9 -11   2 2750.42 192.188   1
 -11   9  -2 2976.64 148.347   3
  -9  11  -2 2704.64 140.994   3
 -11  -9   2 3066.67 220.083   1
 -11   9  -4 517.339 59.0612   3
 -11  -9   4 467.793 88.6929   1
  -9 -11   4 250.657 68.6242   5
  -9 -11   4 515.535 81.3863   1
 -11  -9   6 650.898 89.2166   5
  -9 -11   6 789.615 89.8303   5
  -9 -11   6 827.644 100.036   1
  -9 -11   8 1765.13 119.684   5
 -11  -9   8 1673.87 145.853   1
  -9 -11   8 1477.10 136.264   1
 -11  -9   8 1992.84 132.411   5
   9  11  10 1907.52 108.179   3
 -11  -9  10 2080.61 127.237   5
  -9 -11  10 1870.50 117.456   5
 -11  -9  12 136.168 38.2728   5
   9  11  12 154.755 37.4433   3
  11   9  12 119.298 36.8854   3
  -9 -11  12 138.353 37.3580   5
   9  11  14 519.518 48.3682   3
 -11  -9  14 556.737 51.0808   5
  11   9  14 525.515 49.4650   3
  -9 -11  14 523.873 48.4157   5
   9  11  16 178.391 27.3016   3
  11   9  16 179.421 27.6225   3
  -9 -11  18 29.2917 14.1873   5
   9  11  18 21.5108 13.6545   3
  11   9  18 7.65452 12.2205   3
 -10  11  11 1846.09 111.331   3
 -10  11   9 238.906 54.8190   3
  10  11  -9 350.378 38.9818   2
  10  11  -7 3802.28 143.340   2
 -10  11   7 3333.84 180.004   3
  11 -10   5 9323.81 345.070   6
  10 -11   5 9046.58 345.883   6
  11  10  -5 8973.76 338.794   2
  10  11  -5 9180.17 341.815   2
 -11  10   5 7758.94 379.300   3
 -10  11   5 8816.26 376.134   3
  10 -11   3 1357.14 83.4556   6
  11 -10   3 1327.82 81.9656   6
 -11  10   3 1421.37 107.366   3
  11  10  -3 1392.14 76.6617   2
 -10  11   3 1324.81 98.8610   3
  10  11  -3 1405.86 78.7656   2
 -10 -11  -1 7471.85 408.836   1
  10 -11   1 7657.60 306.898   6
 -11  10   1 8425.97 331.745   3
 -10  11   1 8042.53 322.720   3
  11  10  -1 7763.95 297.592   2
  10  11  -1 7627.72 299.520   2
 -11  10  -1 7339.51 298.668   3
 -10  11  -1 7141.19 294.894   3
 -11 -10   1 6887.74 384.590   1
 -10 -11   1 6566.67 366.413   1
 -11 -10   3 1270.44 137.760   1
 -11  10  -3 1445.64 94.9227   3
 -10  11  -3 1493.48 94.3521   3
 -10 -11   3 1496.20 139.514   1
 -11 -10   5 8695.89 332.496   1
 -10 -11   5 8737.66 319.076   1
 -10 -11   7 3664.82 196.763   5
 -11 -10   7 3206.74 193.236   5
 -11 -10   7 3640.90 228.314   1
 -10 -11   7 3849.27 227.517   1
 -11 -10   9 319.962 56.1552   5
 -10 -11   9 399.541 56.6728   5
  10  11  11 2199.03 113.410   3
 -11 -10  11 2030.99 120.392   5
 -10 -11  11 2125.24 118.791   5
  10  11  13 884.245 63.0466   3
  11  10  13 912.589 62.0989   3
 -10 -11  13 836.094 62.6613   5
 -11 -10  13 734.631 60.9818   5
  10  11  15 599.329 44.9823   3
  11  10  15 651.646 46.0436   3
 -10 -11  15 583.543 46.3924   5
 -11 -10  15 534.566 45.0564   5
  10  11  17 377.384 28.5869   3
  11  10  17 345.939 27.8574   3
 -11  11   8 2087.27 143.336   3
  11  11  -6 547.287 46.1178   2
 -11  11   6 326.104 63.3456   3
  11 -11   4 6379.77 251.906   6
  11  11  -4 6117.78 244.817   2
 -11  11   4 6060.92 283.003   3
  11 -11   2 4233.25 185.389   6
 -11  11   2 4436.13 209.192   3
  11  11  -2 4170.01 177.926   2
 -11  11   0 8049.08 330.241   3
 -11 -11   0 7235.90 414.773   1
  11  11   0 8001.93 304.261   2
 -11  11  -2 5135.89 226.934   3
 -11 -11   2 4802.74 296.907   1
 -11  11  -4 6070.45 258.671   3
 -11 -11   4 5954.53 327.622   1
 -11 -11   6 334.639 65.1171   5
 -11 -11   8 2878.97 164.237   5
 -11 -11  10 2718.21 144.151   5
 -11 -11  12 117.330 31.9230   5
  11  11  14 1592.92 80.2792   3
 -11 -11  14 1601.61 84.0065   5
  11  11  16 389.576 29.2417   3
 -11 -11  16 537.842 36.3217   5
   0 -12   0 28830.9 1048.38   1
   0 -12   0 27831.1 1013.74   6
   0  12   0 28798.0 1000.81   2
   0  12   0 28840.9 996.851   3
   0 -12  -2 1230.81 82.0359   6
   0 -12   2 1306.88 84.2277   6
 -12   0   2 1172.20 108.572   1
   0 -12   2 1298.14 98.9249   1
   0  12  -2 1308.42 73.4465   2
   0 -12  -2 1234.91 103.057   1
   0  12   2 1322.76 71.5925   2
   0  12   2 1282.49 71.2748   3
   0  12   4 458.499 43.8959   3
 -12   0   4 493.795 84.9209   1
   0 -12  -4 484.408 54.6830   6
   0  12  -4 512.912 47.8383   2
   0 -12   4 500.276 61.1943   1
   0 -12   6 7883.69 331.970   1
 -12   0   6 7810.03 370.645   1
   0  12  -6 7525.14 302.447   2
   0  12   6 7750.46 305.750   3
   0  12   8 322.757 47.5222   3
 -12   0   8 328.981 70.9060   1
   0 -12   8 213.517 45.7854   5
   0  12  -8 349.672 49.5324   2
   0  12  10 1045.60 85.9057   3
   0 -12  10 1181.77 88.3166   5
 -12   0  10 1094.75 114.619   1
   0 -12  12 196.248 42.3992   5
 -12   0  12 201.781 58.1580   1
 -12   0 -12 212.674 46.9993   4
   0 -12  14 720.405 62.9634   5
   0  12  14 763.690 64.8494   3
   0  12  16-25.7874 27.3175   3
   0 -12  16 13.9501 22.2558   5
   0  12  18 233.377 30.5220   3
   0  12  20 42.3801 13.1133   3
   0  12 -20 42.7406 15.1669   4
  -1  12  19 433.029 33.7509   3
  -1  12  17 86.6454 26.3545   3
  -1  12  15 317.549 44.5242   3
   1 -12  15 420.382 44.7853   5
   1 -12  13 794.866 67.1851   5
  -1  12  13 695.029 66.9260   3
 -12   1  11 2709.73 187.218   1
   1 -12  11 3123.01 156.340   5
  -1  12   9 520.397 62.2571   3
 -12   1   9 605.080 86.7843   1
   1 -12   9 584.371 63.7493   5
   1  12  -9 528.015 55.5354   2
   1 -12   7 848.717 75.8193   1
 -12   1   7 664.017 93.2093   1
   1  12  -7 835.032 64.7532   2
  -1  12   7 767.047 67.2149   3
 -12   1   5 12817.1 541.104   1
   1 -12   5 12364.0 483.392   1
   1  12  -5 12350.0 454.940   2
  -1  12   5 11839.4 454.354   3
   1 -12   3 4185.68 183.413   6
  -1 -12  -3 3755.34 183.077   6
 -12   1   3 4366.44 228.372   1
   1 -12   3 4191.25 202.145   1
   1  12  -3 3965.11 170.982   2
  -1  12   3 4203.13 172.817   3
  -1 -12  -1 9549.25 416.971   1
  -1 -12  -1 9931.42 387.497   6
   1 -12   1 10034.1 383.773   6
   1  12  -1 10318.0 372.272   2
  -1  12   1 9918.63 369.813   2
  -1  12   1 10168.4 370.668   3
   1 -12   1 9771.64 409.590   1
   1 -12  -1 9847.50 377.386   6
   1 -12  -1 9899.85 410.462   1
  -1 -12   1 10409.2 412.127   1
  -1  12  -1 9722.07 364.794   2
  -1  12  -1 9733.79 360.121   3
   1  12   1 9734.71 359.960   3
   1  12   1 9752.53 363.423   2
  -1 -12   1 9901.68 380.379   6
   1 -12  -3 4415.05 193.536   6
 -12  -1   3 4512.36 259.381   1
  -1 -12   3 4496.65 218.423   1
  -1  12  -3 4589.54 185.142   2
  -1  12  -3 4133.85 173.020   3
   1  12   3 4342.45 179.111   3
  -1 -12   5 12049.7 473.058   1
 -12  -1   5 11551.5 512.476   1
  -1  12  -5 11477.8 436.756   2
   1 -12  -5 11402.3 443.736   6
   1  12   5 11959.0 436.395   3
  -1 -12   7 656.496 72.8387   1
 -12  -1   7 607.956 90.7539   1
  -1  12  -7 722.093 61.8662   2
   1  12   7 694.561 63.3511   3
   1  12   9 476.951 60.2261   3
  -1 -12   9 422.921 59.4823   5
 -12  -1   9 406.803 75.1004   1
   1  12  11 3205.74 168.543   3
  -1 -12  11 3300.08 166.330   5
 -12  -1  11 3252.04 203.986   1
  -1 -12  13 675.646 65.3173   5
 -12   1 -13 709.180 77.3490   4
   1  12  15 352.138 44.2563   3
  -1 -12  15 338.982 43.8447   5
 -12   1 -15 308.473 49.0370   4
  -1 -12  17 112.043 25.2299   5
   1  12  17 91.0938 26.8981   3
   1  12  19 377.578 32.2731   3
   2  12 -20 10.2910 12.3924   4
  -2  12  18 466.362 37.6693   3
  -2  12  16 153.319 30.6567   3
  -2  12  14 346.654 47.7534   3
   2 -12  14 429.557 47.5050   5
   2 -12  12 1258.22 87.3251   5
  -2  12  12 1185.50 90.5532   3
 -12   2  10 2676.25 177.448   1
   2 -12  10 2509.02 135.380   5
  -2  12  10 2287.05 136.273   3
 -12   2   8 1586.17 136.020   1
   2  12  -8 1364.91 88.8270   2
 -12   2   6 10459.5 462.673   1
  -2 -12  -6 10157.1 447.866   1
   2  12  -6 9892.85 380.331   2
  -2  12   6 9878.92 385.056   3
  -2  12   4 100.222 30.4944   3
   2  12  -4 86.1618 29.6326   2
 -12   2   4 111.213 48.4053   1
   2 -12   4 35.4967 27.1101   1
  -2 -12  -4 27.2197 40.3260   1
  -2 -12  -2 5389.65 232.322   6
   2 -12   2 5295.55 222.469   6
   2  12  -2 5453.26 213.145   2
  -2  12   2 5245.43 212.522   3
   2 -12   2 5437.35 244.090   1
  -2 -12  -2 4717.52 251.877   1
   2 -12   0 31784.7 1131.72   6
   2 -12   0 31223.8 1161.07   1
  -2 -12   0 31600.1 1169.36   1
  -2  12   0 32562.9 1119.43   3
   2  12   0 32460.6 1119.95   2
   2 -12  -2 5326.36 222.500   6
 -12  -2   2 5816.01 301.224   1
  -2 -12   2 5395.16 253.372   1
  -2  12  -2 5154.90 212.880   2
  -2  12  -2 5258.55 207.513   3
   2  12   2 5181.16 205.923   3
  -2  12  -4 91.7157 28.5421   2
   2 -12  -4 47.1891 34.9908   6
  -2  12  -4 48.4841 19.8180   3
   2  12   4 22.7477 22.6514   3
  -2 -12   4-10.7452 30.8643   1
 -12  -2   4-8.28052 48.2821   1
   2  12   6 9697.39 370.423   3
  -2 -12   6 9428.99 379.452   5
 -12  -2   6 10401.4 445.900   1
  -2  12  -6 9495.72 370.321   2
   2 -12  -6 9473.43 376.046   6
  -2 -12   6 9528.52 405.680   1
   2  12   8 1669.96 101.238   3
  -2 -12   8 1485.84 114.636   1
 -12  -2   8 1840.58 143.610   1
   2  12  10 2806.55 150.825   3
  -2 -12  10 2776.40 151.537   5
 -12  -2  10 2845.17 188.206   1
   2  12  12 1263.28 91.7927   3
  -2 -12  12 992.963 82.0304   5
 -12  -2  12 1232.21 113.903   1
   2  12  14 441.825 53.9385   3
  -2 -12  14 443.680 51.3460   5
 -12   2 -14 478.418 62.6532   4
  -2 -12  16 188.555 31.9912   5
 -12   2 -16 161.052 36.0010   4
  -2 -12  18 342.322 31.3747   5
   2  12  18 335.856 34.5439   3
   2  12  20 17.4714 12.0121   3
  12   2  20 31.8061 15.0937   3
  -2  12 -20 26.7471 15.0931   4
  -3  12  19 184.146 20.3782   3
  -3  12  17 115.982 25.4557   3
  -3  12  15 74.6388 30.0546   3
  -3  12  13 255.050 47.3443   3
   3 -12  13 259.188 41.4936   5
   3 -12  11 1771.30 106.685   5
  -3  12  11 1651.99 112.115   3
  -3  12   9 437.590 57.7987   3
   3  12  -9 455.990 53.3685   2
  -3 -12  -9 399.432 81.5207   1
  -3 -12  -7 702.982 98.5751   1
  -3 -12  -5 9903.55 443.683   1
   3 -12   5 9945.11 387.057   6
   3  12  -5 10241.4 379.354   2
  -3  12   5 9931.96 384.112   3
   3 -12   3 11908.0 464.948   1
   3  12  -3 11970.1 436.248   2
  -3 -12  -3 11687.1 494.195   1
  -3  12   3 11690.6 439.229   3
   3 -12   1 6115.30 263.824   1
   3 -12   1 5760.07 237.409   6
  -3 -12  -1 5278.79 270.174   1
   3  12  -1 5632.55 226.391   2
  -3  12   1 5890.10 229.577   3
   3 -12  -1 5755.44 239.347   6
  -3 -12   1 5495.35 271.403   1
  -3  12  -1 5887.88 227.913   3
   3 -12  -3 13203.8 490.111   6
  -3 -12   3 13674.2 528.306   1
 -12  -3   3 12880.7 565.698   1
  -3  12  -3 12688.6 481.581   2
  -3  12  -3 13092.8 475.086   3
   3  12   3 13067.1 472.986   3
 -12  -3   5 9236.38 381.523   5
  -3 -12   5 9410.86 404.304   1
  -3 -12   5 9325.06 378.374   5
 -12  -3   5 9103.47 431.486   1
  -3  12  -5 9436.20 365.921   2
  -3  12  -5 9617.26 354.689   3
   3  12   5 9699.37 360.441   3
   3  12   7 911.280 71.2128   3
  -3 -12   7 804.025 78.6879   5
 -12  -3   7 971.218 93.4864   5
 -12  -3   7 854.590 102.616   1
  -3  12  -7 919.242 59.6198   3
  -3 -12   7 959.971 92.0689   1
 -12  -3   9 622.771 73.3913   5
   3  12   9 567.532 61.3591   3
  -3 -12   9 539.862 70.9973   1
 -12  -3   9 634.507 89.1801   1
   3  12  11 2083.34 124.828   3
  -3 -12  11 2020.66 122.785   5
 -12  -3  11 2191.09 158.862   1
   3  12  13 216.136 44.2393   3
  -3 -12  13 295.126 47.1229   5
   3  12  15 126.815 35.0833   3
  -3 -12  15 127.808 33.3566   5
 -12   3 -15 105.872 33.0293   4
  -3 -12  17 78.7542 23.2466   5
 -12   3 -17 80.3574 25.4944   4
   3  12  19 134.237 20.3931   3
  -3 -12  19 133.357 17.9248   5
  12   3  19 130.831 23.0744   3
  -3  12 -19 149.028 24.5902   4
  -4  12  18 256.021 25.8293   3
  -4  12  16 271.105 34.1635   3
  -4  12  14 178.255 34.9688   3
  -4  12  12 291.153 48.8662   3
   4 -12  12 329.428 45.5840   5
  -4  12  10 297.144 56.3842   3
   4 -12  10 304.417 47.1709   5
   4  12 -10 305.192 45.3725   2
   4  12  -8 1985.52 108.918   2
  -4 -12  -8 1834.77 161.928   1
  -4  12   8 2033.30 118.379   3
   4 -12   6 4786.91 205.802   6
   4  12  -6 4706.91 199.320   2
  -4 -12  -6 4301.33 260.155   1
   4 -12   4 4421.53 198.288   6
  -4 -12  -4 4565.66 250.126   1
  -4  12   4 4705.19 196.825   3
   4 -12   2 6135.83 276.358   1
  -4 -12  -2 6230.69 301.828   1
   4  12  -2 6356.74 249.224   2
  -4  12   2 6560.82 254.279   3
   4 -12   0 13591.1 501.338   6
  -4 -12   0 13087.1 541.633   1
  -4  12   0 13500.8 492.062   3
   4  12   0 13498.5 489.952   2
   4 -12  -2 6934.50 276.753   6
  -4 -12   2 6678.98 293.355   5
  -4 -12   2 6119.77 307.196   1
 -12  -4   2 6255.20 342.653   1
  -4  12  -2 7162.75 266.328   3
  -4 -12   4 4656.86 237.949   1
  -4 -12   4 4785.30 220.266   5
 -12  -4   4 4476.79 264.513   1
  -4  12  -4 4628.55 192.099   3
   4  12   4 4617.97 189.476   3
   4  12   6 5099.46 210.682   3
  -4 -12   6 4890.94 249.288   1
  -4 -12   6 4788.88 228.190   5
 -12  -4   6 5107.23 245.180   5
 -12  -4   6 4815.66 275.484   1
  -4  12  -6 4898.08 203.587   3
   4  12   8 1916.32 111.632   3
 -12  -4   8 2006.56 132.278   5
  -4 -12   8 1853.13 121.760   5
 -12  -4   8 2109.97 159.971   1
  -4 -12   8 1953.05 139.861   1
 -12  -4  10 191.013 48.2765   5
   4  12  10 231.163 46.0019   3
  -4 -12  10 163.335 49.2782   1
   4  12  12 472.496 58.9113   3
  -4 -12  12 365.045 51.7846   5
 -12  -4  12 425.113 55.1646   5
   4  12  14 176.496 38.1607   3
  -4 -12  14 172.183 33.9815   5
   4  12  16 256.472 35.3336   3
  -4 -12  16 255.895 36.2941   5
  -4 -12  18 202.921 25.7659   5
  12   4  18 185.589 27.2978   3
  -4  12 -18 162.276 26.7776   4
   4  12  20 65.7918 14.2481   3
  12   4  20 44.6643 14.0197   3
  -4  12 -20 79.3265 14.4359   4
  -5  12  17 132.846 22.4838   3
  -5  12  15 24.7407 21.6108   3
  -5  12  13 611.276 61.2719   3
   5 -12  11 1293.59 84.8563   5
  -5  12  11 1110.77 90.0085   3
  -5  12   9 29.8714 39.2204   3
   5  12  -9 27.4574 29.7067   2
   5  12  -7 2829.95 131.596   2
  -5  12   7 2581.27 139.777   3
   5 -12   5 4706.89 206.229   6
  -5 -12  -5 4661.72 270.163   1
   5  12  -5 4868.00 200.819   2
   5 -12   3 1116.46 77.5670   6
  -5 -12  -3 1105.29 111.656   1
   5  12  -3 1153.42 69.4978   2
  -5  12   3 1081.94 73.8928   3
   5 -12   1 4192.85 200.340   1
  -5 -12  -1 4225.87 224.421   1
  -5  12   1 3973.39 175.354   3
   5 -12  -1 4655.67 203.930   6
  -5 -12   1 4670.28 233.561   5
  -5 -12   1 4853.38 245.358   1
 -12  -5   1 4314.17 270.236   1
  -5  12  -1 4812.33 196.352   3
  -5 -12   3 1125.73 96.8870   5
  -5  12  -3 1038.23 67.0798   3
  -5 -12   5 4533.64 233.083   1
  -5 -12   5 4443.48 216.787   5
 -12  -5   5 4082.86 254.413   1
  -5  12  -5 4318.52 185.299   3
 -12  -5   5 4217.72 219.127   5
   5  12   7 2410.57 125.566   3
 -12  -5   7 2333.13 154.202   5
  -5 -12   7 2598.39 145.437   5
 -12  -5   7 2434.14 180.820   1
  -5  12  -7 2438.82 120.926   3
  -5 -12   7 2469.44 162.458   1
   5  12   9 17.3711 32.9027   3
  -5 -12   9 36.7234 37.0507   5
  -5 -12   9 41.5071 40.3407   1
 -12  -5   9 42.4919 40.4633   1
 -12  -5   9 54.0833 44.0759   5
   5  12  11 1220.54 87.5281   3
  -5 -12  11 792.011 91.1338   1
 -12  -5  11 1119.80 85.7969   5
 -12  -5  11 862.302 101.667   1
   5  12  13 915.288 72.1771   3
 -12  -5  13 935.362 73.3370   5
  -5 -12  13 728.788 65.4181   5
   5  12  15 13.4765 28.9531   3
  -5 -12  15 32.6285 28.0107   5
   5  12  17 255.422 31.5763   3
  -5 -12  17 226.861 30.2015   5
  12   5  17 167.578 27.2335   3
  -5  12 -17 159.191 27.5206   4
   5  12  19 200.560 23.7475   3
  -5 -12  19 193.266 20.2707   5
  12   5  19 185.779 23.1178   3
  -5  12 -19 210.967 22.7142   4
  -6  12  16 169.496 25.2182   3
  -6  12  14 503.119 49.2978   3
  -6  12  12 635.157 62.4725   3
  -6  12  10 1332.41 102.234   3
  -6  12   8 681.109 68.1105   3
   6  12  -8 568.022 51.4887   2
   6  12  -6 96.9602 30.9037   2
   6 -12   6 123.156 38.6137   6
  -6  12   6 129.668 40.1351   3
  -6 -12  -6 91.3567 58.3829   1
  -6 -12  -4 597.615 92.9116   1
   6 -12   4 754.227 62.4362   6
   6  12  -4 697.721 54.6723   2
  -6  12   4 795.506 63.6044   3
   6 -12   2 1723.45 100.027   6
  -6 -12  -2 1762.06 142.374   1
   6  12  -2 1891.46 94.2846   2
  -6 -12   0 576.142 80.1751   1
 -12   6   0 653.984 62.6390   3
  -6  12   0 627.611 53.8808   3
   6  12   0 602.535 50.5029   2
  -6 -12   2 1552.30 124.653   1
  -6 -12   2 1438.74 119.922   5
 -12  -6   2 1436.24 145.933   1
  -6  12  -2 1440.21 85.2237   3
  -6 -12   4 1050.07 96.5358   5
  -6  12  -4 1071.84 71.9340   3
 -12  -6   4 1075.46 121.379   1
 -12  -6   6 175.899 65.2566   5
  -6  12  -6 152.032 34.7277   3
  -6 -12   6 99.4086 49.6529   5
  -6 -12   6 120.534 50.0426   1
 -12  -6   6 101.227 58.4827   1
 -12  -6   8 525.686 74.8739   5
   6  12   8 445.889 52.0734   3
  -6 -12   8 437.811 62.6635   5
  -6 -12   8 442.542 70.4358   1
 -12  -6   8 515.612 83.6669   1
   6  12  10 1268.01 87.4582   3
 -12  -6  10 1308.06 99.9122   5
  -6 -12  10 1204.23 90.3605   5
 -12  -6  10 1251.48 120.911   1
  -6 -12  10 1025.41 103.587   1
   6  12  12 863.751 74.4339   3
 -12  -6  12 739.743 69.3441   5
  12   6  14 559.007 51.0974   3
 -12  -6  14 531.962 53.8507   5
   6  12  14 541.976 54.2987   3
  -6 -12  14 509.420 52.9194   5
   6  12  16 183.138 31.6320   3
  -6 -12  16 176.933 30.3233   5
  12   6  16 166.202 29.7229   3
  -6  12 -16 204.851 30.4646   4
   6  12  18 76.5624 18.5837   3
  -6 -12  18 77.4497 17.9596   5
  12   6  18 74.1500 19.2992   3
  -6  12 -18 65.4571 16.8955   4
  -7  12  15 27.6272 19.4354   3
  -7  12  13 3.02561 25.8679   3
  -7  12  11 195.416 45.2815   3
  -7  12   9 628.901 72.0930   3
   7  12  -9 680.849 57.9672   2
   7 -12   7 1022.59 73.8057   6
   7  12  -7 961.904 67.3873   2
  -7  12   7 946.570 80.1243   3
   7 -12   5 1069.17 77.4633   6
  -7 -12  -5 1016.48 126.615   1
   7  12  -5 1136.97 72.3961   2
  -7  12   5 1092.64 83.3765   3
   7 -12   3 630.577 59.1851   6
  -7 -12  -3 622.127 94.9636   1
 -12   7   3 654.233 69.5548   3
   7  12  -3 709.469 55.3453   2
  -7  12   3 640.316 59.9704   3
   7 -12   1 722.862 61.5185   6
  -7 -12  -1 640.049 89.7008   1
 -12   7   1 797.428 71.6210   3
   7  12  -1 756.718 56.5169   2
 -12  -7   1 604.347 108.455   1
 -12   7  -1 621.990 63.3547   3
  -7 -12   1 699.229 89.9915   1
  -7  12  -1 668.887 57.5109   3
  -7  12  -3 389.020 45.7163   3
  -7 -12   3 288.775 69.8352   5
 -12  -7   3 462.021 88.2032   1
  -7 -12   3 449.828 70.2353   1
 -12  -7   5 1345.86 138.139   1
  -7 -12   5 1526.37 114.732   5
  -7  12  -5 1611.03 91.6863   3
  -7 -12   7 991.943 87.9084   5
 -12  -7   7 978.431 99.9210   5
  -7 -12   7 779.342 92.5717   1
 -12  -7   7 926.301 109.582   1
 -12  -7   9 641.538 76.1928   5
  -7 -12   9 649.336 83.6787   1
   7  12   9 595.913 58.5973   3
  -7 -12   9 658.662 65.9091   5
 -12  -7   9 613.438 87.9046   1
 -12  -7  11 310.770 50.5926   5
   7  12  11 271.539 45.6135   3
  -7 -12  11 248.881 45.4501   5
  12   7  11 337.420 47.2620   3
 -12  -7  13 37.0070 30.7342   5
   7  12  13 15.6859 30.0421   3
  12   7  13 24.6480 28.0777   3
  -7 -12  15 106.139 28.8702   5
   7  12  15 51.6031 27.1562   3
  12   7  15 110.050 28.4559   3
  -7  12 -15 54.1709 23.5000   4
  -7 -12  17 246.718 28.4561   5
  12   7  17 193.561 27.1372   3
  -7  12 -17 208.545 24.0824   4
   7  12  17 204.064 27.4089   3
   7  12  19 140.879 17.1025   3
  -8  12  14 240.017 30.8509   3
  -8  12  12 140.877 35.6890   3
  -8  12  10 617.399 71.1206   3
   8  12  -8 321.754 40.0909   2
  -8  12   8 319.560 54.6833   3
   8  12  -6 292.781 39.9683   2
   8 -12   6 309.343 44.2060   6
  -8  12   6 306.939 52.7154   3
   8 -12   4 2942.51 140.026   6
  -8 -12  -4 2609.60 209.979   1
 -12   8   4 2766.81 166.422   3
   8  12  -4 2968.84 134.239   2
  -8  12   4 2768.15 147.096   3
  -8 -12  -2 607.264 95.6563   1
   8 -12   2 692.362 62.7179   6
 -12   8   2 733.414 75.9588   3
  -8  12   2 676.609 62.2921   3
   8  12  -2 726.579 56.2232   2
  -8 -12   0 1206.71 123.559   1
 -12   8   0 1264.63 92.6507   3
   8 -12   0 1260.20 84.8800   6
   8  12   0 1331.07 76.5398   2
 -12  -8   2 895.174 126.473   1
 -12   8  -2 1005.11 79.8121   3
  -8  12  -2 1062.58 75.0748   3
  -8 -12   2 1012.58 109.814   1
  -8 -12   4 2672.70 174.785   5
 -12  -8   4 3105.56 220.966   1
  -8  12  -4 3117.64 146.489   3
  -8 -12   4 2921.38 191.572   1
 -12  -8   6 212.392 65.8092   1
  -8  12  -6 112.489 35.0711   3
 -12  -8   6 87.6436 54.0697   5
  -8 -12   6 58.0601 44.9513   5
 -12  -8   8 281.389 61.9029   5
  -8 -12   8 394.359 58.0651   5
  -8 -12   8 238.143 57.8663   1
 -12  -8   8 292.876 69.0053   1
 -12  -8  10 487.950 64.0030   5
   8  12  10 489.788 52.3526   3
  -8 -12  10 390.247 55.9575   5
  -8 -12  12 121.429 34.6941   5
   8  12  12 168.931 37.7864   3
  12   8  12 213.236 37.7225   3
 -12  -8  12 108.634 36.5478   5
 -12  -8  14 378.339 44.0597   5
  -8 -12  14 249.484 37.6093   5
   8  12  14 290.998 38.4433   3
  12   8  14 323.018 39.2066   3
  -8 -12  16 14.7816 18.0904   5
   8  12  16 20.9864 18.9566   3
  12   8  16 19.8914 18.2032   3
  -8 -12  18 103.862 16.8404   5
   8  12  18 81.4417 15.4827   3
  12   8  18 88.2272 15.1330   3
  -9  12  13 25.8186 21.1856   3
  -9  12  11 601.128 61.5543   3
  -9  12   9 511.065 71.3407   3
   9  12  -9 386.797 44.8363   2
   9  12  -7 674.085 55.2314   2
  -9  12   7 875.572 81.5649   3
   9 -12   5 3494.03 156.704   6
   9  12  -5 3694.38 153.682   2
  -9  12   5 3573.76 177.717   3
  -9 -12  -3 978.368 129.017   1
  12  -9   3 1139.26 71.5489   6
   9 -12   3 1097.42 75.1226   6
 -12   9   3 1060.29 96.4631   3
   9  12  -3 1201.90 73.1093   2
  -9  12   3 1216.71 88.1951   3
   9 -12   1 765.898 63.7806   6
 -12   9   1 811.811 78.9030   3
  -9  12   1 718.360 65.8937   3
   9  12  -1 733.510 56.5816   2
  -9 -12  -1 662.417 102.761   1
 -12  -9   1 785.572 125.676   1
  -9 -12   1 1013.85 112.438   1
 -12   9  -1 924.497 79.2473   3
  -9  12  -1 942.651 70.9845   3
   9  12   1 957.754 65.3259   2
  -9 -12   3 976.503 111.835   1
 -12  -9   3 1096.00 133.386   1
 -12  -9   5 3424.95 232.337   1
  -9  12  -5 3687.37 165.614   3
  -9 -12   5 3304.83 209.085   1
 -12  -9   7 553.006 79.7505   5
  -9 -12   7 856.742 83.7526   5
 -12  -9   9 470.318 65.9821   5
  -9 -12   9 443.334 56.6240   5
   9  12  11 676.498 57.2802   3
 -12  -9  11 550.552 62.9220   5
  -9 -12  11 570.746 59.8900   5
 -12  -9  13 8.57101 25.6357   5
  -9 -12  13 79.4454 28.8445   5
   9  12  13 48.5467 27.3455   3
  12   9  13 30.8156 23.3558   3
 -12  -9  15 159.319 28.3669   5
  -9 -12  15 129.457 26.4004   5
   9  12  15 202.056 28.3288   3
  12   9  15 175.857 26.4157   3
  -9 -12  17 21.9655 14.9524   5
  12   9  17 17.6550 12.3841   3
   9  12  17-1.12412 11.7488   3
 -10  12  12 47.5127 23.3104   3
 -10  12  10 2148.72 125.637   3
  10  12  -8 1020.89 67.4860   2
 -10  12   8 996.418 94.1368   3
  10  12  -6 228.807 35.1755   2
  10 -12   6 212.297 36.7110   6
 -10  12   6 190.651 49.3797   3
  10 -12   4 3363.39 152.163   6
  12 -10   4 3086.26 145.360   6
  10  12  -4 3397.95 147.030   2
 -10  12   4 3635.79 175.101   3
  10 -12   2 2152.80 111.971   6
  12 -10   2 1978.36 106.184   6
 -12  10   2 2358.05 140.456   3
 -10  12   2 2089.10 123.993   3
  12  10  -2 1989.67 98.7856   2
  10  12  -2 2035.93 104.427   2
  10 -12   0 2679.38 132.470   6
 -12  10   0 2523.02 143.561   3
 -10  12   0 2497.86 136.177   3
  12  10   0 2493.72 115.856   2
  10  12   0 2581.11 120.913   2
 -10 -12   0 2143.59 186.397   1
 -12 -10   2 1512.97 164.526   1
 -12  10  -2 1938.67 117.960   3
 -10  12  -2 1866.54 108.532   3
 -10 -12   2 1738.84 154.923   1
 -12 -10   4 3217.40 227.181   1
 -10 -12   4 2897.50 201.714   1
 -12 -10   6 80.8322 41.2462   5
 -10 -12   6 224.318 56.2154   5
 -10 -12   8 1029.90 85.6130   5
 -12 -10   8 867.591 87.1250   5
 -12 -10  10 2227.59 132.038   5
 -10 -12  10 2532.59 131.348   5
 -12 -10  12 23.8143 26.3594   5
 -10 -12  12 49.5627 27.8249   5
  10  12  14 593.135 43.9462   3
 -12 -10  14 565.087 45.6161   5
 -10 -12  14 535.488 44.5892   5
 -10 -12  16 268.716 26.8179   5
  10  12  16 269.740 24.0399   3
 -11  12   9 1405.12 99.5851   3
  11  12  -7 1759.94 87.2909   2
 -11  12   7 1716.09 122.269   3
  11 -12   5 4169.31 173.731   6
  11  12  -5 4001.99 168.309   2
 -11  12   5 3864.28 202.834   3
  12 -11   3 320.559 40.2757   6
  12  11  -3 268.728 32.2523   2
 -11  12   3 254.410 50.7708   3
 -12  11   3 280.364 56.2763   3
  11  12  -3 245.397 33.4847   2
  11 -12   3 295.373 40.9593   6
  11 -12   1 2841.45 136.395   6
 -12  11   1 2909.86 158.036   3
 -11  12   1 2744.54 151.830   3
  12 -11   1 2645.94 132.204   6
  12  11  -1 2720.21 125.109   2
  11  12  -1 2792.12 128.395   2
  11 -12  -1 2738.01 134.935   6
 -12  11  -1 2589.20 144.283   3
 -11  12  -1 2793.59 144.310   3
  11  12   1 2550.40 123.593   2
  12  11   1 2500.70 119.980   2
 -11  12  -3 370.443 51.3490   3
 -12 -11   7 1253.73 106.620   5
 -11 -12   7 1906.54 120.493   5
 -12 -11   9 1587.63 105.223   5
 -11 -12   9 1547.79 101.472   5
 -12 -11  11 320.438 44.2776   5
 -11 -12  11 390.126 44.3407   5
 -12 -11  13 315.133 36.1147   5
 -11 -12  13 330.455 35.7344   5
 -11 -12  15 479.135 35.1472   5
  11 -12 -15 415.568 31.1227   6
 -12  12   8 397.988 56.8676   3
 -12  12   6 396.348 65.8961   3
  12 -12   4 5400.82 216.916   6
  12  12  -4 5157.02 210.579   2
 -12  12   4 5074.62 249.104   3
  12 -12   2 915.253 66.8020   6
 -12  12   2 1010.75 85.4505   3
  12  12  -2 933.284 60.9242   2
  12 -12   0 126.658 35.0616   6
  12  12   0 157.012 27.7451   2
 -12  12   0 134.224 40.7924   3
 -12  12  -2 1108.12 82.7719   3
  12  12   2 1115.76 68.7270   2
  12  12   4 4939.76 205.466   2
 -12 -12   8 598.325 63.2492   5
 -12 -12  10 1783.98 101.627   5
 -12 -12  12 642.347 49.4864   5
 -12 -12  14 616.863 40.7354   5
   0 -13  -1 2599.76 165.899   1
   0 -13  -1 2862.47 144.133   6
   0 -13   1 2861.77 143.430   6
   0 -13   1 2645.43 159.610   1
   0  13  -1 2887.69 129.727   2
   0  13   1 2822.36 128.069   2
   0  13  -1 2681.92 121.122   3
   0  13   1 2839.75 124.907   3
   0 -13  -3 1128.39 84.4118   6
   0 -13  -3 1011.77 103.530   1
   0 -13   3 1145.06 96.2850   1
   0  13  -3 1184.25 74.7126   2
   0  13   3 1106.99 69.2786   2
   0  13   3 1226.34 72.3620   3
 -13   0   5 7113.61 362.186   1
   0 -13   5 7111.28 316.730   1
   0  13  -5 7089.34 286.017   2
   0  13   5 7259.48 285.831   3
   0 -13   7 303.968 50.5273   1
   0  13   7 296.767 46.9029   3
 -13   0   7 321.002 72.3618   1
   0  13  -7 249.406 43.9300   2
   0  13   9 317.662 51.3295   3
 -13   0   9 228.088 64.8172   1
   0 -13   9 326.867 53.5218   5
   0  13  11 155.282 46.4049   3
 -13   0  11 275.244 58.5341   1
   0 -13  11 251.997 46.5076   5
   0 -13  13 453.010 54.2453   5
   0  13  15 35.0694 27.9145   3
   0 -13  15-12.6972 23.8957   5
   0  13  17 15.4207 20.8905   3
   0 -13  17 17.9503 16.8139   5
   0  13  19 355.917 28.1103   3
  -1  13  18 362.094 31.8239   3
  -1  13  16 209.154 33.6367   3
   1 -13  16 271.322 32.0962   5
   1 -13  14 898.282 67.5187   5
  -1  13  14 896.122 69.3468   3
   1 -13  12 169.252 40.2691   5
 -13   1  10 1894.03 149.177   1
   1 -13  10 2084.70 119.790   5
  -1  13  10 1789.01 115.673   3
 -13   1   8 1629.87 145.277   1
   1 -13   8 2035.79 115.760   5
   1  13  -8 1870.72 111.444   2
  -1  13   8 1992.02 116.003   3
 -13   1   6 3678.48 227.987   1
  -1 -13  -6 3829.61 222.836   1
   1 -13   6 3227.56 179.284   1
   1  13  -6 3368.99 159.776   2
  -1  13   6 3541.89 164.646   3
 -13   1   4 1247.84 118.495   1
   1 -13   4 1165.26 94.2065   1
   1  13  -4 1211.84 76.1270   2
  -1 -13  -4 1249.75 114.953   1
  -1  13   4 1162.74 75.4365   3
  -1 -13  -2 2211.85 128.145   6
   1 -13   2 2441.65 126.276   6
   1 -13   2 2300.10 141.919   1
   1  13  -2 2288.03 113.382   2
  -1  13   2 2301.59 110.743   2
  -1  13   2 2401.93 112.526   3
  -1 -13   0 8103.48 333.643   6
   1 -13   0 8298.50 330.658   6
  -1 -13   0 8131.60 360.885   1
  -1  13   0 8286.00 315.573   2
   1  13   0 8279.93 315.920   2
  -1  13   0 8193.08 311.311   3
   1 -13   0 8598.35 361.475   1
   1 -13  -2 2744.89 165.587   1
  -1 -13   2 2743.07 160.549   1
  -1  13  -2 2601.89 125.020   2
  -1  13  -2 2593.92 116.850   3
   1 -13  -2 2697.97 138.095   6
   1  13   2 2602.43 122.407   2
   1  13   2 2561.12 118.905   3
  -1 -13   4 943.866 85.8619   1
 -13  -1   4 1052.05 116.216   1
  -1  13  -4 821.279 63.7340   2
   1 -13  -4 734.103 70.9625   6
   1  13   4 889.502 62.2764   3
   1 -13  -6 3545.70 175.601   6
  -1 -13   6 3707.93 198.191   1
 -13  -1   6 3596.28 225.941   1
  -1  13  -6 3445.49 166.055   2
   1  13   6 3878.34 169.534   3
  -1 -13   8 2182.88 141.053   1
 -13  -1   8 2286.64 169.019   1
   1  13   8 2246.35 124.672   3
  -1 -13  10 2097.31 126.752   5
   1  13  10 2040.67 124.589   3
   1  13  12 175.724 46.0986   3
  -1 -13  12 194.462 42.2606   5
  -1 -13  14 911.809 68.4546   5
   1  13  16 274.513 37.0655   3
  -1 -13  16 258.325 33.9572   5
  -1 -13  18 303.896 26.3629   5
   1  13  18 350.121 32.2720   3
  -2  13  19 445.393 29.5225   3
  -2  13  17 121.449 23.2646   3
  -2  13  15 83.3777 29.6290   3
   2 -13  15 44.1590 25.4815   5
   2 -13  13 897.184 67.6928   5
  -2  13  13 733.695 66.5017   3
   2 -13  11 2596.77 131.600   5
  -2  13  11 2078.69 130.636   3
  -2 -13  -9 280.874 71.6375   1
   2 -13   9 295.175 50.9005   5
   2  13  -9 336.471 48.5309   2
  -2 -13  -7 1355.07 133.153   1
 -13   2   7 1228.87 127.662   1
   2  13  -7 1300.11 84.6005   2
  -2  13   7 1265.42 87.9164   3
  -2 -13  -5 10092.9 449.948   1
 -13   2   5 8862.11 442.066   1
   2 -13   5 9665.96 405.609   1
   2  13  -5 10582.7 383.150   2
  -2  13   5 9938.49 382.991   3
   2 -13   3 6960.54 290.829   6
   2 -13   3 7148.70 313.494   1
   2  13  -3 7240.17 281.225   2
  -2  13   3 7087.04 280.989   3
  -2 -13  -3 7353.73 337.674   1
   2 -13   1 6601.28 274.082   6
   2  13  -1 6748.28 260.933   2
  -2  13   1 6683.39 260.071   3
   2 -13   1 6304.07 296.749   1
   2 -13  -1 6769.24 317.799   1
   2 -13  -1 7005.80 286.520   6
  -2 -13   1 7375.23 325.293   1
  -2  13  -1 6921.15 274.245   2
  -2  13  -1 6769.18 268.424   3
   2  13   1 7187.96 273.341   2
   2 -13  -3 7335.59 304.426   6
 -13  -2   3 7783.38 382.332   1
  -2 -13   3 7396.17 334.895   1
  -2  13  -3 7289.11 292.932   2
  -2  13  -3 7515.17 285.144   3
   2  13   3 7533.22 286.641   3
   2 -13  -5 8837.52 348.153   6
  -2 -13   5 8894.10 378.444   1
  -2 -13   5 8440.01 350.231   5
 -13  -2   5 8556.13 414.993   1
  -2  13  -5 8552.55 338.787   2
  -2  13  -5 8410.56 324.509   3
   2  13   5 8919.59 334.919   3
   2 -13  -7 1309.17 92.2719   6
  -2 -13   7 1273.26 97.6826   5
 -13  -2   7 1336.28 126.604   1
  -2  13  -7 1367.47 89.3743   2
  -2 -13   7 1326.70 108.604   1
   2  13   7 1367.55 88.0984   3
   2  13   9 245.829 46.1058   3
 -13  -2   9 228.446 61.9977   1
  -2 -13   9 287.943 55.1212   1
  -2 -13  11 2320.06 134.054   5
   2  13  11 2484.54 136.830   3
  -2 -13  13 886.605 70.1573   5
   2  13  13 901.695 73.3505   3
   2  13  15 37.2787 27.2027   3
  -2 -13  15 60.1569 27.2438   5
  -2 -13  17 104.772 22.7596   5
  13   2  19 459.568 33.0222   3
  -2  13 -19 507.030 35.2790   4
   2  13  19 463.895 32.5898   3
  -3  13  18 427.839 32.2553   3
  -3  13  16 186.533 28.8326   3
  -3  13  14 208.236 38.6819   3
   3 -13  14 220.040 36.4892   5
   3 -13  12 1460.52 92.8136   5
  -3  13  12 1291.33 93.8587   3
   3 -13  10 927.554 76.5292   5
  -3 -13 -10 1022.82 116.618   1
  -3  13  10 899.446 78.1615   3
  -3 -13  -8 2543.21 189.106   1
   3  13  -6 9416.80 354.019   2
  -3  13   6 8846.38 357.633   3
  -3 -13  -6 8856.60 425.976   1
  -3 -13  -4 360.708 71.9323   1
   3  13  -4 437.859 46.2152   2
   3 -13   4 426.277 55.4160   1
  -3  13   4 419.605 47.8358   3
   3 -13   2 6393.53 261.320   6
  -3 -13  -2 6319.04 308.123   1
   3  13  -2 6205.00 247.804   2
   3 -13   2 6131.53 279.507   1
  -3  13   2 6175.02 249.298   3
   3 -13   0 25538.6 966.202   1
   3 -13   0 25755.4 934.586   6
  -3  13   0 26388.5 921.658   3
   3  13   0 26381.5 922.006   2
   3 -13  -2 5988.48 253.429   6
  -3 -13   2 5927.11 286.053   1
  -3  13  -2 5976.42 236.923   3
   3 -13  -4 601.879 64.6208   6
  -3 -13   4 597.576 74.8445   1
  -3 -13   4 541.224 67.9437   5
 -13  -3   4 610.953 94.9811   1
  -3  13  -4 600.964 48.4956   3
   3  13   4 557.576 48.5725   3
  -3  13  -4 531.058 54.1052   2
  -3 -13   6 9648.63 383.036   5
 -13  -3   6 9627.99 446.101   1
  -3 -13   6 9171.42 408.831   1
   3 -13  -6 9699.63 378.929   6
  -3  13  -6 9252.33 355.659   3
  -3 -13   8 2739.49 151.940   5
 -13  -3   8 2603.58 187.601   1
   3 -13  -8 2829.67 148.244   6
  -3 -13   8 2601.95 166.982   1
   3  13   8 2807.92 142.209   3
   3  13  10 1118.83 83.9876   3
 -13  -3  10 1138.10 113.970   1
   3  13  12 1499.82 98.5174   3
  -3 -13  12 1371.30 93.4004   5
   3  13  14 243.570 41.2566   3
  -3 -13  14 228.855 38.3838   5
   3  13  16 168.569 30.3902   3
  -3 -13  16 166.477 29.1074   5
  -3 -13  18 322.756 27.4723   5
  13   3  18 249.684 27.9661   3
  -3  13 -18 341.761 31.7625   4
  -4  13  17 18.4577 16.4546   3
  -4  13  15 125.308 29.1972   3
  -4  13  13 189.740 39.1332   3
   4 -13  13 155.003 33.7003   5
  -4  13  11 398.434 59.7510   3
   4 -13  11 485.531 53.3984   5
   4  13  -9 1629.43 96.1145   2
  -4 -13  -9 1472.50 143.929   1
  -4  13   9 1491.12 103.258   3
  -4 -13  -7 310.754 72.2715   1
  -4 -13  -5 5560.93 297.698   1
  -4  13   5 5307.07 233.041   3
   4 -13   5 5749.52 239.131   6
  -4 -13  -3 9497.92 441.173   1
   4  13  -3 9934.02 376.406   2
  -4  13   3 10170.0 381.059   3
   4 -13   1 3945.22 204.813   1
   4 -13   1 4098.85 187.099   6
  -4 -13  -1 3971.60 227.940   1
  -4  13   1 4315.28 180.739   3
   4  13  -1 4213.48 176.684   2
   4 -13  -1 4115.50 191.589   6
  -4  13  -1 4407.82 182.710   3
   4  13   1 4546.24 183.114   2
  -4 -13   3 10666.8 441.599   1
  -4 -13   3 10037.4 414.586   5
   4 -13  -3 10156.5 400.562   6
 -13  -4   3 9829.86 479.628   1
  -4  13  -3 10361.4 385.775   3
   4 -13  -5 5143.90 235.535   6
  -4 -13   5 5373.24 246.913   5
 -13  -4   5 5522.95 303.009   1
  -4 -13   5 5711.37 273.290   1
  -4  13  -5 5423.01 220.184   3
   4  13   5 5245.39 218.731   3
   4  13   7 225.246 40.6099   3
  -4 -13   7 246.818 53.4898   5
 -13  -4   7 328.364 74.6664   1
  -4 -13   7 234.905 55.4584   1
  -4  13  -7 208.824 33.6984   3
   4  13   9 1309.07 90.1110   3
   4 -13  -9 1349.10 95.5614   6
  -4 -13   9 1471.85 96.2861   5
 -13  -4   9 1209.89 122.462   1
  -4 -13   9 1236.53 109.154   1
   4  13  11 578.676 62.8135   3
   4  13  13 137.775 35.9800   3
  -4 -13  13 173.985 38.6208   5
   4  13  15 85.6225 27.7964   3
  -4 -13  15 89.0318 28.5448   5
   4  13  17-5.29330 19.6934   3
  -4 -13  17-1.70783 17.9250   5
  13   4  17 16.5343 18.4544   3
  13   4  19 67.4235 14.5974   3
  -4  13 -19 114.751 16.3452   4
  -5  13  18 3.62320 9.89946   3
  -5  13  16 20.9850 18.1091   3
  -5  13  14 200.453 33.4721   3
  -5  13  12-7.26481 32.3417   3
   5 -13  12-3.07998 28.6426   5
  -5  13  10 216.036 47.5245   3
   5 -13  10 296.637 46.8242   5
   5  13 -10 222.646 39.3292   2
   5  13  -8 2060.87 109.408   2
  -5 -13  -8 1951.32 168.722   1
  -5  13   8 1869.21 120.682   3
   5 -13   6 705.205 67.0199   6
  -5 -13  -6 708.732 99.2504   1
   5  13  -6 737.629 60.9460   2
   5  13  -4 79.2322 28.9431   2
  -5  13   4 41.0150 29.2448   3
  -5 -13  -4 69.0366 46.3830   1
   5 -13   4 72.9508 38.4109   6
   5 -13   2 2991.83 147.513   6
  -5 -13  -2 3081.53 193.672   1
  -5  13   2 3094.15 145.461   3
   5 -13   0 8326.21 332.333   6
   5 -13   0 8395.22 358.452   1
  -5 -13   0 8141.55 377.634   1
  -5  13   0 8628.05 323.927   3
   5  13   0 8143.50 320.260   2
   5 -13  -2 2922.88 151.134   6
  -5 -13   2 3089.20 175.981   5
  -5  13  -2 3128.62 141.811   3
  -5 -13   4 76.2564 46.1504   1
  -5 -13   4 60.8638 52.5046   5
 -13  -5   4 60.5121 56.0701   1
  -5  13  -4 46.1860 27.3324   3
   5 -13  -4 7.33720 39.0705   6
 -13  -5   6 820.048 90.1795   5
  -5 -13   6 594.001 71.7378   5
  -5  13  -6 555.806 53.2456   3
 -13  -5   6 647.553 95.9248   1
  -5 -13   6 792.360 86.7927   1
   5  13   6 706.997 56.8969   3
   5  13   8 1921.36 108.469   3
  -5 -13   8 1717.18 116.888   5
 -13  -5   8 1756.75 133.040   5
 -13  -5   8 1781.31 152.705   1
  -5 -13   8 2078.72 145.496   1
 -13  -5  10 332.002 58.3863   5
   5  13  10 220.357 43.5054   3
  -5 -13  10 234.822 46.0042   5
   5  13  12 66.1704 39.1846   3
   5  13  14 256.566 39.9994   3
  -5 -13  14 293.545 42.6140   5
   5  13  16 74.9577 24.4780   3
  -5 -13  16 42.8277 21.7810   5
  13   5  16 49.5884 22.2827   3
   5  13  18 11.6881 14.6182   3
  -5 -13  18 9.62701 13.0985   5
  13   5  18 15.8659 14.0692   3
  -5  13 -18 5.12407 13.0674   4
  -6  13  17 186.353 19.7559   3
  -6  13  15 160.977 26.4515   3
  -6  13  13 81.5852 30.4203   3
  -6  13  11-20.2233 32.8351   3
   6 -13  11 51.3479 30.0321   5
  -6  13   9 82.3022 37.3736   3
   6  13  -9 64.6497 31.3314   2
  -6 -13  -7 826.727 111.247   1
   6  13  -7 828.937 66.2000   2
  -6  13   7 965.330 78.8735   3
   6 -13   5 1297.70 86.8987   6
   6  13  -5 1297.00 80.1953   2
  -6  13   5 1224.83 85.8291   3
  -6 -13  -5 1215.14 131.030   1
   6 -13   3 1571.98 97.8667   6
   6  13  -3 1731.86 92.5593   2
   6 -13   1 793.288 65.4128   6
  -6 -13  -1 649.112 87.5044   1
  -6  13   1 700.701 58.5834   3
   6  13  -1 558.243 50.1416   2
   6 -13  -1 790.704 70.9703   6
  -6 -13   1 765.186 90.7674   1
  -6  13  -1 898.811 65.2227   3
   6 -13  -3 1603.91 104.765   6
  -6 -13   3 1533.53 120.580   5
 -13  -6   3 1678.99 161.881   1
  -6  13  -3 1584.58 92.3314   3
  -6 -13   5 1096.26 106.352   1
  -6 -13   5 951.319 93.0909   5
  -6  13  -5 1189.48 76.6214   3
 -13  -6   5 1194.59 131.924   1
 -13  -6   7 745.094 91.0382   5
  -6 -13   7 699.585 75.3525   5
  -6 -13   7 898.657 96.8905   1
 -13  -6   7 748.707 103.595   1
   6  13   7 1008.64 67.6929   3
 -13  -6   9 97.7555 47.1490   5
   6  13   9 104.886 34.3334   3
  -6 -13   9 31.9181 34.2044   5
 -13  -6  11 39.0110 37.3768   5
   6  13  11 76.4278 36.0072   3
  -6 -13  11 66.5235 33.5791   5
   6  13  13 40.3925 32.2046   3
  13   6  13 65.6828 27.7885   3
   6  13  15 182.953 30.4697   3
  -6 -13  15 259.989 34.9227   5
  13   6  15 179.812 29.7532   3
   6  13  17 216.059 27.0181   3
  -6 -13  17 229.355 26.1612   5
  13   6  17 174.500 23.2491   3
  -6  13 -17 198.702 23.4888   4
  -7  13  16 197.824 21.6254   3
  -7  13  14 378.287 37.9310   3
  -7  13  12 245.826 41.3067   3
  -7  13  10 715.130 76.0944   3
   7 -13  10 795.150 63.3144   5
   7  13  -8 1736.48 97.3193   2
  -7  13   8 1639.24 111.196   3
   7  13  -6 416.413 46.9303   2
   7 -13   6 463.870 52.2293   6
  -7  13   6 438.501 55.2274   3
   7 -13   4 6481.56 261.896   6
  -7 -13  -4 5862.65 336.352   1
   7  13  -4 6371.86 255.295   2
  -7  13   4 6283.03 266.510   3
   7 -13   2 4088.37 187.474   6
  -7 -13  -2 4371.18 256.400   1
 -13   7   2 3990.15 207.565   3
   7  13  -2 4456.99 182.205   2
   7 -13   0 3381.25 166.966   6
  -7 -13   0 3556.27 221.001   1
 -13   7   0 3745.72 185.536   3
  -7  13   0 3781.12 167.454   3
   7  13   0 3678.60 160.972   2
   7 -13  -2 3919.11 179.381   6
  -7 -13   2 3367.78 214.174   1
  -7  13  -2 3750.31 171.160   3
  -7 -13   4 6547.97 305.591   5
 -13  -7   4 6368.72 362.027   1
  -7  13  -4 6905.76 274.996   3
 -13  -7   6 467.012 77.9594   5
  -7  13  -6 469.909 51.0784   3
  -7 -13   6 610.845 71.6530   5
  -7 -13   6 461.798 74.8376   1
 -13  -7   6 586.459 91.0735   1
 -13  -7   8 1039.68 103.673   5
  -7 -13   8 1442.32 98.7145   5
   7  13  10 743.970 63.5487   3
 -13  -7  10 639.549 73.4498   5
  -7 -13  10 652.308 65.8574   5
 -13  -7  12 423.558 55.0898   5
  -7 -13  12 465.461 49.0596   5
  13   7  12 462.074 47.7480   3
   7  13  14 564.380 48.5972   3
  -7  13 -14 470.813 42.3609   4
  13   7  14 532.474 45.9281   3
  -7 -13  16 203.892 27.8593   5
  13   7  16 191.357 25.0551   3
  -7 -13  18 71.5088 14.3324   5
  -8  13  13 398.465 39.4529   3
  -8  13  11 94.9207 35.4584   3
  -8  13   9 45.9409 39.8958   3
   8  13  -9 79.5030 26.6646   2
   8  13  -7 2949.76 139.347   2
  -8  13   7 2904.37 157.601   3
   8 -13   5 5441.81 227.466   6
   8  13  -5 5377.94 222.201   2
  -8  13   5 5145.03 237.062   3
   8 -13   3 2342.38 123.113   6
  -8 -13  -3 2190.05 184.899   1
 -13   8   3 2211.46 146.120   3
   8  13  -3 2486.17 117.374   2
  -8  13   3 2274.58 126.674   3
  -8 -13  -1 5609.91 313.559   1
 -13   8   1 5952.98 268.099   3
   8 -13   1 5587.70 243.438   6
   8  13  -1 5873.11 235.599   2
  -8 -13   1 5769.38 311.226   1
   8 -13  -1 5716.89 251.074   6
  -8  13  -1 6080.83 250.098   3
   8  13   1 6068.51 242.009   2
  -8 -13   3 2106.16 158.814   1
 -13  -8   3 2103.15 189.171   1
  -8  13  -3 2094.09 115.226   3
  -8 -13   5 4684.55 241.152   5
 -13  -8   5 4521.95 289.392   1
  -8  13  -5 5258.52 217.051   3
 -13  -8   7 1570.25 140.854   5
  -8 -13   7 3124.48 151.019   5
 -13  -8   9 43.9505 42.8447   5
  -8 -13   9 46.2943 31.8378   5
 -13  -8  11 84.4902 35.7960   5
   8  13  11 114.479 32.5304   3
  -8 -13  11 138.002 33.2719   5
   8  13  13 449.205 46.2652   3
  -8 -13  13 458.143 44.8359   5
   8  13  15 36.1119 19.0514   3
  13   8  15 15.4213 16.7270   3
  -8 -13  17 280.757 24.9354   5
   8  13  17 251.282 22.4374   3
  -9  13  12 75.8269 24.8650   3
  -9  13  10 238.181 45.1691   3
  -9  13   8 537.335 67.6899   3
   9  13  -8 560.832 50.5074   2
   9  13  -6 2449.56 117.607   2
   9 -13   6 2255.01 119.169   6
  -9  13   6 2172.51 133.329   3
   9 -13   4 1601.86 92.6590   6
   9  13  -4 1491.27 84.5775   2
  -9  13   4 1599.44 104.013   3
   9 -13   2 2121.22 113.700   6
 -13   9   2 2080.18 139.725   3
  -9  13   2 2131.15 120.378   3
  13  -9   2 1995.14 104.302   6
   9  13  -2 2162.52 106.600   2
  -9 -13  -2 1899.01 172.340   1
  -9 -13   0 4771.20 283.326   1
   9 -13   0 5059.14 216.263   6
 -13   9   0 5157.18 239.211   3
  -9  13   0 4734.56 216.831   3
   9  13   0 4854.26 205.598   2
   9 -13  -2 1877.59 111.288   6
   9  13   2 1982.45 100.598   2
  13   9   2 1649.66 88.2363   2
  -9 -13   2 2078.66 158.263   1
  -9  13  -4 1712.08 102.581   3
  -9 -13   6 2226.58 140.146   5
 -13  -9   8 403.200 65.0908   5
  -9 -13   8 506.659 61.4320   5
 -13  -9  10 196.818 45.9438   5
  -9 -13  10 241.471 40.5329   5
 -13  -9  12 91.7679 32.3835   5
   9  13  12 79.4228 26.4441   3
  -9 -13  12 86.8950 30.7151   5
   9 -13 -14 107.198 22.7592   6
   9  13  14 97.8842 22.4902   3
  -9 -13  14 101.527 22.7649   5
 -10  13  11 34.8764 23.9155   3
 -10  13   9 326.766 51.3929   3
  10  13  -7 20.2604 22.7072   2
 -10  13   7 29.0407 40.2057   3
  10 -13   5 2204.43 102.407   6
  10  13  -5 2349.16 99.1941   2
 -10  13   5 2164.10 121.742   3
  10 -13   3 608.775 57.1437   6
  13 -10   3 666.721 52.5700   6
 -13  10   3 512.239 76.0211   3
  10  13  -3 619.379 51.5438   2
 -10  13   3 746.043 71.1834   3
  13 -10   1 837.673 62.7424   6
  10 -13   1 858.473 68.4719   6
 -13  10   1 975.508 89.2326   3
 -10  13   1 952.834 75.7082   3
  10  13  -1 958.859 63.3053   2
  10 -13  -1 853.120 69.2594   6
 -13  10  -1 1000.84 85.6282   3
 -10  13  -1 937.413 72.8779   3
  13  10   1 800.347 54.7384   2
  10  13   1 922.307 64.4812   2
  10  13   3 796.249 60.3391   2
 -13 -10   7 5.63421 41.2304   5
 -10 -13   7 35.2889 38.7677   5
 -13 -10   9 118.153 44.7269   5
 -10 -13   9 193.645 41.0861   5
 -13 -10  11 56.8689 30.6133   5
 -10 -13  11 29.8310 27.6902   5
 -10 -13  13 94.0187 25.3072   5
 -10 -13  15 42.4223 15.2781   5
 -11  13  10 392.053 44.0828   3
 -11  13   8 196.434 49.1200   3
  11  13  -8 238.208 31.8982   2
  11  13  -6 98.1004 26.5009   2
 -13  11   6 55.8753 37.9472   3
  11 -13   4 1113.45 72.0696   6
  11  13  -4 1231.75 70.3263   2
 -11  13   4 1102.58 88.6282   3
 -11  13   2 17.2361 36.8424   3
  11 -13   2 14.3797 27.6860   6
  11  13  -2 12.0616 22.0323   2
  13 -11   2 7.62615 25.1427   6
 -13  11   2 5.57007 38.7478   3
  11 -13   0 904.634 67.8080   6
  13 -11   0 840.894 62.5607   6
 -13  11   0 781.911 79.7191   3
 -11  13   0 874.311 73.9866   3
  13  11   0 753.379 52.4611   2
  11  13   0 829.446 58.7258   2
  11 -13  -2 20.2972 32.0298   6
 -11  13  -2 25.8721 32.9214   3
  11  13   2 45.3983 25.2221   2
  13  11   2 21.3768 20.0200   2
  11  13   4 1096.46 69.3499   2
  13  11   4 850.075 59.8405   2
 -13 -11   8 165.850 41.3750   5
 -11 -13   8 248.316 43.3000   5
 -13 -11  10 657.173 58.3799   5
 -11 -13  10 579.511 52.6907   5
 -13 -11  12 133.004 28.4572   5
 -11 -13  12 112.947 24.3897   5
 -11 -13  14 454.006 33.5226   5
  11 -13 -14 413.513 31.1820   6
 -12  13   9 1789.72 97.6506   3
 -12  13   7 154.244 42.9465   3
 -13  12   7 141.693 39.0747   3
  12  13  -5 94.1053 24.9143   2
  12 -13   5 131.953 29.0863   6
 -13  12   5 103.041 45.5067   3
 -12  13   5 88.9834 41.5184   3
  12 -13   3 1764.32 93.7919   6
  13 -12   3 1634.70 89.5087   6
  12  13  -3 1680.97 88.1301   2
 -13  12   3 1508.51 115.912   3
 -12  13   3 1710.89 115.335   3
  12  13  -1 17.9080 20.0746   2
 -13  12   1 38.6684 36.7092   3
  12 -13   1 44.6660 29.9868   6
  13  12  -1 8.11023 17.1066   2
 -12  13   1 8.50745 32.3077   3
  13 -12   1 54.8790 27.4391   6
  12 -13  -1 9.10921 28.9018   6
  13  12   1 2.09493 18.4092   2
  13 -12  -1-17.2383 26.2368   6
 -12  13  -1-3.90448 30.4308   3
  12  13   1 29.8960 22.2597   2
  12 -13  -3 1485.17 93.7443   6
  13  12   3 1383.92 78.6767   2
  12  13   3 1576.55 83.7646   2
  12  13   5 139.580 28.9826   2
  13  12   5 50.6364 23.7660   2
 -13 -12   9 1706.29 98.3810   5
 -12 -13   9 1860.18 99.6544   5
 -13 -12  11 313.318 34.5270   5
 -12 -13  11 362.310 35.8835   5
 -12 -13  13 7.92343 12.9938   5
  12 -13 -13 8.18251 16.0798   6
 -13  13   6 667.527 67.8177   3
  13 -13   4 1132.67 66.4338   6
 -13  13   4 1044.36 91.1594   3
  13 -13   2 1189.13 72.5091   6
  13  13  -2 1169.07 66.3114   2
 -13  13   2 1102.62 89.9435   3
  13  13   0 32.0687 18.5361   2
  13 -13   0-7.89879 24.7810   6
  13 -13  -2 1101.86 75.3821   6
  13  13   2 1091.18 65.4085   2
  13 -13  -4 914.061 70.7623   6
  13  13   4 920.348 59.9276   2
  13 -13  -6 570.029 57.1356   6
  13  13   6 504.275 44.9716   2
  13  13   8 1078.25 66.4819   2
  13 -13 -10 811.894 57.9374   6
  13  13  10 804.757 53.6473   2
  13 -13 -12 507.676 38.2077   6
  13  13  12 650.045 41.3011   2
   0  14   0 39.0263 26.0201   2
   0 -14   0 53.1824 41.3466   6
   0  14   0 10.4193 17.9706   3
   0 -14   0 107.708 45.9210   1
   0  14  -2 57.8855 29.3991   2
   0 -14  -2 77.3653 43.7504   6
   0 -14   2 65.8999 39.9088   1
   0  14   2 37.7761 24.0363   3
   0 -14  -2 27.7396 40.4693   1
   0  14   2 95.3345 31.2155   2
   0 -14  -4 2774.90 150.956   6
   0 -14   4 2712.42 165.887   1
   0  14  -4 2922.53 140.394   2
   0  14   4 2880.13 135.746   2
   0  14   4 3015.54 138.314   3
   0  14  -6-9.73557 31.4107   2
   0 -14  -6-8.80517 48.1120   1
   0 -14   6-11.2910 28.6411   1
   0  14   6-2.72866 26.4111   2
   0  14   6 22.3960 29.2167   3
 -14   0   6 27.5360 49.2804   1
 -14   0   8 810.711 97.5333   1
   0 -14   8 644.210 65.9274   5
   0  14  -8 771.985 67.4289   2
   0 -14  -8 675.084 99.7791   1
   0  14   8 637.978 63.6100   3
   0 -14  10 1923.40 119.378   5
   0  14  10 1959.73 118.386   3
   0  14  12 556.168 61.0943   3
   0 -14  12 541.834 57.2335   5
   0 -14  14 233.103 38.2958   5
   0  14  16-9.89462 20.7704   3
   0 -14  16 16.1338 19.2498   5
   0  14  18 6.17398 12.9010   3
  -1  14  17 126.922 23.2205   3
  -1  14  15 406.140 42.0274   3
   1 -14  15 393.990 40.1852   5
   1 -14  13 226.645 38.5741   5
   1 -14  11 828.455 72.8261   5
  -1  14  11 802.773 73.7044   3
  -1 -14  -9 2919.21 215.247   1
 -14   1   9 3069.74 204.533   1
   1 -14   9 3405.40 167.448   5
  -1  14   9 3361.00 163.669   3
 -14   1   7 747.325 100.194   1
   1  14  -7 878.638 71.2245   2
  -1 -14  -7 865.938 108.259   1
  -1  14   7 866.782 70.2182   3
  -1 -14  -5 1795.69 153.294   1
   1 -14   5 2112.90 134.861   1
   1  14  -5 2132.77 113.558   2
  -1  14   5 2070.54 111.369   3
  -1 -14  -3 1384.16 98.9483   6
   1 -14   3 1363.33 106.270   1
   1  14  -3 1328.40 83.2965   2
  -1  14   3 1342.91 81.1985   3
   1 -14   1 2199.84 125.243   6
   1 -14   1 2192.53 143.043   1
  -1 -14  -1 2001.38 146.867   1
  -1  14   1 2130.63 109.734   2
   1  14  -1 2243.07 111.905   2
  -1  14   1 2228.24 106.902   3
   1 -14  -1 1937.77 115.789   6
  -1 -14   1 2144.80 140.293   1
  -1  14  -1 1806.41 99.2010   2
  -1  14  -1 1739.31 90.8381   3
   1  14   1 1801.23 97.8195   2
   1  14   1 1943.80 92.8680   3
   1 -14  -1 1622.03 128.297   1
   1 -14  -3 1325.57 94.5662   6
  -1 -14   3 1373.09 110.159   1
  -1  14  -3 1360.81 83.4954   2
   1 -14  -3 1286.94 118.750   1
   1  14   3 1189.44 77.7603   2
   1  14   3 1317.48 77.0869   3
   1 -14  -5 2391.78 136.257   6
  -1 -14   5 2454.39 153.734   1
  -1  14  -5 2383.20 125.196   2
   1  14   5 2312.63 121.011   3
   1  14   5 2523.98 123.381   2
  -1 -14   7 822.341 84.0181   1
  -1 -14   7 964.623 83.4007   5
 -14  -1   7 892.147 105.122   1
  -1  14  -7 867.357 72.3552   2
   1  14   7 1031.35 75.0819   3
 -14  -1   9 3203.49 206.518   1
   1  14   9 3263.29 161.791   3
  -1 -14  11 888.866 75.3199   5
   1  14  11 838.196 73.3609   3
   1  14  13 155.399 37.7251   3
  -1 -14  13 112.247 37.0349   5
  -1 -14  15 371.195 39.1271   5
   1  14  17 88.1150 21.4743   3
  -1 -14  17 91.2801 18.2274   5
  -2  14  18 55.7052 14.7297   3
  -2  14  16 300.622 33.2132   3
   2 -14  14 715.211 56.4672   5
  -2  14  14 698.704 57.5058   3
  -2  14  12 224.112 43.6061   3
   2 -14  12 259.141 42.8940   5
   2 -14  10 2032.69 118.333   5
  -2 -14  -8 1596.70 151.078   1
   2  14  -8 1864.44 107.311   2
  -2  14   8 1885.28 111.998   3
   2  14  -6 1341.34 83.3313   2
  -2  14   6 1252.67 85.6845   3
  -2 -14  -6 1229.88 126.358   1
   2 -14   4 1333.22 100.924   1
   2  14  -4 1188.88 79.1113   2
  -2 -14  -4 1261.68 120.451   1
  -2  14   4 1210.90 79.1200   3
   2 -14   2 2899.60 145.321   6
   2 -14   2 2605.57 159.265   1
   2  14  -2 2782.47 133.373   2
  -2  14   2 2721.83 130.264   3
   2 -14   0 4267.89 192.948   6
  -2 -14   0 3953.55 220.899   1
   2  14   0 3963.50 175.705   2
  -2  14   0 4095.62 172.960   3
   2 -14   0 3963.36 213.388   1
   2 -14  -2 2533.50 139.005   6
  -2 -14   2 2718.38 164.969   1
  -2  14  -2 2394.53 124.358   2
  -2  14  -2 2583.27 119.053   3
   2 -14  -2 2703.13 168.944   1
   2  14   2 2668.54 125.102   2
   2  14   2 2412.74 115.446   3
  -2 -14   4 796.704 77.4304   5
  -2 -14   4 800.018 85.9504   1
  -2  14  -4 872.391 67.6463   2
   2 -14  -4 826.071 77.6028   6
  -2  14  -4 765.457 55.3215   3
   2  14   4 913.086 62.1930   3
   2  14   4 830.942 64.0972   2
   2 -14  -6 1507.84 102.269   6
  -2 -14   6 1450.55 102.602   5
 -14  -2   6 1391.39 137.927   1
  -2  14  -6 1449.61 94.1592   2
  -2 -14   6 1547.62 119.566   1
   2  14   6 1498.57 90.8195   3
 -14  -2   8 1716.76 147.443   1
  -2 -14   8 1835.37 116.512   5
   2  14   8 1837.97 106.531   3
  -2 -14   8 1707.77 125.737   1
   2  14  10 2076.79 119.071   3
   2  14  12 203.550 43.0913   3
  -2 -14  12 223.275 45.8786   5
  -2 -14  14 648.438 54.5802   5
   2  14  14 621.596 55.7055   3
   2  14  16 302.254 32.9191   3
  -2 -14  16 272.037 32.1938   5
  14   2  18 42.3722 14.5374   3
  -3  14  17 58.0682 17.1791   3
  -3  14  15 13.0469 22.1735   3
   3 -14  15-5.54394 19.2136   5
  -3  14  13 128.894 34.6869   3
   3 -14  13 136.297 32.7365   5
   3 -14  11 1438.98 95.0907   5
  -3  14  11 1589.80 105.239   3
   3 -14   9 39.7785 38.8546   5
  -3 -14  -7 928.067 110.749   1
   3  14  -7 954.626 72.9681   2
  -3  14   7 1084.87 81.7110   3
   3  14  -5 5374.05 228.819   2
  -3 -14  -5 5348.42 293.086   1
  -3  14   5 5489.42 231.735   3
   3 -14   3 2439.81 139.319   6
   3 -14   3 2679.08 156.976   1
  -3 -14  -3 2594.15 181.942   1
   3  14  -3 2901.11 135.109   2
  -3  14   3 3015.90 136.395   3
   3 -14   1 1932.83 115.675   6
   3  14  -1 2194.84 107.829   2
   3 -14   1 1950.82 132.636   1
  -3  14   1 1981.79 103.651   3
   3 -14  -1 1992.79 121.029   6
   3 -14  -1 2416.71 150.338   1
  -3 -14   1 1958.91 144.108   1
  -3  14  -1 2089.31 105.325   3
   3  14   1 2071.56 107.548   2
   3 -14  -3 3440.50 170.058   6
  -3 -14   3 3385.61 197.033   1
  -3 -14   3 3186.84 175.120   5
  -3  14  -3 3333.58 149.762   3
   3  14   3 3497.72 156.328   2
   3 -14  -5 5248.45 238.243   6
  -3 -14   5 5162.25 266.627   1
  -3 -14   5 5381.55 244.105   5
 -14  -3   5 5230.78 298.720   1
  -3  14  -5 5145.49 228.411   2
  -3  14  -5 5267.49 215.530   3
   3  14   5 5531.83 220.823   3
   3 -14  -7 867.119 77.2875   6
  -3 -14   7 961.153 84.9187   5
 -14  -3   7 901.379 106.382   1
  -3 -14   7 781.118 86.1628   1
   3  14   7 918.242 69.3010   3
   3  14   9 38.2071 33.4518   3
  -3 -14   9 24.4520 37.4602   5
   3  14  11 1323.91 91.6403   3
   3  14  13 109.231 34.9541   3
  -3 -14  13 69.7741 29.1843   5
   3  14  15 31.5350 24.3064   3
  -3 -14  15 13.6708 22.1867   5
   3  14  17 33.2156 17.9179   3
  -3 -14  17 63.5305 17.9443   5
  14   3  17 27.3543 16.4775   3
  -4  14  16 74.5452 19.4803   3
  -4  14  14 152.736 31.0216   3
   4 -14  14 144.611 27.4136   5
  -4  14  12 192.237 39.3538   3
   4 -14  12 201.297 40.6602   5
   4 -14  10 815.969 68.1091   5
  -4  14  10 783.195 72.4509   3
  -4 -14  -8 1228.15 129.210   1
  -4  14   6 63.8906 34.2552   3
  -4 -14  -6 93.7594 53.8716   1
   4  14  -4 242.410 40.6460   2
   4 -14   4 211.478 45.7653   6
  -4  14   4 201.739 39.3229   3
  -4 -14  -4 189.344 59.6715   1
   4 -14   2 1251.99 89.2481   6
  -4 -14  -2 1417.57 124.323   1
   4 -14   2 1354.97 101.736   1
   4  14  -2 1440.06 84.1017   2
  -4  14   2 1445.16 85.4639   3
   4 -14   0 5099.89 251.337   1
   4 -14   0 5136.09 228.280   6
  -4 -14   0 4801.16 243.554   5
  -4  14   0 5399.07 216.817   3
   4  14   0 5223.37 216.635   2
   4 -14  -2 1594.13 104.159   6
   4 -14  -2 1521.49 122.092   1
  -4 -14   2 1637.34 116.086   5
  -4 -14   2 1460.24 123.949   1
  -4  14  -2 1500.24 88.5031   3
   4  14   2 1609.68 90.4979   2
  -4 -14   4 195.226 53.9641   1
  -4  14  -4 230.521 35.4017   3
   4 -14  -4 221.584 52.8925   6
  -4 -14   4 261.336 55.7550   5
  -4  14  -6 132.688 29.8526   3
   4 -14  -6 147.762 48.0557   6
   4  14   6 238.051 37.5215   3
  -4 -14   6 100.586 45.5144   5
 -14  -4   6 181.208 61.4232   1
  -4 -14   6 117.818 46.9341   1
   4 -14  -8 1321.26 95.3476   6
  -4 -14   8 1258.69 93.2242   5
 -14  -4   8 1262.07 125.222   1
  -4 -14   8 1218.66 110.310   1
   4  14   8 1261.20 85.0509   3
  -4 -14  10 760.735 70.3319   5
   4  14  10 813.346 68.4777   3
   4  14  12 195.847 41.3411   3
   4  14  14 159.314 32.7654   3
  -4 -14  14 183.750 34.1236   5
   4  14  16 44.4950 20.6664   3
  -4 -14  16 64.4581 22.0980   5
  14   4  16 49.9707 19.6149   3
   4  14  18 22.5695 12.3403   3
  -4  14 -18-3.20035 11.9095   4
  -5  14  17 263.434 22.4679   3
  -5  14  15 618.624 44.8499   3
  -5  14  13 38.3639 28.2800   3
   5 -14  13 68.4291 25.5190   5
  -5  14  11 256.362 47.5457   3
   5 -14  11 255.409 40.3126   5
   5  14  -9 818.416 65.0803   2
  -5  14   9 774.060 71.4071   3
  -5 -14  -7 3581.06 239.464   1
   5  14  -7 3792.10 170.738   2
   5 -14   5 958.443 76.2927   6
  -5 -14  -5 1126.88 120.596   1
  -5  14   5 869.852 70.9030   3
   5 -14   3 461.487 55.4488   6
  -5  14   3 454.905 51.5080   3
  -5 -14  -3 462.731 79.7793   1
  -5  14   1 373.328 42.3997   3
   5  14  -1 349.458 41.5901   2
  -5 -14  -1 455.285 74.5131   1
   5  14   1 396.138 46.0538   2
  -5  14  -1 455.877 47.7680   3
  -5 -14   1 394.279 69.8785   1
   5 -14  -1 482.976 66.2097   1
  -5 -14   1 370.587 68.1519   5
   5 -14  -1 467.544 59.1379   6
  -5 -14   3 590.966 80.7931   1
  -5 -14   3 559.697 74.3658   5
   5 -14  -3 476.892 61.3723   6
  -5  14  -3 554.206 50.1049   3
   5  14   3 540.795 53.5391   2
   5 -14  -5 1176.96 89.7404   6
  -5 -14   5 936.957 88.0490   5
 -14  -5   5 998.958 120.473   1
  -5  14  -5 1058.24 71.7087   3
  -5 -14   5 1172.22 108.191   1
   5 -14  -7 3515.30 176.569   6
  -5 -14   7 3355.19 175.758   5
 -14  -5   7 3501.98 229.096   1
  -5 -14   7 3398.74 205.500   1
   5  14   7 3627.28 161.431   3
   5 -14  -9 578.184 65.4162   6
  -5 -14   9 677.458 67.5262   5
   5  14   9 584.078 57.7998   3
   5  14  11 241.332 42.4742   3
  -5 -14  11 216.284 42.2899   5
   5  14  13 61.1338 32.8244   3
  -5 -14  15 642.995 47.8213   5
  14   5  15 534.668 42.7389   3
   5  14  15 627.427 47.9011   3
  -5 -14  17 329.061 27.3167   5
  -5  14 -17 297.241 25.3820   4
   5  14  17 310.591 27.0623   3
  -6  14  16 62.7774 15.3979   3
  -6  14  14 670.318 49.3695   3
   6 -14  12 1592.11 87.2967   5
  -6  14  12 1328.00 86.4368   3
   6 -14  10 1538.47 94.4973   5
  -6  14  10 1709.39 108.303   3
   6  14  -8 871.247 67.1233   2
  -6  14   8 821.322 74.2143   3
  -6 -14  -6 2164.94 178.351   1
   6  14  -6 2337.86 118.685   2
  -6  14   6 2152.44 123.773   3
   6 -14   4 3702.12 177.724   6
  -6 -14  -4 3492.43 236.051   1
   6  14  -4 4042.34 173.386   2
   6 -14   2 2106.95 119.084   6
  -6 -14  -2 2367.78 172.336   1
  -6  14   2 2272.05 119.464   3
  -6  14   0 27.2315 29.7761   3
  -6 -14   0 16.0212 44.5258   1
   6 -14  -2 2451.88 129.181   6
  -6 -14   2 2008.08 155.309   1
  -6 -14   2 2342.78 148.615   5
  -6  14  -2 2153.17 117.102   3
   6  14   2 2326.62 116.812   2
  -6 -14   4 3945.62 226.679   1
   6 -14  -4 3987.54 190.038   6
  -6 -14   4 3836.99 203.052   5
  -6  14  -4 4001.50 176.318   3
  -6 -14   6 2084.15 129.819   5
   6 -14  -6 2201.93 128.780   6
 -14  -6   6 1931.62 169.193   1
  -6  14  -6 2262.92 114.374   3
  -6 -14   6 2017.81 151.006   1
  -6 -14   8 818.794 74.5441   5
   6 -14  -8 786.206 75.3916   6
   6  14   8 833.226 62.9177   3
   6 -14 -10 1186.90 86.2902   6
  -6 -14  10 1310.58 88.6432   5
   6  14  10 1232.34 82.3162   3
  -6 -14  12 1488.05 91.0401   5
   6  14  12 1565.56 93.0933   3
  14   6  14 700.460 49.8150   3
   6  14  14 814.675 56.0177   3
   6  14  16 75.0703 18.9258   3
  -6 -14  16 72.6862 20.0759   5
  14   6  16 34.6666 14.0243   3
  -6  14 -16 74.3692 15.4734   4
  -7  14  15 339.139 29.0558   3
  -7  14  13 575.809 47.6087   3
   7 -14  11 809.831 60.5397   5
  -7  14  11 752.075 65.5643   3
   7  14  -9 797.147 63.4375   2
  -7  14   9 928.161 78.9820   3
   7  14  -7 4874.23 206.266   2
  -7  14   7 4676.44 218.579   3
   7 -14   5 3985.64 184.392   6
   7  14  -5 4349.58 181.486   2
  -7  14   5 3761.01 187.364   3
   7  14  -3 208.944 33.1336   2
   7 -14   3 203.640 40.9875   6
  -7 -14  -3 182.399 61.2178   1
   7 -14   1 6926.24 294.059   6
  -7 -14  -1 6799.51 355.489   1
  -7  14   1 7413.57 293.697   3
   7  14  -1 7324.59 285.754   2
  -7 -14   1 6751.10 351.959   1
  -7  14  -1 7628.10 298.856   3
  -7  14  -3 203.995 36.9088   3
  -7 -14   3 101.901 48.4119   5
  -7 -14   3 181.345 49.6585   1
   7 -14  -3 177.564 44.8639   6
   7 -14  -5 4289.80 201.278   6
  -7 -14   5 4009.46 210.049   5
  -7  14  -5 4373.25 189.193   3
   7 -14  -7 4755.06 224.980   6
  -7 -14   7 5012.47 228.197   5
  -7 -14   9 751.907 69.6985   5
   7 -14  -9 854.289 78.1524   6
   7 -14 -11 815.014 65.0177   6
  -7 -14  11 834.288 66.5875   5
   7  14  11 862.446 64.0346   3
  -7 -14  13 661.089 53.3580   5
   7  14  13 686.840 54.1412   3
   7  14  15 335.166 31.0964   3
  -7 -14  17 486.001 30.9119   5
  -8  14  14 363.854 30.9208   3
  -8  14  12 245.650 35.3651   3
   8 -14  10 1446.35 83.9429   5
  -8  14  10 1494.87 96.3443   3
   8  14  -8 2766.52 131.011   2
  -8  14   8 2415.93 141.656   3
   8  14  -6 55.8029 29.0497   2
  -8  14   6 28.2409 36.6456   3
   8 -14   4 6826.44 280.680   6
   8  14  -4 7004.71 274.720   2
  -8  14   4 6659.32 287.487   3
   8 -14   2 6659.74 277.094   6
   8  14  -2 6804.59 269.666   2
   8 -14   0 667.506 64.9693   6
  -8  14   0 583.247 55.9170   3
   8  14   0 620.505 53.1727   2
  -8 -14   0 531.187 84.2592   1
  -8  14  -2 6609.12 280.952   3
   8  14   2 7167.45 277.809   2
   8 -14  -4 7317.86 297.183   6
  -8 -14   4 6402.30 305.682   5
  -8  14  -4 7098.18 286.354   3
   8 -14  -6 131.047 46.7666   6
  -8 -14   6 76.0490 42.2306   5
  -8 -14   8 2763.89 132.687   5
   8 -14  -8 3073.69 142.458   6
  -8 -14  10 1613.17 95.8088   5
   8 -14 -10 1624.28 101.048   6
   8 -14 -12 378.868 41.0706   6
   8  14  12 374.017 38.7191   3
  -8 -14  12 359.884 40.4419   5
  -8 -14  14 485.860 39.9280   5
   8  14  14 500.100 38.5688   3
  -9  14  13 261.557 26.5949   3
  -9  14  11 299.318 38.4279   3
  -9  14   9 35.1668 32.2136   3
   9 -14   9 7.21225 21.8244   5
   9  14  -7 1805.06 96.9653   2
  -9  14   7 1745.73 112.792   3
   9 -14   5 3464.50 162.880   6
   9  14  -5 3837.95 162.502   2
  -9  14   5 3392.72 175.957   3
   9 -14   3 1634.18 94.3651   6
   9  14  -3 1587.91 88.1338   2
  -9  14   3 1560.07 99.8459   3
   9 -14   1 4391.24 187.626   6
  14  -9   1 3770.77 171.193   6
  -9  14   1 3772.65 184.785   3
   9  14  -1 4320.25 177.788   2
   9 -14  -1 3835.46 186.448   6
   9  14   1 4141.72 176.332   2
  -9  14  -3 1390.14 88.8512   3
   9  14   3 1396.28 85.0401   2
   9 -14  -5 3482.18 175.892   6
  -9 -14   5 3670.75 186.461   5
   9 -14  -7 2272.04 131.479   6
  -9 -14   7 2144.38 127.471   5
  -9 -14   9 22.6882 29.6384   5
   9 -14  -9 99.3541 45.0768   6
   9 -14 -11 331.264 41.4643   6
  -9 -14  11 304.844 38.4353   5
   9 -14 -13 285.993 30.2292   6
  -9 -14  13 312.616 33.0335   5
  -9 -14  15 31.5918 15.0457   5
 -10  14  12 3.24118 14.5228   3
 -10  14  10 297.919 39.8263   3
 -10  14   8 166.628 44.7591   3
  10  14  -8 190.348 31.8762   2
  10  14  -6 917.672 62.6622   2
 -10  14   6 828.800 76.7787   3
  10 -14   4 879.879 64.1201   6
  10  14  -4 873.371 59.2797   2
 -10  14   4 817.271 70.5389   3
  10 -14   2 974.872 72.5595   6
  14 -10   2 916.033 62.5359   6
  10  14  -2 998.530 66.4758   2
 -10  14   2 1056.46 83.2405   3
  14 -10   0 1120.63 74.9702   6
 -10  14   0 1224.74 87.2551   3
  10 -14   0 1363.85 87.1862   6
  10  14   0 1324.90 77.6688   2
  10 -14  -2 1257.54 86.5729   6
  10  14   2 1084.16 72.7228   2
  10  14   4 919.498 64.0298   2
  14  10   4 698.771 50.2342   2
  10 -14  -6 960.408 79.5158   6
 -10 -14   6 840.081 75.0178   5
 -10 -14   8 351.325 46.6162   5
  10 -14  -8 291.370 48.9940   6
  10 -14 -10 435.722 49.2502   6
 -10 -14  10 374.298 42.7546   5
  10 -14 -12 16.7725 19.7431   6
 -10 -14  12-1.89389 19.9715   5
 -10 -14  14 31.0084 14.8109   5
 -11  14   9 436.922 46.0962   3
 -11  14   7 130.154 40.3603   3
  11  14  -7 102.241 24.6373   2
 -11  14   5 646.795 68.4835   3
  11  14  -5 663.649 51.2359   2
  11  14  -3 21.4832 20.8394   2
 -14  11   3 6.28092 39.8014   3
  11 -14   3 2.69031 23.9572   6
 -11  14   3 16.4205 33.8417   3
  11  14  -1 220.425 33.4447   2
 -11  14   1 201.655 42.3029   3
  14 -11   1 221.034 34.6648   6
  11 -14   1 289.335 42.8599   6
  11  14   1 193.523 32.8125   2
  14 -11  -1 130.761 32.6549   6
  11 -14  -1 171.552 37.0534   6
 -11  14  -1 185.664 40.4200   3
  14  11   3 40.7866 19.3571   2
  11 -14  -3 30.5742 35.3467   6
  11  14   3 45.5336 27.1980   2
  11  14   5 655.355 53.5281   2
  14  11   5 559.850 44.7787   2
  11 -14  -7 212.502 45.4229   6
  11  14   7 225.126 36.6210   2
  11 -14  -9 709.895 61.1442   6
 -11 -14   9 526.233 48.4187   5
  11 -14 -11 99.8625 27.1862   6
 -11 -14  11 136.481 25.1552   5
  11 -14 -13 84.0943 17.3881   6
 -11 -14  13 91.4503 17.6796   5
 -12  14   8 207.143 34.2674   3
 -12  14   6 8.10124 33.9179   3
  12  14  -6 49.9999 19.9300   2
  12 -14   4 922.580 60.8313   6
  12  14  -4 870.566 55.4789   2
 -12  14   4 833.999 74.9470   3
  12 -14   2 493.638 48.1147   6
 -12  14   2 383.785 55.0328   3
  14 -12   2 493.344 43.4261   6
  12  14  -2 487.431 42.6919   2
  12  14   0 48.2096 22.0249   2
 -12  14   0 3.69297 27.5463   3
  12 -14   0 11.1353 28.2570   6
  14 -12   0 14.5897 26.9258   6
  14  12   2 309.841 32.3311   2
  12 -14  -2 394.592 47.5503   6
  14 -12  -2 391.967 44.0481   6
  12  14   2 452.756 41.4873   2
  12 -14  -4 820.455 66.6268   6
  14 -12  -4 771.319 63.0421   6
  14  12   4 723.455 50.4530   2
  12  14   4 769.542 55.5486   2
  14  12   6 43.4077 20.8625   2
  12  14   6 48.8737 25.0386   2
  12  14   8 233.038 32.2845   2
  14  12   8 188.973 28.6040   2
  12 -14 -10 966.568 60.8752   6
 -12 -14  10 796.025 51.2497   5
  12  14  10 939.468 58.3587   2
  14  12  10 855.001 53.7896   2
  12 -14 -12 231.936 25.5562   6
  14  12  12 232.828 24.6166   2
  14 -12 -12 184.998 24.9981   6
 -13  14   7 624.616 50.4942   3
 -13  14   5 1001.91 80.0654   3
  13  14  -3 211.411 26.4597   2
 -13  14   3 288.991 48.9206   3
  13 -14   3 196.814 30.2344   6
  13 -14   1 815.098 58.1033   6
  14 -13   1 834.066 56.1057   6
  13  14  -1 786.085 52.1659   2
  13 -14  -1 967.751 64.6720   6
  14 -13  -1 947.361 62.0252   6
  14  13   1 755.966 50.1850   2
  13  14   1 848.533 54.6553   2
  14  13   3 157.360 24.9086   2
  13  14   3 200.760 29.0570   2
  13 -14  -3 207.187 38.0810   6
  14 -13  -3 144.164 33.0491   6
  13 -14  -5 1007.42 71.0745   6
  14 -13  -5 1052.20 71.4482   6
  14  13   5 1085.53 60.6489   2
  13  14   5 963.357 61.7193   2
  14 -13  -7 713.834 58.0573   6
  14  13   7 684.753 47.0582   2
  13  14   7 745.081 50.5705   2
  13 -14  -9 773.574 54.3153   6
  14  13   9 646.430 44.3366   2
  13  14   9 744.747 48.0605   2
  13 -14 -11 565.716 39.5444   6
  14 -13 -11 622.694 40.8284   6
  14 -14   2 777.159 49.8468   6
  14 -14   0 1145.33 67.4814   6
  14 -14  -2 879.708 59.1305   6
  14  14   2 843.166 50.0748   2
  14 -14  -4 848.509 59.7741   6
  14  14   4 849.430 50.3957   2
  14  14   6-6.12501 16.2210   2
  14 -14  -6 18.0262 24.6241   6
  14  14   8 471.022 34.2541   2
   0 -15   1 2019.28 139.508   1
   0  15  -1 2033.76 106.703   2
   0 -15  -1 1823.04 140.830   1
   0  15   1 1757.24 101.516   2
   0  15   1 1960.40 97.7819   3
   0 -15  -3 6423.43 274.836   6
   0 -15   3 6219.81 295.768   1
   0  15  -3 6501.04 259.570   2
   0  15   3 6139.38 253.113   2
   0  15   3 6092.13 250.745   3
   0 -15  -3 6058.16 313.593   1
   0  15  -5 162.057 38.2897   2
   0  15   5 122.934 32.8706   2
   0 -15   5 158.936 41.2838   1
   0  15   5 187.446 36.5475   3
   0  15   7 481.276 53.0839   3
   0  15  -7 565.121 56.2053   2
   0 -15   9 7709.20 310.865   5
   0  15   9 7119.92 302.707   3
   0 -15  11 1304.55 89.0226   5
   0  15  11 1191.32 85.6655   3
   0  15  13 219.994 37.2446   3
   0 -15  13 269.867 40.0677   5
   0 -15  15 996.528 59.7453   5
   0  15  17 189.446 21.8359   3
  -1  15  16 95.9428 21.2478   3
   1 -15  16 78.3941 17.2208   5
   1 -15  14 711.898 53.5158   5
   1 -15  12 2672.48 135.849   5
  -1  15  12 2780.24 140.336   3
   1 -15  10 1454.63 100.671   5
  -1  15  10 1558.05 99.3087   3
   1 -15   8 3015.37 153.818   5
   1  15  -8 2788.42 144.587   2
  -1  15   8 2989.47 149.691   3
   1  15  -6 3355.91 159.285   2
  -1 -15  -6 3186.71 215.290   1
   1 -15   4 3907.81 212.039   1
   1  15  -4 4245.17 186.014   2
  -1 -15  -4 3828.09 238.775   1
  -1  15   4 4320.03 184.868   3
   1 -15   2 1657.83 124.811   1
   1  15  -2 1899.84 102.669   2
  -1 -15  -2 1778.20 142.205   1
  -1  15   2 1765.74 98.8199   2
  -1  15   2 1808.05 96.0792   3
   1 -15   0 4449.04 214.436   6
  -1 -15   0 4483.29 245.125   1
  -1  15   0 4565.75 199.058   2
   1 -15   0 4678.74 243.948   1
   1  15   0 4813.27 200.915   2
  -1  15   0 4693.44 191.962   3
   1 -15  -2 1708.84 112.404   6
  -1 -15   2 1738.50 132.091   1
  -1  15  -2 1688.91 98.6112   2
  -1  15  -2 1779.80 88.9481   3
   1  15   2 1702.19 97.3646   2
   1  15   2 1779.74 91.2344   3
   1 -15  -2 1656.54 133.063   1
   1 -15  -4 4218.13 248.119   1
   1 -15  -4 4141.99 204.794   6
  -1 -15   4 4508.68 230.950   1
  -1  15  -4 4121.13 191.270   2
   1  15   4 4348.41 189.549   2
   1  15   4 4566.64 188.483   3
  -1 -15   6 3080.34 162.101   5
  -1  15  -6 3265.42 154.831   2
   1  15   6 2925.91 146.462   2
   1  15   6 3278.40 152.194   3
  -1 -15   6 3000.62 178.624   1
   1  15   8 2662.09 131.311   2
   1  15   8 2721.40 139.653   3
  -1 -15  10 1594.21 104.346   5
   1  15  10 1658.98 104.014   3
  -1 -15  12 2518.21 131.963   5
   1  15  12 2775.45 138.577   3
  -1 -15  14 802.100 57.6049   5
   1  15  14 765.413 57.3730   3
  -1 -15  16 134.967 21.9491   5
  -2  15  17 215.543 21.3557   3
   2 -15  15 364.853 32.8155   5
  -2  15  15 360.080 35.1848   3
  -2  15  13 102.291 31.9456   3
   2 -15  13 176.247 35.0751   5
   2 -15  11 515.679 55.7840   5
   2 -15   9 1453.30 98.4460   5
  -2  15   9 1508.34 98.8338   3
   2  15  -7 730.513 64.9093   2
  -2  15   7 817.854 68.1531   3
   2  15  -5 840.131 64.6613   2
  -2  15   5 801.492 65.9543   3
  -2 -15  -5 831.597 102.597   1
   2  15  -3 314.450 43.1248   2
  -2  15   3 293.301 40.2382   3
  -2 -15  -3 219.299 63.5529   1
   2 -15   3 319.686 52.7980   1
   2  15  -1 501.951 50.5401   2
   2 -15   1 479.021 61.4402   6
  -2 -15  -1 493.468 78.1385   1
   2 -15   1 453.306 65.7039   1
  -2  15   1 554.152 48.0670   3
  -2  15  -1 403.438 47.2871   2
   2 -15  -1 482.682 62.3463   6
   2 -15  -1 597.481 76.0631   1
   2  15   1 465.541 48.4660   2
  -2 -15   1 355.852 64.1056   1
  -2  15  -1 529.166 45.6577   3
  -2  15  -3 401.575 47.7119   2
   2 -15  -3 392.022 57.8424   6
   2  15   3 260.190 39.8694   2
  -2  15  -3 320.656 38.6938   3
   2  15   3 361.891 38.2118   3
  -2 -15   3 382.520 62.0049   1
  -2 -15   3 369.258 57.6544   5
   2 -15  -3 339.943 66.9554   1
   2 -15  -5 798.224 74.8955   6
  -2 -15   5 666.774 79.4542   1
  -2 -15   5 818.744 76.6422   5
  -2  15  -5 717.912 64.4402   2
   2  15   5 841.179 64.7885   2
   2  15   5 872.513 62.6560   3
   2 -15  -5 834.068 102.080   1
  -2 -15   7 874.739 80.5539   5
   2  15   7 907.750 70.8907   3
   2  15   7 896.524 68.2761   2
  -2 -15   9 1308.90 95.9942   5
   2  15   9 1662.62 97.8964   3
   2  15  11 583.019 58.3147   3
  -2 -15  11 556.618 57.7716   5
   2  15  13 203.551 37.8780   3
  -2 -15  13 247.434 38.9792   5
  -2 -15  15 383.454 36.7192   5
   2  15  15 406.774 37.0501   3
   2  15  17 213.898 22.0109   3
  -2 -15  17 183.443 18.9679   5
  -3  15  16 96.5120 18.3021   3
  -3  15  14 174.300 29.1317   3
   3 -15  14 183.618 28.7467   5
   3 -15  12 669.784 57.7572   5
  -3  15  12 637.679 60.5980   3
   3 -15  10 1075.77 78.8926   5
  -3  15   8 391.755 53.2749   3
   3 -15   8 495.608 55.3489   5
   3  15  -8 402.794 48.4979   2
   3  15  -6 72.6743 32.4911   2
  -3  15   6 86.5486 33.2475   3
   3  15  -4 1289.79 81.3415   2
  -3  15   4 1243.92 78.7199   3
   3 -15   2 974.105 78.4049   6
  -3 -15  -2 926.141 101.128   1
   3 -15   2 952.055 85.9438   1
   3  15  -2 791.784 64.7986   2
  -3  15   2 888.714 64.6054   3
   3 -15   0 1400.67 99.0705   6
  -3 -15   0 1431.16 106.151   5
  -3 -15   0 1437.26 124.563   1
   3  15   0 1446.79 86.7006   2
  -3  15   0 1426.46 82.9810   3
   3 -15   0 1311.73 109.493   1
   3 -15  -2 912.551 78.4060   6
  -3 -15   2 909.446 83.4661   5
  -3 -15   2 949.359 96.5717   1
   3 -15  -2 866.512 94.1702   1
  -3  15  -2 864.980 61.2991   3
   3  15   2 868.254 66.3823   2
   3 -15  -4 1284.78 94.2967   6
  -3 -15   4 1228.57 110.061   1
   3 -15  -4 1115.98 114.309   1
  -3 -15   4 1178.86 94.1259   5
  -3  15  -4 1178.74 82.2547   2
  -3  15  -4 1197.16 73.2570   3
   3  15   4 1327.46 81.8199   2
   3  15   4 1230.29 73.4553   3
   3 -15  -6 141.379 43.7899   6
   3  15   6 103.150 33.2518   2
   3  15   6 145.727 32.3240   3
  -3 -15   6 136.338 47.4303   5
   3  15   8 478.670 51.8676   3
   3 -15  -8 478.300 59.3910   6
  -3 -15   8 435.142 59.3111   5
  -3 -15  10 947.182 77.8006   5
   3  15  10 983.966 73.7552   3
  -3 -15  12 705.044 59.9440   5
   3  15  12 659.751 61.7907   3
   3  15  14 175.949 31.1301   3
  -3 -15  14 207.048 32.0596   5
   3  15  16 80.1828 19.7221   3
  -3 -15  16 103.508 20.0369   5
  15   3  16 67.7012 16.5639   3
  -4  15  15 544.163 40.4911   3
  -4  15  13 49.9531 26.7026   3
   4 -15  13 102.010 27.3085   5
  -4  15  11 49.7532 34.8931   3
   4 -15  11 122.188 35.8607   5
   4 -15   9 758.112 65.8142   5
  -4  15   7 3116.06 156.190   3
   4  15  -5 418.870 49.2715   2
  -4 -15  -5 432.074 78.9741   1
  -4  15   5 498.733 53.6244   3
   4  15  -3 281.608 41.8727   2
  -4  15   3 302.367 40.8248   3
   4  15  -1 159.498 32.0749   2
   4 -15   1 145.895 42.6516   6
  -4  15   1 88.7093 28.0253   3
  -4 -15  -1 157.503 54.3624   1
   4 -15   1 117.416 39.5363   1
   4 -15  -1 178.726 46.7401   6
  -4  15  -1 177.596 34.1979   3
  -4 -15   1 141.931 51.6431   1
  -4 -15   1 108.042 44.0027   5
   4 -15  -1 75.6649 39.7462   1
   4  15   1 175.156 34.5796   2
   4  15   3 275.738 40.5632   2
  -4  15  -3 235.321 34.1942   3
  -4 -15   3 260.684 58.0746   1
   4 -15  -3 393.654 67.1661   1
  -4 -15   3 296.927 56.9545   5
   4 -15  -3 213.578 48.8552   6
   4 -15  -5 515.374 63.0436   6
  -4 -15   5 587.274 69.3479   5
  -4  15  -5 487.002 46.8889   3
  -4 -15   5 588.263 76.9771   1
   4  15   5 609.777 57.6201   2
   4 -15  -7 3471.92 175.087   6
  -4 -15   7 3280.40 174.139   5
   4  15   7 3660.41 162.172   3
   4 -15  -9 743.869 67.6824   6
  -4 -15   9 791.543 73.6452   5
   4  15   9 857.277 66.2588   3
   4  15  11 86.2290 34.6315   3
  -4 -15  11 82.7203 30.9267   5
   4  15  13 114.439 31.1466   3
  -4 -15  13 121.743 30.8191   5
  -4 -15  15 584.183 42.7143   5
   4  15  15 579.753 41.8817   3
  -4 -15  17 248.671 21.4702   5
   4  15  17 239.171 22.3388   3
  -5  15  16 18.5315 11.7222   3
  -5  15  14 760.644 51.0075   3
   5 -15  12 1898.32 97.6793   5
  -5  15  12 1739.78 98.1418   3
   5 -15  10 1143.22 79.9898   5
  -5  15  10 1200.65 86.1656   3
   5  15  -8 363.073 46.7286   2
  -5  15   6 2538.39 135.046   3
   5 -15   4 611.619 64.0193   6
  -5  15   4 668.668 59.8637   3
   5  15  -2 134.947 34.6304   2
  -5  15   2 194.809 35.6144   3
  -5 -15  -2 126.565 49.4653   1
   5  15   0 11.4318 27.6696   2
  -5  15   0 20.5398 26.8026   3
  -5 -15   0 39.5488 40.9278   1
   5 -15   0 11.2486 34.4568   6
   5 -15  -2 129.647 40.6503   6
  -5  15  -2 163.338 31.1455   3
   5 -15  -2 192.559 48.4414   1
  -5 -15   2 175.384 53.4158   5
   5  15   2 178.744 35.6259   2
   5 -15  -4 749.996 74.3552   6
  -5 -15   4 687.532 77.7224   5
  -5  15  -4 792.865 61.3844   3
   5  15   4 952.122 69.1879   2
   5 -15  -6 3067.51 160.183   6
  -5 -15   6 3136.52 163.504   5
  -5  15  -6 2982.36 141.629   3
   5 -15  -8 509.027 62.1580   6
   5  15   8 395.213 44.6272   3
  -5 -15   8 346.818 53.6749   5
   5 -15 -10 1346.79 83.1521   6
  -5 -15  10 1338.22 88.4593   5
   5  15  10 1163.58 79.4844   3
  -5 -15  12 2002.71 109.105   5
   5  15  12 2252.30 113.726   3
  -5 -15  14 709.828 52.1507   5
   5  15  14 757.701 52.5009   3
   5  15  16 10.8714 13.9289   3
  -5 -15  16 18.0747 14.5363   5
  -6  15  15 830.999 46.1293   3
  -6  15  13 346.515 35.5465   3
  -6  15  11 482.490 53.1997   3
   6 -15  11 636.060 52.7648   5
   6 -15   9 2602.92 133.491   5
   6  15  -9 2749.15 133.196   2
  -6  15   9 2796.50 143.828   3
   6  15  -7 5892.15 244.032   2
  -6  15   7 5845.98 254.285   3
   6  15  -5 118.156 33.6140   2
  -6  15   3 537.353 52.7962   3
   6 -15   3 576.358 60.0141   6
  -6  15   1 935.841 70.8167   3
   6 -15  -1 1094.99 85.0365   6
  -6  15  -1 1006.95 71.4513   3
   6  15   1 1060.74 74.0479   2
  -6 -15   3 529.567 70.0834   5
   6 -15  -3 583.410 66.0043   6
  -6  15  -3 536.833 51.2982   3
   6  15   3 608.645 53.9676   2
  -6  15  -5 106.792 32.0051   3
   6 -15  -5 193.463 46.7596   6
   6  15   5 57.0009 29.3065   2
  -6 -15   5 124.360 45.4252   5
   6 -15  -7 6460.44 267.643   6
  -6 -15   7 5714.78 261.646   5
   6 -15  -9 3249.28 154.961   6
  -6 -15   9 2929.85 148.020   5
   6  15   9 2833.93 137.419   3
  -6 -15  11 563.973 53.0742   5
   6  15  11 582.105 50.8033   3
   6  15  13 409.270 40.4614   3
  -6 -15  13 392.972 40.6801   5
  -6 -15  15 921.960 52.6490   5
   6  15  15 866.429 49.5184   3
  -7  15  14 380.244 31.0576   3
  -7  15  12 1525.14 83.9692   3
   7 -15  10 998.102 67.7873   5
  -7  15  10 1017.59 75.9692   3
   7  15  -8 700.322 58.8702   2
  -7  15   8 756.549 68.1707   3
   7  15  -6 1930.07 106.721   2
  -7  15   6 2056.62 116.195   3
   7 -15   4 1898.59 110.385   6
   7  15  -4 1974.86 105.412   2
   7 -15   2 1775.23 106.569   6
   7  15  -2 1773.67 99.6466   2
  -7  15   2 1785.05 105.422   3
  -7  15   0 263.162 41.8903   3
   7 -15  -2 1630.28 108.251   6
  -7  15  -2 1808.68 101.710   3
   7 -15  -4 1989.22 120.241   6
  -7 -15   4 1883.51 122.628   5
  -7  15  -4 2015.62 107.847   3
   7  15   4 1855.45 106.995   2
   7 -15  -6 1994.81 121.777   6
  -7 -15   6 2015.76 121.268   5
  -7 -15   8 571.015 59.1174   5
   7 -15  -8 659.582 68.0145   6
   7 -15 -10 1108.65 76.1168   6
  -7 -15  10 1070.55 75.3844   5
  -7 -15  12 1633.82 87.9334   5
   7  15  12 1607.68 83.8063   3
  -7 -15  14 384.593 34.8005   5
   7  15  14 430.841 32.7073   3
  -8  15  13 282.858 27.7517   3
  -8  15  11 375.992 40.9628   3
  -8  15   9 197.761 39.3874   3
   8 -15   9 156.738 30.9870   5
   8  15  -7 1256.89 77.3873   2
  -8  15   7 1238.87 87.3564   3
   8  15  -5 1020.79 69.0664   2
  -8  15   5 978.831 77.9104   3
   8  15  -3 79.4638 29.4323   2
   8 -15   3 93.2869 37.4673   6
   8 -15   1 1837.43 110.158   6
  -8  15   1 1934.35 108.890   3
   8  15  -1 1905.68 103.373   2
  -8  15  -1 1811.65 104.681   3
   8  15   1 1827.13 99.9968   2
   8 -15  -3 123.606 44.1089   6
  -8  15  -3 78.4534 32.1581   3
   8 -15  -5 1017.33 84.2862   6
  -8 -15   5 1054.65 85.9849   5
  -8  15  -5 1096.96 74.4610   3
   8 -15  -7 1470.33 97.9018   6
  -8 -15   7 1214.54 88.4317   5
   8 -15  -9 127.670 41.1044   6
  -8 -15   9 178.169 37.0314   5
   8 -15 -11 387.907 40.7359   6
  -8 -15  11 328.546 39.1846   5
  -8 -15  13 164.317 25.0697   5
  -8 -15  15 16.5957 12.1556   5
  -9  15  12 14.3390 14.5572   3
  -9  15  10 139.316 31.4397   3
  -9  15   8 326.012 50.9512   3
   9  15  -8 385.992 41.2649   2
   9  15  -6 775.808 57.8826   2
  -9  15   6 660.743 65.6212   3
   9  15  -4 323.107 40.2856   2
   9 -15   4 314.674 44.2459   6
  -9  15   4 391.344 49.6031   3
   9 -15   2 1530.25 93.7456   6
   9  15  -2 1647.76 90.7916   2
  -9  15   2 1465.01 95.7984   3
   9 -15   0 1474.11 93.6895   6
  15  -9   0 1324.30 79.0249   6
   9  15   0 1557.71 85.6642   2
  -9  15  -2 1373.22 89.1218   3
   9  15   2 1425.42 84.9608   2
  -9  15  -4 283.878 41.8796   3
   9 -15  -4 213.615 49.2709   6
   9  15   4 238.906 39.3822   2
   9 -15  -6 842.810 73.9493   6
  -9 -15   6 747.125 67.7301   5
   9 -15  -8 427.781 56.8224   6
  -9 -15   8 418.979 48.5722   5
  -9 -15  10 253.917 34.2760   5
   9 -15 -10 175.014 36.0410   6
   9 -15 -12-4.62322 18.4366   6
  -9 -15  12-8.71535 18.2961   5
   9  15  14 84.6939 16.1754   2
  -9 -15  14 111.218 17.1892   5
 -10  15  11 16.3244 16.0685   3
 -10  15   9 61.5325 28.0253   3
 -10  15   7 47.1099 32.1153   3
  10  15  -7 64.9480 25.1767   2
  10  15  -5 951.760 63.0384   2
 -10  15   5 886.909 72.9512   3
  10 -15   3 476.311 50.4427   6
 -10  15   3 472.844 54.7271   3
  10  15  -3 534.764 47.9184   2
  10 -15   1 109.205 35.0715   6
  10  15  -1 162.274 32.2125   2
 -10  15   1 90.1573 35.2552   3
  10 -15  -1 62.3272 34.6582   6
  10  15   1 63.6375 26.6800   2
  15 -10  -1 65.6214 26.7624   6
 -10  15  -3 607.833 57.3368   3
  10  15   3 653.727 53.6707   2
  10 -15  -5 940.411 78.2620   6
  10  15   5 1099.72 71.0276   2
  10 -15  -7 93.6312 39.3940   6
  10  15   7 81.1857 30.7956   2
 -10 -15   7 95.2838 29.1574   5
  10 -15  -9 5.52589 30.5864   6
 -10 -15   9 20.4320 20.9924   5
  10 -15 -11 37.1941 20.7738   6
 -10 -15  11 45.7585 18.5750   5
  10  15  13 6.49938 13.8966   2
 -10 -15  13 3.42526 11.7583   5
 -11  15  10 88.4073 18.0868   3
 -11  15   8 23.9909 24.0537   3
 -11  15   6 134.765 37.7011   3
  11  15  -6 200.825 28.8632   2
  11  15  -4 200.414 30.4224   2
 -11  15   4 231.928 44.9947   3
  11  15  -2 203.562 30.7956   2
  11 -15   2 166.091 34.0823   6
 -11  15   2 168.612 40.3253   3
  11  15   0 122.690 27.0897   2
 -11  15   0 40.0002 28.4933   3
  11 -15   0 118.334 33.5560   6
  15 -11   0 113.736 27.1133   6
  11  15   2 191.803 32.0379   2
  11 -15  -2 180.092 38.3768   6
  15 -11  -2 144.721 31.7182   6
  11  15   4 139.900 28.8284   2
  11 -15  -6 232.933 43.0567   6
  11  15   6 245.754 35.8529   2
  11 -15  -8-20.0173 29.4471   6
  11  15   8-8.95946 22.1514   2
  15  11   8 8.40030 15.9913   2
  11 -15 -10 112.710 27.3112   6
  11  15  10 108.449 25.9521   2
  15  11  10 93.5592 18.6897   2
 -11 -15  10 121.309 20.5205   5
 -12  15   9 273.277 26.4353   3
 -12  15   7 161.694 31.1908   3
 -12  15   5 366.280 48.5380   3
  12  15  -5 344.783 33.0601   2
  12  15  -3-1.88994 19.7443   2
  12 -15   3 15.1416 22.4907   6
 -12  15   3-37.5519 30.9821   3
  12  15  -1 22.3533 21.1433   2
 -12  15   1 26.5108 27.3280   3
  15 -12   1 15.0884 19.4382   6
  12 -15   1 38.9263 26.2531   6
  12 -15  -1 21.2864 25.3484   6
  12  15   1 43.4985 22.1682   2
  15 -12  -1 25.9178 24.0296   6
  12  15   3 18.9677 23.7167   2
  15 -12  -3 2.36993 23.6839   6
  12 -15  -3-5.62509 27.5212   6
  15 -12  -5 322.926 39.5305   6
  12  15   5 372.794 37.9638   2
  12  15   7 185.545 29.4512   2
  12 -15  -7 204.375 36.3575   6
  15 -12  -7 144.769 30.9685   6
  12 -15  -9 409.683 39.1944   6
  15 -12  -9 313.051 36.7799   6
  15  12   9 345.521 28.9289   2
  12  15   9 411.897 35.7619   2
  12  15  11 20.9805 13.7864   2
  15 -12 -11 27.4205 15.2430   6
 -13  15   6 21.7493 19.7519   3
 -13  15   4 497.135 51.1868   3
  13  15  -2 197.844 24.8516   2
  13 -15   2 214.257 29.6148   6
  13 -15   0 331.772 38.4584   6
  15 -13   0 338.890 33.9535   6
  13  15   0 392.053 33.5199   2
  13  15   2 301.066 31.6733   2
  13 -15  -2 338.471 41.4580   6
  15 -13  -2 343.554 36.9672   6
  13 -15  -4 577.027 49.4342   6
  15 -13  -4 481.194 43.8848   6
  13  15   4 598.858 42.8043   2
  13  15   6 28.3960 18.7348   2
  15 -13  -6 12.7836 22.3744   6
  13  15   8 130.354 21.5156   2
  13 -15  -8 192.288 29.0469   6
  15 -13  -8 143.775 27.1355   6
  14 -15  -1 732.836 49.9886   6
  15 -14  -1 762.017 47.9919   6
  15 -14  -3 862.510 53.9590   6
  14  15   3 775.363 46.1726   2
  14 -15  -5 1111.21 62.0443   6
  15 -14  -5 1052.64 59.7755   6
  14 -15  -7 375.861 33.2930   6
  15 -14  -7 310.965 31.1197   6
   0 -16   0 6655.73 314.358   1
   0  16   0 6296.71 261.739   2
   0 -16   2 888.324 88.3278   1
   0  16  -2 913.336 69.0860   2
   0 -16  -2 665.473 87.1475   1
   0  16   2 853.879 66.0188   2
   0  16   2 898.378 60.8142   3
   0  16  -4 2661.63 135.705   2
   0  16   4 2502.42 128.749   2
   0  16   4 2840.60 131.590   3
   0 -16   6 3893.71 190.015   5
   0  16  -6 4005.17 181.305   2
   0  16   6 3826.09 176.803   3
   0  16   8 1898.84 107.985   3
   0 -16  10 686.981 64.8950   5
   0  16  10 763.091 64.4632   3
   0 -16  12 2665.78 125.341   5
   0  16  12 2415.71 127.285   3
   0 -16  14 538.140 43.4876   5
   0  16  14 589.268 44.8093   3
   1 -16  15 446.697 33.9057   5
  -1  16  13 213.303 34.7535   3
   1 -16  13 283.897 34.8956   5
   1 -16  11 877.988 67.6982   5
  -1  16  11 879.243 70.1896   3
   1 -16   9 4436.53 203.618   5
  -1  16   9 4367.46 197.478   3
   1  16  -7 1344.83 87.8465   2
  -1  16   7 1312.19 87.5144   3
   1  16  -5 713.505 59.8334   2
  -1  16   5 575.313 55.8567   3
   1  16  -3 5266.79 220.915   2
  -1  16   3 5033.50 214.813   3
   1 -16   1 2020.52 142.974   1
  -1 -16  -1 1947.20 149.889   1
  -1  16   1 2109.30 111.950   2
   1  16  -1 2212.17 114.295   2
  -1  16   1 2142.09 106.529   3
  -1 -16   1 1953.84 145.020   1
  -1  16  -1 2166.58 115.618   2
   1 -16  -1 2125.18 153.115   1
   1  16   1 2289.42 117.463   2
  -1  16  -1 2195.23 105.797   3
   1 -16  -3 5338.25 238.290   6
  -1  16  -3 5274.17 222.621   2
   1  16   3 4925.17 217.277   2
   1  16   3 5213.83 212.402   3
   1 -16  -5 627.945 68.7631   6
  -1 -16   5 684.355 72.2628   5
  -1  16  -5 639.685 61.4374   2
   1  16   5 687.236 58.3171   2
   1  16   5 737.827 58.5912   3
  -1 -16   7 1588.96 104.917   5
   1  16   7 1426.38 86.8642   2
   1  16   7 1435.41 90.1736   3
   1  16   9 4507.19 199.495   3
  -1 -16  11 973.692 71.1995   5
   1  16  11 844.287 67.8416   3
   1  16  13 173.549 32.0547   3
  -1 -16  13 237.091 33.0339   5
  -1 -16  15 519.026 37.5675   5
   1  16  15 481.822 37.2213   3
  -2  16  16 6.61120 12.0434   3
  -2  16  14 168.390 26.9252   3
   2 -16  14 175.788 26.0145   5
   2 -16  12 891.080 63.7934   5
  -2  16  10 517.018 56.4722   3
   2 -16  10 631.472 61.3980   5
  -2  16   8 34.0728 31.9109   3
   2 -16   8 60.8890 37.2710   5
   2  16  -6 781.615 63.8919   2
  -2  16   6 824.554 66.7505   3
   2  16  -4 943.131 72.0820   2
  -2  16   4 970.523 68.9953   3
   2  16  -2 285.184 43.2104   2
  -2  16   2 239.978 36.2890   3
   2  16   0 162.137 35.5152   2
   2 -16   0 164.519 42.3696   6
  -2  16   0 193.068 30.9076   3
  -2 -16   0 184.823 48.9843   1
  -2  16  -2 122.413 32.5336   2
   2  16   2 227.119 37.9442   2
   2 -16  -2 112.774 46.1007   6
  -2  16  -2 123.081 27.8149   3
  -2 -16   2 158.265 46.8261   5
   2 -16  -4 906.110 79.6246   6
  -2 -16   4 963.344 80.9893   5
  -2  16  -4 857.907 68.7886   2
   2  16   4 904.714 67.6692   2
   2  16   4 949.573 62.8571   3
   2 -16  -6 1092.72 83.7220   6
  -2 -16   6 864.356 78.3263   5
   2  16   6 884.385 66.2717   2
   2  16   6 885.650 65.6384   3
   2  16   8 66.6023 30.1699   2
   2  16   8 100.306 29.8489   3
  -2 -16   8 46.1720 37.3277   5
   2  16  10 390.281 42.7061   2
   2  16  10 419.309 47.4060   3
  -2 -16  12 966.813 66.7589   5
   2  16  12 884.377 66.4964   3
   2  16  14 272.064 31.4120   3
  -2 -16  14 263.545 31.3852   5
   2  16  16 24.8913 13.1034   3
  -2 -16  16 12.5323 11.7680   5
  -3  16  15 104.006 18.8062   3
  -3  16  13 170.449 29.9496   3
   3 -16  13 198.738 30.0475   5
   3 -16  11 208.572 37.9900   5
  -3  16   9 169.747 37.6532   3
   3 -16   9 150.887 37.6044   5
   3 -16   7 1366.97 93.0352   5
   3  16  -7 1317.55 85.8421   2
  -3  16   7 1443.92 90.1808   3
   3  16  -5 306.719 44.8093   2
  -3  16   5 341.987 45.6233   3
   3  16  -3 749.473 61.1756   2
  -3  16   3 636.186 57.1280   3
   3  16  -1 141.014 33.7051   2
   3 -16   1 118.893 43.4782   6
  -3  16   1 90.5871 28.6613   3
   3  16   1 113.490 31.8375   2
   3 -16  -1 122.273 41.7135   6
  -3  16  -1 90.3532 27.4531   3
  -3 -16   1 109.803 47.7010   5
   3 -16  -3 581.849 67.1360   6
  -3 -16   3 690.893 72.2397   5
  -3  16  -3 508.617 46.1885   3
   3  16   3 581.354 54.3695   2
   3  16   5 343.441 45.3939   2
   3  16   5 263.383 35.6028   3
  -3 -16   5 336.770 54.9194   5
   3 -16  -5 278.201 53.6630   6
   3 -16  -7 1542.69 100.298   6
  -3 -16   7 1312.26 96.3445   5
   3  16   7 1416.70 88.4278   2
   3  16   7 1498.91 87.6480   3
   3  16   9 155.878 34.4563   2
   3  16   9 150.980 34.9476   3
  -3 -16   9 218.150 45.2153   5
   3  16  11 250.884 34.6696   2
   3  16  11 250.062 39.9744   3
   3  16  13 200.470 32.0633   3
  -3 -16  13 211.999 31.9762   5
   3  16  15 120.442 20.8166   3
  -3 -16  15 125.620 20.7015   5
  -4  16  14 499.585 37.6010   3
   4 -16  12 770.720 56.0164   5
  -4  16  12 835.420 58.9398   3
   4 -16  10 800.926 63.3975   5
   4 -16   8 1066.30 78.2182   5
  -4  16   8 989.839 77.3608   3
   4  16  -6 599.502 57.4931   2
  -4  16   6 650.365 61.9282   3
   4  16  -4 327.910 41.8183   2
  -4  16   4 388.405 45.5554   3
   4 -16   2 1704.14 105.451   6
   4  16  -2 1649.59 95.6742   2
  -4  16   2 1475.80 90.1533   3
   4  16   0 435.898 48.8565   2
   4 -16   0 435.635 56.7293   6
  -4  16   0 405.511 44.3699   3
   4 -16  -2 1701.50 109.718   6
  -4 -16   2 1579.72 114.098   5
  -4  16  -2 1643.56 92.0737   3
   4  16   2 1758.23 98.3463   2
  -4  16  -4 412.704 41.8556   3
   4 -16  -4 474.694 62.6010   6
   4  16   4 400.820 48.6462   2
  -4 -16   4 448.579 62.2438   5
   4 -16  -6 740.330 72.4027   6
  -4 -16   6 585.862 63.4026   5
   4  16   6 656.717 59.0534   2
   4 -16  -8 1235.95 86.0697   6
  -4 -16   8 1297.17 88.6357   5
   4  16   8 1088.33 74.3893   3
   4  16   8 1196.43 79.1674   2
  -4 -16  10 843.721 65.9145   5
   4  16  10 749.725 60.2703   3
   4  16  10 812.933 61.4361   2
   4  16  12 834.943 54.7317   2
   4  16  12 830.413 60.3849   3
  -4 -16  14 441.731 37.6042   5
   4  16  14 443.529 36.1012   3
  -5  16  15 512.829 32.2249   3
   5 -16  13 451.533 34.8070   5
  -5  16  13 447.947 38.8478   3
   5 -16  11 838.845 59.6544   5
  -5  16  11 752.383 60.2848   3
   5 -16   9 1172.24 78.1061   5
  -5  16   7 4294.26 196.236   3
  -5  16   5 832.906 68.5842   3
   5  16  -3 92.8079 33.3131   2
  -5  16   3 18.9503 25.6854   3
   5 -16   1 1410.82 95.0222   6
   5  16  -1 1323.84 82.7586   2
  -5  16   1 1337.96 82.9915   3
   5 -16  -1 1211.58 90.6399   6
  -5  16  -1 1051.64 72.4674   3
   5  16   1 1190.51 76.4593   2
  -5  16  -3 19.0974 24.5070   3
   5 -16  -3 47.9872 37.2267   6
   5  16   3 103.161 30.2120   2
  -5 -16   3 44.6150 38.7150   5
   5 -16  -5 1170.48 89.0726   6
  -5 -16   5 1241.68 91.1431   5
  -5  16  -5 1059.78 70.2910   3
   5  16   5 1065.89 76.4341   2
   5 -16  -7 5345.09 233.083   6
  -5 -16   7 5338.29 231.240   5
   5  16   7 5024.76 221.550   2
   5 -16  -9 1241.24 79.0239   6
  -5 -16   9 1051.80 79.1402   5
   5  16   9 1159.01 71.7609   3
   5  16   9 1231.78 78.6776   2
  -5 -16  11 894.672 63.8479   5
   5  16  11 866.454 59.4042   3
   5  16  11 881.531 62.5877   2
   5  16  13 541.517 37.6716   2
   5  16  13 467.671 39.7168   3
  -5 -16  15 488.014 33.4072   5
   5  16  15 452.235 30.6227   3
  -6  16  14 428.613 31.2506   3
   6 -16  12 2283.79 103.380   5
  -6  16  12 2376.75 109.150   3
   6 -16  10 929.262 63.1449   5
  -6  16  10 836.020 67.9116   3
  -6  16   8 499.892 56.0772   3
   6 -16   8 595.906 54.0315   5
   6  16  -8 614.958 54.6786   2
   6  16  -6 3692.70 167.873   2
  -6  16   4 1624.43 97.7660   3
  -6  16   2 726.879 61.7587   3
   6 -16   0 703.488 69.7611   6
  -6  16   0 613.831 56.1451   3
   6  16   0 768.135 60.1294   2
   6 -16  -2 705.055 70.8988   6
  -6  16  -2 826.751 62.0114   3
   6  16   2 792.499 63.8327   2
   6 -16  -4 1333.02 97.0313   6
  -6 -16   4 1374.30 97.5623   5
  -6  16  -4 1261.99 80.1577   3
   6  16   4 1426.19 85.8115   2
   6 -16  -6 3694.93 178.778   6
  -6 -16   6 3611.86 175.995   5
   6  16   6 3661.66 167.892   2
   6 -16  -8 662.449 65.6895   6
   6  16   8 540.049 54.0840   2
  -6 -16   8 634.925 59.5058   5
   6 -16 -10 830.388 59.6604   6
  -6 -16  10 876.188 63.0023   5
   6  16  10 931.335 64.7708   2
  -6 -16  12 2497.45 114.785   5
   6  16  12 2405.28 110.347   3
   6  16  12 2542.30 114.440   2
   6  16  14 377.874 27.3489   2
   6  16  14 388.404 28.3631   3
  -7  16  13 247.534 25.1584   3
   7 -16  11 404.257 36.6337   5
  -7  16  11 485.906 42.7308   3
   7 -16   9 797.236 57.0675   5
  -7  16   9 664.644 60.2678   3
   7  16  -7 2271.11 113.127   2
  -7  16   7 2072.04 117.475   3
   7  16  -5 84.9169 32.3020   2
   7  16  -3 96.1186 31.9218   2
   7 -16   3 141.689 40.5858   6
  -7  16   3 118.171 34.5117   3
  -7  16   1 312.565 44.4948   3
   7 -16  -1 321.708 53.8155   6
  -7  16  -1 361.354 44.3747   3
  -7  16  -3 106.804 28.5576   3
   7  16   3 87.1461 31.2004   2
   7 -16  -3 57.1380 41.0153   6
   7 -16  -5 79.5274 38.9746   6
   7  16   5 125.834 35.5660   2
  -7 -16   5 109.838 36.9523   5
   7 -16  -7 2158.63 123.196   6
  -7 -16   7 2117.23 117.534   5
   7  16   7 2187.64 114.060   2
   7 -16  -9 796.232 62.2740   6
  -7 -16   9 706.814 58.1828   5
   7  16   9 734.803 58.5658   2
  -7 -16  11 391.977 40.5673   5
   7  16  11 477.580 43.9795   2
   7  16  13 254.447 26.4109   2
  -7 -16  13 237.165 27.5176   5
  -8  16  12 315.671 28.9457   3
  -8  16  10 47.3402 24.4529   3
   8 -16  10 65.2320 20.9734   5
  -8  16   8 276.173 40.2988   3
   8 -16   8 220.415 34.0534   5
   8  16  -6 5.08624 24.2062   2
  -8  16   6-10.0423 30.3792   3
   8  16  -4 394.224 44.6271   2
   8 -16   2 969.327 75.1076   6
   8  16  -2 988.568 67.4545   2
  -8  16   2 867.412 70.3442   3
   8  16   0 208.271 35.3447   2
  -8  16   0 253.390 41.3700   3
   8 -16  -2 1115.74 85.0706   6
  -8  16  -2 982.202 71.7634   3
  -8  16  -4 341.558 44.0953   3
   8 -16  -4 370.505 54.2316   6
   8 -16  -6-17.9507 37.1495   6
   8  16   6 41.3860 29.8913   2
  -8 -16   6-6.27672 29.1859   5
   8 -16  -8 170.044 44.5463   6
   8  16   8 229.701 36.7021   2
  -8 -16   8 258.800 38.4648   5
   8 -16 -10 43.5749 24.6920   6
   8  16  10 94.3998 26.9178   2
  -8 -16  10 99.5160 26.1789   5
  -8 -16  12 315.425 31.6343   5
   8  16  12 469.080 36.3081   2
  -9  16  11 9.21347 14.7022   3
  -9  16   9 86.6552 28.7202   3
   9 -16   9 102.532 21.9034   5
  -9  16   7 253.063 42.4020   3
   9  16  -7 321.659 36.8607   2
   9  16  -5 1205.92 73.0320   2
  -9  16   5 1190.21 82.7580   3
   9 -16   3 1868.41 100.133   6
   9  16  -3 1892.39 95.6597   2
   9  16  -1 437.783 45.6159   2
   9 -16   1 378.186 49.3866   6
   9  16   1 439.226 46.0444   2
  -9  16  -1 453.423 49.0041   3
  16  -9  -1 402.992 40.0631   6
   9 -16  -3 1870.49 109.638   6
  -9  16  -3 1649.20 98.9137   3
   9  16   3 2015.84 102.074   2
   9 -16  -5 1402.31 94.3578   6
   9 -16  -7 260.051 46.5209   6
  -9 -16   7 127.511 29.8937   5
   9 -16  -9 131.006 32.9418   6
   9  16   9 129.200 28.7208   2
  -9 -16   9 201.570 28.8150   5
   9 -16 -11 46.0232 17.7305   6
   9  16  11 43.6721 21.9693   2
  -9 -16  11 36.2845 17.1401   5
 -10  16  10 154.868 22.4579   3
 -10  16   8 343.406 40.2868   3
  10  16  -6 701.039 49.9425   2
 -10  16   6 643.394 57.7378   3
 -10  16   4 471.067 52.2417   3
  10  16  -4 456.245 42.4873   2
  10 -16   2 1164.62 76.5334   6
  10  16  -2 1207.43 73.1014   2
 -10  16   2 1166.00 79.7440   3
  10 -16   0 967.040 72.6290   6
  10  16   0 1062.92 67.5490   2
  10 -16  -2 979.722 76.1433   6
  16 -10  -2 1024.82 65.7210   6
 -10  16  -2 1149.72 75.7054   3
  10  16   2 1190.88 71.7964   2
  10  16   4 371.648 41.2364   2
  10 -16  -4 352.113 47.5162   6
  10 -16  -6 636.415 58.8140   6
  10  16   6 645.004 52.5296   2
  10 -16  -8 369.641 44.4382   6
  10 -16 -10 127.495 23.3793   6
 -10 -16  10 94.2987 18.8532   5
 -11  16   9 55.8647 15.8345   3
 -11  16   7 267.424 36.5798   3
  11  16  -5 704.085 48.1975   2
 -11  16   5 686.346 58.6516   3
  11  16  -3 218.053 30.3784   2
 -11  16   3 231.310 37.8433   3
  11  16  -1 433.191 40.6560   2
 -11  16   1 401.849 46.5539   3
  11 -16   1 354.482 41.9417   6
  11 -16  -1 520.060 48.9097   6
  16 -11  -1 384.440 37.0524   6
  11  16   1 517.126 43.5663   2
  11  16   3 208.583 31.3880   2
  11 -16  -3 181.955 38.3226   6
  16 -11  -3 133.147 27.1329   6
  11 -16  -5 707.398 59.5129   6
  16 -11  -5 548.586 49.2068   6
  11  16   5 692.043 50.2366   2
  11  16   7 209.503 30.5613   2
  11 -16  -7 184.582 34.3362   6
  11  16   9 50.3852 18.9546   2
  11 -16  -9 33.7950 20.3377   6
 -12  16   6 41.0269 21.0607   3
 -12  16   4 101.331 30.3682   3
  12  16  -4 70.6882 18.7066   2
  12  16  -2 223.881 28.1485   2
 -12  16   2 242.025 37.1065   3
  12  16   0 55.0820 21.2310   2
  12 -16   0 46.7877 24.1998   6
  12  16   2 222.887 29.1697   2
  12 -16  -2 233.249 35.5139   6
  16 -12  -2 176.614 26.0873   6
  12  16   4 157.814 26.1746   2
  12 -16  -4 131.112 31.1565   6
  16 -12  -4 132.706 25.7434   6
  12  16   6 63.5034 21.0133   2
  12 -16  -6 66.6491 27.4193   6
  16 -12  -6 65.8456 22.8531   6
  12  16   8 114.808 20.8630   2
  12 -16  -8 145.410 24.7949   6
  16 -12  -8 77.9373 21.0997   6
  13  16  -1 34.7577 14.5304   2
  13  16   1 34.5814 15.1725   2
  13 -16  -1 39.1887 20.9499   6
  13  16   3 66.2356 18.5406   2
  13 -16  -3 83.3628 25.9640   6
  16 -13  -3 52.6072 18.5703   6
  13  16   5 199.135 22.9517   2
  13 -16  -5 180.352 28.4224   6
  16 -13  -5 146.090 24.5243   6
  13 -16  -7 337.647 31.7113   6
   0  17  -1 42.6719 28.0438   2
   0  17   1 27.0941 27.3605   2
   0  17   1 53.4190 20.8735   3
   0  17  -3 62.3029 31.3773   2
   0  17   3 93.6376 29.8729   2
   0  17   3 54.5907 24.1312   3
   0 -17   3 76.7640 45.3396   5
   0  17   5 46.4979 27.6381   3
   0 -17   5 35.0189 38.9009   5
   0  17  -5 22.1422 27.8198   2
   0  17   7 347.627 42.9054   3
   0 -17   7 384.323 53.9297   5
   0  17   9 760.757 60.8278   3
   0  17  11 273.058 38.6947   3
   0 -17  11 267.942 38.1119   5
   0  17  13 61.2789 19.4861   3
   0 -17  13 19.1809 19.0208   5
   0  17  15 172.898 18.7951   3
  -1  17  14 91.1941 18.7237   3
   1 -17  14 114.853 18.9531   5
   1 -17  12 418.081 40.3887   5
  -1  17  12 489.325 43.7418   3
  -1  17  10 195.295 35.9796   3
   1 -17  10 273.616 40.5148   5
  -1  17   8 5.90609 27.4624   3
  -1  17   6 237.435 39.0651   3
   1 -17   6 250.548 47.0107   5
   1  17  -6 193.792 38.5474   2
   1  17  -4 567.151 55.5697   2
  -1  17   4 595.030 52.1411   3
   1  17  -2 92.3448 32.1372   2
  -1  17   2 82.3930 26.3678   3
  -1  17   0 2.94993 24.8881   2
   1  17   0 49.5081 30.1346   2
  -1  17   0 47.8567 22.0859   3
  -1  17  -2 134.956 34.3012   2
   1  17   2 86.1380 32.4005   2
  -1 -17   2 121.360 44.6945   5
  -1 -17   4 811.296 75.9620   5
  -1  17  -4 746.752 63.7802   2
   1  17   4 704.641 59.9000   2
   1  17   4 778.181 56.8015   3
   1  17   6 344.031 40.5871   3
  -1 -17   6 243.364 51.7047   5
   1  17   8 5.55448 26.1357   3
  -1 -17   8 24.2785 34.6623   5
   1  17  10 206.420 35.1931   3
  -1 -17  12 440.175 42.5816   5
   1  17  12 502.086 44.8978   3
   1  17  14 128.245 21.1429   3
  -1 -17  14 184.022 23.3932   5
  -2  17  15 25.3010 12.1802   3
  -2  17  13 97.1491 23.3370   3
   2 -17  13 128.153 22.1708   5
  -2  17  11 163.556 34.6465   3
   2 -17  11 137.540 30.4722   5
  -2  17   9 55.6664 29.6355   3
   2 -17   9 52.7119 32.1370   5
  -2  17   7 261.161 40.6724   3
   2  17  -5 612.881 56.4597   2
  -2  17   5 603.580 55.5313   3
   2  17  -3 2161.14 116.599   2
  -2  17   3 2339.33 114.989   3
   2  17  -1 222.626 39.0657   2
  -2  17   1 262.600 35.2748   3
  -2 -17  -1 250.447 51.8485   5
   2  17   1 271.654 41.4137   2
  -2  17  -1 198.830 30.7406   3
  -2 -17   1 196.634 50.1926   5
  -2 -17   3 1982.86 123.918   5
  -2  17  -3 1775.83 105.300   2
   2  17   3 2073.17 108.430   2
  -2 -17   5 562.252 65.3427   5
   2  17   5 549.320 52.5771   2
   2  17   5 633.442 49.8958   3
   2  17   7 217.874 35.7552   2
   2  17   7 289.988 38.6326   3
   2  17   9 18.2233 24.8056   3
  -2 -17   9 64.7049 34.6916   5
   2  17  11 217.656 32.3989   3
   2  17  13 141.089 24.5276   3
  -2 -17  13 139.158 24.4068   5
  -3  17  14 211.980 23.1309   3
   3 -17  12 9.25920 20.5855   5
  -3  17  10 355.045 44.0560   3
   3 -17  10 350.251 42.3302   5
   3 -17   8 1290.27 84.4216   5
  -3  17   8 1146.77 77.4636   3
  -3  17   6 465.442 52.2268   3
   3  17  -6 550.536 53.1068   2
   3  17  -4 261.063 41.0154   2
  -3  17   4 320.092 40.6297   3
   3  17  -2 3212.82 148.460   2
  -3  17   2 2914.10 141.866   3
  -3 -17   0 3440.87 174.006   5
   3  17   0 3267.85 156.163   2
  -3  17   0 3279.71 149.567   3
   3 -17  -2 3084.03 164.612   6
  -3 -17   2 3320.97 169.775   5
  -3  17  -2 3069.49 142.619   3
   3  17   2 3431.67 153.978   2
   3  17   4 164.542 37.3059   2
   3 -17  -4 139.874 45.4735   6
  -3 -17   4 205.312 51.5042   5
   3 -17  -6 404.798 56.7230   6
   3  17   6 447.508 49.2693   2
  -3 -17   6 448.132 57.2221   5
   3  17   6 513.144 43.9725   3
  -3 -17   8 1281.49 87.0440   5
   3  17   8 1292.52 78.8130   2
   3  17   8 1320.63 78.3437   3
   3  17  10 309.999 34.7745   2
   3  17  10 318.465 38.5193   3
  -3 -17  10 293.311 40.1163   5
   3  17  12 18.4071 20.9677   3
   3  17  14 192.392 21.6841   3
  -3 -17  14 224.476 24.1250   5
   4 -17  13 298.121 26.3287   5
  -4  17  13 381.288 32.1628   3
   4 -17  11 495.456 42.9855   5
  -4  17   9 75.6577 30.9997   3
   4 -17   9 119.931 32.3011   5
   4 -17   7 1184.36 80.7728   5
   4  17  -7 1172.58 76.3566   2
  -4  17   7 1103.50 77.0666   3
   4  17  -5 1067.35 75.4033   2
  -4  17   5 1162.55 77.3889   3
   4  17  -3 3141.27 149.988   2
  -4  17   3 3116.35 148.444   3
   4  17  -1 449.712 49.2262   2
  -4  17   1 516.792 48.9796   3
   4  17   1 484.445 50.2013   2
   4 -17  -1 508.322 59.7737   6
  -4 -17   1 500.248 64.2017   5
  -4  17  -1 498.917 46.7628   3
   4 -17  -3 3050.59 158.774   6
  -4 -17   3 3188.03 162.483   5
  -4  17  -3 2864.81 135.800   3
   4  17   3 3035.09 144.350   2
   4 -17  -5 1338.08 92.8641   6
  -4 -17   5 1273.31 91.4645   5
   4  17   5 1203.70 80.7176   2
  -4 -17   7 1357.67 90.3084   5
   4  17   7 1171.53 78.9845   2
   4  17   9 94.4646 29.1874   2
   4  17   9 107.243 25.9215   3
  -4 -17   9 128.717 31.7034   5
  -4 -17  11 618.860 48.8153   5
   4  17  11 543.876 41.4588   2
   4  17  11 537.293 44.0571   3
   4  17  13 315.510 28.3929   3
  -5  17  14 212.237 20.0876   3
   5 -17  12 787.522 45.8837   5
  -5  17  12 740.353 49.2089   3
   5 -17  10 390.280 41.0534   5
   5 -17   8 930.133 67.1247   5
  -5  17   8 853.790 67.5920   3
  -5  17   6 483.436 51.2030   3
   5  17  -6 468.738 48.5724   2
   5  17  -4 1143.37 74.3607   2
  -5  17   4 1019.12 74.2534   3
   5  17  -2 2385.59 122.223   2
  -5  17   2 2444.20 122.979   3
   5  17   0 93.3198 31.0247   2
   5 -17   0 93.2087 41.1931   6
  -5  17   0 72.4264 29.1034   3
   5 -17  -2 2556.33 136.816   6
  -5 -17   2 2214.31 132.225   5
  -5  17  -2 2393.17 118.036   3
   5  17   2 2553.40 125.055   2
   5 -17  -4 1104.11 87.3385   6
  -5 -17   4 1184.93 87.0209   5
  -5  17  -4 1123.28 70.5560   3
   5  17   4 1254.69 80.2066   2
   5 -17  -6 387.873 53.3236   6
   5  17   6 413.103 47.5634   2
  -5 -17   6 503.297 55.1221   5
   5 -17  -8 1011.33 70.3507   6
  -5 -17   8 1103.94 72.9158   5
   5  17   8 974.326 68.3865   2
   5  17  10 427.766 42.0609   2
  -5 -17  10 392.735 41.7634   5
  -5 -17  12 810.158 50.9220   5
   5  17  12 736.797 43.3217   2
   5  17  12 715.524 45.4712   3
  -6  17  13 402.374 28.7350   3
   6 -17  11 546.203 39.6940   5
  -6  17  11 582.094 44.4042   3
  -6  17   9 434.084 46.6520   3
   6 -17   9 481.400 44.9426   5
   6 -17   7 2887.25 140.165   5
   6  17  -7 2982.74 138.325   2
  -6  17   5 744.403 61.1296   3
   6  17  -3 27.7989 27.8812   2
  -6  17   3 132.678 33.8775   3
   6 -17   1 1940.42 110.885   6
   6  17  -1 1765.66 98.8080   2
  -6  17   1 1734.10 98.5342   3
   6 -17  -1 1652.42 106.034   6
  -6  17  -1 1581.62 91.8365   3
   6  17   1 1740.28 95.3055   2
   6  17   3 134.921 35.8241   2
  -6  17  -3 64.4973 26.2519   3
   6 -17  -3 73.3232 42.5400   6
  -6 -17   3 141.535 38.1900   5
   6 -17  -5 1026.82 79.0697   6
  -6 -17   5 847.841 71.1907   5
   6  17   5 939.816 67.7801   2
   6 -17  -7 3151.95 152.440   6
  -6 -17   7 2978.78 144.493   5
   6  17   7 3025.99 142.226   2
   6 -17  -9 429.712 41.9132   6
  -6 -17   9 507.380 46.7305   5
   6  17   9 493.637 45.0093   2
  -6 -17  11 651.866 45.9919   5
   6  17  11 616.083 44.1212   2
  -6 -17  13 473.247 32.9788   5
  -7  17  12 890.356 48.2745   3
  -7  17  10 160.591 27.6951   3
   7 -17  10 174.628 24.3769   5
  -7  17   8 368.149 43.7315   3
   7 -17   8 380.685 40.4458   5
   7  17  -6 791.835 58.0777   2
   7  17  -4 1611.90 89.2849   2
  -7  17   4 1538.64 92.1452   3
  -7  17   2 887.880 66.8464   3
   7  17   0 27.0968 26.9399   2
  -7  17   0-22.7924 27.1196   3
   7 -17  -2 1131.51 82.5011   6
  -7  17  -2 1051.89 71.8608   3
   7  17   2 1065.38 71.5469   2
   7 -17  -4 1610.28 101.752   6
   7  17   4 1560.75 91.2301   2
   7 -17  -6 616.065 60.9679   6
  -7 -17   6 587.324 53.5530   5
   7  17   6 565.361 51.0198   2
   7 -17  -8 461.892 48.8268   6
  -7 -17   8 379.535 42.5586   5
   7  17   8 511.605 45.0875   2
   7  17  10 222.157 30.8573   2
  -7 -17  10 253.129 31.2243   5
  -7 -17  12 762.073 44.5055   5
   7  17  12 749.642 42.3537   2
  -8  17  11 63.8667 17.1357   3
  -8  17   9 74.9214 23.8645   3
   8 -17   9 56.2979 19.2028   5
   8 -17   7 1118.74 68.9375   5
   8  17  -7 1218.69 70.2891   2
  -8  17   7 1110.91 73.6849   3
   8  17  -5 792.888 56.4899   2
   8  17  -3 926.355 62.3609   2
  -8  17   3 881.909 67.8290   3
   8 -17   1 1255.84 82.5963   6
   8  17  -1 1153.83 73.7806   2
  -8  17   1 1161.04 76.0544   3
   8 -17  -1 1114.67 81.3745   6
  -8  17  -1 1169.63 74.3369   3
   8 -17  -3 1160.36 84.0997   6
  -8  17  -3 1228.86 74.4433   3
   8  17   3 1008.48 70.1954   2
   8 -17  -5 786.449 68.5410   6
   8  17   5 765.435 58.6873   2
   8 -17  -7 1217.60 80.8141   6
  -8 -17   7 1028.67 66.5708   5
   8  17   7 1153.97 70.7343   2
   8 -17  -9 46.4943 22.6465   6
   8  17   9 53.0974 23.7710   2
  -8 -17   9 69.0487 22.1576   5
   8  17  11 27.9376 16.6745   2
  -8 -17  11 25.7134 14.6709   5
  -9  17  10 283.733 26.4902   3
   9 -17   8 758.583 47.5053   5
  -9  17   8 814.508 56.5275   3
   9  17  -6 496.282 43.0376   2
  -9  17   6 527.983 49.7157   3
   9  17  -4 1615.35 84.6623   2
  -9  17   4 1461.28 90.1822   3
   9  17  -2 2192.28 107.599   2
   9 -17   0 1321.47 85.2276   6
   9  17   0 1370.93 78.3548   2
  -9  17   0 1290.47 79.5038   3
  -9  17  -2 2022.17 105.324   3
   9  17   2 2207.40 104.967   2
   9 -17  -4 1747.81 101.627   6
   9  17   6 423.081 43.2022   2
   9 -17  -6 601.275 54.2195   6
   9 -17  -8 806.619 58.1592   6
   9  17   8 857.998 55.2624   2
   9  17  10 351.019 32.5129   2
 -10  17   9 48.8758 15.8320   3
  10 -17   7 395.270 31.5486   5
 -10  17   7 435.659 40.3508   3
  10  17  -5 1254.38 68.2140   2
 -10  17   5 1212.20 76.0461   3
  10  17  -3 1243.63 67.6044   2
 -10  17   3 1007.66 71.2585   3
  10  17  -1 895.532 58.8415   2
  10 -17  -1 972.137 69.3243   6
  10  17   1 1022.40 63.8684   2
  17 -10  -3 936.815 58.5303   6
  10  17   3 1237.63 68.9580   2
  10 -17  -5 1314.66 77.5630   6
  10  17   5 1263.80 70.1474   2
  10 -17  -7 465.638 44.8344   6
  10  17   9 61.4383 19.5230   2
 -11  17   6 20.1207 20.0146   3
 -11  17   4 368.806 39.2308   3
  11  17  -4 398.016 33.6701   2
  11  17  -2 1200.15 65.1296   2
 -11  17   2 1131.36 72.0337   3
  11  17   0 183.974 28.1120   2
  11 -17   0 191.349 33.0928   6
  11 -17  -2 1072.15 68.5257   6
  11  17   2 1102.60 63.6412   2
  17 -11  -4 325.846 31.2847   6
  11  17   4 397.931 35.9763   2
  11  17   6 29.8768 18.1546   2
  11 -17  -6 22.5672 22.9105   6
  17 -11  -6 15.0329 18.1905   6
  11  17   8 496.707 35.4730   2
  12  17  -3 122.162 18.2720   2
  12  17  -1 230.169 24.9513   2
  12  17   1 194.678 24.5468   2
  12 -17  -1 175.330 27.8221   6
  12  17   3 176.788 24.1015   2
  12 -17  -3 175.792 27.9057   6
  12  17   5 294.980 27.8757   2
   0 -18   0 1816.85 109.879   5
   0  18   0 1420.26 89.0095   2
   0 -18   2 555.591 65.0329   5
   0  18  -2 543.512 53.6144   2
   0  18   4 27.8618 23.1124   3
   0 -18   4 21.9685 33.4563   5
   0  18  -4 58.0062 30.8868   2
   0  18   6 17.0429 22.7784   3
   0 -18   6-3.41052 33.7306   5
   0  18   8 331.532 38.3538   3
   0 -18   8 324.900 44.5717   5
   0  18  10 88.5534 24.3942   3
   0 -18  10 90.4063 27.6851   5
   0  18  12 90.4680 21.4558   3
   0 -18  12 87.6716 21.1697   5
  -1  18  13 13.4128 12.8028   3
   1 -18  13 8.00549 12.2308   5
  -1  18  11 12.0252 19.6387   3
   1 -18  11 56.3862 21.6014   5
  -1  18   9-2.36368 23.6224   3
   1 -18   9 28.2082 27.1667   5
  -1  18   7 348.808 39.3053   3
   1 -18   7 248.957 41.3481   5
   1 -18   5 645.548 65.4563   5
   1  18  -5 631.749 57.5900   2
  -1  18   5 662.018 52.9474   3
   1 -18   3 1544.70 99.2277   5
   1  18  -3 1448.58 86.8183   2
  -1  18   3 1279.50 78.0166   3
   1  18  -1 325.344 43.0683   2
  -1  18   1 271.879 33.2235   3
  -1 -18  -1 354.031 52.9814   5
   1  18   1 257.752 40.3608   2
  -1 -18   1 221.169 49.7035   5
  -1 -18   3 1333.22 93.6582   5
   1  18   3 1254.89 79.6349   2
  -1 -18   5 756.597 70.5631   5
   1  18   5 654.680 50.8893   3
   1  18   7 391.431 41.6130   3
  -1 -18   7 392.346 48.3369   5
   1  18   9-2.18231 21.5872   3
  -1 -18   9 41.0013 27.0253   5
   1  18  11 17.0870 20.4231   3
  -1 -18  11 59.3482 22.6027   5
   1  18  13 19.9734 12.8488   3
  -1 -18  13 8.58713 13.1229   5
  -2  18  12 71.1384 18.6821   3
   2 -18  12 82.7720 19.1132   5
  -2  18  10 227.236 32.0342   3
   2 -18  10 197.780 31.5239   5
   2 -18   8 1269.85 79.9066   5
  -2  18   8 1131.53 72.6392   3
   2 -18   6 1462.31 91.4091   5
  -2  18   6 1318.58 81.5991   3
   2 -18   4 508.908 56.1678   5
  -2  18   4 541.343 48.5129   3
   2  18  -4 433.551 49.2655   2
   2  18  -2 2425.53 125.980   2
  -2  18   2 2576.92 120.596   3
  -2 -18   0 4753.78 217.428   5
   2  18   0 4816.04 204.495   2
  -2  18   0 4658.17 193.517   3
  -2 -18   2 2708.81 143.549   5
   2  18   2 2490.20 127.177   2
   2  18   4 416.654 45.3035   2
  -2 -18   4 434.945 59.6931   5
   2  18   6 1120.35 71.5421   2
   2  18   6 1221.14 69.8202   3
  -2 -18   8 1190.96 76.3631   5
   2  18   8 1070.11 65.8448   3
   2  18  10 226.534 29.6600   3
  -2 -18  10 183.512 30.9480   5
   2  18  12 59.4775 17.0238   3
  -2 -18  12 55.4160 19.4182   5
  -3  18  11 295.986 32.6599   3
   3 -18  11 334.517 32.4947   5
   3 -18   9 1136.79 71.4270   5
  -3  18   9 1090.63 69.3727   3
  -3  18   7 15.7114 23.4685   3
   3 -18   7 5.72005 28.1378   5
   3 -18   5 1353.86 92.5502   5
   3  18  -5 1669.95 91.8764   2
  -3  18   5 1478.25 87.0914   3
   3  18  -3 7259.56 291.634   2
  -3  18   3 7358.65 287.863   3
   3  18  -1 679.382 57.7065   2
  -3  18   1 620.815 51.9048   3
   3  18   1 496.670 52.3790   2
  -3 -18   1 554.560 61.9547   5
  -3  18  -1 495.586 44.2588   3
  -3 -18   3 6816.89 286.865   5
   3  18   3 6766.52 272.022   2
  -3 -18   5 1818.95 104.266   5
   3  18   5 1566.85 91.0441   2
   3  18   7 40.0477 23.7157   2
  -3 -18   7 40.4992 29.0888   5
  -3 -18   9 1043.75 65.8591   5
   3  18   9 923.794 56.3731   3
   3  18  11 251.429 26.8268   3
  -3 -18  11 248.813 29.5810   5
  -3 -18  13 103.702 16.8842   5
  -4  18  10 136.302 28.3884   3
   4 -18  10 131.076 25.3237   5
   4 -18   8 1006.53 68.3427   5
  -4  18   8 1018.01 68.2937   3
   4 -18   6 813.427 64.0828   5
   4  18  -6 856.760 62.6266   2
  -4  18   6 743.641 60.2789   3
   4  18  -4 366.736 45.2177   2
  -4  18   4 432.809 45.3667   3
   4  18  -2 3191.01 147.796   2
  -4  18   2 3152.47 145.576   3
   4  18   0 2864.39 136.301   2
  -4  18   0 2698.45 128.824   3
  -4 -18   2 3354.50 161.571   5
  -4  18  -2 3093.56 143.457   3
   4  18   2 3574.62 154.387   2
   4  18   4 308.899 41.6426   2
  -4 -18   4 298.451 45.5847   5
  -4 -18   6 717.523 61.5464   5
   4  18   6 718.166 55.9585   2
  -4 -18   8 1324.05 76.8689   5
   4  18   8 1115.07 68.6350   2
  -4 -18  10 177.698 28.4291   5
  -4 -18  12 37.8866 16.6386   5
   5 -18  11 179.511 21.0165   5
  -5  18   9 22.9116 23.4129   3
   5 -18   9 69.3878 24.6357   5
  -5  18   7 430.743 44.3512   3
   5 -18   7 419.676 44.5757   5
  -5  18   5 433.874 45.1435   3
   5  18  -5 343.176 40.8386   2
   5  18  -3 1777.22 93.7480   2
  -5  18   3 1562.50 92.2144   3
   5  18  -1 164.733 34.2809   2
  -5  18   1 180.601 32.4880   3
   5  18   1 181.611 36.4084   2
  -5  18  -1 219.593 32.7657   3
  -5 -18   3 1460.26 90.0892   5
  -5  18  -3 1340.62 77.7506   3
   5  18   3 1582.74 88.1032   2
   5  18   5 328.701 41.1878   2
   5 -18  -5 393.092 49.4751   6
  -5 -18   5 301.975 43.8830   5
   5  18   7 372.193 39.6341   2
  -5 -18   7 450.842 45.0120   5
   5  18   9 69.8879 23.4547   2
  -5 -18   9 86.1107 24.9410   5
  -5 -18  11 170.357 23.3694   5
  -6  18  10 34.5052 18.2489   3
   6 -18  10 48.2883 15.7793   5
   6 -18   8 204.603 30.5208   5
  -6  18   6 342.778 40.7399   3
   6 -18   6 360.892 42.6751   5
   6  18  -4 650.814 53.5932   2
  -6  18   4 680.930 54.4062   3
   6  18  -2 1032.99 70.5106   2
  -6  18   2 1076.11 70.3805   3
   6  18   0 48.0465 28.2908   2
  -6  18   0 12.4869 23.5169   3
   6 -18  -2 1084.77 79.2460   6
  -6  18  -2 971.808 65.0502   3
   6  18   2 1104.28 70.9346   2
   6 -18  -4 765.260 64.9857   6
   6  18   4 654.794 52.9624   2
   6  18   6 348.395 39.5352   2
   6 -18  -6 345.121 46.5424   6
  -6 -18   6 302.872 37.8134   5
   6  18   8 210.046 31.4817   2
  -6 -18   8 220.554 30.7145   5
   6  18  10 47.3169 16.9320   2
  -6 -18  10 25.8661 17.3744   5
  -7  18   9 81.6933 21.5372   3
   7 -18   9 66.2871 18.0753   5
   7 -18   7 717.352 51.3546   5
  -7  18   5 171.122 32.1301   3
   7  18  -5 193.973 30.8948   2
  -7  18   3 496.437 48.3212   3
   7  18  -1 478.996 45.0161   2
  -7  18   1 409.769 43.4152   3
   7  18   1 438.028 44.5390   2
  -7  18  -1 361.509 40.0145   3
   7 -18  -3 635.383 60.8761   6
   7  18   3 719.916 54.2327   2
   7  18   5 175.667 30.9108   2
   7 -18  -5 200.441 39.9773   6
   7 -18  -7 834.633 57.7551   6
  -7 -18   7 682.343 49.4984   5
   7  18   7 865.935 55.2831   2
   7  18   9 108.163 22.2346   2
  -7 -18   9 72.9452 18.5469   5
  -8  18   8 300.386 33.2712   3
   8 -18   8 318.045 29.0177   5
   8 -18   6 63.1252 22.6525   5
   8  18  -4 851.501 57.1732   2
  -8  18   4 837.947 58.7771   3
   8  18  -2 964.350 62.6088   2
  -8  18   2 1013.73 66.5152   3
  -8  18   0 437.298 42.5730   3
   8 -18  -2 1106.92 75.1847   6
   8  18   2 1055.99 67.2815   2
   8 -18  -4 980.161 69.2601   6
   8  18   4 933.352 60.5604   2
   8  18   6 94.7236 24.3007   2
   8 -18  -6 80.8543 31.0987   6
   8 -18  -8 315.465 30.9830   6
   8  18   8 388.805 33.7528   2
  -9  18   7 346.666 34.1312   3
   9 -18   7 247.354 25.5678   5
   9 -18   5 508.909 40.8277   5
   9  18  -5 549.553 41.5792   2
  -9  18   5 518.611 44.5551   3
   9  18  -3 1770.23 88.5851   2
   9  18  -1 610.949 46.5438   2
  -9  18   1 489.747 46.2323   3
   9  18   1 599.779 48.3851   2
   9 -18  -3 1952.21 102.791   6
   9 -18  -5 587.665 50.6615   6
   9  18   5 631.130 45.9095   2
   9 -18  -7 325.612 33.0755   6
   9  18   7 357.757 32.6201   2
 -10  18   6 1.72593 16.2402   3
 -10  18   4 91.0539 22.3454   3
  10  18  -4 105.915 21.1145   2
  10  18  -2 636.089 44.6789   2
  10  18   0 885.450 54.8582   2
  10  18   2 690.282 48.1817   2
  10  18   4 64.9608 20.7315   2
  10 -18  -4 129.420 29.1051   6
  10 -18  -6 72.3888 22.3931   6
  11  18  -1 85.2169 18.4555   2
  11  18   1 78.0340 18.7264   2
  11  18   3 60.5095 16.6650   2
   0 -19   1 391.792 51.3621   5
   0 -19  -1 442.594 51.6619   5
   0  19  -1 330.869 40.9751   2
   0 -19   3 841.506 68.3395   5
   0 -19   5 373.193 49.1635   5
   0  19   5 408.615 36.9078   3
   0 -19   7 473.403 46.2604   5
   0  19   7 458.781 38.8181   3
   0  19   9-6.70887 16.9341   3
   0 -19  11 7.89053 14.1869   5
  -1  19  10 122.697 22.1092   3
   1 -19  10 168.486 24.3605   5
  -1  19   8 722.410 49.7011   3
  -1  19   6 114.204 25.7052   3
   1 -19   6 202.025 38.1765   5
  -1  19   4 87.6571 22.7717   3
   1 -19   4 98.8554 36.6830   5
   1 -19   2 1163.22 81.3014   5
   1  19  -2 1079.89 72.3990   2
  -1 -19   0 2973.95 141.898   5
   1 -19   0 2855.12 141.977   5
   1  19   0 2477.10 126.301   2
   1 -19  -2 1144.92 79.6470   5
   1  19   2 1012.11 67.7973   2
  -1 -19   4 40.6316 33.1379   5
  -1 -19   6 86.2864 31.2116   5
  -1 -19   8 806.010 55.8888   5
   1  19   8 661.465 45.6471   3
   1  19  10 150.757 21.2885   3
  -2  19  11 54.8768 15.5142   3
   2 -19  11 81.4917 15.8809   5
   2 -19   9 416.684 37.8245   5
  -2  19   9 422.410 37.1859   3
  -2  19   7 83.8986 23.8432   3
   2 -19   5 1566.73 91.8430   5
  -2  19   5 1518.39 81.4840   3
   2 -19   3 4304.50 188.823   5
   2  19  -3 4025.45 178.038   2
  -2  19   3 4086.13 170.952   3
   2 -19   1 562.016 59.2259   5
   2  19  -1 602.099 52.7629   2
  -2  19   1 639.816 46.7108   3
  -2 -19   1 759.254 63.7158   5
   2  19   1 577.342 52.3842   2
  -2 -19   3 3953.63 174.719   5
   2  19   3 3608.17 160.582   2
  -2 -19   5 1477.85 89.1199   5
  -2 -19   7 47.0818 26.8591   5
  -2 -19   9 443.222 39.0402   5
  -2 -19  11 44.4190 16.7583   5
  -3  19  10 46.4197 17.3134   3
   3 -19  10 72.3835 18.0966   5
   3 -19   8 813.619 55.5653   5
  -3  19   8 809.303 53.5286   3
  -3  19   6 1658.46 86.7444   3
   3 -19   4 815.587 64.4553   5
   3  19  -4 795.760 59.5676   2
  -3  19   4 802.819 55.6593   3
   3 -19   2 2464.58 126.686   5
   3  19  -2 2443.00 117.648   2
  -3  19   2 2235.05 110.011   3
   3  19   0 3621.00 158.129   2
  -3  19   0 3470.46 148.787   3
  -3 -19   2 2486.36 121.801   5
   3  19   2 2234.08 113.102   2
  -3 -19   4 697.859 58.3101   5
   3  19   4 675.463 51.8631   2
  -3 -19   6 1591.03 85.2660   5
   3  19   6 1330.95 73.8767   2
  -3 -19   8 838.480 55.0848   5
  -3 -19  10 65.6122 18.9027   5
   4 -19   9 469.131 37.5196   5
  -4  19   9 482.985 38.9911   3
  -4  19   7 92.5050 24.7193   3
   4 -19   7 101.499 27.7046   5
  -4  19   5 832.257 57.3248   3
   4 -19   3 3642.07 161.105   5
   4  19  -3 3519.77 154.873   2
  -4  19   3 3388.33 151.972   3
   4  19  -1 308.228 39.3287   2
  -4  19   1 271.563 34.1311   3
   4  19   1 255.667 37.0406   2
  -4  19  -1 209.556 29.8120   3
  -4 -19   3 2956.07 141.482   5
   4  19   3 3284.83 143.104   2
  -4 -19   5 948.473 63.5051   5
   4  19   5 866.073 58.8515   2
   4  19   7 75.9112 20.1920   2
  -4 -19   7 72.0329 25.0748   5
  -4 -19   9 401.819 34.3405   5
  -5  19  10 93.2846 17.3549   3
  -5  19   8 101.572 22.2108   3
   5 -19   8 105.439 22.6639   5
  -5  19   6 18.9460 21.2586   3
   5 -19   6 11.0079 24.2711   5
  -5  19   4 203.238 32.0392   3
   5  19  -4 172.254 32.4956   2
   5  19  -2 1097.23 67.1465   2
  -5  19   2 944.195 62.9365   3
   5  19   0 71.9036 24.8841   2
  -5  19   0 51.4657 21.5004   3
   5  19   2 1002.86 64.4548   2
  -5  19  -2 862.709 55.3689   3
   5  19   4 198.996 31.3963   2
   5  19   6 5.62285 18.4431   2
  -5 -19   6 20.8915 19.9382   5
   5  19   8 126.326 20.7698   2
  -5 -19   8 106.491 20.7886   5
  -6  19   7 256.882 29.9210   3
   6 -19   7 310.627 32.3502   5
  -6  19   5 2.10697 18.2658   3
   6 -19   5 10.8821 23.4748   5
   6  19  -5-4.01926 20.0826   2
  -6  19   3 78.3315 24.4726   3
   6  19  -3 102.031 26.4213   2
   6  19  -1 403.615 41.4569   2
  -6  19   1 371.754 37.9904   3
   6  19   1 293.283 35.5988   2
  -6  19  -1 200.779 29.3673   3
   6  19   3 142.868 29.3085   2
   6  19   5 37.0780 20.8050   2
   6  19   7 264.188 28.5118   2
  -6 -19   7 229.733 25.3985   5
  -7  19   6 161.607 25.6825   3
   7 -19   6 166.320 25.9673   5
  -7  19   4 30.3801 21.0789   3
   7 -19   4 24.8527 23.9784   5
   7  19  -2 438.857 41.2311   2
  -7  19   2 431.109 39.5725   3
   7  19   0 8.33444 20.6162   2
  -7  19   0 29.8500 20.4027   3
   7  19   2 489.146 42.2726   2
   7  19   4 5.75857 20.5207   2
   7  19   6 151.413 24.2018   2
  -8  19   5 119.203 22.5097   3
   8 -19   5 95.4645 22.1381   5
   8  19  -3 673.360 46.1139   2
  -8  19   3 637.061 46.8546   3
  -8  19   1 22.9309 18.1016   3
   8  19   1 44.9674 21.8949   2
   8  19   3 783.797 51.7915   2
   8  19   5 122.814 23.0355   2
  -9  19   4 30.4235 17.9675   3
   9 -19   4 22.7815 16.7474   5
   9  19  -2 729.920 45.8429   2
  -9  19   2 610.692 44.2728   3
   9  19   0 1422.77 71.9214   2
   9  19   4 42.5221 16.0193   2
   0 -20   0 629.909 53.6073   5
   0 -20   2 159.540 33.7692   5
   0 -20   4 233.426 36.2759   5
   0 -20   6 211.078 30.6765   5
   0 -20   8 99.1892 20.9860   5
   1 -20   7 922.153 56.0762   5
   1 -20   5 459.006 43.6800   5
   1 -20   3 207.532 36.5166   5
   1 -20   1 142.368 32.6322   5
  -1 -20   1 150.149 29.7075   5
   1 -20  -1 84.4977 28.9418   5
  -1 -20   3 245.020 35.2210   5
  -1 -20   5 479.345 43.5041   5
  -1 -20   7 758.632 50.0707   5
  -2  20   6 137.721 21.4125   3
   2 -20   6 146.468 27.9465   5
  -2  20   4 4.67913 15.4259   3
   2 -20   4 7.17735 27.5717   5
   2 -20   2 649.580 55.9943   5
   2 -20   0 1541.49 86.8224   5
   2  20   0 1431.69 77.2049   2
  -2 -20   2 631.462 48.5087   5
   2 -20  -2 539.604 48.8388   5
  -2 -20   4 4.13250 20.4349   5
  -2 -20   6 196.022 28.2233   5
  -2 -20   8 305.724 28.1974   5
  -3  20   7 62.1325 16.5954   3
   3 -20   5 724.298 51.1527   5
  -3  20   5 551.704 40.1963   3
   3 -20   3 1474.83 82.6059   5
  -3  20   3 1346.21 70.0092   3
   3 -20   1 387.318 43.8238   5
   3  20  -1 332.643 35.6992   2
   3 -20  -1 330.195 41.2264   5
   3  20   1 332.102 35.1242   2
  -3 -20   3 1275.65 69.1768   5
   3 -20  -3 1362.84 74.3197   5
   3  20   3 1161.61 65.4423   2
  -3 -20   5 585.624 43.0643   5
  -3 -20   7 103.875 19.6273   5
  -4  20   6 214.005 25.7000   3
   4 -20   4 440.303 42.4087   5
  -4  20   4 443.160 35.4945   3
   4  20  -2 1243.65 69.6006   2
  -4  20   2 1094.49 62.0892   3
   4 -20   0 440.484 44.0369   5
   4  20   0 395.366 38.4548   2
   4 -20  -2 1180.73 69.1010   5
   4  20   2 1021.61 61.8611   2
   4 -20  -4 504.095 40.1538   5
   4  20   4 438.989 35.3943   2
  -5  20   5 343.266 31.3594   3
  -5  20   3 82.0119 19.1226   3
   5 -20   3 60.3479 25.1082   5
   5  20  -3 73.4550 22.1884   2
   5 -20   1 834.803 57.5757   5
   5  20  -1 815.437 52.6920   2
  -5  20   1 697.312 46.2489   3
   5  20   1 812.860 52.7211   2
   5  20   3 89.9566 21.9896   2
  -6  20   4 318.183 29.3704   3
   6 -20   2 573.911 46.1173   5
   6  20  -2 548.820 41.3753   2
  -6  20   2 508.865 37.8787   3
   6  20   0 211.419 28.2165   2
   6  20   2 552.081 40.6515   2
   6  20   4 367.066 30.8968   2
   7 -20   1 477.849 39.1354   5
   7  20  -1 438.556 35.6601   2
   7  20   1 438.767 35.0572   2
   7  20   3 28.9026 16.0742   2
   2 -21   3 44.6746 19.3506   5
   3 -21   2 146.528 24.8801   5
   0   0   0    0.00    0.00   0

TITL Ag12bpy_O2_290K in I-42m
REM I-42m (#121 in standard setting)
CELL 1.54184  17.330484  17.330484  20.250983  90.0000  90.0000  90.0000
ZERR    2.00   0.000137   0.000137   0.000372   0.0000   0.0000   0.0000
LATT -2
SYMM -x,-y, z
SYMM  y,-x,-z
SYMM -y, x,-z
SYMM -x, y,-z
SYMM  x,-y,-z
SYMM -y,-x, z
SYMM  y, x, z
SFAC C H N O F S Ag
UNIT 160.00 208.00 16.00 16.00 24.00 16.00 24.00
TREF
HKLF 4
END
;
_shelx_hkl_checksum              43649
loop_
_space_group_symop_operation_xyz
'x, y, z'
'y, -x, -z'
'-x, -y, z'
'-y, x, -z'
'x, -y, -z'
'-x, y, -z'
'-y, -x, z'
'y, x, z'
'x+1/2, y+1/2, z+1/2'
'y+1/2, -x+1/2, -z+1/2'
'-x+1/2, -y+1/2, z+1/2'
'-y+1/2, x+1/2, -z+1/2'
'x+1/2, -y+1/2, -z+1/2'
'-x+1/2, y+1/2, -z+1/2'
'-y+1/2, -x+1/2, z+1/2'
'y+1/2, x+1/2, z+1/2'
loop_
_atom_site_label
_atom_site_type_symbol
_atom_site_fract_x
_atom_site_fract_y
_atom_site_fract_z
_atom_site_U_iso_or_equiv
_atom_site_adp_type
_atom_site_occupancy
_atom_site_site_symmetry_order
_atom_site_calc_flag
_atom_site_refinement_flags_posn
_atom_site_refinement_flags_adp
_atom_site_refinement_flags_occupancy
_atom_site_disorder_assembly
_atom_site_disorder_group
Ag1 Ag 0.5000 0.5000 0.79165(5) 0.0525(2) Uani 1 4 d S T P . .
Ag2 Ag 0.47266(3) 0.66144(3) 0.83261(3) 0.06759(18) Uani 1 1 d . . . . .
Ag3 Ag 0.41626(8) 0.5000 1.0000 0.0698(4) Uani 0.5 2 d S T P . .
S1 S 0.40158(8) 0.40158(8) 0.79757(12) 0.0541(5) Uani 1 2 d S T P . .
C1 C 0.3748(4) 0.3748(4) 0.7112(5) 0.073(3) Uani 1 2 d DS T P . .
C2 C 0.3919(9) 0.2901(6) 0.7013(7) 0.121(4) Uani 1 1 d D . . . .
H2A H 0.4459 0.2834 0.6925 0.181 Uiso 1 1 calc GR . . . .
H2B H 0.3624 0.2709 0.6647 0.181 Uiso 1 1 calc GR . . . .
H2C H 0.3783 0.2621 0.7406 0.181 Uiso 1 1 calc GR . . . .
C3 C 0.4210(7) 0.4210(7) 0.6620(8) 0.123(6) Uani 1 2 d DS T P . .
H3A H 0.4016 0.4729 0.6605 0.184 Uiso 0.5 1 calc GR . . A -1
H3B H 0.4166 0.3979 0.6191 0.184 Uiso 0.5 1 calc GR . . A -1
H3C H 0.4742 0.4217 0.6752 0.184 Uiso 0.5 1 calc GR . . A -1
S2 S 0.39879(9) 0.60121(9) 0.92568(11) 0.0575(5) Uani 1 2 d S T P B .
C4 C 0.3307(4) 0.6693(4) 0.9663(4) 0.071(3) Uani 1 2 d DS T P . .
C7 C 0.370(2) 0.711(2) 1.0207(13) 0.116(11) Uani 0.5 1 d D . . B -1
H7A H 0.3871 0.6750 1.0536 0.173 Uiso 0.5 1 calc GR . . B -1
H7B H 0.3354 0.7475 1.0403 0.173 Uiso 0.5 1 calc GR . . B -1
H7C H 0.4143 0.7382 1.0033 0.173 Uiso 0.5 1 calc GR . . B -1
C6 C 0.2876(5) 0.7124(5) 0.9144(6) 0.099(4) Uani 1 2 d DS T P B .
H6A H 0.3222 0.7466 0.8918 0.148 Uiso 0.5 1 calc GR . . C -1
H6B H 0.2470 0.7417 0.9345 0.148 Uiso 0.5 1 calc GR . . C -1
H6C H 0.2659 0.6765 0.8834 0.148 Uiso 0.5 1 calc GR . . C -1
O1 O 0.3959(5) 0.6924(5) 0.7339(5) 0.123(3) Uani 1 1 d . U . . .
C8 C 0.3415(7) 0.6585(7) 0.7109(8) 0.098(3) Uani 1 2 d S TU P D .
C9 C 0.3115(6) 0.6885(6) 0.6490(8) 0.113(4) Uani 1 2 d DS TU P . .
N1 N 0.4857(4) 0.7966(3) 0.8334(3) 0.0704(15) Uani 1 1 d . . . . .
C10 C 0.4263(4) 0.8426(4) 0.8159(4) 0.0692(19) Uani 1 1 d . . . . .
H10 H 0.3813 0.8195 0.8007 0.083 Uiso 1 1 calc R . . . .
C11 C 0.4290(4) 0.9209(4) 0.8195(4) 0.0672(19) Uani 1 1 d . . . . .
H11 H 0.3857 0.9500 0.8089 0.081 Uiso 1 1 calc R . . . .
C12 C 0.4969(5) 0.9572(3) 0.8392(4) 0.0634(14) Uani 1 1 d . . . . .
C13 C 0.5587(5) 0.9099(4) 0.8556(5) 0.073(2) Uani 1 1 d . . . . .
H13 H 0.6054 0.9313 0.8690 0.088 Uiso 1 1 calc R . . . .
C14 C 0.5504(5) 0.8311(4) 0.8520(4) 0.073(2) Uani 1 1 d . . . . .
H14 H 0.5924 0.8004 0.8633 0.088 Uiso 1 1 calc R . . . .
F1 F 0.3500(12) 0.6500(12) 0.6027(14) 0.161(10) Uani 0.45 2 d DS TU P D 1
F2 F 0.3344(15) 0.7579(9) 0.6323(13) 0.157(8) Uani 0.45 1 d D U . D 1
F1B F 0.2577(7) 0.7423(7) 0.6555(13) 0.162(7) Uani 0.55 2 d DS TU P D 2
F2B F 0.3618(12) 0.7175(14) 0.6072(10) 0.178(7) Uani 0.55 1 d D U . D 2
C5 C 0.2677(17) 0.621(2) 0.9950(14) 0.101(9) Uani 0.5 1 d D . . B -1
H5A H 0.2358 0.6013 0.9601 0.151 Uiso 0.5 1 calc GR . . B -1
H5B H 0.2370 0.6518 1.0243 0.151 Uiso 0.5 1 calc GR . . B -1
H5C H 0.2899 0.5787 1.0191 0.151 Uiso 0.5 1 calc GR . . B -1
loop_
_atom_site_aniso_label
_atom_site_aniso_U_11
_atom_site_aniso_U_22
_atom_site_aniso_U_33
_atom_site_aniso_U_23
_atom_site_aniso_U_13
_atom_site_aniso_U_12
Ag1 0.0393(2) 0.0393(2) 0.0788(5) 0.000 0.000 -0.0030(3)
Ag2 0.0612(3) 0.0399(2) 0.1017(4) 0.0037(2) 0.0107(3) 0.00264(17)
Ag3 0.0513(6) 0.0704(8) 0.0878(9) 0.0299(9) 0.000 0.000
S1 0.0422(6) 0.0422(6) 0.0779(12) -0.0057(6) -0.0057(6) -0.0049(8)
C1 0.070(4) 0.070(4) 0.079(6) -0.014(4) -0.014(4) -0.011(5)
C2 0.153(11) 0.090(7) 0.121(8) -0.046(7) -0.040(8) 0.009(8)
C3 0.143(10) 0.143(10) 0.081(8) -0.007(7) -0.007(7) -0.028(12)
S2 0.0552(7) 0.0552(7) 0.0619(11) 0.0037(6) -0.0037(6) 0.0034(9)
C4 0.071(4) 0.071(4) 0.070(5) -0.002(3) 0.002(3) 0.020(5)
C7 0.13(2) 0.15(3) 0.067(15) -0.049(17) -0.020(16) 0.048(19)
C6 0.102(7) 0.102(7) 0.093(8) 0.002(4) -0.002(4) 0.045(8)
O1 0.119(5) 0.116(5) 0.135(6) 0.023(5) -0.039(4) -0.015(5)
C8 0.090(4) 0.090(4) 0.114(7) 0.025(4) -0.025(4) -0.007(6)
C9 0.112(5) 0.112(5) 0.113(7) 0.006(4) -0.006(4) 0.006(6)
N1 0.069(4) 0.040(2) 0.102(4) 0.012(3) 0.001(3) 0.004(2)
C10 0.058(4) 0.045(3) 0.104(5) 0.009(3) -0.005(4) -0.005(3)
C11 0.054(3) 0.043(3) 0.104(6) 0.005(3) 0.001(3) 0.006(2)
C12 0.066(4) 0.040(3) 0.084(4) 0.002(3) 0.002(4) 0.003(3)
C13 0.062(4) 0.051(4) 0.106(6) 0.008(4) -0.021(4) -0.004(3)
C14 0.066(4) 0.049(4) 0.105(6) 0.010(4) -0.014(4) 0.002(3)
F1 0.167(11) 0.167(11) 0.151(14) 0.001(8) -0.001(8) -0.008(12)
F2 0.187(13) 0.124(11) 0.161(12) 0.059(9) -0.011(10) 0.010(10)
F1B 0.160(8) 0.160(8) 0.165(12) 0.030(7) -0.030(7) 0.048(10)
F2B 0.210(13) 0.186(13) 0.137(10) 0.053(10) 0.030(9) -0.001(11)
C5 0.092(15) 0.14(2) 0.075(16) 0.012(18) 0.032(14) 0.027(14)
loop_
_atom_type_symbol
_atom_type_description
_atom_type_scat_dispersion_real
_atom_type_scat_dispersion_imag
_atom_type_scat_source
C C 0.0181 0.0091 'International Tables Vol C Tables 4.2.6.8 and 6.1.1.4'
H H 0.0000 0.0000 'International Tables Vol C Tables 4.2.6.8 and 6.1.1.4'
Ag Ag 0.1306 4.2820 'International Tables Vol C Tables 4.2.6.8 and 6.1.1.4'
F F 0.0727 0.0534 'International Tables Vol C Tables 4.2.6.8 and 6.1.1.4'
N N 0.0311 0.0180 'International Tables Vol C Tables 4.2.6.8 and 6.1.1.4'
O O 0.0492 0.0322 'International Tables Vol C Tables 4.2.6.8 and 6.1.1.4'
S S 0.3331 0.5567 'International Tables Vol C Tables 4.2.6.8 and 6.1.1.4'
loop_
_exptl_crystal_face_index_h
_exptl_crystal_face_index_k
_exptl_crystal_face_index_l
_exptl_crystal_face_perp_dist
-11 0 -1 0.1008
11 0 0 0.0848
-1 -1 13 0.0180
1 1 -13 0.0396
1 11 -3 0.0563
-1 -11 3 0.0761
loop_
_geom_angle_atom_site_label_1
_geom_angle_atom_site_label_2
_geom_angle_atom_site_label_3
_geom_angle
_geom_angle_site_symmetry_1
_geom_angle_site_symmetry_3
Ag2 Ag1 Ag2 67.54(2) 8 3_665
Ag2 Ag1 Ag2 147.41(4) 3_665 .
Ag2 Ag1 Ag2 102.98(2) 8 .
Ag2 Ag1 Ag2 147.41(4) 8 7_665
Ag2 Ag1 Ag2 102.98(2) 3_665 7_665
Ag2 Ag1 Ag2 67.54(2) 7_665 .
S1 Ag1 Ag2 122.77(3) 3_665 7_665
S1 Ag1 Ag2 55.31(2) 3_665 .
S1 Ag1 Ag2 122.77(3) 3_665 3_665
S1 Ag1 Ag2 55.31(2) . 7_665
S1 Ag1 Ag2 122.77(3) . .
S1 Ag1 Ag2 55.31(2) 3_665 8
S1 Ag1 Ag2 55.31(2) . 3_665
S1 Ag1 Ag2 122.77(3) . 8
S1 Ag1 S1 174.31(12) 3_665 .
Ag1 Ag2 Ag2 56.231(10) . 7_665
S1 Ag2 Ag1 51.46(5) 3_665 .
S1 Ag2 Ag2 107.63(4) 3_665 7_665
S2 Ag2 Ag1 84.19(5) . .
S2 Ag2 Ag2 49.03(4) . 7_665
S2 Ag2 S1 118.01(7) . 3_665
O1 Ag2 Ag1 93.7(2) . .
O1 Ag2 Ag2 76.8(2) . 7_665
O1 Ag2 S1 109.3(3) . 3_665
O1 Ag2 S2 115.2(2) . .
N1 Ag2 Ag1 158.20(17) . .
N1 Ag2 Ag2 140.51(15) . 7_665
N1 Ag2 S1 110.34(16) . 3_665
N1 Ag2 S2 117.29(17) . .
N1 Ag2 O1 80.8(3) . .
Ag3 Ag3 Ag3 90.0 2_567 4_657
Ag3 Ag3 Ag3 45.0 4_657 3_665
Ag3 Ag3 Ag3 45.0 2_567 3_665
Ag3 Ag3 S2 63.88(4) 2_567 .
Ag3 Ag3 S2 63.88(4) 4_657 4_657
Ag3 Ag3 S2 128.61(6) 4_657 .
Ag3 Ag3 S2 128.61(6) 2_567 4_657
S2 Ag3 Ag3 97.46(5) 4_657 3_665
S2 Ag3 Ag3 97.46(5) . 3_665
S2 Ag3 S2 165.07(10) 4_657 .
Ag1 S1 Ag2 73.23(5) . 3_665
Ag1 S1 Ag2 73.23(5) . 7_665
Ag2 S1 Ag2 131.33(9) 7_665 3_665
C1 S1 Ag1 107.7(3) . .
C1 S1 Ag2 111.60(8) . 7_665
C1 S1 Ag2 111.60(8) . 3_665
C2 C1 S1 108.4(7) . .
C2 C1 S1 108.4(7) 8 .
C2 C1 C2 111.4(13) 8 .
C3 C1 S1 110.7(8) . .
C3 C1 C2 109.0(8) . 8
C3 C1 C2 109.0(8) . .
C1 C2 H2A 109.5 . .
C1 C2 H2B 109.5 . .
C1 C2 H2C 109.5 . .
H2A C2 H2B 109.5 . .
H2A C2 H2C 109.5 . .
H2B C2 H2C 109.5 . .
C1 C3 H3A 109.5 . .
C1 C3 H3B 109.5 . .
C1 C3 H3C 109.5 . .
H3A C3 H3B 109.5 . .
H3A C3 H3C 109.5 . .
H3B C3 H3C 109.5 . .
Ag2 S2 Ag2 81.95(7) 7_665 .
Ag3 S2 Ag2 137.10(10) . .
Ag3 S2 Ag2 98.93(5) 2_567 .
Ag3 S2 Ag2 98.93(5) . 7_665
Ag3 S2 Ag2 137.10(10) 2_567 7_665
Ag3 S2 Ag3 52.24(7) 2_567 .
C4 S2 Ag2 113.1(2) . .
C4 S2 Ag2 113.1(2) . 7_665
C4 S2 Ag3 105.9(3) . 2_567
C4 S2 Ag3 105.9(3) . .
C7 C4 S2 110.1(18) . .
C7 C4 C6 120.6(17) . .
C7 C4 C5 109(2) . .
C6 C4 S2 108.9(8) . .
C6 C4 C5 100.9(15) . .
C5 C4 S2 106.3(17) . .
C4 C7 H7A 109.5 . .
C4 C7 H7B 109.5 . .
C4 C7 H7C 109.5 . .
H7A C7 H7B 109.5 . .
H7A C7 H7C 109.5 . .
H7B C7 H7C 109.5 . .
C4 C6 H6A 109.5 . .
C4 C6 H6B 109.5 . .
C4 C6 H6C 109.5 . .
H6A C6 H6B 109.5 . .
H6A C6 H6C 109.5 . .
H6B C6 H6C 109.5 . .
C8 O1 Ag2 129.2(9) . .
O1 C8 O1 127.8(16) . 7_665
O1 C8 C9 116.1(8) 7_665 .
O1 C8 C9 116.1(8) . .
F1 C9 C8 104(2) . .
F2 C9 C8 116.2(13) . .
F2 C9 C8 116.2(13) 7_665 .
F2 C9 F1 97.3(17) 7_665 .
F2 C9 F1 97.3(17) . .
F2 C9 F2 119(3) 7_665 .
F1B C9 C8 114.6(16) . .
F2B C9 C8 117.1(14) . .
F2B C9 C8 117.1(14) 7_665 .
F2B C9 F1B 105.1(16) . .
F2B C9 F1B 105.1(16) 7_665 .
F2B C9 F2B 95(2) . 7_665
C10 N1 Ag2 120.9(5) . .
C14 N1 Ag2 122.2(5) . .
C14 N1 C10 116.9(6) . .
N1 C10 H10 118.3 . .
N1 C10 C11 123.4(7) . .
C11 C10 H10 118.3 . .
C10 C11 H11 120.2 . .
C10 C11 C12 119.6(7) . .
C12 C11 H11 120.2 . .
C11 C12 C12 120.8(8) . 3_675
C13 C12 C11 117.0(6) . .
C13 C12 C12 122.2(8) . 3_675
C12 C13 H13 120.3 . .
C14 C13 C12 119.4(7) . .
C14 C13 H13 120.3 . .
N1 C14 C13 123.6(7) . .
N1 C14 H14 118.2 . .
C13 C14 H14 118.2 . .
C4 C5 H5A 109.5 . .
C4 C5 H5B 109.5 . .
C4 C5 H5C 109.5 . .
H5A C5 H5B 109.5 . .
H5A C5 H5C 109.5 . .
H5B C5 H5C 109.5 . .
loop_
_geom_bond_atom_site_label_1
_geom_bond_atom_site_label_2
_geom_bond_distance
_geom_bond_site_symmetry_2
Ag1 Ag2 2.9564(5) 8
Ag1 Ag2 2.9564(5) .
Ag1 Ag2 2.9564(5) 3_665
Ag1 Ag2 2.9564(5) 7_665
Ag1 S1 2.415(2) 3_665
Ag1 S1 2.415(2) .
Ag2 Ag2 3.2866(10) 7_665
Ag2 S1 2.5390(10) 3_665
Ag2 S2 2.5061(18) .
Ag2 O1 2.461(8) .
Ag2 N1 2.353(5) .
Ag3 Ag3 2.0524(19) 2_567
Ag3 Ag3 2.0524(19) 4_657
Ag3 Ag3 2.903(3) 3_665
Ag3 S2 2.331(2) .
Ag3 S2 2.331(2) 4_657
S1 Ag2 2.5390(10) 7_665
S1 Ag2 2.5390(10) 3_665
S1 C1 1.869(11) .
C1 C2 1.510(10) .
C1 C2 1.510(10) 8
C1 C3 1.508(13) .
C2 H2A 0.9600 .
C2 H2B 0.9600 .
C2 H2C 0.9600 .
C3 H3A 0.9600 .
C3 H3B 0.9600 .
C3 H3C 0.9600 .
S2 Ag2 2.5061(18) 7_665
S2 Ag3 2.331(2) 2_567
S2 C4 1.860(11) .
C4 C7 1.489(13) .
C4 C6 1.489(12) .
C4 C5 1.494(13) .
C7 H7A 0.9600 .
C7 H7B 0.9600 .
C7 H7C 0.9600 .
C6 H6A 0.9600 .
C6 H6B 0.9600 .
C6 H6C 0.9600 .
O1 C8 1.205(9) .
C8 O1 1.205(9) 7_665
C8 C9 1.45(2) .
C9 F1 1.330(15) .
C9 F2 1.311(13) 7_665
C9 F2 1.311(13) .
C9 F1B 1.327(14) .
C9 F2B 1.315(13) .
C9 F2B 1.315(13) 7_665
N1 C10 1.349(9) .
N1 C14 1.325(10) .
C10 H10 0.9300 .
C10 C11 1.360(10) .
C11 H11 0.9300 .
C11 C12 1.392(11) .
C12 C12 1.489(11) 3_675
C12 C13 1.390(11) .
C13 H13 0.9300 .
C13 C14 1.374(11) .
C14 H14 0.9300 .
C5 H5A 0.9600 .
C5 H5B 0.9600 .
C5 H5C 0.9600 .
loop_
_geom_torsion_atom_site_label_1
_geom_torsion_atom_site_label_2
_geom_torsion_atom_site_label_3
_geom_torsion_atom_site_label_4
_geom_torsion
_geom_torsion_site_symmetry_1
_geom_torsion_site_symmetry_2
_geom_torsion_site_symmetry_3
_geom_torsion_site_symmetry_4
Ag1 S1 C1 C2 119.5(8) . . . .
Ag1 S1 C1 C2 -119.5(8) . . . 8
Ag1 S1 C1 C3 0.000(1) . . . .
Ag2 S1 C1 C2 162.0(7) 3_665 . . 8
Ag2 S1 C1 C2 41.0(9) 3_665 . . .
Ag2 S1 C1 C2 -41.0(9) 7_665 . . 8
Ag2 S1 C1 C2 -162.0(7) 7_665 . . .
Ag2 S1 C1 C3 78.51(15) 7_665 . . .
Ag2 S1 C1 C3 -78.51(15) 3_665 . . .
Ag2 S2 C4 C7 -179.8(15) 7_665 . . .
Ag2 S2 C4 C7 -88.8(15) . . . .
Ag2 S2 C4 C6 45.46(11) . . . .
Ag2 S2 C4 C6 -45.46(11) 7_665 . . .
Ag2 S2 C4 C5 62.5(14) 7_665 . . .
Ag2 S2 C4 C5 153.4(13) . . . .
Ag2 O1 C8 O1 6(3) . . . 7_665
Ag2 O1 C8 C9 -175.9(10) . . . .
Ag2 N1 C10 C11 175.7(7) . . . .
Ag2 N1 C14 C13 -177.2(7) . . . .
Ag3 S2 C4 C7 18.4(15) 2_567 . . .
Ag3 S2 C4 C7 72.9(15) . . . .
Ag3 S2 C4 C6 152.75(6) 2_567 . . .
Ag3 S2 C4 C6 -152.75(6) . . . .
Ag3 S2 C4 C5 -99.3(13) 2_567 . . .
Ag3 S2 C4 C5 -44.8(14) . . . .
O1 C8 C9 F1 -90.9(15) 7_665 . . .
O1 C8 C9 F1 90.9(15) . . . .
O1 C8 C9 F2 163(2) 7_665 . . .
O1 C8 C9 F2 -15(3) . . . .
O1 C8 C9 F2 -163(2) . . . 7_665
O1 C8 C9 F2 15(3) 7_665 . . 7_665
O1 C8 C9 F1B 89.1(15) 7_665 . . .
O1 C8 C9 F1B -89.1(15) . . . .
O1 C8 C9 F2B 147.0(19) . . . 7_665
O1 C8 C9 F2B -147.0(19) 7_665 . . .
O1 C8 C9 F2B 35(3) . . . .
O1 C8 C9 F2B -35(3) 7_665 . . 7_665
N1 C10 C11 C12 3.1(14) . . . .
C10 N1 C14 C13 1.5(13) . . . .
C10 C11 C12 C12 175.9(7) . . . 3_675
C10 C11 C12 C13 -1.3(13) . . . .
C11 C12 C13 C14 -0.1(13) . . . .
C12 C12 C13 C14 -177.3(7) 3_675 . . .
C12 C13 C14 N1 0.0(15) . . . .
C14 N1 C10 C11 -3.1(13) . . . .
loop_
_exptl_oxdiff_crystal_face_indexfrac_h
_exptl_oxdiff_crystal_face_indexfrac_k
_exptl_oxdiff_crystal_face_indexfrac_l
_exptl_oxdiff_crystal_face_x
_exptl_oxdiff_crystal_face_y
_exptl_oxdiff_crystal_face_z
-11.0000 0.0000 -1.0000 0.0182 -0.0331 0.9812
11.0000 -0.0000 0.0000 0.0576 0.0308 -0.9769
-1.0000 -1.0000 13.0000 -0.9886 0.1163 0.0356
1.0000 1.0000 -13.0000 0.9886 -0.1163 -0.0356
1.0000 11.0000 -3.0000 0.2054 -0.9810 -0.1081
-1.0000 -11.0000 3.0000 -0.2054 0.9810 0.1081
