#------------------------------------------------------------------------------
#$Date: 2019-05-15 04:04:51 +0300 (Wed, 15 May 2019) $
#$Revision: 215155 $
#$URL: file:///home/coder/svn-repositories/cod/cif/1/55/10/1551045.cif $
#------------------------------------------------------------------------------
#
# This file is available in the Crystallography Open Database (COD),
# http://www.crystallography.net/
#
# All data on this site have been placed in the public domain by the
# contributors.
#
data_1551045
loop_
_publ_author_name
'Lee, Jiyoung'
'Choi, Jae Sun'
'Jeong, Nak Cheon'
'Choe, Wonyoung'
_publ_section_title
;
 Formation of Trigons in a Metal-Organic Framework: The Role of
 Metal-Organic Polyhedron Subunits as Meta-Atoms
;
_journal_name_full               'Chemical Science'
_journal_paper_doi               10.1039/C9SC00513G
_journal_year                    2019
_chemical_formula_sum            'C324 H240 Cu12 N12 O108 Zn12'
_chemical_formula_weight         7576.19
_space_group_crystal_system      cubic
_space_group_IT_number           225
_space_group_name_Hall           '-F 4 2 3'
_space_group_name_H-M_alt        'F m -3 m'
_symmetry_space_group_name_Hall  '-F 4 2 3'
_symmetry_space_group_name_H-M   'F m -3 m'
_atom_sites_solution_hydrogens   geom
_audit_creation_method           SHELXL-2018/3
_audit_update_record
;
2018-09-03 deposited with the CCDC.    2019-05-08 downloaded from the CCDC.
;
_cell_angle_alpha                90
_cell_angle_beta                 90
_cell_angle_gamma                90
_cell_formula_units_Z            4
_cell_length_a                   46.455(5)
_cell_length_b                   46.455(5)
_cell_length_c                   46.455(5)
_cell_measurement_reflns_used    169923
_cell_measurement_temperature    173(2)
_cell_measurement_theta_max      24.990
_cell_measurement_theta_min      1.221
_cell_volume                     100253(19)
_computing_cell_refinement       HKL3000
_computing_data_collection       'PAL ADSC Quantum-210 ADX Program'
_computing_data_reduction        HKL3000
_computing_molecular_graphics    ORTEP
_computing_publication_material  CIFTAB
_computing_structure_refinement  'SHELXL-2018/3 (Sheldrick, 2018)'
_computing_structure_solution    'SHELXT 2014/4 (Sheldrick, 2014)'
_diffrn_ambient_temperature      173(2)
_diffrn_measured_fraction_theta_full 0.999
_diffrn_measured_fraction_theta_max 0.999
_diffrn_measurement_device_type  'ADSC Q210 CCD area detector'
_diffrn_measurement_method       'omega scan'
_diffrn_radiation_type           synchrotron
_diffrn_radiation_wavelength     0.700
_diffrn_reflns_av_R_equivalents  0.0724
_diffrn_reflns_av_unetI/netI     0.0235
_diffrn_reflns_Laue_measured_fraction_full 0.999
_diffrn_reflns_Laue_measured_fraction_max 0.999
_diffrn_reflns_limit_h_max       56
_diffrn_reflns_limit_h_min       -56
_diffrn_reflns_limit_k_max       56
_diffrn_reflns_limit_k_min       -56
_diffrn_reflns_limit_l_max       56
_diffrn_reflns_limit_l_min       -56
_diffrn_reflns_number            122901
_diffrn_reflns_point_group_measured_fraction_full 0.999
_diffrn_reflns_point_group_measured_fraction_max 0.999
_diffrn_reflns_theta_full        24.835
_diffrn_reflns_theta_max         24.990
_diffrn_reflns_theta_min         1.221
_diffrn_source                   'PLSII 2D bending magnet'
_exptl_absorpt_coefficient_mu    0.536
_exptl_absorpt_correction_T_max  0.914
_exptl_absorpt_correction_T_min  0.814
_exptl_absorpt_correction_type   multi-scan
_exptl_absorpt_process_details   HKL3000
_exptl_crystal_colour            blue
_exptl_crystal_density_diffrn    0.502
_exptl_crystal_description       'truncated octahedron'
_exptl_crystal_F_000             15360
_exptl_crystal_size_max          0.400
_exptl_crystal_size_mid          0.350
_exptl_crystal_size_min          0.170
_refine_diff_density_max         0.740
_refine_diff_density_min         -0.624
_refine_diff_density_rms         0.078
_refine_ls_extinction_method     none
_refine_ls_goodness_of_fit_ref   1.298
_refine_ls_hydrogen_treatment    constr
_refine_ls_matrix_type           full
_refine_ls_number_parameters     107
_refine_ls_number_reflns         4461
_refine_ls_number_restraints     24
_refine_ls_restrained_S_all      1.455
_refine_ls_R_factor_all          0.0971
_refine_ls_R_factor_gt           0.0801
_refine_ls_shift/su_max          0.001
_refine_ls_shift/su_mean         0.000
_refine_ls_structure_factor_coef Fsqd
_refine_ls_weighting_details
'w=1/[\s^2^(Fo^2^)+(0.1530P)^2^+176.0708P] where P=(Fo^2^+2Fc^2^)/3'
_refine_ls_weighting_scheme      calc
_refine_ls_wR_factor_gt          0.2707
_refine_ls_wR_factor_ref         0.2888
_reflns_Friedel_coverage         0.000
_reflns_number_gt                3362
_reflns_number_total             4461
_reflns_threshold_expression     'I > 2\s(I)'
_cod_data_source_file            c9sc00513g2.cif
_cod_data_source_block           1
_cod_depositor_comments
;
The following automatic conversions were performed:

'_exptl_absorpt_correction_type' value 'Multi-scan' changed to
'multi-scan' according to
/home/data/users/saulius/crontab/automatic-downloads/rss-feeds/RSC/lib/dictionaries/cif_core.dic
dictionary named 'cif_core.dic' version 2.4.2 from 2011-04-26.

Automatic conversion script
Id: cif_fix_values 4973 2017-02-22 13:04:09Z antanas 
;
_cod_original_cell_volume        100252(35)
_cod_database_code               1551045
_shelx_shelxl_version_number     2018/3
_shelx_space_group_comment
;
The symmetry employed for this shelxl refinement is uniquely defined
by the following loop, which should always be used as a source of
symmetry information in preference to the above space-group names.
They are only intended as comments.
;
_shelx_res_file
;

TITL Fm-3m_a.res in Fm-3m
    fm-3m_a_sq.res
    created by SHELXL-2018/3 at 16:29:14 on 03-Sep-2018
CELL  0.70000  46.4548  46.4548  46.4548   90.000   90.000   90.000
ZERR    4.000   0.0054   0.0054   0.0054    0.000    0.000    0.000
LATT 4
SYMM -X, -Y, Z
SYMM -X, Y, -Z
SYMM X, -Y, -Z
SYMM Z, X, Y
SYMM Z, -X, -Y
SYMM -Z, -X, Y
SYMM -Z, X, -Y
SYMM Y, Z, X
SYMM -Y, Z, -X
SYMM Y, -Z, -X
SYMM -Y, -Z, X
SYMM Y, X, -Z
SYMM -Y, -X, -Z
SYMM Y, -X, Z
SYMM -Y, X, Z
SYMM X, Z, -Y
SYMM -X, Z, Y
SYMM -X, -Z, -Y
SYMM X, -Z, Y
SYMM Z, Y, -X
SYMM Z, -Y, X
SYMM -Z, Y, X
SYMM -Z, -Y, -X
SFAC C  H  N  O  Cu  Zn
DISP C          0.0030         0.0016          10.98
DISP H          0.0000         0.0000           0.67
DISP N          0.0059         0.0032          18.71
DISP O          0.0105         0.0059          30.82
DISP Cu         0.3320         1.2369        4969.40
DISP Zn         0.2992         1.4004        5621.65
UNIT 1296 960 48 432 48 48
LIST 6 ! automatically inserted. Change 6 to 4 for CHECKCIF!!
OMIT  -3.00  50.00
L.S. 30  0   95
BOND $H
ACTA
FMAP 2
ISOR 0.01 C3
ISOR 0.01 C4
ISOR 0.01 C5
ISOR 0.01 O2
PLAN 5
SIZE 0.400 0.350 0.170
TEMP -100
ABIN
WGHT    0.153000  176.070801
FVAR       0.03610
CU1   5    0.500000    0.341843    0.658157    10.25000    0.05601    0.06291 =
         0.06291    0.02331    0.00000    0.00000
ZN1   6    0.500000    0.300150    0.699850    10.25000    0.06381    0.06764 =
         0.06764    0.02998    0.00000    0.00000
C1    1    0.538503    0.349222    0.704717    11.00000    0.12844    0.10740 =
         0.11164    0.06605   -0.04562   -0.05855
C2    1    0.561840    0.364165    0.719737    11.00000    0.16606    0.14504 =
         0.14097    0.09669   -0.08496   -0.08786
C3    1    0.571407    0.355270    0.746892    11.00000    0.21337    0.18822 =
         0.16433    0.09503   -0.08384   -0.10047
AFIX  43
H3    2    0.561560    0.340058    0.756369    11.00000   -1.20000
AFIX   0
C4    1    0.594243    0.367662    0.760068    11.00000    0.22965    0.21257 =
         0.18773    0.12475   -0.09951   -0.09779
AFIX  43
H4    2    0.601321    0.359876    0.777603    11.00000   -1.20000
AFIX   0
C5    1    0.607714    0.392286    0.747804    10.50000    0.17591    0.17591 =
         0.15621    0.06918   -0.06918   -0.07135
C6    1    0.597808    0.402192    0.720525    10.50000    0.13771    0.13771 =
         0.11465    0.07406   -0.07406   -0.07132
C7    1    0.575159    0.388054    0.707556    11.00000    0.10962    0.10220 =
         0.10169    0.05441   -0.04317   -0.03932
AFIX  43
H7    2    0.568362    0.394923    0.689534    11.00000   -1.20000
AFIX   0
O1    4    0.529661    0.359783    0.682024    11.00000    0.06534    0.07061 =
         0.08214    0.02829   -0.00781   -0.01364
O2    4    0.529877    0.326211    0.714964    11.00000    0.21788    0.15228 =
         0.17499    0.10794   -0.10861   -0.11820
N1L   3    0.500000    0.269276    0.730724    10.25000    0.04273    0.05873 =
         0.05873    0.01549    0.00000    0.00000
PART 1
C1L   1    0.514856    0.279822    0.756858    10.50000    0.20863    0.09036 =
         0.08901    0.05137   -0.07468   -0.06623
PART 2
C2L   1    0.470616    0.261928    0.738072    10.25000    0.04705    0.15739 =
         0.15739    0.12029    0.00234   -0.00234
PART 0
O1L   4    0.500000    0.374928    0.625072    10.25000    0.13112    0.08232 =
         0.08232    0.03225    0.00000    0.00000
HKLF 4




REM  Fm-3m_a.res in Fm-3m
REM wR2 = 0.2888, GooF = S = 1.298, Restrained GooF = 1.455 for all data
REM R1 = 0.0801 for 3362 Fo > 4sig(Fo) and 0.0971 for all 4461 data
REM 107 parameters refined using 24 restraints

END

WGHT      0.1825    293.5274

REM Highest difference peak  0.740,  deepest hole -0.624,  1-sigma level  0.078
Q1    1   0.5000  0.3697  0.5999  10.50000  0.05    0.74
Q2    1   0.5196  0.3374  0.7226  11.00000  0.05    0.62
Q3    1   0.5184  0.3842  0.6158  10.50000  0.05    0.57
Q4    1   0.5000  0.2854  0.7583  10.50000  0.05    0.47
Q5    1   0.5396  0.3187  0.7036  11.00000  0.05    0.47
;
_shelx_res_checksum              47152
_shelx_fab_file
;
    0    0    4   -601.90      0.00
    0    0    6    437.50      0.00
    0    0    8   -687.69      0.00
    0    0   10   1168.34      0.00
    0    0   12     42.60      0.00
    0    0   14    440.92      0.00
    0    0   16     63.62      0.00
    0    0   18    -63.28      0.00
    0    0   20    167.10      0.00
    0    0   22    -10.50      0.00
    0    0   24     42.94      0.00
    0    0   26     17.23      0.00
    0    0   28    -39.14      0.00
    0    0   30     24.38      0.00
    0    0   32     45.51      0.00
    0    0   34     41.71      0.00
    0    0   36     26.08      0.00
    0    0   38     22.61      0.00
    0    0   40     37.49      0.00
    0    0   42     19.53      0.00
    0    0   44     25.64      0.00
    0    0   46      9.78      0.00
    0    0   48     10.28      0.00
    0    0   50     26.46      0.00
    0    0   52      8.58      0.00
    0    0   54     41.95      0.00
    0    0   56    -24.90      0.00
    0    0   60    -15.80      0.00
    1    1   57     16.00      0.00
    1    1   55     -6.75      0.00
    1    1   53     -2.99      0.00
    1    1   51     -0.56      0.00
    1    1   49      1.67      0.00
    1    1   47     -0.43      0.00
    1    1   45     -5.94      0.00
    1    1   43    -18.45      0.00
    1    1   41      7.80      0.00
    1    1   39    -21.39      0.00
    1    1   37    -24.57      0.00
    1    1   35    -21.53      0.00
    1    1   33    -37.32      0.00
    1    1   31    -18.32      0.00
    1    1   29      9.97      0.00
    1    1   27     16.08      0.00
    1    1   25    -10.35      0.00
    1    1   23    -72.62      0.00
    1    1   21    -53.86      0.00
    1    1   19   -145.40      0.00
    1    1   17   -108.97      0.00
    1    1   15   -260.34      0.00
    1    1   13   -244.71      0.00
    1    1   11     -9.80      0.00
    1    1    9   -252.00      0.00
    1    1    7     -2.74      0.00
    1    1    5    533.46      0.00
    1    1    3   -984.35      0.00
    1    1   59     -2.57      0.00
    2    2   58     -6.19      0.00
    2    2   56    -20.11      0.00
    2    2   54    -11.80      0.00
    2    2   52     -2.60      0.00
    2    2   50      6.21      0.00
    2    2   48     17.13      0.00
    2    2   46     -5.98      0.00
    2    2   44      6.48      0.00
    2    2   42     14.87      0.00
    2    2   40     32.64      0.00
    2    2   38      6.80      0.00
    2    2   36     -7.85      0.00
    2    2   34     17.52      0.00
    2    2   32     14.79      0.00
    2    2   30    -23.42      0.00
    2    2   28    -18.38      0.00
    2    2   26     49.93      0.00
    2    2   24    105.84      0.00
    2    2   22     45.70      0.00
    2    2   20     78.71      0.00
    2    2   18     85.09      0.00
    2    2   16   -144.58      0.00
    2    2   14     -2.56      0.00
    2    2   12    144.39      0.00
    2    2   10     15.46      0.00
    2    2    8    520.40      0.00
    2    2    6    -66.00      0.00
    2    2    4   -660.50      0.00
    3    3   55      2.02      0.00
    3    3   53      3.79      0.00
    3    3   51      6.62      0.00
    3    3   49    -12.75      0.00
    3    3   47    -17.49      0.00
    3    3   45     -2.39      0.00
    3    3   43      2.07      0.00
    3    3   41    -18.04      0.00
    3    3   39     -9.89      0.00
    3    3   37      2.76      0.00
    3    3   35     -9.42      0.00
    3    3   33    -17.85      0.00
    3    3   31    -12.62      0.00
    3    3   29    -15.30      0.00
    3    3   27    -53.56      0.00
    3    3   25     72.53      0.00
    3    3   23     -7.42      0.00
    3    3   21    -57.59      0.00
    3    3   19    -46.38      0.00
    3    3   17     57.18      0.00
    3    3   15     77.22      0.00
    3    3   13    158.58      0.00
    3    3   11    -37.28      0.00
    3    3    9   -312.55      0.00
    3    3    7   -233.16      0.00
    3    3    5   -347.85      0.00
    1    3    3    100.49      0.00
    3    3   57      4.03      0.00
    4    4   56     16.05      0.00
    4    4   54    -16.98      0.00
    4    4   52     -4.00      0.00
    4    4   50     -2.74      0.00
    4    4   48     -0.78      0.00
    4    4   46     11.51      0.00
    4    4   44    -14.63      0.00
    4    4   42    -15.90      0.00
    4    4   40      6.60      0.00
    4    4   38      4.72      0.00
    4    4   36      6.57      0.00
    4    4   34     -6.32      0.00
    4    4   32     21.79      0.00
    4    4   30     63.15      0.00
    4    4   28     51.65      0.00
    4    4   26     56.91      0.00
    4    4   24     13.46      0.00
    4    4   22     27.57      0.00
    4    4   20      3.56      0.00
    4    4   18    -14.71      0.00
    4    4   16     -0.22      0.00
    4    4   14   -150.47      0.00
    4    4   12    164.76      0.00
    4    4   10   -174.99      0.00
    4    4    6   -237.31      0.00
    4    4    4  -1721.48      0.00
    2    4    4    973.11      0.00
    0    4    4    204.33      0.00
    4    4    8    270.60      0.00
    5    5   57    -14.97      0.00
    5    5   55      5.05      0.00
    5    5   53      4.76      0.00
    5    5   51      2.06      0.00
    5    5   49    -12.85      0.00
    5    5   47      1.96      0.00
    5    5   45      7.75      0.00
    5    5   43     16.66      0.00
    5    5   41     -2.72      0.00
    5    5   39      7.96      0.00
    5    5   37     11.02      0.00
    5    5   35      6.79      0.00
    5    5   33    -11.10      0.00
    5    5   31    -48.03      0.00
    5    5   29    -40.38      0.00
    5    5   27    -28.00      0.00
    5    5   25    -14.62      0.00
    5    5   23      8.26      0.00
    5    5   21     63.17      0.00
    5    5   19     29.89      0.00
    5    5   17   -115.87      0.00
    5    5   15   -151.04      0.00
    5    5   11    104.70      0.00
    5    5    9   -122.51      0.00
    5    5    7   -201.02      0.00
    5    5    5    146.24      0.00
    3    5    5   -359.08      0.00
    1    5    5   -166.99      0.00
    5    5   13    169.94      0.00
    6    6   56      8.36      0.00
    6    6   54    -19.84      0.00
    6    6   52      4.63      0.00
    6    6   50     -4.01      0.00
    6    6   48      4.49      0.00
    6    6   46     22.11      0.00
    6    6   44     15.48      0.00
    6    6   42     15.39      0.00
    6    6   40    -11.71      0.00
    6    6   38     -3.17      0.00
    6    6   36    -36.15      0.00
    6    6   34    -12.63      0.00
    6    6   32     17.57      0.00
    6    6   30     25.88      0.00
    6    6   28     38.64      0.00
    6    6   26     36.89      0.00
    6    6   24     27.56      0.00
    6    6   22      1.16      0.00
    6    6   20      0.83      0.00
    6    6   18    120.82      0.00
    6    6   16     61.83      0.00
    6    6   14    185.09      0.00
    6    6   12     41.15      0.00
    6    6   10      4.26      0.00
    6    6    8    381.66      0.00
    4    6    6    256.76      0.00
    2    6    6     67.11      0.00
    7    7   55     -5.71      0.00
    7    7   53     12.25      0.00
    7    7   51    -16.34      0.00
    7    7   49      7.24      0.00
    7    7   47      2.59      0.00
    7    7   45    -23.34      0.00
    7    7   43     -2.64      0.00
    7    7   41    -15.88      0.00
    7    7   39     -4.38      0.00
    7    7   37     15.31      0.00
    7    7   35     19.74      0.00
    7    7   33     -5.70      0.00
    7    7   31    -37.97      0.00
    7    7   29    -30.54      0.00
    7    7   27    -55.55      0.00
    7    7   25    -14.68      0.00
    7    7   23    -24.88      0.00
    7    7   21   -120.76      0.00
    7    7   19     46.82      0.00
    7    7   17    -10.04      0.00
    7    7   15     95.57      0.00
    7    7   13   -110.17      0.00
    7    7   11    -47.57      0.00
    7    7    9    -13.13      0.00
    5    7    7    256.95      0.00
    3    7    7   -134.02      0.00
    1    7    7    236.34      0.00
    8    8   54      3.44      0.00
    8    8   52     11.31      0.00
    8    8   50     -4.11      0.00
    8    8   48     -0.93      0.00
    8    8   46      7.31      0.00
    8    8   44     23.48      0.00
    8    8   42     11.42      0.00
    8    8   40      9.38      0.00
    8    8   38      2.68      0.00
    8    8   36    -21.02      0.00
    8    8   34    -18.63      0.00
    8    8   32      9.10      0.00
    8    8   30     32.36      0.00
    8    8   28     22.54      0.00
    8    8   26     75.17      0.00
    8    8   24     40.68      0.00
    8    8   22     -1.93      0.00
    8    8   20     33.19      0.00
    8    8   18    -86.45      0.00
    8    8   16   -129.91      0.00
    8    8   14     40.68      0.00
    8    8   12     -7.32      0.00
    8    8   10    -42.90      0.00
    8    8    8     37.02      0.00
    6    8    8   -133.75      0.00
    4    8    8   -276.83      0.00
    2    8    8    264.36      0.00
    9    9   53     -2.65      0.00
    9    9   51    -21.21      0.00
    9    9   49      0.56      0.00
    9    9   47      2.57      0.00
    9    9   45      5.22      0.00
    9    9   43     -2.70      0.00
    9    9   41     -6.81      0.00
    9    9   39     -9.38      0.00
    9    9   37    -10.22      0.00
    9    9   35     -8.57      0.00
    9    9   33    -19.13      0.00
    9    9   31    -18.46      0.00
    9    9   29    -55.11      0.00
    9    9   27    -17.99      0.00
    9    9   25    -52.98      0.00
    9    9   23      3.23      0.00
    9    9   21     15.30      0.00
    9    9   19     45.64      0.00
    9    9   17     48.02      0.00
    9    9   15     25.99      0.00
    9    9   13    -52.68      0.00
    9    9   11     90.00      0.00
    9    9    9    114.15      0.00
    7    9    9     49.21      0.00
    5    9    9    -10.75      0.00
    1    9    9    -90.38      0.00
   10   10   50     -3.49      0.00
   10   10   48      8.99      0.00
   10   10   46     -9.58      0.00
   10   10   44      3.31      0.00
   10   10   42     -2.82      0.00
   10   10   40      8.28      0.00
   10   10   38     20.62      0.00
   10   10   36     17.23      0.00
   10   10   34      9.25      0.00
   10   10   32     21.06      0.00
   10   10   30     13.77      0.00
   10   10   28     57.48      0.00
   10   10   26     38.68      0.00
   10   10   24     12.73      0.00
   10   10   22    -19.16      0.00
   10   10   20    -18.81      0.00
   10   10   18     43.81      0.00
   10   10   16     32.27      0.00
   10   10   14    104.50      0.00
   10   10   12     31.89      0.00
   10   10   10   -142.59      0.00
    8   10   10   -163.96      0.00
    6   10   10   -271.24      0.00
    4   10   10   -103.93      0.00
    2   10   10    158.67      0.00
   11   11   49     -7.75      0.00
   11   11   47     15.86      0.00
   11   11   45    -18.92      0.00
   11   11   43     -5.41      0.00
   11   11   41     16.60      0.00
   11   11   39      1.94      0.00
   11   11   37      0.72      0.00
   11   11   35      8.15      0.00
   11   11   33     30.99      0.00
   11   11   31     -4.18      0.00
   11   11   29    -10.49      0.00
   11   11   27     -4.38      0.00
   11   11   25    -25.47      0.00
   11   11   23    -24.52      0.00
   11   11   21    -30.00      0.00
   11   11   19    -65.09      0.00
   11   11   17      1.62      0.00
   11   11   15     -1.27      0.00
   11   11   13    -15.73      0.00
   11   11   11    -44.25      0.00
    9   11   11    -70.73      0.00
    7   11   11     -5.90      0.00
    5   11   11   -113.90      0.00
    3   11   11     55.71      0.00
    1   11   11     -3.62      0.00
   11   11   51      1.75      0.00
   12   12   54    -13.89      0.00
   12   12   50     -0.69      0.00
   12   12   48      7.14      0.00
   12   12   46     14.19      0.00
   12   12   44      8.04      0.00
   12   12   42      5.40      0.00
   12   12   40    -28.99      0.00
   12   12   38      1.25      0.00
   12   12   36     -6.09      0.00
   12   12   34      4.39      0.00
   12   12   32    -11.28      0.00
   12   12   30      9.27      0.00
   12   12   28     16.35      0.00
   12   12   26     34.06      0.00
   12   12   24     41.02      0.00
   12   12   22     39.14      0.00
   12   12   20     60.75      0.00
   12   12   18    -96.68      0.00
   12   12   16    -41.86      0.00
   12   12   14    -58.34      0.00
   12   12   12     -0.30      0.00
   10   12   12    108.40      0.00
    8   12   12     88.13      0.00
    6   12   12    -51.21      0.00
    2   12   12     90.53      0.00
   12   12   52     -9.15      0.00
   13   13   55    -29.79      0.00
   13   13   51     15.23      0.00
   13   13   49      2.22      0.00
   13   13   47     -1.51      0.00
   13   13   45     -6.68      0.00
   13   13   43    -22.48      0.00
   13   13   41      4.57      0.00
   13   13   39     -4.83      0.00
   13   13   37    -10.61      0.00
   13   13   35     -3.38      0.00
   13   13   33      7.40      0.00
   13   13   31     15.63      0.00
   13   13   29     -6.89      0.00
   13   13   27     15.48      0.00
   13   13   25    -28.91      0.00
   13   13   23    -58.08      0.00
   13   13   21    -10.79      0.00
   13   13   19     -1.33      0.00
   13   13   17     46.94      0.00
   13   13   15     46.57      0.00
   13   13   13     80.72      0.00
   11   13   13      6.70      0.00
    9   13   13    -98.25      0.00
    7   13   13     -5.30      0.00
    5   13   13    161.10      0.00
    3   13   13     32.86      0.00
    1   13   13     52.30      0.00
   14   14   50     -3.85      0.00
   14   14   48     -4.28      0.00
   14   14   46     -5.28      0.00
   14   14   44      5.80      0.00
   14   14   42     32.37      0.00
   14   14   40     -1.88      0.00
   14   14   38     -1.61      0.00
   14   14   36    -14.91      0.00
   14   14   34     16.05      0.00
   14   14   32     -4.29      0.00
   14   14   30     -5.61      0.00
   14   14   28     16.52      0.00
   14   14   26      1.11      0.00
   14   14   24     14.39      0.00
   14   14   22      4.16      0.00
   14   14   20     25.64      0.00
   14   14   18     25.95      0.00
   14   14   16     45.07      0.00
   14   14   14     16.87      0.00
   12   14   14   -109.36      0.00
   10   14   14     89.65      0.00
    8   14   14    -56.52      0.00
    6   14   14   -134.10      0.00
    4   14   14    -59.32      0.00
    2   14   14     31.25      0.00
   15   15   51    -19.63      0.00
   15   15   49     -0.98      0.00
   15   15   47     -5.14      0.00
   15   15   45    -15.96      0.00
   15   15   43    -16.81      0.00
   15   15   41      5.24      0.00
   15   15   39     -3.45      0.00
   15   15   37     -9.06      0.00
   15   15   35     -1.54      0.00
   15   15   33    -10.14      0.00
   15   15   31      8.59      0.00
   15   15   29    -10.94      0.00
   15   15   27    -15.02      0.00
   15   15   25      5.81      0.00
   15   15   23     -0.72      0.00
   15   15   21    -22.51      0.00
   15   15   19     -5.26      0.00
   15   15   17    -45.97      0.00
   15   15   15    -10.86      0.00
   13   15   15     -6.61      0.00
   11   15   15     -8.57      0.00
    9   15   15    -26.64      0.00
    7   15   15     34.07      0.00
    5   15   15     11.10      0.00
    3   15   15      9.72      0.00
    1   15   15    100.31      0.00
   16   16   50    -10.07      0.00
   16   16   48     -6.39      0.00
   16   16   46      3.68      0.00
   16   16   44     -7.16      0.00
   16   16   42     16.88      0.00
   16   16   40     14.68      0.00
   16   16   38     -4.47      0.00
   16   16   36    -26.22      0.00
   16   16   34    -24.94      0.00
   16   16   32     -3.19      0.00
   16   16   30      5.67      0.00
   16   16   28     27.02      0.00
   16   16   26     26.91      0.00
   16   16   24     19.69      0.00
   16   16   22      6.70      0.00
   16   16   20     16.42      0.00
   16   16   18     14.40      0.00
   16   16   16     -5.47      0.00
   14   16   16     35.81      0.00
   12   16   16     14.95      0.00
   10   16   16     49.57      0.00
    8   16   16     -7.56      0.00
    6   16   16    -30.19      0.00
    4   16   16      0.19      0.00
    2   16   16     31.02      0.00
    0   16   16    137.93      0.00
   17   17   49     -0.45      0.00
   17   17   47      6.47      0.00
   17   17   45      6.48      0.00
   17   17   43     -9.26      0.00
   17   17   41     10.66      0.00
   17   17   39    -20.50      0.00
   17   17   37      3.75      0.00
   17   17   35     12.64      0.00
   17   17   33     -2.75      0.00
   17   17   31    -11.22      0.00
   17   17   29    -16.49      0.00
   17   17   27    -31.57      0.00
   17   17   25    -28.35      0.00
   17   17   23    -16.61      0.00
   17   17   21    -40.71      0.00
   17   17   19    -56.24      0.00
   17   17   17    -12.91      0.00
   15   17   17     -1.70      0.00
   13   17   17    -14.64      0.00
   11   17   17      7.32      0.00
    9   17   17    -44.12      0.00
    7   17   17    -97.19      0.00
    5   17   17    -77.04      0.00
    1   17   17     13.66      0.00
   18   18   50     15.12      0.00
   18   18   48      2.99      0.00
   18   18   46     -5.15      0.00
   18   18   44     -3.81      0.00
   18   18   42      0.08      0.00
   18   18   40      9.25      0.00
   18   18   38     27.58      0.00
   18   18   36      2.78      0.00
   18   18   34    -15.16      0.00
   18   18   32     -4.41      0.00
   18   18   30     -9.32      0.00
   18   18   28    -10.02      0.00
   18   18   26     25.20      0.00
   18   18   24     21.96      0.00
   18   18   22     31.61      0.00
   18   18   20     69.04      0.00
   18   18   18    100.10      0.00
   16   18   18     22.95      0.00
   14   18   18     13.78      0.00
   12   18   18     34.13      0.00
   10   18   18    -42.70      0.00
    8   18   18    -31.40      0.00
    6   18   18     25.51      0.00
    2   18   18    131.92      0.00
   19   19   47     -7.79      0.00
   19   19   45      6.13      0.00
   19   19   43     17.05      0.00
   19   19   41     -0.65      0.00
   19   19   39    -10.11      0.00
   19   19   37    -21.90      0.00
   19   19   35    -10.58      0.00
   19   19   33     -1.15      0.00
   19   19   31      6.79      0.00
   19   19   29     20.51      0.00
   19   19   27     11.27      0.00
   19   19   25      0.63      0.00
   19   19   23     -5.21      0.00
   19   19   21    -13.24      0.00
   19   19   19    -91.72      0.00
   17   19   19    -63.08      0.00
   15   19   19    -19.95      0.00
   13   19   19    -16.39      0.00
   11   19   19     42.72      0.00
    9   19   19     35.67      0.00
    7   19   19    -20.77      0.00
    5   19   19    -54.49      0.00
   19   19   49    -16.15      0.00
   20   20   50     -3.76      0.00
   20   20   46      2.17      0.00
   20   20   44      2.75      0.00
   20   20   42     -5.37      0.00
   20   20   40     -6.64      0.00
   20   20   38     11.84      0.00
   20   20   36     17.08      0.00
   20   20   34      0.33      0.00
   20   20   32      1.16      0.00
   20   20   30      2.15      0.00
   20   20   28    -17.95      0.00
   20   20   26     14.43      0.00
   20   20   24    -17.69      0.00
   20   20   22    -12.14      0.00
   20   20   20     13.98      0.00
   18   20   20     44.01      0.00
   16   20   20     32.37      0.00
   14   20   20     -2.44      0.00
   12   20   20     37.56      0.00
   10   20   20    -47.81      0.00
    8   20   20    -39.91      0.00
    6   20   20     -6.11      0.00
    2   20   20     77.34      0.00
    0   20   20    101.61      0.00
    4   20   20    -11.82      0.00
   21   21   47     -6.62      0.00
   21   21   45      9.82      0.00
   21   21   43      0.00      0.00
   21   21   41     -8.77      0.00
   21   21   39     -8.32      0.00
   21   21   37     -0.53      0.00
   21   21   35     -3.26      0.00
   21   21   33      3.45      0.00
   21   21   31     -7.08      0.00
   21   21   29      2.20      0.00
   21   21   27     12.15      0.00
   21   21   25     -2.33      0.00
   21   21   23     -1.12      0.00
   21   21   21     11.06      0.00
   19   21   21      4.81      0.00
   17   21   21      6.66      0.00
   15   21   21      3.12      0.00
   13   21   21     -5.98      0.00
   11   21   21    -25.92      0.00
    9   21   21     15.31      0.00
    7   21   21    -47.12      0.00
    5   21   21     -4.93      0.00
    1   21   21      9.24      0.00
    3   21   21    -45.63      0.00
   22   22   46      9.90      0.00
   22   22   44      3.77      0.00
   22   22   42     -3.70      0.00
   22   22   40    -13.38      0.00
   22   22   38     -1.91      0.00
   22   22   36     12.48      0.00
   22   22   34     19.27      0.00
   22   22   32      8.66      0.00
   22   22   30     -3.64      0.00
   22   22   28     -7.70      0.00
   22   22   26     10.57      0.00
   22   22   24      9.23      0.00
   22   22   22     -7.09      0.00
   20   22   22    -12.35      0.00
   18   22   22    -19.66      0.00
   16   22   22      6.07      0.00
   14   22   22     13.60      0.00
   12   22   22     10.29      0.00
   10   22   22      6.95      0.00
    8   22   22    -13.25      0.00
    6   22   22     -3.56      0.00
    4   22   22      2.37      0.00
    2   22   22     28.32      0.00
    0   22   22     83.91      0.00
   23   23   45      9.83      0.00
   23   23   43     -2.74      0.00
   23   23   41     15.45      0.00
   23   23   39     11.74      0.00
   23   23   37      8.88      0.00
   23   23   35     -9.94      0.00
   23   23   33    -13.01      0.00
   23   23   31     -1.73      0.00
   23   23   29     15.64      0.00
   23   23   27     13.78      0.00
   23   23   25     14.07      0.00
   23   23   23      4.43      0.00
   21   23   23     -5.42      0.00
   19   23   23    -21.15      0.00
   17   23   23     -3.80      0.00
   15   23   23    -19.96      0.00
   13   23   23     -3.81      0.00
   11   23   23     -1.71      0.00
    9   23   23     11.27      0.00
    7   23   23      0.93      0.00
    5   23   23    -19.72      0.00
    3   23   23     20.09      0.00
    1   23   23     22.85      0.00
   24   24   46     16.73      0.00
   24   24   44     -1.88      0.00
   24   24   42    -13.75      0.00
   24   24   40     -1.46      0.00
   24   24   38    -13.32      0.00
   24   24   36     13.05      0.00
   24   24   34      3.18      0.00
   24   24   32     -4.87      0.00
   24   24   30     -4.01      0.00
   24   24   28     -3.13      0.00
   24   24   26    -10.82      0.00
   24   24   24    -25.47      0.00
   22   24   24    -14.54      0.00
   20   24   24      0.01      0.00
   18   24   24     -5.54      0.00
   16   24   24     23.46      0.00
   14   24   24      0.11      0.00
   12   24   24     -6.04      0.00
   10   24   24      3.17      0.00
    8   24   24    -11.97      0.00
    6   24   24    -32.24      0.00
    4   24   24    -35.84      0.00
   25   25   45     -4.35      0.00
   25   25   41     10.23      0.00
   25   25   39     13.21      0.00
   25   25   37     -2.76      0.00
   25   25   35      0.69      0.00
   25   25   33     -1.82      0.00
   25   25   31     -7.30      0.00
   25   25   29     -1.51      0.00
   25   25   27     14.40      0.00
   25   25   25     -9.40      0.00
   23   25   25     19.86      0.00
   21   25   25     13.45      0.00
   19   25   25      8.48      0.00
   17   25   25     19.94      0.00
   15   25   25     -5.67      0.00
   13   25   25      9.31      0.00
   11   25   25     -1.54      0.00
    7   25   25     -4.67      0.00
    5   25   25    -25.65      0.00
    3   25   25     51.95      0.00
    1   25   25     12.89      0.00
   26   26   40     13.83      0.00
   26   26   38     -2.29      0.00
   26   26   36    -22.39      0.00
   26   26   34     -6.63      0.00
   26   26   32      3.35      0.00
   26   26   30      6.12      0.00
   26   26   28      4.35      0.00
   26   26   26     -6.91      0.00
   24   26   26     -6.79      0.00
   22   26   26      0.80      0.00
   20   26   26     -8.96      0.00
   18   26   26    -16.57      0.00
   16   26   26    -10.39      0.00
   14   26   26     17.65      0.00
   12   26   26     13.70      0.00
   10   26   26      6.66      0.00
    8   26   26     54.01      0.00
    6   26   26     -0.30      0.00
    4   26   26    -19.70      0.00
    2   26   26    -11.00      0.00
   27   27   39      4.47      0.00
   27   27   37     -0.56      0.00
   27   27   35      2.49      0.00
   27   27   33      3.45      0.00
   27   27   31     -9.63      0.00
   27   27   29     -0.58      0.00
   27   27   27     13.31      0.00
   25   27   27     -2.92      0.00
   23   27   27      9.95      0.00
   21   27   27      7.67      0.00
   19   27   27     -3.03      0.00
   17   27   27      4.47      0.00
   15   27   27     -4.15      0.00
   13   27   27    -13.88      0.00
   11   27   27    -16.64      0.00
    9   27   27    -35.79      0.00
    7   27   27    -45.99      0.00
    5   27   27    -28.77      0.00
    1   27   27     21.44      0.00
   28   28   44      8.65      0.00
   28   28   40     22.85      0.00
   28   28   38      1.21      0.00
   28   28   36    -21.61      0.00
   28   28   34    -13.03      0.00
   28   28   32      2.28      0.00
   28   28   30      9.19      0.00
   28   28   28      5.87      0.00
   26   28   28      7.28      0.00
   24   28   28     28.22      0.00
   22   28   28     16.45      0.00
   20   28   28      8.69      0.00
   18   28   28     -4.13      0.00
   16   28   28      6.53      0.00
   14   28   28      1.04      0.00
   12   28   28     13.18      0.00
    8   28   28     26.33      0.00
    6   28   28      8.04      0.00
    4   28   28      0.32      0.00
    2   28   28    -11.51      0.00
   29   29   43    -17.76      0.00
   29   29   39     -2.24      0.00
   29   29   37     21.01      0.00
   29   29   35     12.21      0.00
   29   29   33     -6.32      0.00
   29   29   31     -6.81      0.00
   29   29   29     -1.56      0.00
   27   29   29     -3.90      0.00
   25   29   29      0.39      0.00
   23   29   29     -0.70      0.00
   21   29   29     -8.72      0.00
   17   29   29     -1.14      0.00
   15   29   29     -0.16      0.00
   11   29   29     -7.41      0.00
    9   29   29      7.81      0.00
    7   29   29    -34.68      0.00
    3   29   29    -16.35      0.00
    1   29   29      9.39      0.00
    5   29   29    -19.10      0.00
   30   30   42      3.07      0.00
   30   30   38     11.21      0.00
   30   30   36     15.42      0.00
   30   30   34     -9.73      0.00
   30   30   32      8.96      0.00
   30   30   30     -1.32      0.00
   28   30   30      2.09      0.00
   26   30   30     -2.68      0.00
   24   30   30      1.85      0.00
   22   30   30     -0.66      0.00
   20   30   30     -4.37      0.00
   18   30   30     -1.51      0.00
   16   30   30    -15.98      0.00
   14   30   30     -5.02      0.00
   12   30   30    -10.02      0.00
   10   30   30      0.89      0.00
    8   30   30     -0.75      0.00
    6   30   30      0.17      0.00
    4   30   30     12.61      0.00
    2   30   30     14.01      0.00
   31   31   41    -13.21      0.00
   31   31   33     14.53      0.00
   31   31   31      1.28      0.00
   29   31   31      5.21      0.00
   27   31   31     11.06      0.00
   25   31   31      6.52      0.00
   23   31   31     -6.36      0.00
   21   31   31      4.06      0.00
   19   31   31      0.49      0.00
   17   31   31     20.72      0.00
   15   31   31     19.06      0.00
   13   31   31     10.75      0.00
   11   31   31     -1.05      0.00
    9   31   31     -1.67      0.00
    7   31   31      0.42      0.00
    5   31   31    -17.50      0.00
    3   31   31    -13.00      0.00
    1   31   31     19.64      0.00
   32   32   40     13.54      0.00
   32   32   32     -0.91      0.00
   30   32   32      1.29      0.00
   28   32   32      7.09      0.00
   26   32   32    -15.36      0.00
   24   32   32     -9.99      0.00
   22   32   32      6.37      0.00
   20   32   32      0.50      0.00
   18   32   32      1.29      0.00
   16   32   32    -15.04      0.00
   14   32   32     -8.62      0.00
   12   32   32    -10.24      0.00
   10   32   32    -14.88      0.00
    8   32   32     -8.76      0.00
    6   32   32    -13.15      0.00
    4   32   32    -12.86      0.00
    2   32   32      3.77      0.00
   33   33   35    -14.72      0.00
   33   33   33      3.42      0.00
   31   33   33    -21.04      0.00
   29   33   33     17.96      0.00
   27   33   33      9.91      0.00
   25   33   33     -3.84      0.00
   23   33   33     10.29      0.00
   21   33   33      5.86      0.00
   19   33   33      1.77      0.00
   17   33   33     18.15      0.00
   13   33   33      9.42      0.00
   11   33   33      5.88      0.00
    9   33   33      3.01      0.00
    7   33   33     10.77      0.00
    5   33   33     -1.93      0.00
    3   33   33      5.32      0.00
    1   33   33     24.39      0.00
   26   34   34     -8.84      0.00
   24   34   34     -1.80      0.00
   22   34   34     -0.32      0.00
   20   34   34     13.82      0.00
   18   34   34     -7.33      0.00
   16   34   34    -14.26      0.00
   14   34   34    -13.54      0.00
   12   34   34     -4.75      0.00
   10   34   34     -6.25      0.00
    8   34   34    -17.80      0.00
    6   34   34    -21.00      0.00
    4   34   34    -12.07      0.00
    2   34   34     -6.00      0.00
    0   34   34      2.92      0.00
   25   35   35      7.08      0.00
   23   35   35      1.64      0.00
   21   35   35     -1.02      0.00
   19   35   35    -12.87      0.00
   17   35   35      8.58      0.00
   13   35   35      6.87      0.00
   11   35   35      4.53      0.00
    9   35   35      1.43      0.00
    7   35   35     -7.18      0.00
    5   35   35     -3.65      0.00
    1   35   35      8.05      0.00
    3   35   35      1.80      0.00
   22   36   36      5.44      0.00
   20   36   36     12.45      0.00
   18   36   36      7.34      0.00
   16   36   36      3.72      0.00
   14   36   36      2.02      0.00
   12   36   36    -11.27      0.00
   10   36   36      3.45      0.00
    8   36   36     -6.81      0.00
    6   36   36      0.11      0.00
    4   36   36      6.74      0.00
    2   36   36     -1.75      0.00
   21   37   37     10.69      0.00
   19   37   37      1.91      0.00
   17   37   37    -15.73      0.00
   13   37   37      0.51      0.00
   11   37   37     11.92      0.00
    7   37   37      1.46      0.00
    5   37   37      8.84      0.00
    3   37   37      8.65      0.00
    1   37   37     -3.22      0.00
   22   38   38     -1.78      0.00
   18   38   38     -8.39      0.00
   16   38   38      0.84      0.00
   10   38   38      9.66      0.00
    8   38   38     -2.26      0.00
    6   38   38     -2.09      0.00
    4   38   38    -10.80      0.00
    2   38   38     -1.64      0.00
   17   39   39    -18.72      0.00
   15   39   39      4.52      0.00
   13   39   39      7.75      0.00
   11   39   39     16.67      0.00
    9   39   39     -5.75      0.00
    7   39   39     -4.13      0.00
    5   39   39      6.43      0.00
    3   39   39      8.41      0.00
   14   40   40     -6.82      0.00
   12   40   40      4.53      0.00
   10   40   40    -26.61      0.00
    8   40   40     -8.81      0.00
    2   40   40     -3.55      0.00
    4   40   40    -15.68      0.00
    7   41   41     -9.44      0.00
    7   39   41      7.35      0.00
    9   39   41     -5.21      0.00
   15   39   41     -7.97      0.00
    6   38   40      1.99      0.00
    0   38   40     -3.66      0.00
    2   38   40     -8.63      0.00
    4   38   40     -1.75      0.00
    8   38   40     10.79      0.00
   10   38   40     -7.31      0.00
   12   38   40      2.69      0.00
   14   38   40      5.80      0.00
   18   38   40     -9.71      0.00
   22   38   40     12.35      0.00
    1   37   39     -4.74      0.00
    3   37   39     25.10      0.00
    7   37   39      5.84      0.00
    9   37   39     13.71      0.00
   11   37   39     -2.98      0.00
   13   37   39     -1.69      0.00
   15   37   39     -0.26      0.00
   17   37   39    -15.04      0.00
   19   37   39      0.64      0.00
    6   36   38      9.04      0.00
    4   36   38     -0.48      0.00
    0   36   38     13.14      0.00
   10   36   38      5.00      0.00
   12   36   38      2.34      0.00
   14   36   38     -5.33      0.00
   16   36   38      2.35      0.00
   18   36   38    -11.22      0.00
   20   36   38    -13.44      0.00
   22   36   38      0.66      0.00
    7   35   37      9.29      0.00
    5   35   37      3.80      0.00
    3   35   37     -5.99      0.00
    1   35   37     -4.82      0.00
    9   35   37      7.14      0.00
   13   35   37      1.71      0.00
   15   35   37      0.24      0.00
   17   35   37     -3.70      0.00
   19   35   37      1.70      0.00
   21   35   37     -2.45      0.00
   23   35   37    -14.73      0.00
   25   35   37     -1.32      0.00
    2   34   36     -0.55      0.00
    4   34   36      0.68      0.00
    6   34   36     10.05      0.00
    8   34   36     -4.28      0.00
   10   34   36     -3.30      0.00
   14   34   36     -6.16      0.00
   16   34   36     -6.58      0.00
   18   34   36     10.34      0.00
   20   34   36     -0.46      0.00
   22   34   36     -2.83      0.00
   24   34   36     -2.28      0.00
   26   34   36      2.72      0.00
   28   34   36      1.43      0.00
    7   33   35     16.24      0.00
    5   33   35     14.06      0.00
    1   33   35      3.54      0.00
    9   33   35      6.00      0.00
   11   33   35     15.94      0.00
   13   33   35     10.17      0.00
   15   33   35      6.59      0.00
   17   33   35      8.34      0.00
   19   33   35      1.42      0.00
   21   33   35     -3.25      0.00
   25   33   35      7.60      0.00
   27   33   35      4.83      0.00
   29   33   35     -9.34      0.00
    4   32   34     -7.76      0.00
    0   32   34    -17.37      0.00
    2   32   34     -1.46      0.00
    6   32   34     -8.82      0.00
    8   32   34    -14.94      0.00
   10   32   34    -10.01      0.00
   12   32   34     -3.83      0.00
   14   32   34     -4.25      0.00
   16   32   34    -13.00      0.00
   18   32   34      3.43      0.00
   20   32   34     -1.56      0.00
   22   32   34     -3.64      0.00
   24   32   34     -9.35      0.00
   26   32   34      1.45      0.00
   28   32   34     -3.85      0.00
   30   32   34     -3.69      0.00
   32   32   34    -10.14      0.00
    1   31   33      8.53      0.00
    3   31   33     -5.89      0.00
    5   31   33     15.81      0.00
    7   31   33     13.81      0.00
    9   31   33    -11.07      0.00
   11   31   33     -7.56      0.00
   13   31   33      4.68      0.00
   15   31   33     15.13      0.00
   17   31   33      5.98      0.00
   19   31   33     -0.91      0.00
   21   31   33      7.47      0.00
   23   31   33     -6.16      0.00
   25   31   33      3.20      0.00
   27   31   33     20.04      0.00
   29   31   33     12.66      0.00
   31   33   35     11.93      0.00
   31   33   37    -11.73      0.00
    4   30   32      3.70      0.00
    2   30   32      4.71      0.00
    8   30   32      0.17      0.00
   10   30   32     -3.02      0.00
   12   30   32      4.33      0.00
   14   30   32    -14.04      0.00
   18   30   32     -5.75      0.00
   20   30   32     -8.36      0.00
   22   30   32     -3.65      0.00
   24   30   32     -3.23      0.00
   26   30   32      2.79      0.00
   28   30   32     -6.75      0.00
   30   32   38     14.00      0.00
   30   32   44     20.62      0.00
    1   29   31    -13.48      0.00
    3   29   31    -21.76      0.00
    5   29   31     -4.95      0.00
    9   29   31     -0.81      0.00
   11   29   31     27.04      0.00
   13   29   31     -2.04      0.00
   15   29   31     12.37      0.00
   17   29   31      7.04      0.00
   19   29   31    -13.60      0.00
   21   29   31     -5.01      0.00
   25   29   31     -3.93      0.00
   27   29   31     -7.67      0.00
   29   31   39     -7.23      0.00
   29   31   45      5.03      0.00
    8   28   30     14.75      0.00
    2   28   30      3.68      0.00
    6   28   30     24.95      0.00
   10   28   30      5.18      0.00
   12   28   30      9.02      0.00
   14   28   30      1.10      0.00
   16   28   30     -6.98      0.00
   18   28   30      4.35      0.00
   20   28   30     -3.00      0.00
   24   28   30      3.02      0.00
   26   28   30      4.59      0.00
   28   30   34     -7.16      0.00
   28   30   36     -1.42      0.00
   28   30   40     -8.75      0.00
   28   30   42     11.08      0.00
   28   30   46     32.36      0.00
    3   27   29      7.26      0.00
    1   27   29    -13.58      0.00
    5   27   29     -7.21      0.00
    7   27   29     -9.52      0.00
    9   27   29    -23.23      0.00
   11   27   29    -21.01      0.00
   13   27   29    -13.20      0.00
   15   27   29    -24.11      0.00
   17   27   29     -0.01      0.00
   19   27   29    -14.14      0.00
   21   27   29      2.58      0.00
   23   27   29    -12.99      0.00
   25   27   29     -2.78      0.00
   27   29   33     -4.72      0.00
   27   29   35     16.58      0.00
   27   29   37     -0.89      0.00
   27   29   41      2.37      0.00
   27   29   43     12.56      0.00
   27   29   47     -9.08      0.00
    6   26   28     38.46      0.00
    4   26   28    -17.70      0.00
    0   26   28    -22.44      0.00
    2   26   28    -15.63      0.00
    8   26   28     33.06      0.00
   12   26   28      8.16      0.00
   14   26   28      5.40      0.00
   16   26   28     -6.17      0.00
   18   26   28    -11.51      0.00
   20   26   28      0.53      0.00
   22   26   28      1.39      0.00
   24   26   28      3.77      0.00
   26   28   32     17.57      0.00
   26   28   34     -1.01      0.00
   26   28   36    -10.89      0.00
   26   28   38     -6.07      0.00
   26   28   42    -10.73      0.00
   15   25   27     -2.63      0.00
    7   25   27    -15.16      0.00
    3   25   27     21.92      0.00
    1   25   27    -19.99      0.00
    5   25   27      4.77      0.00
    9   25   27    -18.71      0.00
   11   25   27    -17.91      0.00
   13   25   27      5.00      0.00
   17   25   27     14.12      0.00
   19   25   27     23.97      0.00
   21   25   27      8.02      0.00
   23   25   27     10.40      0.00
   25   27   31     -4.72      0.00
   25   27   33     -6.96      0.00
   25   27   35      7.44      0.00
   25   27   37     -0.06      0.00
   25   27   39     11.22      0.00
   25   27   43     23.10      0.00
    4   24   26    -17.47      0.00
    2   24   26    -38.94      0.00
    0   24   26     -4.64      0.00
    6   24   26     16.23      0.00
   10   24   26     14.05      0.00
   12   24   26     -9.91      0.00
   14   24   26     -4.11      0.00
   16   24   26     -6.80      0.00
   18   24   26      5.28      0.00
   20   24   26     -3.15      0.00
   22   24   26    -18.19      0.00
   24   26   30      8.10      0.00
   24   26   32      7.68      0.00
   24   26   34    -18.94      0.00
   24   26   36     -3.30      0.00
   24   26   38     -0.86      0.00
   24   26   40    -11.62      0.00
   24   26   42      3.86      0.00
   24   26   44     -2.40      0.00
   24   26   48     23.94      0.00
   17   23   25     -2.25      0.00
    1   23   25    -40.78      0.00
    3   23   25     23.18      0.00
    5   23   25     20.16      0.00
    7   23   25     30.39      0.00
    9   23   25      9.51      0.00
   11   23   25     -7.71      0.00
   13   23   25      1.20      0.00
   15   23   25    -23.15      0.00
   19   23   25      9.56      0.00
   21   23   25     -1.63      0.00
   23   25   29     -2.67      0.00
   23   25   31     -4.23      0.00
   23   25   33     -6.62      0.00
   23   25   35     -4.37      0.00
   23   25   37      1.35      0.00
   23   25   39      2.71      0.00
   23   25   41      3.94      0.00
   23   25   43      7.79      0.00
   23   25   45     -9.56      0.00
   16   22   24      3.58      0.00
    0   22   24      4.83      0.00
    2   22   24     -0.81      0.00
    4   22   24     44.04      0.00
    6   22   24      9.83      0.00
    8   22   24     -1.11      0.00
   10   22   24     -9.31      0.00
   12   22   24     11.44      0.00
   18   22   24      9.29      0.00
   20   22   24     -2.16      0.00
   22   24   28     -9.40      0.00
   22   24   30     -4.01      0.00
   22   24   32      5.30      0.00
   22   24   34      6.83      0.00
   22   24   36      8.92      0.00
   22   24   38      3.04      0.00
   22   24   40     -1.25      0.00
   22   24   42      1.02      0.00
   22   24   44     -6.50      0.00
   21   23   43      0.11      0.00
    5   21   23    -13.62      0.00
    3   21   23    -12.06      0.00
    1   21   23    -53.98      0.00
    7   21   23     14.80      0.00
    9   21   23     10.26      0.00
   11   21   23     -6.97      0.00
   13   21   23     -9.34      0.00
   15   21   23     -1.10      0.00
   17   21   23    -12.96      0.00
   19   21   23     -1.41      0.00
   21   23   27      0.51      0.00
   21   23   29      4.46      0.00
   21   23   31     -7.10      0.00
   21   23   33     -5.72      0.00
   21   23   35    -11.25      0.00
   21   23   37      1.63      0.00
   21   23   39    -18.35      0.00
   21   23   41     11.36      0.00
   21   23   45      2.20      0.00
   21   23   49    -11.32      0.00
   20   22   42     -2.09      0.00
   20   22   40     -3.66      0.00
   20   22   36     -1.83      0.00
   20   22   30     15.74      0.00
   16   20   22     -2.26      0.00
    4   20   22     27.16      0.00
    2   20   22      2.71      0.00
    0   20   22      5.98      0.00
    6   20   22     39.76      0.00
    8   20   22      0.64      0.00
   10   20   22     -6.59      0.00
   12   20   22     12.19      0.00
   14   20   22      3.64      0.00
   18   20   22     -4.38      0.00
   20   22   26     -1.69      0.00
   20   22   28     -6.64      0.00
   20   22   32      0.20      0.00
   20   22   34      8.17      0.00
   20   22   38     -4.86      0.00
   20   22   44     -6.69      0.00
   20   22   46      2.97      0.00
   19   21   41     10.52      0.00
   19   21   33      2.69      0.00
   17   19   21    -43.81      0.00
   15   19   21    -16.84      0.00
   13   19   21    -32.06      0.00
    1   19   21     19.63      0.00
    5   19   21     12.01      0.00
    7   19   21     15.29      0.00
    9   19   21     62.12      0.00
   11   19   21    -20.31      0.00
   19   21   25      2.72      0.00
   19   21   27     -6.46      0.00
   19   21   29      3.12      0.00
   19   21   31     -1.84      0.00
   19   21   35     10.58      0.00
   19   21   37     -7.57      0.00
   19   21   39     -1.49      0.00
   19   21   43      1.75      0.00
   19   21   45      5.15      0.00
   19   21   47     -5.28      0.00
   19   21   49    -22.29      0.00
   18   20   46     -5.29      0.00
   18   20   44      0.77      0.00
   18   20   40      3.19      0.00
   18   20   36    -10.26      0.00
   18   20   34      4.83      0.00
   18   20   32      2.90      0.00
   18   20   30      3.96      0.00
   18   20   28    -12.87      0.00
   18   20   24     10.31      0.00
   14   18   20     30.64      0.00
    2   18   20     18.43      0.00
    0   18   20     38.97      0.00
    4   18   20     16.46      0.00
    8   18   20    -16.04      0.00
   10   18   20    -44.22      0.00
   12   18   20      0.42      0.00
   16   18   20     20.02      0.00
   18   20   26    -14.01      0.00
   18   20   38      6.71      0.00
   18   20   42      0.28      0.00
   18   20   48     -5.05      0.00
   17   19   49     -2.32      0.00
   17   19   43     18.28      0.00
   17   19   41     -5.62      0.00
   17   19   35      3.13      0.00
   17   19   33     -5.68      0.00
   17   19   31     -3.76      0.00
   17   19   27      3.97      0.00
   17   19   25    -16.67      0.00
   15   17   19    -43.40      0.00
   13   17   19      9.56      0.00
    3   17   19    -66.87      0.00
    1   17   19      4.92      0.00
    5   17   19    -14.55      0.00
    7   17   19      7.52      0.00
    9   17   19     50.58      0.00
   11   17   19     12.50      0.00
   17   19   23     -9.09      0.00
   17   19   29     -0.88      0.00
   17   19   37     -2.03      0.00
   17   19   39     -4.41      0.00
   17   19   45     -7.45      0.00
   17   19   47     -0.99      0.00
   16   18   44      4.06      0.00
   16   18   42      5.93      0.00
   16   18   40     16.58      0.00
   16   18   38     10.32      0.00
   16   18   36     -6.50      0.00
   16   18   34     -9.96      0.00
   16   18   30      4.58      0.00
   16   18   28     -2.91      0.00
   16   18   26     24.91      0.00
   16   18   24      9.90      0.00
   16   18   22     33.06      0.00
   14   16   18     12.08      0.00
   12   16   18      6.58      0.00
    2   16   18     59.29      0.00
    0   16   18     50.84      0.00
    4   16   18     79.08      0.00
    6   16   18    100.43      0.00
    8   16   18     56.92      0.00
   10   16   18    -20.67      0.00
   16   18   32     16.87      0.00
   16   18   46      2.92      0.00
   16   18   48     18.41      0.00
   16   18   50     -3.69      0.00
   15   17   47     -8.36      0.00
   15   17   45     -8.95      0.00
   15   17   43     -4.31      0.00
   15   17   41     -2.98      0.00
   15   17   39     -4.16      0.00
   15   17   37      5.86      0.00
   15   17   33     -7.27      0.00
   15   17   27    -17.01      0.00
   15   17   25    -14.10      0.00
   15   17   23     -9.81      0.00
   15   17   21     -6.26      0.00
   13   15   17    -16.12      0.00
   11   15   17      3.63      0.00
    1   15   17    -67.72      0.00
    3   15   17    -38.34      0.00
    5   15   17     -6.27      0.00
    7   15   17      9.25      0.00
    9   15   17     -8.34      0.00
   15   17   29     -8.60      0.00
   15   17   31     -1.39      0.00
   15   17   35     21.64      0.00
   15   17   49     -0.47      0.00
   15   17   51     -4.20      0.00
   14   16   48    -12.77      0.00
   14   16   46    -14.80      0.00
   14   16   42     14.60      0.00
   14   16   40      7.51      0.00
   14   16   38     -2.95      0.00
   14   16   36    -10.14      0.00
   14   16   34     10.71      0.00
   14   16   32    -12.35      0.00
   14   16   30      4.20      0.00
   14   16   28    -11.91      0.00
   14   16   26     -3.62      0.00
   14   16   22      6.22      0.00
   14   16   20     38.92      0.00
    2   14   16      5.00      0.00
    4   14   16      3.81      0.00
    6   14   16     -9.27      0.00
    8   14   16    -10.62      0.00
   10   14   16     -5.94      0.00
   12   14   16    -42.96      0.00
   14   16   24      2.00      0.00
   14   16   44     10.57      0.00
   14   16   50    -18.06      0.00
   13   15   51     -3.27      0.00
   13   15   49     -1.60      0.00
   13   15   47     -0.43      0.00
   13   15   45     -6.43      0.00
   13   15   43    -17.37      0.00
   13   15   41    -15.44      0.00
   13   15   37      5.58      0.00
   13   15   35    -14.57      0.00
   13   15   33     -6.78      0.00
   13   15   31     -2.43      0.00
   13   15   29      8.50      0.00
   13   15   25      7.85      0.00
   13   15   23     -4.79      0.00
   13   15   19    -19.51      0.00
    5   13   15    113.59      0.00
    1   13   15   -104.42      0.00
    3   13   15     12.81      0.00
    7   13   15    121.97      0.00
    9   13   15    -13.44      0.00
   11   13   15     54.33      0.00
   13   15   21    -36.61      0.00
   13   15   27     -3.43      0.00
   13   15   39     -6.11      0.00
   12   14   52     -3.25      0.00
   12   14   50     14.45      0.00
   12   14   46     -2.60      0.00
   12   14   44     10.92      0.00
   12   14   42      2.05      0.00
   12   14   40      1.50      0.00
   12   14   38     -1.00      0.00
   12   14   36     24.22      0.00
   12   14   34      5.21      0.00
   12   14   32     -8.49      0.00
   12   14   30    -12.49      0.00
   12   14   28     11.10      0.00
   12   14   24     22.94      0.00
   12   14   22     40.66      0.00
   12   14   20     13.59      0.00
   12   14   18    -15.17      0.00
   10   12   14     30.80      0.00
    8   12   14     17.00      0.00
    2   12   14   -106.44      0.00
    0   12   14     32.40      0.00
    6   12   14     64.07      0.00
   12   14   26     -2.52      0.00
   12   14   48     -4.49      0.00
   11   13   49     -4.80      0.00
   11   13   47     -5.86      0.00
   11   13   45      0.79      0.00
   11   13   43     -6.51      0.00
   11   13   41     -0.69      0.00
   11   13   39     -4.09      0.00
   11   13   37     -6.82      0.00
   11   13   35      9.01      0.00
   11   13   33      3.58      0.00
   11   13   31     11.87      0.00
   11   13   29    -15.34      0.00
   11   13   27    -20.62      0.00
   11   13   25    -14.20      0.00
   11   13   23    -45.21      0.00
   11   13   21    -40.76      0.00
   11   13   19     14.93      0.00
   11   13   17     84.55      0.00
    9   11   13   -115.94      0.00
    7   11   13     17.21      0.00
    3   11   13     34.52      0.00
    1   11   13    -93.53      0.00
    5   11   13    -40.82      0.00
   11   13   51     17.00      0.00
   10   12   52     12.84      0.00
   10   12   50      4.84      0.00
   10   12   48      8.43      0.00
   10   12   46      6.17      0.00
   10   12   44      4.76      0.00
   10   12   42      3.61      0.00
   10   12   40      1.26      0.00
   10   12   38     -4.60      0.00
   10   12   36      4.76      0.00
   10   12   34      3.04      0.00
   10   12   32     -9.70      0.00
   10   12   30     -0.97      0.00
   10   12   28     34.61      0.00
   10   12   26     40.64      0.00
   10   12   24     33.67      0.00
   10   12   22     14.16      0.00
   10   12   20     32.34      0.00
   10   12   18      9.20      0.00
   10   12   16    -44.66      0.00
    4   10   12    124.02      0.00
    6   10   12    135.18      0.00
    8   10   12     58.56      0.00
   10   12   54     -5.85      0.00
   10   12   56     20.64      0.00
    9   11   51     -0.34      0.00
    9   11   47     -2.32      0.00
    9   11   45      4.22      0.00
    9   11   43     -6.62      0.00
    9   11   41     -7.28      0.00
    9   11   39     11.99      0.00
    9   11   37     -8.35      0.00
    9   11   35     -3.62      0.00
    9   11   33      0.07      0.00
    9   11   31     -1.84      0.00
    9   11   29    -18.19      0.00
    9   11   27    -54.87      0.00
    9   11   25    -31.57      0.00
    9   11   23    -14.65      0.00
    9   11   21    -10.56      0.00
    9   11   19     -4.71      0.00
    9   11   17     -7.36      0.00
    9   11   15    -94.15      0.00
    7    9   11     44.70      0.00
    3    9   11    -44.84      0.00
    1    9   11   -221.70      0.00
    5    9   11     19.87      0.00
    9   11   49    -14.73      0.00
    9   11   55     -7.00      0.00
    8   10   50     15.19      0.00
    8   10   48     -6.15      0.00
    8   10   46      5.56      0.00
    8   10   44      3.35      0.00
    8   10   42    -15.24      0.00
    8   10   40      5.95      0.00
    8   10   38     12.70      0.00
    8   10   36     -3.18      0.00
    8   10   34      7.49      0.00
    8   10   32      9.36      0.00
    8   10   30     -1.29      0.00
    8   10   28     48.70      0.00
    8   10   26     50.15      0.00
    8   10   24     -1.18      0.00
    8   10   22     -2.38      0.00
    8   10   20     12.06      0.00
    8   10   18    -36.62      0.00
    8   10   16     -9.27      0.00
    8   10   14     87.17      0.00
    4    8   10    134.30      0.00
    2    8   10   -127.12      0.00
    6    8   10     15.06      0.00
    8   10   56    -15.51      0.00
    7    9   51     -7.74      0.00
    7    9   49     -5.70      0.00
    7    9   47    -10.66      0.00
    7    9   45     -4.94      0.00
    7    9   43     -0.43      0.00
    7    9   41     -7.44      0.00
    7    9   39    -10.66      0.00
    7    9   37     -3.99      0.00
    7    9   33     -2.54      0.00
    7    9   31      3.71      0.00
    7    9   29    -33.74      0.00
    7    9   27    -62.42      0.00
    7    9   25    -41.89      0.00
    7    9   23     -2.25      0.00
    7    9   21     18.15      0.00
    7    9   19     51.09      0.00
    7    9   17    131.09      0.00
    7    9   15     14.22      0.00
    7    9   13   -118.57      0.00
    3    7    9   -152.77      0.00
    1    7    9    134.27      0.00
    5    7    9    161.98      0.00
    7    9   35      0.58      0.00
    7    9   55      7.82      0.00
    7    9   57      2.68      0.00
    6    8   52      2.16      0.00
    6    8   50     -6.21      0.00
    6    8   48      2.13      0.00
    6    8   46     21.35      0.00
    6    8   44     10.15      0.00
    6    8   42      6.25      0.00
    6    8   40      9.04      0.00
    6    8   38     -7.62      0.00
    6    8   36     -7.59      0.00
    6    8   34     -6.29      0.00
    6    8   32     11.46      0.00
    6    8   30     15.92      0.00
    6    8   28     55.33      0.00
    6    8   26     15.47      0.00
    6    8   24      1.01      0.00
    6    8   22     42.67      0.00
    6    8   18    -37.59      0.00
    6    8   16    -53.71      0.00
    6    8   14     24.30      0.00
    6    8   12     47.98      0.00
    4    6    8    164.20      0.00
    2    6    8   -285.71      0.00
    6    8   20      7.03      0.00
    6    8   54     11.19      0.00
    6    8   56    -14.58      0.00
    6    8   60     -1.45      0.00
    5    7   53     -7.65      0.00
    5    7   51     10.84      0.00
    5    7   49      3.36      0.00
    5    7   47     -7.97      0.00
    5    7   45      6.38      0.00
    5    7   43      1.36      0.00
    5    7   41     -0.47      0.00
    5    7   39      5.99      0.00
    5    7   37     -2.75      0.00
    5    7   35     -5.36      0.00
    5    7   33     -2.22      0.00
    5    7   31    -20.97      0.00
    5    7   29    -35.12      0.00
    5    7   27     -9.22      0.00
    5    7   25    -33.76      0.00
    5    7   23    -32.20      0.00
    5    7   21     11.76      0.00
    5    7   19    -11.77      0.00
    5    7   17    -73.14      0.00
    5    7   15   -130.30      0.00
    5    7   13     -2.07      0.00
    5    7   11    110.80      0.00
    1    5    7    196.88      0.00
    3    5    7     94.92      0.00
    5    7   55    -11.61      0.00
    5    7   57      1.44      0.00
    5    7   59     15.12      0.00
    4    6   54     -6.55      0.00
    4    6   52      2.87      0.00
    4    6   50      4.47      0.00
    4    6   48      7.91      0.00
    4    6   46     12.34      0.00
    4    6   44      3.29      0.00
    4    6   42     -7.21      0.00
    4    6   40      1.43      0.00
    4    6   38     -0.15      0.00
    4    6   36      8.55      0.00
    4    6   34      9.51      0.00
    4    6   32     25.63      0.00
    4    6   30     37.11      0.00
    4    6   28      8.41      0.00
    4    6   24    -27.70      0.00
    4    6   22    -35.53      0.00
    4    6   20    -13.51      0.00
    4    6   18     64.06      0.00
    4    6   16    161.43      0.00
    4    6   14    118.19      0.00
    4    6   12    -86.64      0.00
    4    6   10   -263.27      0.00
    2    4    6    548.91      0.00
    0    4    6   -409.39      0.00
    4    6   26      2.65      0.00
    4    6   56     -2.05      0.00
    4    6   58     -4.47      0.00
    3    5   55     -6.61      0.00
    3    5   53     -1.89      0.00
    3    5   51     -7.26      0.00
    3    5   49    -11.93      0.00
    3    5   47     -1.89      0.00
    3    5   45     -3.58      0.00
    3    5   43      6.28      0.00
    3    5   41     16.25      0.00
    3    5   39    -10.00      0.00
    3    5   37    -20.53      0.00
    3    5   35      0.81      0.00
    3    5   33    -12.06      0.00
    3    5   31    -21.00      0.00
    3    5   29    -41.07      0.00
    3    5   27    -19.04      0.00
    3    5   25     38.30      0.00
    3    5   23    -13.84      0.00
    3    5   21      3.85      0.00
    3    5   19    -31.28      0.00
    3    5   17    -72.19      0.00
    3    5   15    -75.50      0.00
    3    5   13    -36.44      0.00
    3    5   11    173.48      0.00
    3    5    9    -25.94      0.00
    1    3    5   -368.60      0.00
    2    4   56     -2.90      0.00
    2    4   54      6.35      0.00
    2    4   52     -0.94      0.00
    2    4   50      6.80      0.00
    2    4   48     13.78      0.00
    2    4   46      3.93      0.00
    2    4   44      8.01      0.00
    2    4   42     -4.58      0.00
    2    4   40     -6.73      0.00
    2    4   38     17.36      0.00
    2    4   36      9.28      0.00
    2    4   34      0.05      0.00
    2    4   32      0.69      0.00
    2    4   30     14.60      0.00
    2    4   28     13.53      0.00
    2    4   26     22.64      0.00
    2    4   24     53.97      0.00
    2    4   22    -13.19      0.00
    2    4   20     58.63      0.00
    2    4   18     59.80      0.00
    2    4   14     41.40      0.00
    2    4   12    -74.36      0.00
    2    4   10    267.03      0.00
    2    4    8   -154.68      0.00
    0    2    4    323.70      0.00
    2    4   16     34.70      0.00
    1    3   57     -0.02      0.00
    1    3   55      1.41      0.00
    1    3   53    -17.60      0.00
    1    3   51     -5.05      0.00
    1    3   49     -4.92      0.00
    1    3   47    -11.52      0.00
    1    3   45    -15.00      0.00
    1    3   43    -16.97      0.00
    1    3   41     -9.85      0.00
    1    3   39     -4.51      0.00
    1    3   37    -13.24      0.00
    1    3   35    -18.29      0.00
    1    3   33     -5.38      0.00
    1    3   31    -15.84      0.00
    1    3   29     28.39      0.00
    1    3   27     18.59      0.00
    1    3   25    -76.23      0.00
    1    3   23     -5.02      0.00
    1    3   21    -61.77      0.00
    1    3   19    -76.04      0.00
    1    3   17     35.59      0.00
    1    3   15     10.99      0.00
    1    3   13   -121.79      0.00
    1    3   11   -260.98      0.00
    1    3    9    303.50      0.00
    1    3    7    -10.04      0.00
    0    2   58     -0.63      0.00
    0    2   56     10.85      0.00
    0    2   54     14.91      0.00
    0    2   52      4.11      0.00
    0    2   50     -0.75      0.00
    0    2   48     -0.57      0.00
    0    2   46     16.55      0.00
    0    2   44      3.95      0.00
    0    2   42      6.16      0.00
    0    2   40     -3.28      0.00
    0    2   38     37.53      0.00
    0    2   36     34.65      0.00
    0    2   34     14.20      0.00
    0    2   32     32.50      0.00
    0    2   30      7.24      0.00
    0    2   28    -49.63      0.00
    0    2   26      7.08      0.00
    0    2   24     14.58      0.00
    0    2   22     70.32      0.00
    0    2   20     72.94      0.00
    0    2   18     90.39      0.00
    0    2   16     59.22      0.00
    0    2   14    -38.34      0.00
    0    2   12    356.48      0.00
    0    2   10   -309.93      0.00
    0    2    8    -13.63      0.00
    0    2    6     74.62      0.00
    0    2    2   2145.22      0.00
    0    2   60      1.82      0.00
    1    3   59     17.25      0.00
    2    4   58    -19.31      0.00
    3    5   57      4.46      0.00
    0    6    8   -669.56      0.00
    7    9   53     -8.53      0.00
    8   10   54    -11.36      0.00
    8   10   52     15.86      0.00
    0    8   10    170.41      0.00
    9   11   53    -15.10      0.00
    2   10   12      9.31      0.00
    0   10   12   -141.87      0.00
   11   13   53     -8.03      0.00
    0   14   16    -54.72      0.00
   18   20   50      6.55      0.00
    6   18   20     33.40      0.00
    3   19   21    -21.09      0.00
   20   22   50     17.72      0.00
   20   22   48      7.49      0.00
   14   22   24      4.36      0.00
   23   25   49    -10.82      0.00
    8   24   26      1.20      0.00
   25   27   45     -8.59      0.00
   25   27   41     -1.81      0.00
   26   28   48     33.32      0.00
   10   26   28     31.91      0.00
   22   28   30     12.57      0.00
    4   28   30      3.34      0.00
    0   28   30     -0.59      0.00
   29   31   35      8.00      0.00
   23   29   31     -5.99      0.00
    7   29   31     -4.03      0.00
   16   30   32    -18.51      0.00
    0   30   32    -16.47      0.00
   23   33   35      2.01      0.00
    3   33   35    -16.53      0.00
   30   34   36      1.47      0.00
   12   34   36     -7.04      0.00
    0   34   36     19.26      0.00
   11   35   37     -5.68      0.00
    2   36   38    -15.20      0.00
    5   37   39     16.64      0.00
   16   38   40     14.51      0.00
   17   39   41    -15.45      0.00
   13   39   41     17.52      0.00
   11   39   41     -8.07      0.00
    3   39   41      7.66      0.00
    5   39   43      5.95      0.00
    7   39   43     11.00      0.00
   10   38   42     -5.79      0.00
   12   38   42     -7.31      0.00
   14   38   42      9.26      0.00
    3   37   41      4.46      0.00
    1   37   41      2.18      0.00
    5   37   41     -4.15      0.00
    7   37   41      4.67      0.00
    9   37   41     -4.22      0.00
   11   37   41     -1.24      0.00
   13   37   41      7.91      0.00
   15   37   41      2.57      0.00
   19   37   41     17.07      0.00
   23   37   41     11.00      0.00
    2   36   40      9.07      0.00
    4   36   40     -3.74      0.00
    8   36   40    -14.09      0.00
   10   36   40      1.10      0.00
   14   36   40     -2.02      0.00
   16   36   40     -8.28      0.00
   18   36   40     -9.00      0.00
   20   36   40     -5.04      0.00
   22   36   40    -13.05      0.00
   24   36   40      8.05      0.00
    7   35   39    -10.72      0.00
    5   35   39     -1.50      0.00
    1   35   39     -9.70      0.00
    3   35   39     -5.68      0.00
    9   35   39      0.40      0.00
   11   35   39     12.12      0.00
   13   35   39      0.03      0.00
   15   35   39      5.73      0.00
   17   35   39     -1.32      0.00
   19   35   39     -6.45      0.00
   21   35   39    -14.71      0.00
   23   35   39      5.58      0.00
   25   35   39    -13.22      0.00
    6   34   38      7.99      0.00
    2   34   38      6.40      0.00
    4   34   38     10.55      0.00
   10   34   38     -2.78      0.00
   12   34   38      5.07      0.00
   16   34   38      0.85      0.00
   18   34   38     -3.84      0.00
   20   34   38      4.40      0.00
   22   34   38     -4.52      0.00
   24   34   38     -0.09      0.00
   26   34   38      2.08      0.00
   28   34   38     -1.68      0.00
   30   34   38      4.34      0.00
    5   33   37      2.30      0.00
    3   33   37      7.06      0.00
    1   33   37      2.33      0.00
    7   33   37     -1.67      0.00
    9   33   37     -5.21      0.00
   11   33   37      0.94      0.00
   13   33   37     -0.95      0.00
   15   33   37     10.95      0.00
   17   33   37      3.76      0.00
   19   33   37     -1.54      0.00
   21   33   37     -5.79      0.00
   23   33   37      7.33      0.00
   25   33   37     -1.07      0.00
   27   33   37      4.76      0.00
   29   33   37     -6.18      0.00
    6   32   36     -4.68      0.00
    4   32   36     -1.19      0.00
    2   32   36      0.92      0.00
    0   32   36     -6.18      0.00
    8   32   36     -0.85      0.00
   10   32   36     -7.04      0.00
   12   32   36     -5.72      0.00
   14   32   36     -1.84      0.00
   16   32   36     -0.52      0.00
   18   32   36     -3.37      0.00
   20   32   36      0.77      0.00
   22   32   36     -3.09      0.00
   24   32   36     -2.15      0.00
   26   32   36    -11.93      0.00
   28   32   36     -2.99      0.00
   30   32   36     -7.80      0.00
   32   32   36     -4.15      0.00
    5   31   35     15.83      0.00
    3   31   35      9.67      0.00
    1   31   35      2.46      0.00
    7   31   35     -3.33      0.00
    9   31   35      6.69      0.00
   13   31   35      5.94      0.00
   15   31   35      9.67      0.00
   17   31   35      4.06      0.00
   19   31   35    -13.14      0.00
   21   31   35    -17.57      0.00
   23   31   35      0.47      0.00
   25   31   35     -3.15      0.00
   27   31   35     -3.01      0.00
   31   31   35     14.82      0.00
    6   30   34      1.07      0.00
    2   30   34     -6.07      0.00
    0   30   34     -1.99      0.00
    4   30   34    -10.79      0.00
    8   30   34      0.95      0.00
   10   30   34     -5.04      0.00
   12   30   34     -8.11      0.00
   14   30   34     -7.94      0.00
   16   30   34    -10.09      0.00
   18   30   34     -6.52      0.00
   20   30   34     -6.60      0.00
   22   30   34      4.66      0.00
   24   30   34     15.50      0.00
   26   30   34     -7.18      0.00
   30   34   34    -17.89      0.00
    3   29   33     -7.42      0.00
    1   29   33     -4.40      0.00
    5   29   33      2.60      0.00
   11   29   33      2.98      0.00
   13   29   33      3.92      0.00
   15   29   33     11.29      0.00
   17   29   33      8.89      0.00
   19   29   33     -7.81      0.00
   21   29   33      1.39      0.00
   23   29   33    -14.12      0.00
   25   29   33      1.27      0.00
   29   33   41    -18.77      0.00
    6   28   32      9.41      0.00
    2   28   32     11.09      0.00
    0   28   32     -3.04      0.00
    4   28   32      5.49      0.00
    8   28   32      7.14      0.00
   10   28   32     15.06      0.00
   12   28   32     -1.92      0.00
   14   28   32    -12.86      0.00
   16   28   32     -7.91      0.00
   18   28   32     -7.80      0.00
   20   28   32     -3.23      0.00
   22   28   32      5.02      0.00
   24   28   32     -5.41      0.00
   28   32   42     19.06      0.00
    5   27   31     -9.55      0.00
    3   27   31     -9.94      0.00
    1   27   31      0.92      0.00
    7   27   31     -9.01      0.00
    9   27   31    -16.35      0.00
   11   27   31     -4.16      0.00
   13   27   31     -2.05      0.00
   15   27   31      4.88      0.00
   17   27   31      2.17      0.00
   19   27   31     -3.89      0.00
   21   27   31     -5.11      0.00
   23   27   31     -6.46      0.00
   27   31   37     -3.88      0.00
   27   31   43     -4.76      0.00
    4   26   30      1.02      0.00
    2   26   30     11.36      0.00
    0   26   30      5.08      0.00
    8   26   30     16.57      0.00
   10   26   30     13.90      0.00
   14   26   30      7.92      0.00
   16   26   30     -2.12      0.00
   18   26   30    -20.02      0.00
   20   26   30      3.07      0.00
   22   26   30      7.12      0.00
   26   30   36     11.62      0.00
   26   30   38      2.14      0.00
   26   30   44     -9.79      0.00
   17   25   29     -0.37      0.00
   15   25   29    -11.38      0.00
    5   25   29    -15.98      0.00
    3   25   29      1.70      0.00
    1   25   29     -9.98      0.00
    7   25   29    -12.03      0.00
    9   25   29    -27.34      0.00
   11   25   29    -18.66      0.00
   13   25   29     -3.99      0.00
   19   25   29      2.01      0.00
   21   25   29      0.84      0.00
   25   29   35     -9.82      0.00
   25   29   37     -2.65      0.00
   25   29   39      8.52      0.00
   25   29   45     -0.05      0.00
    4   24   28      6.54      0.00
    2   24   28     -1.97      0.00
    0   24   28      9.52      0.00
    6   24   28     12.47      0.00
    8   24   28      0.08      0.00
   10   24   28     15.48      0.00
   12   24   28      0.60      0.00
   14   24   28      1.58      0.00
   16   24   28     -4.81      0.00
   18   24   28      1.69      0.00
   20   24   28     -1.62      0.00
   24   28   34     -6.85      0.00
   24   28   36     -0.15      0.00
   24   28   38     -7.60      0.00
   24   28   40     -3.11      0.00
   24   28   46    -21.04      0.00
   24   28   50     13.18      0.00
   17   23   27      6.71      0.00
   13   23   27      3.15      0.00
    5   23   27      6.21      0.00
    3   23   27      6.09      0.00
    9   23   27      0.44      0.00
   11   23   27     -6.06      0.00
   15   23   27    -16.13      0.00
   19   23   27     12.88      0.00
   23   27   33     -2.46      0.00
   23   27   35     -6.55      0.00
   23   27   37      5.81      0.00
   23   27   39     22.21      0.00
   23   27   41     11.43      0.00
   23   27   45      3.72      0.00
   23   27   47      3.80      0.00
   18   22   26     -3.90      0.00
    6   22   26    -17.16      0.00
    2   22   26    -19.27      0.00
    0   22   26      0.35      0.00
    4   22   26     -9.70      0.00
    8   22   26    -26.13      0.00
   10   22   26     11.90      0.00
   12   22   26     -3.94      0.00
   14   22   26      1.89      0.00
   16   22   26     12.05      0.00
   22   26   32      4.32      0.00
   22   26   34     14.37      0.00
   22   26   36     10.26      0.00
   22   26   38    -11.06      0.00
   22   26   40    -10.09      0.00
   22   26   42    -13.01      0.00
   22   26   46     -2.35      0.00
   21   25   43     14.42      0.00
   21   25   33     -5.38      0.00
   17   21   25     -9.04      0.00
   15   21   25     11.70      0.00
    5   21   25      4.27      0.00
    1   21   25      4.24      0.00
    3   21   25     13.18      0.00
    7   21   25     28.64      0.00
    9   21   25      8.18      0.00
   11   21   25    -12.68      0.00
   13   21   25      4.57      0.00
   21   25   31      3.94      0.00
   21   25   35      0.76      0.00
   21   25   37     -7.48      0.00
   21   25   39      0.57      0.00
   21   25   41      8.44      0.00
   21   25   45     17.13      0.00
   21   25   47      1.71      0.00
   21   25   51      0.74      0.00
   20   24   40     -7.11      0.00
   20   24   38     -5.81      0.00
   20   24   36      6.69      0.00
   16   20   24     12.49      0.00
    4   20   24     11.75      0.00
    2   20   24     16.20      0.00
    8   20   24     -8.52      0.00
   10   20   24     -0.79      0.00
   12   20   24      0.00      0.00
   14   20   24     -4.29      0.00
   20   24   30     -0.78      0.00
   20   24   32     -0.35      0.00
   20   24   34      3.53      0.00
   20   24   42      2.67      0.00
   20   24   44     -7.73      0.00
   20   24   46     -5.55      0.00
   20   24   48     -2.67      0.00
   19   23   29      0.11      0.00
   15   19   23     -7.73      0.00
    5   19   23    -45.91      0.00
    1   19   23    -16.74      0.00
    3   19   23     -2.22      0.00
    9   19   23     10.05      0.00
   11   19   23    -24.07      0.00
   13   19   23     -4.73      0.00
   19   23   31     -4.85      0.00
   19   23   33      7.74      0.00
   19   23   35     -0.26      0.00
   19   23   37      6.11      0.00
   19   23   39      0.82      0.00
   19   23   41      2.20      0.00
   19   23   43     -0.59      0.00
   19   23   45     -5.38      0.00
   19   23   47      6.28      0.00
   18   22   46      2.80      0.00
   18   22   32     -3.85      0.00
    4   18   22     10.62      0.00
    0   18   22     -1.99      0.00
    2   18   22     33.47      0.00
    6   18   22      6.67      0.00
   10   18   22    -25.68      0.00
   12   18   22     13.85      0.00
   14   18   22    -15.13      0.00
   18   22   28     -3.47      0.00
   18   22   30     -4.10      0.00
   18   22   34     -6.06      0.00
   18   22   36      8.42      0.00
   18   22   38     14.39      0.00
   18   22   40     -7.56      0.00
   18   22   42     -5.01      0.00
   18   22   44     -8.25      0.00
   18   22   48      4.61      0.00
   18   22   52     -1.42      0.00
   17   21   47      3.06      0.00
   17   21   45      1.69      0.00
   17   21   39    -18.33      0.00
   17   21   37     -7.31      0.00
   17   21   31    -11.72      0.00
   17   21   27      7.47      0.00
   13   17   21    -19.82      0.00
    5   17   21     10.31      0.00
    3   17   21     21.81      0.00
    1   17   21    -17.98      0.00
    7   17   21    -22.87      0.00
    9   17   21     31.54      0.00
   11   17   21      1.51      0.00
   17   21   29      3.26      0.00
   17   21   33      5.88      0.00
   17   21   35     -6.84      0.00
   17   21   41      3.32      0.00
   17   21   43    -16.12      0.00
   17   21   49    -23.76      0.00
   16   20   46     -3.94      0.00
   16   20   44      7.65      0.00
   16   20   42     -0.53      0.00
   16   20   40      4.28      0.00
   16   20   38     11.97      0.00
   16   20   36      3.49      0.00
   16   20   34      2.79      0.00
   16   20   30     16.87      0.00
   16   20   26     -1.87      0.00
    2   16   20     46.79      0.00
    4   16   20     31.26      0.00
    6   16   20     17.76      0.00
    8   16   20     -3.69      0.00
   10   16   20    -29.11      0.00
   12   16   20     -3.34      0.00
   16   20   28      3.35      0.00
   16   20   32     -1.16      0.00
   16   20   48     -2.58      0.00
   16   20   50      7.56      0.00
   16   20   52     16.17      0.00
   15   19   49    -19.25      0.00
   15   19   47     -0.72      0.00
   15   19   43      3.34      0.00
   15   19   41     13.45      0.00
   15   19   39     -9.47      0.00
   15   19   37      8.90      0.00
   15   19   35      1.93      0.00
   15   19   31     -3.84      0.00
   15   19   25    -18.13      0.00
    7   15   19    -56.81      0.00
    5   15   19     -4.77      0.00
    1   15   19     77.81      0.00
    3   15   19    -62.52      0.00
    9   15   19     33.84      0.00
   11   15   19     32.87      0.00
   15   19   27     -3.95      0.00
   15   19   29     14.42      0.00
   15   19   33    -10.99      0.00
   15   19   45     -5.55      0.00
   15   19   51     10.35      0.00
   14   18   50     11.77      0.00
   14   18   46      1.07      0.00
   14   18   44      3.48      0.00
   14   18   42    -18.69      0.00
   14   18   40      1.25      0.00
   14   18   38      0.91      0.00
   14   18   36     11.23      0.00
   14   18   34      4.59      0.00
   14   18   32     -4.37      0.00
   14   18   28     -5.01      0.00
   14   18   24     -6.13      0.00
    8   14   18     -6.76      0.00
    4   14   18     35.44      0.00
    0   14   18     58.81      0.00
    2   14   18     62.31      0.00
    6   14   18     -4.10      0.00
   10   14   18    -39.11      0.00
   14   18   26      5.68      0.00
   14   18   30     -0.90      0.00
   14   18   48     -1.91      0.00
   13   17   49     -0.56      0.00
   13   17   47     -0.48      0.00
   13   17   45     -4.87      0.00
   13   17   43     -5.91      0.00
   13   17   39     -8.99      0.00
   13   17   37     -3.34      0.00
   13   17   35     -4.92      0.00
   13   17   31      9.11      0.00
   13   17   29     14.14      0.00
   13   17   27     19.62      0.00
   13   17   25      1.18      0.00
    9   13   17     17.08      0.00
    1   13   17     -3.26      0.00
    3   13   17     -5.58      0.00
    5   13   17     -3.34      0.00
    7   13   17     40.93      0.00
   13   17   23    -13.66      0.00
   13   17   33      1.46      0.00
   13   17   41     -6.80      0.00
   13   17   53     14.69      0.00
   12   16   50     -5.91      0.00
   12   16   48     -6.24      0.00
   12   16   46     -1.90      0.00
   12   16   44      1.91      0.00
   12   16   42     13.97      0.00
   12   16   40     22.28      0.00
   12   16   36      2.15      0.00
   12   16   34      1.70      0.00
   12   16   32     -7.86      0.00
   12   16   30     -7.35      0.00
   12   16   28    -12.11      0.00
   12   16   26     -4.07      0.00
   12   16   24     -9.75      0.00
   12   16   22     29.52      0.00
    8   12   16     -0.04      0.00
    2   12   16     11.30      0.00
    0   12   16     17.29      0.00
    4   12   16    -50.25      0.00
    6   12   16    -62.09      0.00
   12   16   38      2.70      0.00
   11   15   49      2.87      0.00
   11   15   47      5.83      0.00
   11   15   45      4.99      0.00
   11   15   43    -15.15      0.00
   11   15   41    -16.20      0.00
   11   15   39     -7.66      0.00
   11   15   37     -3.70      0.00
   11   15   35      9.11      0.00
   11   15   33      0.26      0.00
   11   15   31      1.11      0.00
   11   15   29    -13.73      0.00
   11   15   27    -10.81      0.00
   11   15   23    -21.02      0.00
   11   15   21      7.01      0.00
    7   11   15     -2.09      0.00
    5   11   15    -48.23      0.00
    3   11   15     29.02      0.00
    1   11   15    -53.41      0.00
   11   15   25     -6.86      0.00
   11   15   51      3.77      0.00
   10   14   52     -3.90      0.00
   10   14   48     -0.82      0.00
   10   14   46     19.92      0.00
   10   14   44      6.87      0.00
   10   14   40     10.82      0.00
   10   14   38     13.14      0.00
   10   14   36     -6.60      0.00
   10   14   34    -22.06      0.00
   10   14   32     -7.91      0.00
   10   14   30      9.84      0.00
   10   14   28     13.19      0.00
   10   14   26     21.46      0.00
   10   14   24     41.34      0.00
   10   14   22      6.25      0.00
   10   14   20     -8.51      0.00
    6   10   14     49.49      0.00
    2   10   14    -57.91      0.00
    0   10   14    136.22      0.00
    4   10   14     16.47      0.00
   10   14   42     10.81      0.00
   10   14   50     13.35      0.00
    9   13   51      5.94      0.00
    9   13   47      1.78      0.00
    9   13   45    -14.36      0.00
    9   13   43    -26.88      0.00
    9   13   41     -7.21      0.00
    9   13   39     -0.74      0.00
    9   13   37      7.68      0.00
    9   13   35      9.99      0.00
    9   13   33     -7.96      0.00
    9   13   31     -1.76      0.00
    9   13   29     -5.09      0.00
    9   13   27    -17.89      0.00
    9   13   25    -43.24      0.00
    9   13   23    -27.98      0.00
    9   13   21    -32.66      0.00
    3    9   13    -60.02      0.00
    1    9   13     64.82      0.00
    5    9   13    -41.88      0.00
    9   13   19      5.25      0.00
    9   13   49      1.13      0.00
    9   13   53      1.09      0.00
    8   12   52     -4.59      0.00
    8   12   50      2.83      0.00
    8   12   48      0.95      0.00
    8   12   46      5.73      0.00
    8   12   44     12.57      0.00
    8   12   42     18.28      0.00
    8   12   40     15.51      0.00
    8   12   38     -3.36      0.00
    8   12   36    -12.37      0.00
    8   12   34    -18.07      0.00
    8   12   32      5.70      0.00
    8   12   30     10.17      0.00
    8   12   28     -2.58      0.00
    8   12   26     30.72      0.00
    8   12   24     52.18      0.00
    8   12   22     26.00      0.00
    8   12   20     12.46      0.00
    8   12   18    -28.66      0.00
    2    8   12    -91.91      0.00
    0    8   12    197.84      0.00
    4    8   12    -22.17      0.00
    7   11   53     14.10      0.00
    7   11   51      2.88      0.00
    7   11   49     -2.59      0.00
    7   11   47    -10.37      0.00
    7   11   45     -0.75      0.00
    7   11   43     -2.98      0.00
    7   11   41    -15.48      0.00
    7   11   39     -2.53      0.00
    7   11   37      7.44      0.00
    7   11   35     11.84      0.00
    7   11   33    -19.24      0.00
    7   11   31    -24.93      0.00
    7   11   29     -3.27      0.00
    7   11   25     -9.20      0.00
    7   11   23      1.71      0.00
    7   11   21    -22.54      0.00
    7   11   19     17.07      0.00
    7   11   17     44.17      0.00
    3    7   11    144.17      0.00
    1    7   11    -15.40      0.00
    7   11   27    -39.86      0.00
    7   11   57    -27.24      0.00
    6   10   54    -22.54      0.00
    6   10   52      6.35      0.00
    6   10   50     -4.94      0.00
    6   10   48      8.97      0.00
    6   10   46      6.05      0.00
    6   10   44      0.86      0.00
    6   10   42      5.07      0.00
    6   10   40     -0.15      0.00
    6   10   38     -1.01      0.00
    6   10   36     -4.72      0.00
    6   10   34     -3.37      0.00
    6   10   32     13.62      0.00
    6   10   30     12.12      0.00
    6   10   28     28.93      0.00
    6   10   26     36.12      0.00
    6   10   24     36.49      0.00
    6   10   22      7.76      0.00
    6   10   20    -55.29      0.00
    6   10   18    -26.24      0.00
    6   10   16    -74.07      0.00
    2    6   10    108.70      0.00
    0    6   10   -333.02      0.00
    6   10   56    -21.93      0.00
    5    9   53      8.72      0.00
    5    9   51    -14.57      0.00
    5    9   49    -18.59      0.00
    5    9   47     -5.27      0.00
    5    9   45    -18.36      0.00
    5    9   43     -3.95      0.00
    5    9   41     -5.27      0.00
    5    9   39     -3.01      0.00
    5    9   37     16.35      0.00
    5    9   35      7.18      0.00
    5    9   33    -17.57      0.00
    5    9   31    -22.75      0.00
    5    9   29     -4.57      0.00
    5    9   27    -31.51      0.00
    5    9   25    -23.51      0.00
    5    9   23     -0.15      0.00
    5    9   21      5.27      0.00
    5    9   19    -10.54      0.00
    5    9   17    107.98      0.00
    5    9   15    -21.63      0.00
    1    5    9    221.15      0.00
    5    9   57     -5.81      0.00
    4    8   54     11.21      0.00
    4    8   52     17.92      0.00
    4    8   50      8.36      0.00
    4    8   46      2.93      0.00
    4    8   44     12.85      0.00
    4    8   42      2.79      0.00
    4    8   40    -10.67      0.00
    4    8   38     -1.93      0.00
    4    8   36     -4.80      0.00
    4    8   34      6.33      0.00
    4    8   32     19.69      0.00
    4    8   30      4.09      0.00
    4    8   28      5.88      0.00
    4    8   26     -5.32      0.00
    4    8   24     14.74      0.00
    4    8   22     16.65      0.00
    4    8   20    -22.27      0.00
    4    8   18    -18.84      0.00
    4    8   16     51.38      0.00
    4    8   14     -9.71      0.00
    0    4    8    388.15      0.00
    4    8   48      1.45      0.00
    4    8   56    -10.79      0.00
    3    7   55     -3.61      0.00
    3    7   53      3.59      0.00
    3    7   51     -5.54      0.00
    3    7   49     -8.52      0.00
    3    7   47      0.21      0.00
    3    7   45     -4.36      0.00
    3    7   43     -1.96      0.00
    3    7   41    -11.32      0.00
    3    7   39      1.91      0.00
    3    7   37     12.46      0.00
    3    7   35     -8.99      0.00
    3    7   33    -36.04      0.00
    3    7   31    -16.99      0.00
    3    7   29     -7.21      0.00
    3    7   27     13.20      0.00
    3    7   25     22.83      0.00
    3    7   23      5.66      0.00
    3    7   21     -9.02      0.00
    3    7   19     -4.90      0.00
    3    7   17   -107.28      0.00
    3    7   15    -33.66      0.00
    3    7   13     47.13      0.00
    2    6   54     -3.89      0.00
    2    6   52     -8.12      0.00
    2    6   50     19.49      0.00
    2    6   48     14.40      0.00
    2    6   46      4.42      0.00
    2    6   44     -3.73      0.00
    2    6   42      7.69      0.00
    2    6   40     -1.61      0.00
    2    6   38      3.03      0.00
    2    6   36      6.30      0.00
    2    6   34     22.21      0.00
    2    6   32     10.00      0.00
    2    6   30     15.83      0.00
    2    6   28    -23.94      0.00
    2    6   26    -27.31      0.00
    2    6   24    -49.20      0.00
    2    6   22     -0.74      0.00
    2    6   20     51.78      0.00
    2    6   16     71.11      0.00
    2    6   14     21.61      0.00
    2    6   12    -70.35      0.00
    2    6   18     23.40      0.00
    2    6   56     -1.61      0.00
    1    5   57     -5.35      0.00
    1    5   55      6.77      0.00
    1    5   53     -7.11      0.00
    1    5   51     -6.22      0.00
    1    5   49     -5.45      0.00
    1    5   47    -11.76      0.00
    1    5   45     -2.83      0.00
    1    5   43      1.38      0.00
    1    5   41    -15.62      0.00
    1    5   39      1.63      0.00
    1    5   37      1.07      0.00
    1    5   35    -10.18      0.00
    1    5   33    -18.12      0.00
    1    5   31     -6.49      0.00
    1    5   29     12.79      0.00
    1    5   27      2.75      0.00
    1    5   25     17.83      0.00
    1    5   23      6.34      0.00
    1    5   21     33.48      0.00
    1    5   19    -97.97      0.00
    1    5   17   -101.10      0.00
    1    5   15     75.46      0.00
    1    5   13   -201.86      0.00
    1    5   11   -152.37      0.00
    0    4   56     -1.93      0.00
    0    4   54     -0.16      0.00
    0    4   52      3.85      0.00
    0    4   50      9.65      0.00
    0    4   48     12.09      0.00
    0    4   46      6.79      0.00
    0    4   44      4.43      0.00
    0    4   42     12.58      0.00
    0    4   40      1.48      0.00
    0    4   38    -15.41      0.00
    0    4   36    -22.14      0.00
    0    4   34     55.01      0.00
    0    4   32     17.11      0.00
    0    4   30    -18.95      0.00
    0    4   28    -16.90      0.00
    0    4   26     23.22      0.00
    0    4   24    -24.14      0.00
    0    4   22     -2.64      0.00
    0    4   20    138.55      0.00
    0    4   18      0.18      0.00
    0    4   16    -83.22      0.00
    0    4   14    178.99      0.00
    0    4   12      7.41      0.00
    0    4   10    -24.41      0.00
    0    4   58     -5.24      0.00
    1    5   59    -15.79      0.00
    2    6   58      6.13      0.00
    3    7   57    -17.13      0.00
    4    8   58     14.01      0.00
    5    9   55    -13.30      0.00
    8   12   54      5.93      0.00
   11   15   53      6.31      0.00
   12   16   52    -12.62      0.00
   18   22   50     17.90      0.00
    8   18   22     -4.82      0.00
   19   23   51    -38.05      0.00
   19   23   49      2.41      0.00
    7   19   23     -4.48      0.00
    6   20   24     14.92      0.00
    0   20   24     11.35      0.00
   22   26   44      0.45      0.00
   23   27   43      2.33      0.00
    7   23   27      7.13      0.00
    1   23   27      8.55      0.00
   24   28   44    -10.39      0.00
   24   28   42     -1.55      0.00
   25   29   43      0.74      0.00
   25   29   41     -4.30      0.00
   26   30   42      8.67      0.00
   26   30   40     -3.34      0.00
   12   26   30     17.60      0.00
    6   26   30      5.72      0.00
   27   31   41    -13.23      0.00
   27   31   39      1.95      0.00
   28   32   40      0.27      0.00
   28   32   38      7.03      0.00
   29   33   39    -15.89      0.00
    9   29   33    -10.71      0.00
    7   29   33     -9.32      0.00
   30   34   40     -2.54      0.00
   11   31   35      8.71      0.00
   14   34   38      2.85      0.00
    8   34   38     -4.34      0.00
    0   34   38      0.87      0.00
   12   36   40      1.28      0.00
    6   36   40     -3.10      0.00
    0   36   40      2.35      0.00
    6   38   44     -4.20      0.00
   10   38   44     11.11      0.00
    6   36   42     -5.25      0.00
    2   36   42    -10.13      0.00
    4   36   42     -6.90      0.00
    8   36   42     -2.24      0.00
   10   36   42    -15.79      0.00
    1   35   41     -5.14      0.00
    3   35   41    -10.99      0.00
    5   35   41     -4.14      0.00
   11   35   41    -10.94      0.00
   13   35   41     -5.26      0.00
   15   35   41      0.32      0.00
   17   35   41      8.61      0.00
   19   35   41     -2.07      0.00
   23   35   41     -7.06      0.00
    8   34   40    -10.95      0.00
    2   34   40    -12.38      0.00
    6   34   40     -2.28      0.00
   10   34   40      1.26      0.00
   12   34   40      9.93      0.00
   14   34   40     18.53      0.00
   16   34   40      0.83      0.00
   18   34   40      5.55      0.00
   20   34   40      2.75      0.00
   22   34   40     25.77      0.00
   24   34   40      1.53      0.00
    7   33   39    -10.74      0.00
    3   33   39     -9.87      0.00
    5   33   39     -4.60      0.00
    9   33   39     -1.96      0.00
   13   33   39     -4.50      0.00
   17   33   39     -5.13      0.00
   19   33   39      5.17      0.00
   21   33   39      6.74      0.00
   23   33   39      2.01      0.00
    6   32   38      1.78      0.00
    0   32   38     12.30      0.00
    2   32   38      3.45      0.00
    8   32   38      4.25      0.00
   10   32   38      1.85      0.00
   12   32   38      9.60      0.00
   14   32   38      5.17      0.00
   16   32   38    -11.99      0.00
   18   32   38     -2.03      0.00
   20   32   38     -3.08      0.00
   22   32   38     -0.46      0.00
   24   32   38      6.69      0.00
   26   32   38     -4.62      0.00
    1   31   37      0.72      0.00
    3   31   37     11.21      0.00
    5   31   37      1.17      0.00
    7   31   37      0.63      0.00
    9   31   37      9.64      0.00
   11   31   37      8.39      0.00
   13   31   37      0.51      0.00
   15   31   37     -2.05      0.00
   17   31   37     -2.30      0.00
   19   31   37      1.24      0.00
   21   31   37      2.84      0.00
   23   31   37     -5.80      0.00
    8   30   36      1.50      0.00
    6   30   36     -4.84      0.00
    0   30   36      0.18      0.00
    2   30   36      1.24      0.00
    4   30   36     -6.92      0.00
   12   30   36    -10.28      0.00
   14   30   36      8.04      0.00
   16   30   36     -9.62      0.00
   18   30   36     -3.46      0.00
   20   30   36    -14.27      0.00
   22   30   36    -10.97      0.00
   24   30   36    -15.13      0.00
    5   29   35      5.28      0.00
    1   29   35    -12.24      0.00
    7   29   35      0.16      0.00
    9   29   35     -0.46      0.00
   11   29   35      0.61      0.00
   15   29   35      9.13      0.00
   17   29   35      5.29      0.00
   19   29   35      5.57      0.00
   21   29   35      9.16      0.00
   23   29   35    -13.28      0.00
   29   35   35      9.21      0.00
   29   35   37    -11.93      0.00
   14   28   34     -9.34      0.00
    4   28   34      8.81      0.00
    6   28   34    -12.28      0.00
    8   28   34     13.54      0.00
   10   28   34     -4.20      0.00
   12   28   34     -2.93      0.00
   16   28   34     -3.27      0.00
   18   28   34     -6.84      0.00
   20   28   34      1.72      0.00
   22   28   34      0.20      0.00
   15   27   33      0.35      0.00
    3   27   33    -12.13      0.00
    5   27   33    -13.01      0.00
    7   27   33    -21.41      0.00
    9   27   33      0.37      0.00
   11   27   33     -0.96      0.00
   13   27   33     -0.88      0.00
   17   27   33     -0.34      0.00
   19   27   33    -13.63      0.00
   21   27   33      9.12      0.00
   27   33   39     -5.16      0.00
   16   26   32      3.88      0.00
    4   26   32      3.70      0.00
    2   26   32      8.94      0.00
    0   26   32     26.87      0.00
    8   26   32     10.43      0.00
   10   26   32      3.96      0.00
   12   26   32      0.68      0.00
   14   26   32     -0.53      0.00
   18   26   32      6.98      0.00
   20   26   32     11.54      0.00
   26   32   40     -5.32      0.00
   26   32   42     -6.91      0.00
    1   25   31     12.45      0.00
    5   25   31     -9.84      0.00
    7   25   31     -2.54      0.00
    9   25   31     -8.90      0.00
   11   25   31    -19.37      0.00
   13   25   31    -16.04      0.00
   15   25   31      2.06      0.00
   17   25   31     -7.25      0.00
   19   25   31     -0.90      0.00
   25   31   39     -0.23      0.00
    4   24   30      5.89      0.00
    2   24   30      5.75      0.00
    6   24   30     -5.47      0.00
    8   24   30      7.11      0.00
   10   24   30      7.66      0.00
   12   24   30      4.18      0.00
   14   24   30      3.62      0.00
   16   24   30     -2.51      0.00
   18   24   30      1.44      0.00
   24   30   38      8.58      0.00
   24   30   40     -1.94      0.00
   15   23   29     -1.75      0.00
    7   23   29      0.46      0.00
    5   23   29    -19.27      0.00
    1   23   29      8.95      0.00
    3   23   29    -10.89      0.00
    9   23   29     -9.77      0.00
   11   23   29      4.96      0.00
   13   23   29    -17.56      0.00
   17   23   29      3.84      0.00
   23   29   37     -0.14      0.00
   23   29   39     17.88      0.00
   23   29   41      0.62      0.00
   23   29   47     -1.95      0.00
   22   28   36      1.59      0.00
   14   22   28    -16.27      0.00
    4   22   28      3.37      0.00
    2   22   28     -8.85      0.00
    6   22   28    -27.03      0.00
    8   22   28     -8.49      0.00
   10   22   28      8.86      0.00
   12   22   28      3.47      0.00
   16   22   28     -2.60      0.00
   22   28   38     -0.84      0.00
   22   28   40     -1.72      0.00
   22   28   42      8.48      0.00
   22   28   48    -18.96      0.00
    9   21   27     -4.37      0.00
    3   21   27      9.03      0.00
    1   21   27     35.35      0.00
    7   21   27     17.49      0.00
   11   21   27     -5.50      0.00
   13   21   27      5.74      0.00
   15   21   27    -12.45      0.00
   21   27   35     14.81      0.00
   21   27   37      4.62      0.00
   21   27   39     -1.28      0.00
   21   27   41      1.92      0.00
   21   27   43     -7.17      0.00
   21   27   53      3.24      0.00
   20   26   36      1.94      0.00
    4   20   26      0.48      0.00
    2   20   26      1.25      0.00
    0   20   26      8.72      0.00
    6   20   26    -24.35      0.00
    8   20   26    -26.72      0.00
   10   20   26     24.61      0.00
   12   20   26     -5.51      0.00
   14   20   26     -0.43      0.00
   20   26   34      0.91      0.00
   20   26   38     -7.77      0.00
   20   26   40      4.18      0.00
   20   26   42      3.89      0.00
   20   26   44     -0.40      0.00
   20   26   48    -20.44      0.00
   20   26   50      2.86      0.00
   19   25   41     11.83      0.00
   19   25   39     -2.54      0.00
   19   25   37      6.49      0.00
   19   25   33     -0.14      0.00
   13   19   25     19.59      0.00
    1   19   25     -0.29      0.00
    3   19   25    -33.68      0.00
    5   19   25     -8.92      0.00
    7   19   25     -6.09      0.00
    9   19   25      2.47      0.00
   11   19   25      5.46      0.00
   19   25   35     -8.91      0.00
   19   25   43     -1.38      0.00
   19   25   45      7.80      0.00
   19   25   49     -9.76      0.00
   18   24   44    -10.41      0.00
   18   24   42     -8.39      0.00
   18   24   40     -7.50      0.00
   18   24   38      3.29      0.00
   18   24   34      1.47      0.00
    6   18   24    -26.37      0.00
    4   18   24      0.81      0.00
    0   18   24     49.50      0.00
    2   18   24     28.95      0.00
    8   18   24     -1.29      0.00
   10   18   24     -0.78      0.00
   12   18   24     13.31      0.00
   18   24   32     -3.25      0.00
   18   24   36     -1.94      0.00
   18   24   46    -36.74      0.00
   18   24   50    -17.13      0.00
   17   23   45      0.19      0.00
   17   23   43      0.85      0.00
   17   23   41      0.74      0.00
   17   23   39     13.76      0.00
   17   23   37     -1.59      0.00
   17   23   33      8.72      0.00
   11   17   23     11.95      0.00
    5   17   23    -13.00      0.00
    3   17   23     -7.70      0.00
    1   17   23     29.24      0.00
    7   17   23    -17.92      0.00
    9   17   23    -11.48      0.00
   17   23   31     -8.15      0.00
   17   23   35     11.37      0.00
   17   23   47     -3.51      0.00
   17   23   49      5.66      0.00
   16   22   46      2.92      0.00
   16   22   40     -8.25      0.00
   16   22   36    -11.68      0.00
   16   22   34     -1.97      0.00
   16   22   32     10.17      0.00
   16   22   30      8.26      0.00
    6   16   22    -10.85      0.00
    2   16   22     15.18      0.00
    4   16   22    -41.87      0.00
    8   16   22     27.39      0.00
   10   16   22      2.70      0.00
   16   22   38     -7.86      0.00
   16   22   42      3.96      0.00
   16   22   44     11.69      0.00
   16   22   48     -6.28      0.00
   15   21   47     -6.62      0.00
   15   21   43     -1.34      0.00
   15   21   41     -4.21      0.00
   15   21   39     10.81      0.00
   15   21   35     -0.94      0.00
   15   21   33     -7.90      0.00
   15   21   31     -9.80      0.00
    7   15   21    -30.38      0.00
    5   15   21    -29.53      0.00
    3   15   21    -38.11      0.00
    1   15   21     19.73      0.00
    9   15   21     -2.72      0.00
   15   21   29     -3.53      0.00
   15   21   37     -2.09      0.00
   15   21   45    -16.97      0.00
   15   21   49     -2.24      0.00
   14   20   46      7.30      0.00
   14   20   44     -7.22      0.00
   14   20   40    -33.75      0.00
   14   20   38      6.75      0.00
   14   20   36     -1.26      0.00
   14   20   34     12.09      0.00
   14   20   32     21.51      0.00
   14   20   30      4.78      0.00
    8   14   20     -6.14      0.00
    0   14   20    142.55      0.00
    2   14   20     73.27      0.00
    4   14   20     -1.05      0.00
    6   14   20     -6.19      0.00
   14   20   28    -11.10      0.00
   14   20   42      3.48      0.00
   14   20   48     14.36      0.00
   14   20   50     -1.84      0.00
   13   19   51      2.09      0.00
   13   19   49     19.86      0.00
   13   19   47     -0.93      0.00
   13   19   45      0.20      0.00
   13   19   43      1.88      0.00
   13   19   41     -5.58      0.00
   13   19   39    -10.66      0.00
   13   19   37     -7.70      0.00
   13   19   35    -10.71      0.00
   13   19   33    -10.00      0.00
   13   19   31      3.88      0.00
   13   19   29     18.64      0.00
   13   19   27     -1.65      0.00
    3   13   19    -37.58      0.00
    1   13   19     -9.84      0.00
    5   13   19    -38.41      0.00
    7   13   19      0.10      0.00
   12   18   52      1.98      0.00
   12   18   50      7.20      0.00
   12   18   48      7.84      0.00
   12   18   46      2.56      0.00
   12   18   44      6.11      0.00
   12   18   42      3.65      0.00
   12   18   38      6.97      0.00
   12   18   36     16.26      0.00
   12   18   34      0.87      0.00
   12   18   32    -14.71      0.00
   12   18   30    -27.48      0.00
   12   18   28     -9.70      0.00
   12   18   26    -18.64      0.00
    4   12   18     26.57      0.00
    0   12   18     19.63      0.00
    2   12   18     17.42      0.00
    6   12   18    -39.37      0.00
   12   18   40     -3.40      0.00
   11   17   53     -0.42      0.00
   11   17   49     14.07      0.00
   11   17   45     18.32      0.00
   11   17   43     -8.44      0.00
   11   17   41    -10.14      0.00
   11   17   39    -11.82      0.00
   11   17   37     -9.92      0.00
   11   17   35      3.58      0.00
   11   17   33      8.36      0.00
   11   17   31     26.94      0.00
   11   17   29     -5.05      0.00
   11   17   27     -1.14      0.00
   11   17   25     -1.52      0.00
    5   11   17      3.43      0.00
    1   11   17     77.43      0.00
    3   11   17     49.90      0.00
   11   17   47      0.95      0.00
   11   17   51      1.11      0.00
   10   16   50     -3.79      0.00
   10   16   48     10.46      0.00
   10   16   44     17.14      0.00
   10   16   42     -2.65      0.00
   10   16   40     10.03      0.00
   10   16   38      6.51      0.00
   10   16   36    -14.62      0.00
   10   16   34     -5.40      0.00
   10   16   32    -16.49      0.00
   10   16   30     16.14      0.00
   10   16   28     21.34      0.00
   10   16   26     -1.86      0.00
   10   16   24     13.37      0.00
    2   10   16     17.41      0.00
    0   10   16     83.98      0.00
    4   10   16    -12.30      0.00
   10   16   46      2.45      0.00
    9   15   53    -12.87      0.00
    9   15   51     13.26      0.00
    9   15   49      3.92      0.00
    9   15   47      2.35      0.00
    9   15   43     -1.90      0.00
    9   15   41    -17.20      0.00
    9   15   39    -10.28      0.00
    9   15   37     -5.70      0.00
    9   15   35      0.83      0.00
    9   15   33     10.79      0.00
    9   15   31      3.50      0.00
    9   15   29    -27.44      0.00
    9   15   25    -33.77      0.00
    9   15   23    -25.26      0.00
    3    9   15     15.03      0.00
    1    9   15     13.00      0.00
    9   15   27     -3.05      0.00
    9   15   45     -1.72      0.00
    8   14   54      8.45      0.00
    8   14   52     16.44      0.00
    8   14   50    -24.43      0.00
    8   14   48      4.08      0.00
    8   14   46     10.69      0.00
    8   14   44     13.67      0.00
    8   14   42     18.54      0.00
    8   14   40     -1.42      0.00
    8   14   38     -5.46      0.00
    8   14   36     -6.90      0.00
    8   14   34     -9.50      0.00
    8   14   32      7.22      0.00
    8   14   30     17.03      0.00
    8   14   28     -1.10      0.00
    8   14   26     23.73      0.00
    8   14   24     25.37      0.00
    8   14   22     39.74      0.00
    2    8   14      0.95      0.00
    0    8   14     87.10      0.00
    7   13   51      2.28      0.00
    7   13   49     -3.79      0.00
    7   13   47     -2.76      0.00
    7   13   45    -15.51      0.00
    7   13   43    -12.01      0.00
    7   13   41    -11.58      0.00
    7   13   39      0.10      0.00
    7   13   37      8.73      0.00
    7   13   33     -9.37      0.00
    7   13   31     10.14      0.00
    7   13   29     -4.84      0.00
    7   13   27     -4.57      0.00
    7   13   25    -28.59      0.00
    7   13   23    -59.92      0.00
    7   13   21     68.72      0.00
    1    7   13     72.43      0.00
    7   13   35     13.28      0.00
    7   13   53     -1.60      0.00
    7   13   55      2.34      0.00
    6   12   52     -0.82      0.00
    6   12   50      4.66      0.00
    6   12   46     14.93      0.00
    6   12   44     11.78      0.00
    6   12   42     -2.15      0.00
    6   12   40     10.81      0.00
    6   12   38      2.10      0.00
    6   12   36     -9.97      0.00
    6   12   34     13.90      0.00
    6   12   32      7.23      0.00
    6   12   30     14.87      0.00
    6   12   28     17.38      0.00
    6   12   26      9.56      0.00
    6   12   24     35.64      0.00
    6   12   22    -26.27      0.00
    6   12   20     28.74      0.00
    0    6   12     22.88      0.00
    6   12   48     -3.41      0.00
    6   12   54      1.38      0.00
    5   11   53     11.95      0.00
    5   11   51      3.20      0.00
    5   11   49     -3.70      0.00
    5   11   47    -14.91      0.00
    5   11   45     -4.32      0.00
    5   11   43      2.15      0.00
    5   11   41      4.78      0.00
    5   11   39    -13.69      0.00
    5   11   37     -3.37      0.00
    5   11   35     -5.22      0.00
    5   11   33     -5.50      0.00
    5   11   31    -13.92      0.00
    5   11   29     -4.30      0.00
    5   11   27    -37.68      0.00
    5   11   25    -41.55      0.00
    5   11   23     29.53      0.00
    5   11   21    -13.43      0.00
    5   11   19     51.72      0.00
    4   10   52      7.86      0.00
    4   10   50      4.66      0.00
    4   10   48     18.37      0.00
    4   10   46      6.34      0.00
    4   10   42     -6.93      0.00
    4   10   40      1.68      0.00
    4   10   38    -16.37      0.00
    4   10   36     -0.25      0.00
    4   10   34      3.49      0.00
    4   10   32     11.53      0.00
    4   10   28     12.64      0.00
    4   10   26    -12.14      0.00
    4   10   24    -25.17      0.00
    4   10   22      7.32      0.00
    4   10   20    -20.69      0.00
    4   10   18     12.32      0.00
    4   10   30      9.77      0.00
    4   10   44     -2.24      0.00
    4   10   54      0.52      0.00
    4   10   58     -8.16      0.00
    3    9   53      2.58      0.00
    3    9   51     -8.60      0.00
    3    9   49      0.71      0.00
    3    9   47     -8.54      0.00
    3    9   45     -3.99      0.00
    3    9   43     -6.81      0.00
    3    9   41      6.86      0.00
    3    9   39      0.26      0.00
    3    9   37      3.09      0.00
    3    9   35     -7.21      0.00
    3    9   33     -5.71      0.00
    3    9   31     -1.21      0.00
    3    9   29      0.45      0.00
    3    9   27    -21.19      0.00
    3    9   23    -32.80      0.00
    3    9   21     25.46      0.00
    3    9   19     59.59      0.00
    3    9   17    -38.09      0.00
    3    9    9     30.38      0.00
    3    9   25    -10.03      0.00
    3    9   57     -4.44      0.00
    2    8   56     20.91      0.00
    2    8   54      3.66      0.00
    2    8   52      5.89      0.00
    2    8   50      8.22      0.00
    2    8   48      4.70      0.00
    2    8   46      7.79      0.00
    2    8   44     -6.48      0.00
    2    8   42      2.63      0.00
    2    8   40      1.41      0.00
    2    8   38    -12.22      0.00
    2    8   36     -3.88      0.00
    2    8   34      8.42      0.00
    2    8   32      2.95      0.00
    2    8   28      2.60      0.00
    2    8   26     18.90      0.00
    2    8   24     38.23      0.00
    2    8   22      4.27      0.00
    2    8   20    -49.18      0.00
    2    8   18     30.95      0.00
    2    8   16     35.59      0.00
    2    8   30      5.38      0.00
    2    8   58    -12.90      0.00
    1    7   55      4.01      0.00
    1    7   53     -9.73      0.00
    1    7   51     -0.88      0.00
    1    7   49     -4.27      0.00
    1    7   47     -2.55      0.00
    1    7   45     -4.80      0.00
    1    7   43     -4.36      0.00
    1    7   41     -2.76      0.00
    1    7   39     -1.05      0.00
    1    7   37      2.82      0.00
    1    7   35     -9.62      0.00
    1    7   33     -2.59      0.00
    1    7   31      1.41      0.00
    1    7   29    -16.68      0.00
    1    7   27      4.78      0.00
    1    7   25     34.98      0.00
    1    7   23     39.49      0.00
    1    7   21    -11.08      0.00
    1    7   19     -3.05      0.00
    1    7   17     12.43      0.00
    1    7   15    -79.51      0.00
    1    7   57      7.98      0.00
    0    6   56     -6.56      0.00
    0    6   54      5.00      0.00
    0    6   52     -6.84      0.00
    0    6   50      9.77      0.00
    0    6   48      6.93      0.00
    0    6   46      6.27      0.00
    0    6   44     17.83      0.00
    0    6   42      8.31      0.00
    0    6   40      1.50      0.00
    0    6   38    -16.17      0.00
    0    6   36      0.28      0.00
    0    6   34     14.08      0.00
    0    6   32      3.18      0.00
    0    6   30    -21.25      0.00
    0    6   28      7.96      0.00
    0    6   26    -25.59      0.00
    0    6   24    -67.36      0.00
    0    6   22     -3.80      0.00
    0    6   20    -39.91      0.00
    0    6   18     58.37      0.00
    0    6   16    157.12      0.00
    0    6   14   -157.39      0.00
    0    6    6     96.51      0.00
    1    7   59      8.78      0.00
    2    8   60    -10.74      0.00
    3    9   55     -6.33      0.00
    4   10   56      1.15      0.00
    5   11   57     -6.04      0.00
   10   16   52      0.60      0.00
   18   24   52     -9.24      0.00
   19   25   51     14.70      0.00
   20   26   46      6.96      0.00
   21   27   47     28.95      0.00
   21   27   45      5.85      0.00
    5   21   27      6.79      0.00
    0   22   28      8.79      0.00
    0   24   30     16.50      0.00
   25   31   41      3.40      0.00
   25   31   37     -1.69      0.00
    3   25   31    -18.03      0.00
    6   26   32     -0.16      0.00
   28   34   34     -6.21      0.00
    2   28   34      7.43      0.00
    0   28   34      2.11      0.00
   13   29   35     11.68      0.00
    3   29   35      0.36      0.00
   10   30   36     -5.42      0.00
   15   33   39     -5.50      0.00
   11   33   39    -14.06      0.00
    1   33   39     -2.09      0.00
    9   35   41     -0.43      0.00
    7   35   41     -9.45      0.00
   14   36   42    -13.71      0.00
    0   36   42     -6.28      0.00
   19   37   43      3.31      0.00
    9   37   43      6.15      0.00
    1   37   43     -5.60      0.00
   12   38   44    -18.92      0.00
    8   36   44     11.66      0.00
    0   36   44     -7.35      0.00
    4   36   44     17.35      0.00
   20   36   44      0.87      0.00
    5   35   43     -6.17      0.00
    7   35   43     11.38      0.00
   11   35   43      1.81      0.00
    2   34   42      1.73      0.00
    0   34   42      3.70      0.00
    4   34   42      4.52      0.00
    8   34   42     -5.52      0.00
   10   34   42     -6.05      0.00
   12   34   42     -8.52      0.00
   16   34   42     -0.24      0.00
   18   34   42     14.18      0.00
   20   34   42     -3.90      0.00
    5   33   41     -5.84      0.00
    3   33   41     -1.92      0.00
    1   33   41      0.19      0.00
    7   33   41     -6.16      0.00
    9   33   41     -2.20      0.00
   11   33   41    -27.46      0.00
   13   33   41     -7.08      0.00
   17   33   41    -15.93      0.00
   19   33   41     -3.19      0.00
   21   33   41     -5.35      0.00
   10   32   40     18.97      0.00
    6   32   40     18.94      0.00
    4   32   40     11.38      0.00
    2   32   40     -3.35      0.00
    0   32   40     -9.24      0.00
    8   32   40      5.85      0.00
   12   32   40     10.41      0.00
   14   32   40      3.54      0.00
   16   32   40      3.91      0.00
   18   32   40     -2.44      0.00
   20   32   40      8.19      0.00
   22   32   40     -2.77      0.00
   24   32   40     19.15      0.00
    1   31   39    -10.84      0.00
    3   31   39     -1.97      0.00
    5   31   39      5.42      0.00
    7   31   39      1.61      0.00
    9   31   39     -3.36      0.00
   11   31   39     -5.60      0.00
   13   31   39     -0.80      0.00
   15   31   39     -2.76      0.00
   17   31   39     -7.67      0.00
   19   31   39     -7.07      0.00
   21   31   39     -0.31      0.00
   23   31   39     18.06      0.00
    2   30   38      2.24      0.00
    4   30   38     -1.54      0.00
    8   30   38      6.24      0.00
   10   30   38      5.45      0.00
   12   30   38      0.01      0.00
   14   30   38     -3.89      0.00
   16   30   38      8.16      0.00
   18   30   38      6.60      0.00
   20   30   38    -14.00      0.00
   22   30   38      1.91      0.00
   28   30   38      5.25      0.00
    3   29   37     15.95      0.00
    1   29   37     -2.39      0.00
    5   29   37      5.34      0.00
    7   29   37      6.36      0.00
   11   29   37      5.89      0.00
   13   29   37     11.10      0.00
   15   29   37     -6.64      0.00
   17   29   37      2.49      0.00
   19   29   37      8.35      0.00
   21   29   37     10.03      0.00
    6   28   36      9.39      0.00
    4   28   36     -7.73      0.00
    2   28   36     -5.87      0.00
    0   28   36    -16.40      0.00
    8   28   36     11.68      0.00
   10   28   36     -4.09      0.00
   12   28   36     -6.20      0.00
   14   28   36     -9.82      0.00
   16   28   36     -4.69      0.00
   18   28   36     -4.87      0.00
   20   28   36    -16.15      0.00
   28   36   40     -1.27      0.00
   15   27   35      3.48      0.00
    7   27   35      5.57      0.00
    5   27   35     -2.33      0.00
    1   27   35    -15.68      0.00
    9   27   35     -8.43      0.00
   11   27   35      4.07      0.00
   13   27   35      7.30      0.00
   17   27   35     -0.93      0.00
   19   27   35      9.26      0.00
   27   35   41     18.62      0.00
   18   26   34      5.32      0.00
    2   26   34     10.14      0.00
    4   26   34     13.24      0.00
    6   26   34     21.56      0.00
    8   26   34     -6.51      0.00
   10   26   34      5.03      0.00
   12   26   34    -18.56      0.00
   14   26   34    -13.41      0.00
   16   26   34      1.79      0.00
   17   25   33     -1.29      0.00
   15   25   33     -5.49      0.00
    7   25   33     -4.78      0.00
    5   25   33     -0.78      0.00
    1   25   33    -14.65      0.00
    9   25   33     -9.64      0.00
   11   25   33      4.18      0.00
   13   25   33      1.16      0.00
    4   24   32     20.63      0.00
    2   24   32     -1.76      0.00
    6   24   32     -2.46      0.00
    8   24   32     11.72      0.00
   10   24   32     14.63      0.00
   12   24   32      6.25      0.00
   14   24   32      4.13      0.00
   16   24   32     -2.75      0.00
    5   23   31      1.28      0.00
    3   23   31    -22.83      0.00
    1   23   31     -3.26      0.00
    7   23   31      0.36      0.00
    9   23   31     -8.04      0.00
   11   23   31    -15.81      0.00
   13   23   31     -8.64      0.00
   15   23   31     -3.39      0.00
    8   22   30    -25.80      0.00
    4   22   30    -11.38      0.00
    2   22   30     -7.09      0.00
    0   22   30    -26.86      0.00
    6   22   30     17.37      0.00
   10   22   30    -10.18      0.00
   12   22   30     -2.52      0.00
   14   22   30      9.27      0.00
   22   30   40     11.07      0.00
   22   30   44      2.18      0.00
   13   21   29     -2.83      0.00
    5   21   29      2.74      0.00
    3   21   29     -7.74      0.00
    1   21   29      2.20      0.00
    7   21   29      7.95      0.00
    9   21   29     -7.64      0.00
   11   21   29     -7.39      0.00
   21   29   39     -7.09      0.00
   21   29   41     -1.88      0.00
   21   29   43     -9.10      0.00
   21   29   45    -11.31      0.00
   20   28   40     -2.03      0.00
    4   20   28     -3.19      0.00
    2   20   28    -10.48      0.00
    6   20   28      0.69      0.00
    8   20   28     15.10      0.00
   10   20   28      6.01      0.00
   12   20   28     -2.57      0.00
   20   28   38     -2.11      0.00
   20   28   42      0.60      0.00
   19   27   41     -7.00      0.00
   19   27   37      2.82      0.00
   11   19   27    -11.28      0.00
    5   19   27     13.62      0.00
    3   19   27     -9.79      0.00
    1   19   27      7.21      0.00
    7   19   27     27.04      0.00
    9   19   27    -20.78      0.00
   19   27   39     -4.57      0.00
   19   27   43     -4.20      0.00
   19   27   45    -17.20      0.00
   18   26   42    -14.81      0.00
   18   26   36     -1.35      0.00
    8   18   26     13.69      0.00
    6   18   26     11.06      0.00
    4   18   26    -15.35      0.00
    2   18   26     21.14      0.00
    0   18   26     12.39      0.00
   10   18   26     10.91      0.00
   18   26   38     -6.35      0.00
   18   26   40      0.40      0.00
   18   26   44    -16.61      0.00
   18   26   46     14.09      0.00
   17   25   43      2.71      0.00
   17   25   41      2.48      0.00
   17   25   37     -3.74      0.00
    3   17   25    -62.58      0.00
    1   17   25    -64.70      0.00
    5   17   25     30.13      0.00
    7   17   25     23.26      0.00
    9   17   25     -9.39      0.00
   17   25   35     -0.73      0.00
   17   25   39     16.52      0.00
   17   25   45      1.03      0.00
   16   24   44     -6.05      0.00
   16   24   40    -10.57      0.00
   16   24   38      3.91      0.00
    8   16   24      8.82      0.00
    2   16   24    -11.86      0.00
    4   16   24     18.24      0.00
    6   16   24     44.51      0.00
   16   24   34      4.38      0.00
   16   24   36      7.76      0.00
   16   24   42    -13.17      0.00
   16   24   46     -2.48      0.00
   15   23   47     -6.01      0.00
   15   23   43    -11.32      0.00
   15   23   41     10.45      0.00
   15   23   39      7.93      0.00
   15   23   37      6.99      0.00
   15   23   35    -10.57      0.00
   15   23   33     17.02      0.00
    7   15   23     22.95      0.00
    5   15   23     49.96      0.00
    1   15   23    -46.93      0.00
   15   23   45     11.18      0.00
   14   22   46     -5.38      0.00
   14   22   44     -0.76      0.00
   14   22   42     -1.29      0.00
   14   22   40     -9.60      0.00
   14   22   36      9.01      0.00
   14   22   34      8.04      0.00
   14   22   32      9.64      0.00
    4   14   22     20.55      0.00
    2   14   22      7.94      0.00
    6   14   22     18.74      0.00
   14   22   38     -6.17      0.00
   14   22   48     15.91      0.00
   14   22   50     11.42      0.00
   13   21   47      9.95      0.00
   13   21   45     -5.27      0.00
   13   21   41      5.20      0.00
   13   21   39      3.93      0.00
   13   21   37     -0.09      0.00
   13   21   35     -2.59      0.00
   13   21   33    -10.67      0.00
   13   21   31     -7.67      0.00
    5   13   21    -10.92      0.00
    3   13   21    -15.82      0.00
    1   13   21   -108.45      0.00
   13   21   43      1.10      0.00
   13   21   49     24.04      0.00
   12   20   48      5.28      0.00
   12   20   46     -0.96      0.00
   12   20   44      2.98      0.00
   12   20   42     -8.86      0.00
   12   20   40     -8.28      0.00
   12   20   38      3.22      0.00
   12   20   36      3.53      0.00
   12   20   34     13.63      0.00
   12   20   30    -13.97      0.00
    4   12   20     37.39      0.00
    2   12   20     15.12      0.00
   12   20   32      1.73      0.00
   12   20   50     15.14      0.00
   11   19   49    -11.66      0.00
   11   19   47    -11.01      0.00
   11   19   45     -6.92      0.00
   11   19   43      5.54      0.00
   11   19   41     -4.29      0.00
   11   19   39     -9.64      0.00
   11   19   37     -4.41      0.00
   11   19   35      5.78      0.00
   11   19   33     21.43      0.00
   11   19   31     22.53      0.00
   11   19   29     -3.01      0.00
    3   11   19    -75.08      0.00
    1   11   19     75.35      0.00
   11   19   51     -6.29      0.00
   10   18   48     -2.26      0.00
   10   18   46     -2.47      0.00
   10   18   44      7.89      0.00
   10   18   42      8.67      0.00
   10   18   40      9.59      0.00
   10   18   38      6.03      0.00
   10   18   36     -9.25      0.00
   10   18   34    -17.08      0.00
   10   18   32    -26.06      0.00
   10   18   30      5.35      0.00
   10   18   28     23.81      0.00
    2   10   18   -125.39      0.00
    0   10   18   -126.71      0.00
   10   18   50      7.36      0.00
   10   18   52      0.65      0.00
    9   17   49      7.42      0.00
    9   17   47     -0.57      0.00
    9   17   45     -4.59      0.00
    9   17   43      5.17      0.00
    9   17   41     -1.24      0.00
    9   17   37    -30.69      0.00
    9   17   35     12.93      0.00
    9   17   33     21.39      0.00
    9   17   31     -7.32      0.00
    9   17   29    -15.01      0.00
    9   17   27    -22.15      0.00
    1    9   17    -44.89      0.00
    9   17   39    -10.12      0.00
    9   17   51      5.37      0.00
    9   17   53      8.01      0.00
    8   16   50     -4.60      0.00
    8   16   48     -5.10      0.00
    8   16   46     -5.58      0.00
    8   16   44      9.84      0.00
    8   16   42      2.82      0.00
    8   16   40     -3.64      0.00
    8   16   36      0.53      0.00
    8   16   34     -2.85      0.00
    8   16   32     12.63      0.00
    8   16   30     18.51      0.00
    8   16   28     15.42      0.00
    8   16   26    -12.76      0.00
    0    8   16   -166.09      0.00
    8   16   38     -6.69      0.00
    8   16   52    -15.93      0.00
    7   15   51     -3.23      0.00
    7   15   49      2.84      0.00
    7   15   47      1.60      0.00
    7   15   45     -9.39      0.00
    7   15   43    -15.04      0.00
    7   15   41      3.88      0.00
    7   15   39     -1.58      0.00
    7   15   37     -0.54      0.00
    7   15   35      1.85      0.00
    7   15   33     -0.16      0.00
    7   15   31    -18.86      0.00
    7   15   29    -17.22      0.00
    7   15   27     31.75      0.00
    7   15   25     -4.22      0.00
    7   15   53     -3.58      0.00
    6   14   50    -13.26      0.00
    6   14   48      7.61      0.00
    6   14   46     -1.27      0.00
    6   14   44      5.07      0.00
    6   14   42     11.98      0.00
    6   14   40      1.33      0.00
    6   14   38      6.32      0.00
    6   14   36      4.95      0.00
    6   14   34     -4.86      0.00
    6   14   32      3.86      0.00
    6   14   30      3.37      0.00
    6   14   28     -0.36      0.00
    6   14   24    -16.04      0.00
    6   14   26     10.58      0.00
    6   14   52     -9.03      0.00
    5   13   51     -1.11      0.00
    5   13   49     -4.50      0.00
    5   13   47     -8.55      0.00
    5   13   45     -9.10      0.00
    5   13   43     -4.60      0.00
    5   13   41     -5.46      0.00
    5   13   39    -13.92      0.00
    5   13   37      1.67      0.00
    5   13   35    -10.12      0.00
    5   13   33     -6.71      0.00
    5   13   31    -16.63      0.00
    5   13   29    -11.66      0.00
    5   13   27    -17.41      0.00
    5   13   25     28.26      0.00
    5   13   23    -23.54      0.00
    5   13   55     -6.74      0.00
    4   12   52     19.54      0.00
    4   12   50     -0.19      0.00
    4   12   48     -3.53      0.00
    4   12   46      3.15      0.00
    4   12   44    -13.31      0.00
    4   12   42      3.26      0.00
    4   12   40     -3.95      0.00
    4   12   38      9.48      0.00
    4   12   36     -1.03      0.00
    4   12   34      7.36      0.00
    4   12   32     11.66      0.00
    4   12   30     21.30      0.00
    4   12   28     11.18      0.00
    4   12   26    -11.62      0.00
    4   12   24     12.85      0.00
    4   12   22     21.54      0.00
    4   12   12      5.59      0.00
    4   12   14    -46.87      0.00
    4   12   54      1.68      0.00
    4   12   56     -4.88      0.00
    3   11   53     -2.94      0.00
    3   11   51     -9.18      0.00
    3   11   49      1.27      0.00
    3   11   47     -3.83      0.00
    3   11   45     -5.33      0.00
    3   11   43     10.39      0.00
    3   11   41     11.05      0.00
    3   11   39      7.20      0.00
    3   11   35     -3.19      0.00
    3   11   33    -12.57      0.00
    3   11   31     -6.99      0.00
    3   11   29    -22.69      0.00
    3   11   27      4.13      0.00
    3   11   25     26.58      0.00
    3   11   23    -35.15      0.00
    3   11   21    -22.28      0.00
    3   11   37     16.67      0.00
    3   11   55     -3.90      0.00
    2   10   54      8.64      0.00
    2   10   52      2.37      0.00
    2   10   50     13.64      0.00
    2   10   48     11.70      0.00
    2   10   46     10.99      0.00
    2   10   44      7.72      0.00
    2   10   42      2.32      0.00
    2   10   40     -3.33      0.00
    2   10   38      1.53      0.00
    2   10   36      9.10      0.00
    2   10   34     -4.30      0.00
    2   10   32    -10.84      0.00
    2   10   30      9.34      0.00
    2   10   28     17.96      0.00
    2   10   26      9.24      0.00
    2   10   24     11.67      0.00
    2   10   22     15.11      0.00
    2   10   20     -5.59      0.00
    1    9   55     -1.99      0.00
    1    9   53     13.29      0.00
    1    9   51     14.92      0.00
    1    9   49     -4.04      0.00
    1    9   47    -11.69      0.00
    1    9   45     -1.74      0.00
    1    9   43     -3.69      0.00
    1    9   41     -3.61      0.00
    1    9   39     11.03      0.00
    1    9   37     10.04      0.00
    1    9   35     12.53      0.00
    1    9   33     24.16      0.00
    1    9   31     13.90      0.00
    1    9   29    -24.43      0.00
    1    9   27    -33.43      0.00
    1    9   25    -45.63      0.00
    1    9   23    -62.29      0.00
    1    9   21      2.26      0.00
    1    9   19    170.42      0.00
    0    8   56     15.24      0.00
    0    8   54     20.92      0.00
    0    8   52     -3.99      0.00
    0    8   50    -15.80      0.00
    0    8   48     -6.42      0.00
    0    8   46     -3.81      0.00
    0    8   44      8.99      0.00
    0    8   42     -9.09      0.00
    0    8   40     -1.66      0.00
    0    8   38     10.89      0.00
    0    8   36      0.97      0.00
    0    8   34    -20.70      0.00
    0    8   32    -27.96      0.00
    0    8   30     13.28      0.00
    0    8   28     28.70      0.00
    0    8   26    -45.02      0.00
    0    8   24     17.12      0.00
    0    8   22     28.48      0.00
    0    8   20    -73.20      0.00
    0    8   18     -1.27      0.00
    0    8    8    287.43      0.00
    0    8   58     -4.58      0.00
    1    9   57      2.30      0.00
    2   10   58     -2.69      0.00
    0   12   20    -76.35      0.00
    0   14   22    -20.62      0.00
    3   15   23     -8.72      0.00
    0   16   24     55.07      0.00
   20   28   48     24.99      0.00
    0   20   28    -56.21      0.00
    0   24   32    -18.20      0.00
   26   34   40      0.20      0.00
    0   26   34      9.79      0.00
    9   29   37     -5.27      0.00
    6   30   38     18.11      0.00
   15   33   41     15.97      0.00
   14   34   42    -16.36      0.00
    6   34   42      1.13      0.00
   17   35   43     -1.48      0.00
   15   35   43     -2.87      0.00
   13   35   43     -3.27      0.00
    9   35   43      2.18      0.00
    3   35   43     -0.61      0.00
    1   35   43     -5.07      0.00
   18   36   44      0.00      0.00
   12   36   46     -7.59      0.00
    9   35   45     -2.47      0.00
    1   35   45     -3.85      0.00
    3   35   45      5.24      0.00
    5   35   45      4.16      0.00
    7   35   45      3.73      0.00
   11   35   45    -11.99      0.00
   15   35   45      9.43      0.00
   17   35   45      9.23      0.00
    4   34   44      6.57      0.00
    2   34   44      2.74      0.00
    8   34   44     -2.70      0.00
   12   34   44    -11.66      0.00
   18   34   44      3.16      0.00
   20   34   44     -4.74      0.00
    1   33   43     -9.76      0.00
    3   33   43     -6.03      0.00
    7   33   43     -7.70      0.00
    9   33   43     -5.74      0.00
   11   33   43    -17.56      0.00
   13   33   43     -0.36      0.00
   15   33   43      4.73      0.00
   17   33   43      8.87      0.00
   19   33   43    -16.27      0.00
   21   33   43    -10.96      0.00
    0   32   42     11.16      0.00
    2   32   42     17.98      0.00
    4   32   42      1.03      0.00
    6   32   42     17.71      0.00
   10   32   42     12.89      0.00
   12   32   42      1.91      0.00
   14   32   42      5.46      0.00
   16   32   42    -10.58      0.00
   18   32   42     -4.08      0.00
   15   31   41     -0.34      0.00
    3   31   41     -2.65      0.00
    1   31   41     -3.73      0.00
    7   31   41    -10.03      0.00
    9   31   41     -4.75      0.00
   11   31   41    -11.37      0.00
   17   31   41     -2.75      0.00
   19   31   41     -0.24      0.00
    6   30   40     -1.20      0.00
    0   30   40      8.02      0.00
    2   30   40      8.85      0.00
    4   30   40      2.18      0.00
    8   30   40     14.12      0.00
   10   30   40     11.82      0.00
   12   30   40      4.06      0.00
   16   30   40      8.37      0.00
   17   29   39     -4.43      0.00
    9   29   39      2.90      0.00
    5   29   39     13.21      0.00
    3   29   39      1.35      0.00
    1   29   39     -4.42      0.00
    7   29   39     -8.27      0.00
   11   29   39     -3.01      0.00
   13   29   39     -3.71      0.00
   15   29   39      9.57      0.00
   19   29   39      1.50      0.00
   27   29   39      3.78      0.00
    2   28   38     -2.28      0.00
    0   28   38     -1.90      0.00
    6   28   38     -7.27      0.00
    8   28   38      3.80      0.00
   10   28   38     -0.39      0.00
   12   28   38     -8.28      0.00
   14   28   38     -1.16      0.00
   16   28   38     -7.34      0.00
   18   28   38     -0.30      0.00
   17   27   37      9.74      0.00
    9   27   37      1.00      0.00
    1   27   37     11.26      0.00
    3   27   37      6.73      0.00
    7   27   37     -4.81      0.00
   11   27   37     -0.36      0.00
   13   27   37      2.00      0.00
   15   27   37     -3.68      0.00
    8   26   36     12.97      0.00
    4   26   36      6.81      0.00
    2   26   36      9.92      0.00
    0   26   36      6.83      0.00
   10   26   36     -8.89      0.00
   12   26   36     -0.78      0.00
   16   26   36      3.21      0.00
   26   36   36     10.18      0.00
    7   25   35      0.22      0.00
    5   25   35     -3.33      0.00
    1   25   35      1.24      0.00
    3   25   35     -8.46      0.00
    9   25   35     -9.79      0.00
   11   25   35      3.17      0.00
   13   25   35     -2.25      0.00
   15   25   35     -5.86      0.00
    2   24   34     13.29      0.00
    0   24   34      3.28      0.00
    4   24   34      7.04      0.00
    6   24   34     -2.38      0.00
    8   24   34     -1.08      0.00
   10   24   34      0.82      0.00
   12   24   34      1.86      0.00
   14   24   34     -5.51      0.00
   13   23   33     -5.30      0.00
   11   23   33    -12.91      0.00
    3   23   33    -15.56      0.00
    5   23   33    -19.73      0.00
    7   23   33    -18.32      0.00
    9   23   33    -16.42      0.00
   23   33   45     -2.60      0.00
    6   22   32      9.43      0.00
    4   22   32      3.93      0.00
    2   22   32      2.88      0.00
    0   22   32     18.85      0.00
    8   22   32      6.09      0.00
   10   22   32     11.56      0.00
   12   22   32      9.43      0.00
   22   32   42      5.93      0.00
   22   32   46     -0.93      0.00
   11   21   31     -4.48      0.00
    1   21   31     29.43      0.00
    3   21   31    -17.08      0.00
    5   21   31    -15.73      0.00
    9   21   31    -14.55      0.00
   21   31   41      2.19      0.00
   21   31   43     -9.94      0.00
   21   31   45    -12.53      0.00
   20   30   42     12.98      0.00
   10   20   30     -5.01      0.00
    6   20   30    -26.97      0.00
    4   20   30     13.22      0.00
    0   20   30      5.15      0.00
    2   20   30      8.35      0.00
    8   20   30     -3.18      0.00
   20   30   40      2.70      0.00
   19   29   43    -10.03      0.00
   19   29   29      0.85      0.00
    9   19   29     -7.54      0.00
    5   19   29      4.47      0.00
    3   19   29     10.05      0.00
    1   19   29     31.66      0.00
    7   19   29     -6.73      0.00
   19   29   41    -14.37      0.00
   19   29   47      4.69      0.00
   18   28   44      3.98      0.00
   18   28   40      1.92      0.00
    8   18   28      0.54      0.00
    2   18   28     19.06      0.00
    4   18   28     -5.65      0.00
    6   18   28    -23.44      0.00
   18   28   46      3.31      0.00
   17   27   45      6.47      0.00
   17   27   43     -0.90      0.00
   17   27   41     -5.76      0.00
   17   27   39     -0.56      0.00
    7   17   27     -6.14      0.00
    5   17   27    -23.09      0.00
    3   17   27    -11.71      0.00
    1   17   27    -14.40      0.00
   16   26   46     -4.06      0.00
   16   26   44     -4.58      0.00
   16   26   42     -0.38      0.00
   16   26   40     -8.01      0.00
   16   26   38     -7.20      0.00
    6   16   26    -35.95      0.00
    4   16   26     18.36      0.00
    2   16   26     52.43      0.00
   16   26   48    -14.71      0.00
   15   25   41      4.74      0.00
   15   25   39      0.22      0.00
   15   25   37     -3.95      0.00
    5   15   25    -47.94      0.00
    3   15   25    -12.99      0.00
    1   15   25     -1.30      0.00
   15   25   43     -4.45      0.00
   15   25   45      0.80      0.00
   14   24   46      5.47      0.00
   14   24   44      9.05      0.00
   14   24   42    -11.54      0.00
   14   24   40      5.82      0.00
   14   24   38     -3.49      0.00
    2   14   24     29.48      0.00
    4   14   24    -21.23      0.00
   14   24   36     -2.45      0.00
   14   24   48      2.45      0.00
   13   23   45      5.93      0.00
   13   23   41     -1.15      0.00
   13   23   39      4.30      0.00
   13   23   35      1.36      0.00
    3   13   23    -12.19      0.00
    1   13   23     15.18      0.00
   13   23   37      0.48      0.00
   13   23   43     -5.65      0.00
   13   23   47      0.76      0.00
   12   22   48      2.28      0.00
   12   22   46      5.69      0.00
   12   22   44      1.60      0.00
   12   22   42    -11.01      0.00
   12   22   40    -16.50      0.00
   12   22   38     -7.34      0.00
   12   22   36     -5.36      0.00
   12   22   34      9.91      0.00
    2   12   22     51.00      0.00
   11   21   49     -4.06      0.00
   11   21   47      4.03      0.00
   11   21   45     -1.48      0.00
   11   21   41     -6.39      0.00
   11   21   39      9.62      0.00
   11   21   37      9.50      0.00
   11   21   35     -9.81      0.00
   11   21   33     11.63      0.00
    1   11   21     47.55      0.00
   11   21   43      4.87      0.00
   11   21   51     -0.36      0.00
   10   20   50     -0.63      0.00
   10   20   48      1.06      0.00
   10   20   46      2.41      0.00
   10   20   44     -1.30      0.00
   10   20   40      1.75      0.00
   10   20   38    -13.75      0.00
   10   20   36      8.53      0.00
   10   20   34    -13.70      0.00
   10   20   32     -1.13      0.00
    0   10   20    -84.46      0.00
   10   20   42      7.41      0.00
   10   20   52     10.97      0.00
    9   19   49     -7.09      0.00
    9   19   47     -3.95      0.00
    9   19   45     -3.84      0.00
    9   19   43     -4.11      0.00
    9   19   41    -18.54      0.00
    9   19   39     -2.10      0.00
    9   19   37     -6.32      0.00
    9   19   33     14.25      0.00
    9   19   31     16.16      0.00
    9   19   35      0.71      0.00
    9   19   53     -1.53      0.00
    8   18   48     10.33      0.00
    8   18   46      0.24      0.00
    8   18   44      7.55      0.00
    8   18   42     -4.06      0.00
    8   18   40     -3.24      0.00
    8   18   38     -9.36      0.00
    8   18   36     10.07      0.00
    8   18   34      4.76      0.00
    8   18   32     -3.33      0.00
    8   18   30     14.92      0.00
    8   18   50      2.11      0.00
    7   17   49      4.57      0.00
    7   17   47     -5.38      0.00
    7   17   45     -1.18      0.00
    7   17   43      4.47      0.00
    7   17   41      3.34      0.00
    7   17   39      4.01      0.00
    7   17   37     -7.75      0.00
    7   17   35    -12.57      0.00
    7   17   33     -5.67      0.00
    7   17   31    -15.57      0.00
    7   17   29      2.00      0.00
    7   17   51     16.87      0.00
    6   16   52      9.17      0.00
    6   16   50     -6.57      0.00
    6   16   48     -0.26      0.00
    6   16   46      7.48      0.00
    6   16   44      7.38      0.00
    6   16   42      2.33      0.00
    6   16   40     -2.46      0.00
    6   16   38      8.90      0.00
    6   16   36      6.46      0.00
    6   16   34     12.44      0.00
    6   16   32      3.88      0.00
    6   16   30     14.78      0.00
    6   16   28     -0.38      0.00
    5   15   51    -10.59      0.00
    5   15   49      2.37      0.00
    5   15   47     -4.17      0.00
    5   15   45     -1.96      0.00
    5   15   43     -8.52      0.00
    5   15   41     -8.53      0.00
    5   15   39     -3.65      0.00
    5   15   37     -7.28      0.00
    5   15   35     -0.53      0.00
    5   15   33      4.07      0.00
    5   15   31    -14.98      0.00
    5   15   29      1.67      0.00
    5   15   27     -0.15      0.00
    5   15   53      8.42      0.00
    4   14   52      0.12      0.00
    4   14   50     13.44      0.00
    4   14   48     -5.69      0.00
    4   14   46      6.32      0.00
    4   14   44     -3.37      0.00
    4   14   42     -4.22      0.00
    4   14   40     -1.66      0.00
    4   14   38      1.73      0.00
    4   14   34      2.96      0.00
    4   14   32     14.41      0.00
    4   14   30      4.04      0.00
    4   14   28     30.50      0.00
    4   14   26     15.51      0.00
    4   14   36      0.35      0.00
    4   14   54      2.67      0.00
    3   13   51      6.28      0.00
    3   13   49     -4.56      0.00
    3   13   47     -7.74      0.00
    3   13   45     -8.73      0.00
    3   13   43     -4.77      0.00
    3   13   41     -4.88      0.00
    3   13   39     -0.39      0.00
    3   13   37     10.02      0.00
    3   13   35      1.44      0.00
    3   13   33     -8.88      0.00
    3   13   31     -4.09      0.00
    3   13   29     -1.70      0.00
    3   13   27      8.26      0.00
    3   13   25     -1.13      0.00
    3   13   53    -10.46      0.00
    2   12   54     -2.86      0.00
    2   12   52     -4.08      0.00
    2   12   50      6.48      0.00
    2   12   48      8.53      0.00
    2   12   46     -1.65      0.00
    2   12   44     -1.75      0.00
    2   12   42      4.16      0.00
    2   12   40      7.09      0.00
    2   12   38     -0.89      0.00
    2   12   36      2.73      0.00
    2   12   34      2.77      0.00
    2   12   32     13.17      0.00
    2   12   30     -2.25      0.00
    2   12   28    -18.46      0.00
    2   12   26    -39.19      0.00
    2   12   24    -16.68      0.00
    1   11   53      8.71      0.00
    1   11   51      6.39      0.00
    1   11   49    -16.05      0.00
    1   11   47    -12.67      0.00
    1   11   45    -10.14      0.00
    1   11   43      3.68      0.00
    1   11   41      5.42      0.00
    1   11   39    -16.48      0.00
    1   11   37     -8.54      0.00
    1   11   35     -8.44      0.00
    1   11   33      8.67      0.00
    1   11   31      9.94      0.00
    1   11   29     13.49      0.00
    1   11   27     13.86      0.00
    1   11   25     17.65      0.00
    1   11   23    -38.07      0.00
    0   10   54      9.75      0.00
    0   10   50      1.75      0.00
    0   10   48     -6.47      0.00
    0   10   46     -7.71      0.00
    0   10   44      8.07      0.00
    0   10   42      8.58      0.00
    0   10   40      4.32      0.00
    0   10   38    -20.15      0.00
    0   10   36    -21.30      0.00
    0   10   34     16.97      0.00
    0   10   32    -23.04      0.00
    0   10   30     -4.11      0.00
    0   10   28     36.29      0.00
    0   10   26     53.42      0.00
    0   10   24     82.51      0.00
    0   10   22      0.60      0.00
    0   10   10    363.82      0.00
    0   10   52     -6.45      0.00
    3    7   59     18.66      0.00
    1   11   55      6.05      0.00
    2   12   56    -17.59      0.00
    3   13   57      4.22      0.00
    5   15   55      3.54      0.00
    6   16   56      1.44      0.00
    6   16   54    -25.84      0.00
    9   19   51    -10.90      0.00
   12   22   50     -5.18      0.00
   13   23   49      8.55      0.00
   14   24   50      2.97      0.00
    0   14   24     46.77      0.00
   15   25   51      8.98      0.00
   15   25   49    -19.54      0.00
   15   25   47    -19.16      0.00
   16   26   50    -24.79      0.00
   17   27   49    -22.32      0.00
   18   28   50     20.53      0.00
   18   28   48     -7.79      0.00
   18   28   42     12.76      0.00
    0   18   28      7.31      0.00
   19   29   45    -13.52      0.00
   20   30   44     -5.66      0.00
   21   31   49    -29.83      0.00
   21   31   47     -5.28      0.00
    7   21   31     -7.89      0.00
    1   23   33     -0.57      0.00
   26   36   38     12.38      0.00
   14   26   36    -12.43      0.00
    6   26   36      1.15      0.00
    5   27   37      4.52      0.00
    4   28   38     -0.52      0.00
   18   30   40     11.89      0.00
   14   30   40     -1.46      0.00
   13   31   41     -7.17      0.00
    5   31   41     11.47      0.00
    8   32   42     14.46      0.00
   23   33   43     13.68      0.00
    7   35   47     -1.80      0.00
    2   34   46      2.06      0.00
    4   34   46     -6.12      0.00
    8   34   46     12.81      0.00
   12   34   46    -20.32      0.00
   13   33   45      2.17      0.00
   15   33   45      0.82      0.00
   17   33   45     15.81      0.00
   21   33   45     -4.05      0.00
    2   32   44      2.33      0.00
    4   32   44     -6.60      0.00
    6   32   44      6.37      0.00
    8   32   44      8.78      0.00
   16   32   44     -3.45      0.00
   18   32   44     -8.47      0.00
   20   32   44    -12.75      0.00
   13   31   43      0.29      0.00
    7   31   43     -1.06      0.00
    3   31   43     -4.28      0.00
    1   31   43    -12.01      0.00
    9   31   43    -13.36      0.00
   11   31   43     19.80      0.00
   19   31   43     -6.49      0.00
    2   30   42     15.52      0.00
    0   30   42      5.50      0.00
    6   30   42      4.86      0.00
    8   30   42     10.62      0.00
   10   30   42      2.65      0.00
   12   30   42      4.81      0.00
   14   30   42      9.79      0.00
   18   30   42     -0.96      0.00
   24   30   42    -19.52      0.00
   17   29   41     -5.79      0.00
    7   29   41      0.67      0.00
    5   29   41     -4.52      0.00
    1   29   41     -4.76      0.00
    3   29   41     -1.91      0.00
    9   29   41     -8.00      0.00
   11   29   41     -5.34      0.00
   13   29   41      3.88      0.00
   15   29   41    -13.98      0.00
   16   28   40      0.18      0.00
    6   28   40      7.14      0.00
    4   28   40     -3.27      0.00
    2   28   40     -7.93      0.00
    0   28   40      4.02      0.00
   12   28   40      2.21      0.00
   14   28   40     11.40      0.00
   13   27   39     11.79      0.00
    7   27   39    -11.75      0.00
    1   27   39      6.74      0.00
    3   27   39     -4.12      0.00
    5   27   39     -0.93      0.00
    9   27   39      0.93      0.00
   11   27   39     10.12      0.00
   15   27   39      0.30      0.00
    4   26   38      2.96      0.00
    2   26   38    -10.51      0.00
    0   26   38     -0.99      0.00
    6   26   38     -2.61      0.00
    8   26   38      1.39      0.00
   10   26   38      8.16      0.00
   12   26   38      7.36      0.00
   14   26   38     -0.07      0.00
   11   25   37    -12.19      0.00
    7   25   37      4.73      0.00
    1   25   37     11.14      0.00
    3   25   37    -12.77      0.00
    5   25   37     12.44      0.00
    9   25   37      7.68      0.00
   13   25   37     -6.57      0.00
    6   24   36      0.62      0.00
    4   24   36     -1.10      0.00
    2   24   36      0.07      0.00
    0   24   36      5.91      0.00
    8   24   36     -0.26      0.00
   10   24   36     12.06      0.00
   12   24   36      7.12      0.00
   24   36   36    -11.50      0.00
   24   36   38    -15.38      0.00
    1   23   35     -7.57      0.00
    5   23   35      0.20      0.00
    7   23   35     -1.31      0.00
    9   23   35     -6.50      0.00
   11   23   35     -2.00      0.00
    4   22   34      9.15      0.00
    2   22   34     12.28      0.00
    0   22   34    -13.49      0.00
    6   22   34    -27.26      0.00
    8   22   34     20.54      0.00
   10   22   34      6.78      0.00
    7   21   33     -9.71      0.00
    5   21   33     -1.52      0.00
    3   21   33    -21.89      0.00
    1   21   33    -10.62      0.00
    9   21   33     -3.15      0.00
    8   20   32      8.71      0.00
    6   20   32     11.23      0.00
    2   20   32     13.95      0.00
    4   20   32     13.01      0.00
   20   32   42      6.24      0.00
   20   32   48      9.86      0.00
    7   19   31     -2.58      0.00
    5   19   31     -3.08      0.00
    3   19   31    -24.25      0.00
    1   19   31    -11.66      0.00
   19   31   49    -16.32      0.00
    6   18   30     -4.37      0.00
    4   18   30      3.62      0.00
    2   18   30     -6.33      0.00
    0   18   30    -15.04      0.00
   18   30   44     -6.87      0.00
   18   30   46     19.10      0.00
    5   17   29      1.88      0.00
    1   17   29      6.46      0.00
    3   17   29    -14.21      0.00
   17   29   43      0.36      0.00
   17   29   45     -7.45      0.00
   16   28   44     11.96      0.00
   16   28   42      0.76      0.00
    2   16   28      9.27      0.00
    0   16   28    -18.22      0.00
    4   16   28      8.35      0.00
   16   28   50    -23.98      0.00
   15   27   41     -4.01      0.00
    3   15   27    -25.74      0.00
    1   15   27    -25.80      0.00
   15   27   43      9.50      0.00
   15   27   45     -2.15      0.00
   15   27   47      5.57      0.00
   14   26   44      1.23      0.00
   14   26   42     -6.28      0.00
   14   26   40     -1.18      0.00
    0   14   26    -23.91      0.00
    2   14   26     20.03      0.00
   14   26   46     -4.38      0.00
   14   26   50     13.32      0.00
   13   25   43      1.39      0.00
   13   25   41     -0.15      0.00
    1   13   25    -15.60      0.00
   13   25   39      1.59      0.00
   13   25   45      0.00      0.00
   13   25   47     -3.85      0.00
   12   24   48      4.39      0.00
   12   24   46      3.90      0.00
   12   24   44      1.74      0.00
   12   24   42      3.19      0.00
   12   24   40      5.11      0.00
   12   24   38      4.88      0.00
    0   12   24     -6.84      0.00
   12   24   50     46.39      0.00
   11   23   47    -10.81      0.00
   11   23   45      8.58      0.00
   11   23   41      1.44      0.00
   11   23   39    -19.02      0.00
   11   23   37      1.19      0.00
   11   23   43     11.62      0.00
   10   22   50     10.06      0.00
   10   22   48    -13.21      0.00
   10   22   44     -4.63      0.00
   10   22   42      1.71      0.00
   10   22   40      0.54      0.00
   10   22   38     -6.67      0.00
   10   22   36    -12.56      0.00
   10   22   46      0.68      0.00
    9   21   49     -0.67      0.00
    9   21   47      1.21      0.00
    9   21   45     -9.55      0.00
    9   21   43     -2.17      0.00
    9   21   41     -0.99      0.00
    9   21   39      9.75      0.00
    9   21   37      8.39      0.00
    9   21   35     -6.02      0.00
    8   20   50     15.37      0.00
    8   20   48      4.90      0.00
    8   20   46      4.23      0.00
    8   20   44      0.25      0.00
    8   20   42      1.01      0.00
    8   20   40     -2.41      0.00
    8   20   38      6.19      0.00
    8   20   36    -27.52      0.00
    8   20   34      5.09      0.00
    7   19   49     -9.64      0.00
    7   19   47    -19.50      0.00
    7   19   45     -3.35      0.00
    7   19   43      4.97      0.00
    7   19   41      0.02      0.00
    7   19   39     -8.96      0.00
    7   19   37     -4.97      0.00
    7   19   35     -7.35      0.00
    7   19   33      2.79      0.00
    7   19   51     -0.92      0.00
    6   18   48      1.73      0.00
    6   18   46     -5.33      0.00
    6   18   44     -0.50      0.00
    6   18   42      3.88      0.00
    6   18   40      9.67      0.00
    6   18   38      3.54      0.00
    6   18   36     -1.11      0.00
    6   18   34     -8.82      0.00
    6   18   32     -6.44      0.00
    6   18   50      4.62      0.00
    6   18   52     -6.38      0.00
    6   18   54     10.56      0.00
    5   17   51     -6.07      0.00
    5   17   49      4.04      0.00
    5   17   47     -1.52      0.00
    5   17   45     -8.29      0.00
    5   17   43    -10.74      0.00
    5   17   41     -4.69      0.00
    5   17   39     14.68      0.00
    5   17   37    -11.32      0.00
    5   17   35    -11.52      0.00
    5   17   33      0.81      0.00
    5   17   31     -3.58      0.00
    5   17   53      8.45      0.00
    5   17   55     13.75      0.00
    4   16   50      3.28      0.00
    4   16   48      4.69      0.00
    4   16   46      1.26      0.00
    4   16   44     13.24      0.00
    4   16   42      9.12      0.00
    4   16   40      8.98      0.00
    4   16   38     -0.85      0.00
    4   16   36     -5.74      0.00
    4   16   34     -1.94      0.00
    4   16   32     20.91      0.00
    4   16   30     20.13      0.00
    4   16   54      2.46      0.00
    3   15   51     -7.01      0.00
    3   15   49     -9.47      0.00
    3   15   47     -6.65      0.00
    3   15   45     -8.42      0.00
    3   15   43     -0.29      0.00
    3   15   41     -2.90      0.00
    3   15   39    -10.15      0.00
    3   15   37     -3.35      0.00
    3   15   35      7.02      0.00
    3   15   33     15.36      0.00
    3   15   31     -1.12      0.00
    3   15   29    -24.83      0.00
    3   15   55     22.86      0.00
    2   14   52     -3.40      0.00
    2   14   50     -1.22      0.00
    2   14   48      7.53      0.00
    2   14   46      1.62      0.00
    2   14   44     16.60      0.00
    2   14   42      6.75      0.00
    2   14   40      0.90      0.00
    2   14   38     10.16      0.00
    2   14   36      2.56      0.00
    2   14   34     10.50      0.00
    2   14   32     -3.70      0.00
    2   14   30     -2.00      0.00
    2   14   28     -5.65      0.00
    2   14   54    -16.31      0.00
    1   13   53      3.91      0.00
    1   13   51     -4.51      0.00
    1   13   49     -7.72      0.00
    1   13   47     12.09      0.00
    1   13   45    -13.62      0.00
    1   13   43     -6.74      0.00
    1   13   41     -1.85      0.00
    1   13   39     -0.97      0.00
    1   13   37    -11.31      0.00
    1   13   35    -21.64      0.00
    1   13   33     -2.85      0.00
    1   13   31     -3.33      0.00
    1   13   29     35.79      0.00
    1   13   27     34.85      0.00
    0   12   52      9.45      0.00
    0   12   50      0.95      0.00
    0   12   48    -15.33      0.00
    0   12   46    -15.02      0.00
    0   12   44     15.87      0.00
    0   12   42     18.66      0.00
    0   12   40    -17.95      0.00
    0   12   38      6.82      0.00
    0   12   36     -8.64      0.00
    0   12   34      8.31      0.00
    0   12   32     -0.83      0.00
    0   12   30    -34.31      0.00
    0   12   28    -20.31      0.00
    0   12   26    -34.85      0.00
    0   12   22     90.55      0.00
    0   12   12    291.71      0.00
    0   12   54     -3.36      0.00
    6    6    6     -3.96      0.00
    0   12   56     -2.80      0.00
    1   13   55      6.39      0.00
    3   15   53      6.07      0.00
    4   16   52    -10.16      0.00
    8   20   54    -11.27      0.00
   16   28   46     -4.16      0.00
   17   29   47      8.63      0.00
   19   31   45     21.01      0.00
   20   32   46     -3.17      0.00
   22   34   44      1.35      0.00
   22   34   42     -1.35      0.00
    3   23   35     -7.97      0.00
   25   37   37    -20.43      0.00
   26   28   40      5.86      0.00
   10   28   40     -1.93      0.00
    4   30   42     -0.15      0.00
   15   31   43     -0.99      0.00
    5   31   43    -22.69      0.00
   14   32   44     -0.64      0.00
    7   33   45      1.56      0.00
   16   34   46     -1.41      0.00
    6   32   46     -6.21      0.00
    8   32   46     -2.11      0.00
   10   32   46     -5.91      0.00
    3   31   45      6.66      0.00
   11   31   45      1.80      0.00
   13   31   45     -2.63      0.00
   12   30   44      4.46      0.00
    8   30   44      3.13      0.00
    2   30   44      9.74      0.00
    0   30   44     11.27      0.00
    4   30   44    -21.87      0.00
   14   30   44      3.00      0.00
   16   30   44     -6.65      0.00
   13   29   43     -6.16      0.00
    9   29   43     -4.36      0.00
   11   29   43     -8.89      0.00
    6   28   42     -4.75      0.00
    4   28   42     -4.34      0.00
    2   28   42      8.49      0.00
    0   28   42     17.28      0.00
   10   28   42      7.06      0.00
   14   28   42      3.20      0.00
    7   27   41     -7.69      0.00
    3   27   41      5.66      0.00
    1   27   41      7.15      0.00
    9   27   41      0.26      0.00
   11   27   41     -4.51      0.00
   13   27   41      0.04      0.00
   12   26   40     12.57      0.00
    2   26   40     -9.82      0.00
    0   26   40     -4.31      0.00
    4   26   40      4.22      0.00
    6   26   40      6.28      0.00
    8   26   40     -5.61      0.00
   10   26   40      2.46      0.00
   11   25   39     -2.09      0.00
    7   25   39      7.96      0.00
    3   25   39      6.40      0.00
    1   25   39      4.36      0.00
    5   25   39      6.69      0.00
    9   25   39     -7.12      0.00
   25   33   39      3.57      0.00
   10   24   38     -1.11      0.00
    6   24   38    -14.39      0.00
    2   24   38      3.46      0.00
    0   24   38      3.53      0.00
    4   24   38      3.34      0.00
    8   24   38    -31.80      0.00
    7   23   37      5.22      0.00
    1   23   37    -10.14      0.00
    3   23   37    -10.57      0.00
    5   23   37      4.15      0.00
    9   23   37    -13.80      0.00
   23   37   37      1.52      0.00
   23   37   39    -20.09      0.00
    6   22   36     -1.82      0.00
    4   22   36     10.40      0.00
    2   22   36      6.54      0.00
    0   22   36     14.05      0.00
    8   22   36     -2.41      0.00
    5   21   35     -4.09      0.00
    3   21   35     -0.17      0.00
    1   21   35    -13.26      0.00
    7   21   35     -5.57      0.00
   21   35   41      6.03      0.00
    4   20   34      3.71      0.00
    0   20   34      4.27      0.00
    2   20   34      5.46      0.00
    6   20   34    -18.91      0.00
    5   19   33      0.54      0.00
    3   19   33     18.72      0.00
    1   19   33    -15.08      0.00
    0   18   32    -19.25      0.00
    2   18   32     11.41      0.00
    4   18   32      2.02      0.00
    1   17   31    -18.38      0.00
    3   17   31    -10.69      0.00
   16   30   42     -0.25      0.00
    2   16   30     14.54      0.00
    0   16   30    -18.29      0.00
   16   30   46      9.99      0.00
    1   15   29     -1.25      0.00
   15   29   43     -5.59      0.00
   15   29   45      2.54      0.00
   15   29   47      7.37      0.00
   14   28   44      7.26      0.00
    0   14   28    -26.22      0.00
   14   28   46     25.36      0.00
   14   28   50     -4.00      0.00
   13   27   45     -4.39      0.00
   13   27   43      3.03      0.00
   13   27   47      5.62      0.00
   13   27   49      3.45      0.00
   12   26   46      0.42      0.00
   12   26   44     -0.35      0.00
   12   26   42     -6.17      0.00
   12   26   48     19.85      0.00
   11   25   45      2.00      0.00
   11   25   41      3.64      0.00
   11   25   43     10.95      0.00
   11   25   47    -10.89      0.00
   11   25   49     -0.89      0.00
   10   24   48     14.07      0.00
   10   24   46     17.73      0.00
   10   24   42     -8.02      0.00
   10   24   40     -8.13      0.00
   10   24   44      6.16      0.00
    9   23   47     -3.44      0.00
    9   23   45      2.69      0.00
    9   23   43      6.53      0.00
    9   23   41     14.68      0.00
    9   23   39      9.86      0.00
    9   23   49      2.47      0.00
    8   22   46     -8.41      0.00
    8   22   44     -9.39      0.00
    8   22   42    -10.61      0.00
    8   22   40     -6.91      0.00
    8   22   38     -6.06      0.00
    8   22   48      5.94      0.00
    7   21   47     -1.56      0.00
    7   21   45     -7.28      0.00
    7   21   43     -0.34      0.00
    7   21   41      1.46      0.00
    7   21   39     -0.46      0.00
    7   21   37     -7.75      0.00
    7   21   49    -10.34      0.00
    6   20   52    -10.65      0.00
    6   20   50      0.93      0.00
    6   20   48     -3.23      0.00
    6   20   46     -8.66      0.00
    6   20   44     -0.64      0.00
    6   20   42     -2.87      0.00
    6   20   38     -8.20      0.00
    6   20   36     -1.28      0.00
    6   20   40     -0.30      0.00
    5   19   49    -19.05      0.00
    5   19   47    -11.94      0.00
    5   19   45      3.99      0.00
    5   19   43     -0.90      0.00
    5   19   41     15.65      0.00
    5   19   39     -3.48      0.00
    5   19   37     -1.87      0.00
    5   19   35      5.68      0.00
    4   18   50      2.17      0.00
    4   18   48    -11.70      0.00
    4   18   46    -16.74      0.00
    4   18   44     -2.01      0.00
    4   18   42     -0.37      0.00
    4   18   40      6.62      0.00
    4   18   38     16.89      0.00
    4   18   36     -2.60      0.00
    4   18   34     -4.35      0.00
    4   18   18     15.78      0.00
    4   18   52     10.81      0.00
    3   17   49     -8.69      0.00
    3   17   47     -8.96      0.00
    3   17   45     -2.55      0.00
    3   17   43    -14.94      0.00
    3   17   41     -0.74      0.00
    3   17   39    -14.93      0.00
    3   17   37      0.78      0.00
    3   17   35      9.19      0.00
    3   17   33     13.27      0.00
    3   17   17    -58.58      0.00
    3   17   51     -2.68      0.00
    2   16   50     -3.56      0.00
    2   16   48      7.65      0.00
    2   16   46      6.52      0.00
    2   16   44     18.77      0.00
    2   16   42      8.19      0.00
    2   16   40     11.41      0.00
    2   16   38     14.43      0.00
    2   16   36     -2.79      0.00
    2   16   34     -7.61      0.00
    2   16   32      7.59      0.00
    2   16   52    -17.11      0.00
    1   15   53     -2.94      0.00
    1   15   51     12.21      0.00
    1   15   49     -5.40      0.00
    1   15   47     -6.42      0.00
    1   15   45    -13.57      0.00
    1   15   43    -15.05      0.00
    1   15   41     -9.30      0.00
    1   15   39     -6.31      0.00
    1   15   37     -7.47      0.00
    1   15   35      3.59      0.00
    1   15   33    -19.71      0.00
    1   15   31     10.30      0.00
    0   14   50     13.99      0.00
    0   14   48     -6.64      0.00
    0   14   46     20.58      0.00
    0   14   44     -0.28      0.00
    0   14   42      8.35      0.00
    0   14   40     19.43      0.00
    0   14   38     18.79      0.00
    0   14   36     -1.28      0.00
    0   14   34     10.78      0.00
    0   14   32     -0.30      0.00
    0   14   30      9.96      0.00
    0   14   14    320.29      0.00
    0   14   52     14.96      0.00
    0   14   54     -6.01      0.00
    7    7    7   -688.10      0.00
    3   11   57     -2.08      0.00
    1   15   55     -8.05      0.00
    2   16   54    -10.30      0.00
    3   17   53      1.89      0.00
    7   21   51     -1.52      0.00
    8   22   52      3.01      0.00
   15   29   49      3.40      0.00
   17   31   43    -18.42      0.00
   27   27   41      8.27      0.00
    5   27   41     -8.03      0.00
   12   28   42      5.65      0.00
    8   28   42     -1.95      0.00
    7   29   43     -9.25      0.00
    3   29   43     -0.85      0.00
    1   29   43     -7.20      0.00
    9   31   45     12.82      0.00
    7   31   45     -7.02      0.00
   12   32   46    -16.31      0.00
    0   32   48     -6.85      0.00
    6   32   48      2.30      0.00
    8   32   48     -8.23      0.00
   12   32   48    -21.17      0.00
    3   31   47     -1.27      0.00
    1   31   47      6.02      0.00
    5   31   47      2.09      0.00
   13   31   47      2.26      0.00
   15   31   47     -2.87      0.00
    0   30   46     10.24      0.00
    2   30   46      1.58      0.00
    4   30   46     -6.65      0.00
    6   30   46      5.34      0.00
   14   30   46     -1.22      0.00
    7   29   45      2.61      0.00
    5   29   45     -2.07      0.00
    3   29   45     12.41      0.00
    9   29   45     -4.15      0.00
   11   29   45     -7.18      0.00
   13   29   45     -2.57      0.00
   10   28   44      3.12      0.00
    8   28   44      6.87      0.00
    6   28   44      2.71      0.00
   12   28   44      7.10      0.00
   20   28   44     -6.70      0.00
   22   28   44     -4.56      0.00
   11   27   43     -3.18      0.00
    9   27   43      1.79      0.00
    1   27   43      2.54      0.00
    5   27   43    -10.24      0.00
    7   27   43      0.25      0.00
   10   26   42      0.59      0.00
    6   26   42      0.67      0.00
    4   26   42      1.42      0.00
    0   26   42     -8.43      0.00
    2   26   42     -2.31      0.00
    8   26   42      0.87      0.00
   26   26   42     15.04      0.00
    5   25   41      3.11      0.00
    1   25   41     12.76      0.00
    3   25   41      5.70      0.00
    7   25   41      3.46      0.00
    9   25   41     10.92      0.00
    6   24   40    -14.41      0.00
    4   24   40     -3.62      0.00
    0   24   40     -0.91      0.00
    2   24   40      7.61      0.00
    8   24   40     -2.75      0.00
    7   23   39      6.15      0.00
    3   23   39      3.52      0.00
    1   23   39      0.57      0.00
    5   23   39      0.61      0.00
    2   22   38      3.27      0.00
    4   22   38     -8.35      0.00
    6   22   38    -14.67      0.00
    5   21   37     -4.86      0.00
   21   37   39     -1.18      0.00
    4   20   36     -5.69      0.00
    0   20   36     20.19      0.00
    2   20   36     21.86      0.00
   20   36   42    -10.25      0.00
    3   19   35     -0.99      0.00
    1   19   35     -6.54      0.00
   19   35   43    -13.46      0.00
    2   18   34     10.13      0.00
    0   18   34     10.48      0.00
    1   17   33      8.84      0.00
    0   16   32    -11.66      0.00
   16   32   46      3.57      0.00
   13   29   29    -10.77      0.00
   13   29   47     10.75      0.00
   12   28   46     -3.35      0.00
   12   28   48      0.26      0.00
   11   27   45     -6.16      0.00
   11   27   47    -12.72      0.00
   11   27   49    -10.24      0.00
   11   27   51     -7.88      0.00
   10   26   44      3.80      0.00
   10   26   46     -6.49      0.00
   10   26   48     -3.98      0.00
   10   26   52     -4.34      0.00
    9   25   51      7.73      0.00
    9   25   49      0.67      0.00
    9   25   47     -3.98      0.00
    9   25   43      9.18      0.00
    9   25   25    -17.31      0.00
    9   25   45     -4.76      0.00
    8   24   52      4.34      0.00
    8   24   50      1.87      0.00
    8   24   48     -2.85      0.00
    8   24   46      7.25      0.00
    8   24   44     -5.74      0.00
    8   24   42     -6.14      0.00
    7   23   51     21.12      0.00
    7   23   49      0.23      0.00
    7   23   47     -4.49      0.00
    7   23   45      4.19      0.00
    7   23   43      3.22      0.00
    7   23   41      2.37      0.00
    6   22   54     -0.91      0.00
    6   22   52     17.00      0.00
    6   22   50     12.27      0.00
    6   22   48    -12.11      0.00
    6   22   46     -3.01      0.00
    6   22   44    -16.36      0.00
    6   22   42     -4.10      0.00
    6   22   40     -5.00      0.00
    5   21   49      7.39      0.00
    5   21   47      0.72      0.00
    5   21   45      6.16      0.00
    5   21   43     -9.19      0.00
    5   21   41      6.09      0.00
    5   21   39     11.45      0.00
    4   20   46    -19.83      0.00
    4   20   44    -13.55      0.00
    4   20   42      3.85      0.00
    4   20   40     -0.10      0.00
    4   20   38      0.96      0.00
    4   20   48      0.67      0.00
    4   20   50     -1.02      0.00
    3   19   49    -12.15      0.00
    3   19   47     -2.63      0.00
    3   19   45     -5.16      0.00
    3   19   43     -6.38      0.00
    3   19   41    -13.71      0.00
    3   19   39      7.12      0.00
    3   19   37     20.86      0.00
    3   19   19    -35.81      0.00
    2   18   52     -3.42      0.00
    2   18   48     -0.21      0.00
    2   18   46      7.10      0.00
    2   18   44      3.02      0.00
    2   18   42      7.99      0.00
    2   18   40      4.15      0.00
    2   18   38     22.52      0.00
    2   18   36      7.94      0.00
    2   18   50     -2.24      0.00
    1   17   49     -4.84      0.00
    1   17   47      5.52      0.00
    1   17   45    -10.23      0.00
    1   17   43    -13.30      0.00
    1   17   41     -5.94      0.00
    1   17   39     -5.58      0.00
    1   17   37    -11.22      0.00
    1   17   35    -11.77      0.00
    0   16   50    -12.50      0.00
    0   16   48    -10.52      0.00
    0   16   46     14.54      0.00
    0   16   44     11.83      0.00
    0   16   42      6.94      0.00
    0   16   40     14.35      0.00
    0   16   38      7.81      0.00
    0   16   36      6.72      0.00
    0   16   34     11.27      0.00
    0   16   26     75.09      0.00
    0   16   22     -8.38      0.00
    0   16   20     45.97      0.00
    0   16   52     -0.59      0.00
    2   14   56    -15.75      0.00
    5   11   55      1.27      0.00
    3   13   55      9.23      0.00
    0   16   54     -8.03      0.00
    1   17   55    -15.90      0.00
    1   17   53     -3.61      0.00
    1   17   51      3.06      0.00
    2   18   54     -7.42      0.00
    3   19   55     -7.10      0.00
    3   19   51    -13.72      0.00
    4   20   56      1.28      0.00
    4   20   52      8.95      0.00
    5   21   51      4.55      0.00
   10   26   50     15.29      0.00
    3   21   37    -17.05      0.00
    1   21   37     -4.35      0.00
   27   27   43     -0.58      0.00
    3   27   43      7.31      0.00
    2   28   44      7.21      0.00
   12   30   46      0.53      0.00
   10   30   46     -1.52      0.00
   13   31   49      1.55      0.00
   15   31   49      9.34      0.00
    4   30   48     -6.20      0.00
    6   30   48     -0.65      0.00
    8   30   48     -8.15      0.00
   16   30   48    -11.54      0.00
   18   30   48      5.41      0.00
    7   29   47      8.28      0.00
    5   29   47      3.15      0.00
    3   29   47     -1.30      0.00
    9   29   47     -2.96      0.00
   21   29   47    -14.81      0.00
    2   28   46      0.40      0.00
    0   28   46      5.76      0.00
    6   28   46     -2.59      0.00
   10   28   46      3.40      0.00
   20   28   46     -5.84      0.00
   22   28   46      8.90      0.00
    5   27   45      2.90      0.00
    3   27   45      3.56      0.00
    1   27   45      7.13      0.00
    7   27   45     -3.62      0.00
    9   27   45    -16.28      0.00
    6   26   44      5.00      0.00
    2   26   44      4.04      0.00
    0   26   44     -5.15      0.00
    4   26   44     -4.06      0.00
    8   26   44      5.16      0.00
   26   26   44     -5.07      0.00
   26   28   44    -13.26      0.00
    7   25   43     18.16      0.00
    3   25   43     10.20      0.00
    1   25   43      5.80      0.00
    5   25   43      6.62      0.00
    2   24   42    -11.14      0.00
    0   24   42      3.64      0.00
    6   24   42     -5.03      0.00
   24   34   42     12.95      0.00
    5   23   41     14.97      0.00
    3   23   41      5.42      0.00
    1   23   41    -13.67      0.00
   23   31   41     15.63      0.00
   23   33   41     10.60      0.00
    4   22   40     12.11      0.00
    2   22   40     -4.58      0.00
    0   22   40      5.67      0.00
    3   21   39      0.55      0.00
    1   21   39    -12.55      0.00
   21   39   39     14.05      0.00
    2   20   38      5.77      0.00
    0   20   38     -0.07      0.00
   20   38   38      6.71      0.00
    1   19   37    -21.54      0.00
   18   36   42     -2.70      0.00
   16   34   44     -1.65      0.00
   15   33   33     13.72      0.00
   15   33   47     11.37      0.00
   11   29   47     -1.47      0.00
   10   28   28     26.19      0.00
   10   28   48     -5.84      0.00
    9   27   47      3.69      0.00
    9   27   49     -6.37      0.00
    8   26   46      5.34      0.00
    8   26   48     11.19      0.00
    8   26   50    -23.88      0.00
    8   26   52     -8.20      0.00
    7   25   53     -8.46      0.00
    7   25   51     -3.22      0.00
    7   25   49     -0.48      0.00
    7   25   45      8.78      0.00
    7   25   47    -11.83      0.00
    6   24   50     -0.74      0.00
    6   24   48      8.35      0.00
    6   24   46     -7.07      0.00
    6   24   44      1.31      0.00
    6   24   54    -15.87      0.00
    5   23   51      4.30      0.00
    5   23   47     23.19      0.00
    5   23   45      6.03      0.00
    5   23   43      7.86      0.00
    5   23   49     -8.68      0.00
    5   23   53     -4.17      0.00
    4   22   54      2.62      0.00
    4   22   52      0.69      0.00
    4   22   48      3.13      0.00
    4   22   46    -13.41      0.00
    4   22   44    -18.95      0.00
    4   22   42    -10.89      0.00
    4   22   50      3.52      0.00
    3   21   49     -4.80      0.00
    3   21   47      5.91      0.00
    3   21   45     -6.49      0.00
    3   21   43      5.04      0.00
    3   21   41     -0.47      0.00
    3   21   51     -3.11      0.00
    3   21   57    -14.39      0.00
    2   20   50     22.85      0.00
    2   20   48     -0.61      0.00
    2   20   46     -1.24      0.00
    2   20   44    -13.75      0.00
    2   20   42      4.34      0.00
    2   20   40     -0.41      0.00
    2   20   58     -0.84      0.00
    1   19   49    -17.03      0.00
    1   19   47      8.88      0.00
    1   19   45      6.07      0.00
    1   19   43      7.48      0.00
    1   19   41     14.14      0.00
    1   19   39     -7.64      0.00
    1   19   19     12.69      0.00
    0   18   48     13.91      0.00
    0   18   46     -2.99      0.00
    0   18   44    -10.62      0.00
    0   18   42     10.63      0.00
    0   18   40     23.70      0.00
    0   18   38     22.25      0.00
    0   18   36     15.63      0.00
    0   18   18    122.98      0.00
    0   18   50     -3.01      0.00
    5   13   53      3.40      0.00
    7   11   55     -1.63      0.00
    9    9   55     10.16      0.00
    2   16   56     -4.56      0.00
    0   18   54      1.95      0.00
    0   18   52      8.79      0.00
    1   19   53      3.45      0.00
    1   19   51     -5.22      0.00
    2   20   54     -3.25      0.00
    2   20   52     16.05      0.00
    3   21   53      0.38      0.00
   12   30   48    -10.55      0.00
   14   32   48     -8.47      0.00
   14   32   46     -7.08      0.00
   20   38   40    -20.73      0.00
    8   28   46     -8.51      0.00
    3   29   49    -16.77      0.00
    1   29   49      1.07      0.00
    4   28   48      0.21      0.00
    6   28   48      2.24      0.00
    5   27   47     -5.50      0.00
    1   27   47     -0.67      0.00
    7   27   47    -14.93      0.00
   19   27   47     15.16      0.00
    4   26   46      4.80      0.00
    2   26   46     -2.08      0.00
   26   28   46     16.65      0.00
    5   25   45     -2.72      0.00
    1   25   45     -1.69      0.00
    3   25   45      6.57      0.00
    4   24   44     -8.86      0.00
    2   24   44      4.40      0.00
    0   24   44      3.50      0.00
   24   30   44     10.93      0.00
    3   23   43      9.94      0.00
    1   23   43      7.76      0.00
   23   29   43     -3.95      0.00
   23   31   43      9.27      0.00
   22   30   42    -12.27      0.00
    2   22   42      0.65      0.00
    0   22   42    -11.64      0.00
    1   21   41      5.72      0.00
   21   39   41     13.86      0.00
    0   20   40     12.66      0.00
   18   38   42      2.23      0.00
   17   37   41      8.31      0.00
   17   37   43     -6.90      0.00
   16   36   44    -24.68      0.00
   15   35   35      9.64      0.00
   14   34   44      1.39      0.00
   14   34   46     13.39      0.00
   13   33   47    -15.07      0.00
   12   32   44     -2.81      0.00
   11   31   47      5.18      0.00
   11   31   49      4.88      0.00
   10   30   44     16.15      0.00
   10   30   48     -7.93      0.00
    8   28   48    -10.50      0.00
    8   28   40     -0.93      0.00
    7   27   49      3.18      0.00
    6   26   48     -2.38      0.00
    6   26   46     -4.89      0.00
    6   26   50      0.42      0.00
    5   25   49      0.01      0.00
    5   25   47     -1.72      0.00
    4   24   52     10.00      0.00
    4   24   50     -7.32      0.00
    4   24   48     -1.02      0.00
    4   24   46     -9.04      0.00
    4   24   42      3.22      0.00
    3   23   55    -35.46      0.00
    3   23   53     14.68      0.00
    3   23   51    -16.51      0.00
    3   23   49    -10.00      0.00
    3   23   47    -10.17      0.00
    3   23   45      1.75      0.00
    2   22   52     12.53      0.00
    2   22   50      2.45      0.00
    2   22   48     14.21      0.00
    2   22   44     -7.69      0.00
    2   22   46    -10.76      0.00
    2   22   54     -3.47      0.00
    1   21   49     -4.06      0.00
    1   21   47    -12.09      0.00
    1   21   45     -3.36      0.00
    1   21   43     -8.56      0.00
    1   21   51     -0.58      0.00
    1   21   53     -2.38      0.00
    0   20   52      6.99      0.00
    0   20   50     17.56      0.00
    0   20   48      7.54      0.00
    0   20   46      4.02      0.00
    0   20   44      5.25      0.00
    0   20   32      9.92      0.00
    0   20   42     -0.19      0.00
    0   20   54      9.04      0.00
   10   10   52      5.94      0.00
    6   14   54      0.74      0.00
    3   17   55     -0.46      0.00
    2   18   56      5.77      0.00
    1   19   55    -11.86      0.00
    4   24   56     -5.67      0.00
    5   25   51     14.02      0.00
    7   27   51     -3.36      0.00
    8   28   52    -18.02      0.00
   16   36   42    -10.96      0.00
   17   37   45      8.84      0.00
    4   28   50    -14.03      0.00
    8   28   50      5.83      0.00
    1   27   49     -8.60      0.00
    5   27   49      7.60      0.00
   27   27   49     21.34      0.00
   14   26   48     -8.07      0.00
    4   26   48      0.27      0.00
    2   26   48    -12.02      0.00
    1   25   47     -3.58      0.00
   17   25   47      9.36      0.00
    2   24   46     -2.42      0.00
    1   23   45     -3.80      0.00
    0   22   44     -1.67      0.00
   22   32   44     -5.78      0.00
   19   39   41     14.44      0.00
   18   40   40     -5.47      0.00
   16   38   42    -10.32      0.00
   15   37   37     -6.09      0.00
   15   37   43     -6.69      0.00
   15   37   45     34.67      0.00
   14   36   44      4.39      0.00
   14   36   46     18.57      0.00
   13   35   47    -10.03      0.00
   11   33   45     14.97      0.00
   11   33   47     -8.32      0.00
   10   32   44     -2.73      0.00
   10   32   48     -3.60      0.00
    9   31   49      4.91      0.00
    9   31   47      2.68      0.00
    8   30   46     -8.51      0.00
    8   30   50     -3.95      0.00
    7   29   49      5.10      0.00
    6   28   50      0.28      0.00
    6   28   52     -2.52      0.00
    5   27   51     -6.01      0.00
    4   26   50     10.47      0.00
    3   25   53     -9.51      0.00
    3   25   51      0.44      0.00
    3   25   49    -19.96      0.00
    3   25   47      2.08      0.00
    3   25   33    -17.50      0.00
    2   24   50     -7.38      0.00
    2   24   24      9.85      0.00
    2   24   48      0.05      0.00
    2   24   52      8.42      0.00
    1   23   55      4.25      0.00
    1   23   53      2.92      0.00
    1   23   51      3.93      0.00
    1   23   49    -10.05      0.00
    1   23   47     -2.39      0.00
    0   22   54      5.35      0.00
    0   22   50     15.33      0.00
    0   22   48      4.00      0.00
    0   22   46      0.09      0.00
    0   22   38     10.76      0.00
   11   11   53      9.52      0.00
    4   18   54     -6.55      0.00
    3   19   53     -0.83      0.00
    2   20   56    -18.57      0.00
    1   21   55      1.67      0.00
    0   22   52     20.52      0.00
    2   24   54     -4.21      0.00
    4   26   52      3.82      0.00
    5   27   53     18.59      0.00
   10   28   50    -16.42      0.00
    9   27   51     -5.22      0.00
    2   26   50     -4.12      0.00
    1   25   49     -7.92      0.00
   21   23   47    -13.26      0.00
   22   30   46     -8.75      0.00
   17   41   43    -18.25      0.00
   16   40   40      0.94      0.00
   14   38   38      2.65      0.00
   13   37   43      6.11      0.00
   12   36   44     13.60      0.00
   12   36   42     10.12      0.00
   10   34   44      0.28      0.00
   10   34   46     -9.96      0.00
    9   33   47      5.45      0.00
    9   33   45     -7.78      0.00
    7   31   47      9.85      0.00
    7   31   49      8.42      0.00
    6   30   50    -14.92      0.00
    6   30   44     -0.31      0.00
    6   30   32      7.59      0.00
    5   29   43     -3.33      0.00
    5   29   49     11.41      0.00
    5   29   51     -8.96      0.00
    4   28   46      1.08      0.00
    4   28   44      4.09      0.00
    4   28   52     11.24      0.00
    3   27   53     -4.85      0.00
    3   27   51      4.10      0.00
    3   27   47     -4.07      0.00
    3   27   35     -7.00      0.00
    3   27   27     14.07      0.00
    3   27   49     -4.25      0.00
    2   26   52      5.49      0.00
    1   25   53     15.23      0.00
    1   25   51      7.96      0.00
    0   24   52      8.09      0.00
    0   24   50     13.54      0.00
    0   24   48      5.27      0.00
    0   24   46     11.87      0.00
    0   24   24      8.19      0.00
    0   24   54     -8.63      0.00
    4   20   54     10.27      0.00
    5   19   51      2.25      0.00
    7   17   53      2.58      0.00
    9   15   55     -3.00      0.00
    8   16   54      8.29      0.00
    7   17   55    -14.55      0.00
    2   22   56    -17.11      0.00
    0   26   52      1.28      0.00
   23   23   49     17.38      0.00
   22   22   48      3.81      0.00
   19   33   45     13.69      0.00
   14   40   42    -18.27      0.00
   14   40   44    -15.84      0.00
   12   38   38      6.68      0.00
   11   37   43    -14.18      0.00
   10   36   44     18.39      0.00
    9   35   47     13.52      0.00
    8   34   48     26.68      0.00
    7   33   47      3.53      0.00
    5   31   49      5.52      0.00
    5   31   45      0.51      0.00
    4   30   52    -21.00      0.00
    3   29   53     10.22      0.00
    2   28   52    -12.47      0.00
    2   28   48    -10.07      0.00
    2   28   50     -5.21      0.00
    1   27   33     -1.35      0.00
    1   27   51      5.58      0.00
    1   27   53      8.83      0.00
    0   26   50    -13.04      0.00
    0   26   48     24.42      0.00
    0   26   46     11.14      0.00
    0   26   26     55.63      0.00
    5   21   53     14.04      0.00
    5   21   55     11.31      0.00
    6   20   54      0.19      0.00
    7   19   53     11.96      0.00
    7   19   55     42.80      0.00
    8   18   52     -6.00      0.00
    9   17   55      6.27      0.00
   10   16   54     10.40      0.00
    0   26   54      8.95      0.00
    4   30   50     -2.76      0.00
   10   36   46      0.93      0.00
   13   39   43    -32.45      0.00
   11   25   53     16.37      0.00
    5   25   53     -5.13      0.00
    9   23   51     14.21      0.00
   11   23   51      1.84      0.00
    8   22   50      7.99      0.00
   18   34   46    -16.69      0.00
   17   31   45     -0.13      0.00
   15   39   43     -0.66      0.00
   13   41   41      1.52      0.00
   12   40   42    -13.82      0.00
   11   39   43    -14.80      0.00
   11   39   45    -10.79      0.00
    9   37   45      5.39      0.00
    9   37   37    -11.42      0.00
    8   36   38     -4.53      0.00
    6   34   46      1.74      0.00
    6   34   44      5.93      0.00
    5   33   49     -2.88      0.00
    5   33   47      7.52      0.00
    5   33   45     -2.12      0.00
    5   33   43     13.94      0.00
    4   32   50     -2.74      0.00
    4   32   46     -1.55      0.00
    4   32   38     -5.38      0.00
    4   32   48    -20.05      0.00
    3   31   49     12.68      0.00
    2   30   50      1.28      0.00
    2   30   48      5.24      0.00
    1   29   53     16.67      0.00
    1   29   51     -2.89      0.00
    1   29   47    -15.00      0.00
    1   29   45      3.63      0.00
    0   28   50    -12.54      0.00
    0   28   44      9.30      0.00
    0   28   28     32.48      0.00
    0   28   48      1.71      0.00
    2   26   54    -31.37      0.00
    7   21   55      0.34      0.00
    7   21   53     11.60      0.00
    8   20   52     -2.68      0.00
   10   18   54      1.17      0.00
    0   28   52     -4.29      0.00
    6   34   48    -10.80      0.00
    8   36   48      6.64      0.00
    8   36   46     13.34      0.00
    8   24   54      3.04      0.00
    9   21   51      3.65      0.00
   17   31   47     12.46      0.00
   16   36   46    -29.20      0.00
   15   31   45     -6.04      0.00
   14   38   44    -13.27      0.00
    9   39   45    -23.22      0.00
    8   38   44      4.34      0.00
    8   38   42      0.44      0.00
    7   37   43      5.37      0.00
    7   37   45     -0.57      0.00
    7   37   47     25.81      0.00
    6   36   44      2.47      0.00
    6   36   46    -11.14      0.00
    5   35   47    -15.18      0.00
    4   34   40     -1.67      0.00
    4   34   48    -10.65      0.00
    3   33   47     -0.22      0.00
    3   33   45      0.02      0.00
    2   32   48     -1.58      0.00
    2   32   46     -0.09      0.00
    2   32   50    -10.37      0.00
    1   31   49     -6.54      0.00
    1   31   45     -7.31      0.00
    0   30   52     -4.37      0.00
    0   30   48     -8.15      0.00
    0   30   38      3.08      0.00
    0   30   30     17.65      0.00
    0   30   50    -11.07      0.00
    6   24   52      2.06      0.00
    7   23   53     20.21      0.00
    8   22   54    -20.68      0.00
    9   21   53     -2.22      0.00
   11   19   55      4.44      0.00
   11   19   53      8.03      0.00
   14   16   52      7.98      0.00
   13   17   51    -12.81      0.00
    7   23   55    -14.05      0.00
    9   39   43      7.42      0.00
   10   40   42     -1.11      0.00
   11   41   41     -8.80      0.00
    9   23   53     -8.53      0.00
   17   29   49     -1.07      0.00
   16   24   48    -18.99      0.00
   13   39   45     11.46      0.00
   12   40   44    -13.19      0.00
    8   40   42     -4.14      0.00
    6   38   42      1.01      0.00
    5   37   45      3.27      0.00
    5   37   43     10.87      0.00
    5   37   47    -26.84      0.00
    4   36   46     -5.87      0.00
    3   35   47      2.51      0.00
    2   34   48     -6.30      0.00
    1   33   47     -0.88      0.00
    1   33   45      1.45      0.00
    1   33   49     -8.96      0.00
    0   32   46      4.44      0.00
    0   32   44      5.28      0.00
    0   32   32     12.53      0.00
    0   32   50    -13.30      0.00
    6   26   52    -16.08      0.00
   10   22   54    -18.92      0.00
   10   22   52      7.74      0.00
   11   21   53    -25.54      0.00
    6   26   54      7.71      0.00
    1   31   51     18.45      0.00
    9   41   41      1.03      0.00
   17   17   51     16.81      0.00
   15   23   49     18.36      0.00
   11   41   45     -0.02      0.00
    6   40   42     -2.14      0.00
    6   40   40      6.42      0.00
    6   40   44    -17.59      0.00
    5   39   41     -2.76      0.00
    4   38   42     -3.27      0.00
    4   38   44      2.87      0.00
    3   37   45      3.51      0.00
    3   37   43     -5.90      0.00
    2   36   44    -11.46      0.00
    2   36   46     -3.36      0.00
    1   35   47     -8.98      0.00
    1   35   49      1.11      0.00
    0   34   48      4.57      0.00
    0   34   46    -11.26      0.00
    0   34   44     -0.13      0.00
    0   34   40     27.15      0.00
    3   31   51     -6.74      0.00
    9   25   53     -1.35      0.00
   10   24   50     -1.71      0.00
   11   23   53      9.28      0.00
   11   23   49     17.35      0.00
   12   22   52     -5.49      0.00
   14   20   52    -11.10      0.00
   10   24   52    -12.57      0.00
    7   27   53    -25.36      0.00
   17   17   53     13.25      0.00
   13   25   49     -9.92      0.00
   11   35   47    -14.23      0.00
    7   43   43     -1.35      0.00
    5   41   41      2.12      0.00
    5   41   45    -11.16      0.00
    3   39   43     15.82      0.00
    2   38   44      8.13      0.00
    2   38   42     -9.92      0.00
    1   37   45     -7.88      0.00
    0   36   46    -19.01      0.00
    0   36   36     15.69      0.00
    2   34   50      7.99      0.00
    3   33   49     -4.41      0.00
    7   29   51      8.14      0.00
   11   25   51     -3.21      0.00
   12   24   52    -13.30      0.00
   13   23   51    -15.30      0.00
   14   22   52     -4.81      0.00
   15   21   51     -1.78      0.00
    6   30   52      7.27      0.00
    5   31   51     -1.10      0.00
    4   40   42      2.59      0.00
   12   34   48    -10.86      0.00
   12   18   54      6.50      0.00
    1   19   57    -17.08      0.00
   15   17   53     -0.61      0.00
    2   40   42      2.18      0.00
    1   39   41    -10.79      0.00
    1   39   39     13.54      0.00
    1   39   43     -4.33      0.00
    0   38   44      5.34      0.00
    0   38   38     16.00      0.00
    9   29   53      0.48      0.00
    9   29   49     17.90      0.00
   10   28   52     -2.13      0.00
   12   26   50     -8.94      0.00
   15   23   51      0.50      0.00
   14   18   52    -13.01      0.00
   13   15   53    -19.48      0.00
    0   40   40     -7.34      0.00
    8   32   50    -17.92      0.00
   10   30   50     -5.05      0.00
   11   29   49     -2.38      0.00
   13   27   53    -16.56      0.00
   16   24   52    -55.69      0.00
   16   24   50     31.46      0.00
   20   20   48     -3.23      0.00
   12   20   52      8.24      0.00
    0   38   42    -17.67      0.00
    0   40   42      1.06      0.00
    1   41   41    -14.70      0.00
    9   33   49      8.53      0.00
   13   29   49      2.76      0.00
   14   28   48     -6.98      0.00
   17   25   53      6.26      0.00
   18   24   48     20.41      0.00
   21   21   51    -11.28      0.00
   21   21   49     22.22      0.00
   17   25   49     -7.00      0.00
    9   27   53    -40.02      0.00
    6   32   50      1.42      0.00
   16   28   54    -14.63      0.00
   18   26   54      6.48      0.00
   19   25   47     -4.12      0.00
   20   24   50      9.81      0.00
   22   22   52      7.22      0.00
   16   28   48      8.85      0.00
   10   10   54    -12.08      0.00
    9   19   55     29.03      0.00
   20   26   54     13.42      0.00
   22   24   52     14.83      0.00
    5   19   53     -0.42      0.00
   11   37   45      7.97      0.00
   13   35   45     13.34      0.00
   23   25   53      6.49      0.00
   16   32   48     -6.46      0.00
    3   29   51     18.94      0.00
    7   19   57     14.45      0.00
    5   19   55    -13.82      0.00
    5   39   45      0.23      0.00
   10   40   46    -14.77      0.00
   20   30   46      0.01      0.00
   15   35   47      3.88      0.00
    4   22   56    -24.56      0.00
    3   21   55    -52.41      0.00
    9   43   43      9.25      0.00
   10   42   42      9.69      0.00
   11   41   43     14.44      0.00
   12   40   46    -12.73      0.00
    4    4   58      2.01      0.00
    2   30   52     12.80      0.00
   20   34   46    -13.76      0.00
   20   34   48    -22.10      0.00
   25   29   47     16.47      0.00
   19   35   45      7.50      0.00
    2    4   60     -5.15      0.00
    0   22   56      5.19      0.00
    1   25   55     -1.14      0.00
   10   38   46     -5.89      0.00
   15   41   41    -28.17      0.00
   16   40   44      6.47      0.00
   24   32   48      2.63      0.00
   28   28   42    -18.35      0.00
   25   31   43     20.90      0.00
   24   32   42     22.61      0.00
   19   37   45      5.40      0.00
    0   14   56     -4.79      0.00
    4   26   54     -4.45      0.00
   10   36   48      7.71      0.00
   16   40   42     21.84      0.00
   19   39   39      1.63      0.00
   25   33   41    -17.22      0.00
   28   30   48    -36.37      0.00
   25   33   43     11.30      0.00
   13   37   45    -30.13      0.00
    0    4   60     33.28      0.00
    5   23   55    -22.70      0.00
   17   39   43      1.63      0.00
   20   40   40     11.82      0.00
   26   34   42    -17.34      0.00
   29   31   37      8.25      0.00
   29   31   41    -14.45      0.00
   27   33   47      1.93      0.00
   24   36   42     -4.30      0.00
   15   39   45     -5.53      0.00
    4   18   56      1.93      0.00
    8   26   54      3.35      0.00
   12   28   50     -0.56      0.00
   14   30   48      3.94      0.00
   21   37   41     -7.89      0.00
   24   38   38      2.47      0.00
   27   35   35     13.21      0.00
   27   35   39      7.22      0.00
   31   31   37    -10.04      0.00
   28   34   40      1.41      0.00
    8   18   54    -21.72      0.00
    6   14   56    -13.88      0.00
    6    6   58     15.03      0.00
   18   36   46      6.85      0.00
   21   35   43    -24.58      0.00
   24   38   40     -8.79      0.00
   27   35   37      6.47      0.00
   26   38   38     -2.28      0.00
   25   37   39    -14.97      0.00
   17   27   47      9.04      0.00
    2   10   56     -2.43      0.00
   16   22   50     34.79      0.00
   18   36   48    -19.51      0.00
   25   37   41     -0.10      0.00
   14   14   52     14.63      0.00
    1   11   57    -18.11      0.00
   22   24   46     36.54      0.00
   23   35   45     30.33      0.00
   24   34   44     31.70      0.00
   25   25   43     -2.12      0.00
   32   34   36    -29.22      0.00
   32   34   34    -16.75      0.00
   19   29   49    -16.20      0.00
    2   12   58    -16.59      0.00
    6   12   58      1.76      0.00
    1   13   57     14.45      0.00
   17   21   53     -0.52      0.00
   21   27   49      2.37      0.00
   24   30   46      2.98      0.00
   25   27   47    -16.17      0.00
   12   20   54     12.86      0.00
    3   19   57     -2.57      0.00
   25   29   49     15.32      0.00
   26   32   46     -5.46      0.00
   22   36   42     11.67      0.00
    4   24   54    -40.95      0.00
    9   29   51    -23.12      0.00
   19   33   47     27.22      0.00
   10   34   48     -8.40      0.00
   18   38   44    -11.88      0.00
   16   38   44      3.88      0.00
   18   40   42     11.63      0.00
   12   36   48     -8.40      0.00
    9   37   47    -48.50      0.00
   13   37   47     27.22      0.00
   18   42   42     12.41      0.00
    9   41   43     -9.36      0.00
    8   40   44     19.72      0.00
    7   39   45     24.30      0.00
   14   38   46    -11.09      0.00
   10   42   44     -2.97      0.00
    8   42   44     -4.41      0.00
    7   41   45     15.12      0.00
    6   40   46      2.53      0.00
    1    1    1   -910.83      0.00
    0    0    2   -748.61      0.00
    2    2    2     91.94      0.00
    3    3    3    270.12      0.00
   34   34   34     -8.66      0.00
   31   35   35    -11.13      0.00
   33   35   35      2.29      0.00
   35   35   35     -8.01      0.00
   34   34   36     13.60      0.00
   28   36   36      8.68      0.00
   30   36   36    -15.24      0.00
   32   36   36     10.74      0.00
   33   33   37      6.83      0.00
   31   35   37     31.79      0.00
   33   35   37      1.90      0.00
   27   37   37     10.19      0.00
   29   37   37      6.66      0.00
   32   32   38    -18.51      0.00
   32   34   38     15.55      0.00
   28   36   38    -16.14      0.00
   30   36   38     13.91      0.00
   28   38   38     13.39      0.00
   31   31   39    -34.28      0.00
   31   33   39    -19.74      0.00
   29   35   39      3.76      0.00
   27   37   39      5.68      0.00
   23   39   39      2.49      0.00
   25   39   39      1.79      0.00
   30   30   40     19.37      0.00
   30   32   40      0.99      0.00
   26   36   40    -21.98      0.00
   22   40   40      0.34      0.00
   29   29   41     16.97      0.00
   27   33   41    -18.73      0.00
   25   35   41     -8.29      0.00
    3   41   41    -15.24      0.00
   17   41   41    -13.46      0.00
   20   38   42      7.84      0.00
    0   42   42     47.45      0.00
    2   42   42     -1.81      0.00
    4   42   42     -9.35      0.00
    6   42   42     -7.62      0.00
    8   42   42     -0.67      0.00
   12   42   42      5.25      0.00
   29   31   43      8.61      0.00
   27   33   43    -15.37      0.00
   23   35   43     19.75      0.00
   21   37   43      7.63      0.00
    1   41   43      9.35      0.00
    3   41   43    -36.88      0.00
    5   41   43     29.87      0.00
    7   41   43     -7.24      0.00
   28   30   44     -0.64      0.00
   24   32   44     16.28      0.00
   26   32   44     36.69      0.00
    0   40   44     23.43      0.00
    2   40   44     13.34      0.00
    4   40   44    -17.22      0.00
   10   40   44     -2.71      0.00
   27   27   45    -14.48      0.00
   23   29   45      9.06      0.00
   27   29   45      2.07      0.00
   23   31   45    -21.55      0.00
   25   31   45      7.85      0.00
    1   39   45      7.23      0.00
    3   39   45     -5.98      0.00
   24   26   46    -13.37      0.00
   26   26   46     -4.92      0.00
   28   28   46    -10.30      0.00
   18   32   46      2.75      0.00
    0   38   46      6.63      0.00
    2   38   46     14.57      0.00
    4   38   46    -16.35      0.00
    6   38   46     -9.31      0.00
    8   38   46      4.77      0.00
   23   23   47    -34.00      0.00
   23   25   47     16.45      0.00
   25   25   47    -22.34      0.00
   27   27   47      8.81      0.00
   19   31   47     -6.25      0.00
   17   33   47     14.20      0.00
    1   37   47     -0.81      0.00
    3   37   47    -13.12      0.00
   22   24   48     -3.92      0.00
   24   24   48     45.67      0.00
   18   26   48      0.80      0.00
   22   26   48     38.37      0.00
   26   26   48     -5.27      0.00
   24   28   48     -6.13      0.00
   20   30   48    -18.09      0.00
   18   32   48     -7.10      0.00
   14   34   48     -2.18      0.00
    0   36   48      2.50      0.00
    2   36   48     -5.29      0.00
    4   36   48    -27.76      0.00
    6   36   48     -3.39      0.00
   21   25   49     11.64      0.00
   25   25   49     -2.70      0.00
   15   27   49    -22.47      0.00
   19   27   49     12.57      0.00
   23   27   49     -2.05      0.00
   21   29   49    -16.44      0.00
   17   31   49     -4.75      0.00
    7   33   49      8.64      0.00
   11   33   49     -7.54      0.00
   13   33   49      4.67      0.00
    3   35   49    -22.69      0.00
    5   35   49     -2.03      0.00
    7   35   49     15.66      0.00
   22   22   50     -6.58      0.00
   22   24   50    -15.24      0.00
   24   24   50     15.37      0.00
   18   26   50     -0.02      0.00
   22   26   50    -16.44      0.00
   20   28   50    -19.88      0.00
   12   30   50     -5.37      0.00
   14   30   50    -17.62      0.00
   16   30   50     10.21      0.00
   10   32   50      0.34      0.00
   12   32   50      7.56      0.00
    0   34   50      7.41      0.00
    4   34   50    -14.02      0.00
   17   19   51     -9.03      0.00
   19   19   51    -19.70      0.00
   13   21   51    -34.43      0.00
   17   21   51    -10.47      0.00
   19   21   51    -11.10      0.00
   17   23   51    -21.80      0.00
   21   23   51     48.16      0.00
   23   23   51    -11.27      0.00
   13   25   51    -11.98      0.00
   17   25   51    -28.65      0.00
   13   27   51    -17.62      0.00
   15   27   51    -10.63      0.00
   17   27   51     32.26      0.00
   11   29   51      6.07      0.00
   13   29   51     14.04      0.00
   15   29   51      0.73      0.00
    7   31   51    -11.09      0.00
    9   31   51      4.99      0.00
   11   31   51     -4.76      0.00
   16   16   52     -3.68      0.00
   16   18   52     -0.90      0.00
   18   18   52     -4.83      0.00
   18   20   52     19.84      0.00
   20   20   52     15.98      0.00
   16   22   52     -3.52      0.00
   20   22   52      0.76      0.00
   14   24   52     10.39      0.00
   20   24   52      4.69      0.00
   12   26   52      7.30      0.00
   14   26   52    -15.65      0.00
   16   26   52     17.38      0.00
   12   28   52      9.05      0.00
   14   28   52    -23.52      0.00
    8   30   52     -6.03      0.00
   13   13   53      8.53      0.00
   15   15   53     49.40      0.00
   13   19   53     -4.16      0.00
   15   19   53     31.39      0.00
   17   19   53     11.71      0.00
   19   19   53    -13.32      0.00
   13   21   53      9.81      0.00
   15   21   53     -4.12      0.00
   19   21   53    -26.94      0.00
   13   23   53     -0.81      0.00
   15   23   53    -16.18      0.00
   17   23   53    -27.23      0.00
   13   25   53     -6.65      0.00
   15   25   53      3.69      0.00
   11   27   53     -8.44      0.00
    5   29   53     -9.25      0.00
   10   14   54     16.14      0.00
   12   14   54    -32.38      0.00
   14   14   54     35.06      0.00
   12   16   54     -3.96      0.00
   14   16   54     16.50      0.00
   16   16   54     34.72      0.00
   14   18   54     -4.26      0.00
   16   18   54     -8.71      0.00
   18   18   54     20.47      0.00
   10   20   54    -11.92      0.00
   14   20   54     12.28      0.00
   16   20   54    -16.25      0.00
   18   20   54     -2.22      0.00
   12   22   54     41.22      0.00
   14   22   54     -0.49      0.00
   16   22   54     -8.03      0.00
   10   24   54     11.41      0.00
   12   24   54      2.29      0.00
   11   11   55      1.30      0.00
    9   13   55     -4.35      0.00
   11   13   55      8.54      0.00
    7   15   55    -25.46      0.00
   11   15   55    -12.89      0.00
   13   15   55      5.49      0.00
   15   15   55    -14.68      0.00
   11   17   55     32.52      0.00
   13   17   55      5.65      0.00
   15   17   55     18.73      0.00
   17   17   55     -6.68      0.00
   13   19   55     24.20      0.00
   15   19   55     -8.09      0.00
   17   19   55     20.99      0.00
    9   21   55    -21.72      0.00
   11   21   55      8.49      0.00
   13   21   55    -24.72      0.00
    9   23   55     -7.03      0.00
   11   23   55     20.86      0.00
    3   25   55      3.86      0.00
    5   25   55    -17.19      0.00
    8    8   56     33.39      0.00
    0   10   56    -11.61      0.00
   10   10   56     -5.43      0.00
    6   12   56     -4.15      0.00
    8   12   56     10.43      0.00
   12   12   56      7.73      0.00
    4   14   56    -11.27      0.00
    8   14   56     20.80      0.00
   10   14   56     30.22      0.00
   12   14   56      0.30      0.00
   14   14   56    -10.17      0.00
    0   16   56     21.65      0.00
    4   16   56      0.92      0.00
    8   16   56    -21.02      0.00
   10   16   56     20.92      0.00
   12   16   56      5.22      0.00
   14   16   56     -4.57      0.00
   16   16   56      8.03      0.00
    0   18   56    -18.24      0.00
    6   18   56    -10.87      0.00
    8   18   56     24.25      0.00
   10   18   56     -8.58      0.00
   12   18   56     -5.17      0.00
   14   18   56      0.63      0.00
    0   20   56     -2.56      0.00
    6   20   56     30.77      0.00
    8   20   56    -23.51      0.00
   10   20   56    -11.87      0.00
   12   20   56      8.36      0.00
    6   22   56      1.84      0.00
    8   22   56    -20.77      0.00
    7    7   57     11.06      0.00
    9    9   57    -17.10      0.00
    9   11   57     21.57      0.00
   11   11   57      5.46      0.00
    5   13   57      3.26      0.00
    7   13   57    -10.69      0.00
    9   13   57     14.86      0.00
   11   13   57      5.40      0.00
   13   13   57     -0.98      0.00
    1   15   57      9.64      0.00
    3   15   57      8.86      0.00
    5   15   57     11.91      0.00
    7   15   57    -12.35      0.00
    9   15   57    -19.67      0.00
   11   15   57     13.21      0.00
   13   15   57     15.25      0.00
    1   17   57    -20.66      0.00
    3   17   57     16.58      0.00
    5   17   57     11.44      0.00
    7   17   57     16.04      0.00
    9   17   57     -1.18      0.00
   11   17   57     11.80      0.00
    5   19   57     27.77      0.00
    0    0   58     16.50      0.00
    0    6   58    -15.63      0.00
    6    8   58     12.43      0.00
    8    8   58      7.41      0.00
    0   10   58    -10.90      0.00
    6   10   58     10.73      0.00
    8   10   58      0.50      0.00
   10   10   58     16.68      0.00
    0   12   58    -22.11      0.00
    4   12   58      1.56      0.00
    8   12   58      8.64      0.00
   10   12   58     -1.77      0.00
   12   12   58      3.37      0.00
    0   14   58      6.89      0.00
    2   14   58    -12.15      0.00
    4   14   58    -21.04      0.00
    6   14   58     11.70      0.00
    8   14   58     -4.50      0.00
   10   14   58     -0.66      0.00
    0   16   58     13.78      0.00
    2   16   58     -2.77      0.00
    4   16   58     -9.34      0.00
    6   16   58     -0.38      0.00
    8   16   58     13.74      0.00
    3    3   59    -74.18      0.00
    3    5   59     11.70      0.00
    5    5   59      7.34      0.00
    7    7   59      3.53      0.00
    1    9   59     14.14      0.00
    3    9   59    -17.07      0.00
    5    9   59     14.49      0.00
    7    9   59     -2.53      0.00
    9    9   59     26.75      0.00
    1   11   59     -4.19      0.00
    3   11   59      2.29      0.00
    5   11   59    -13.41      0.00
    7   11   59      8.85      0.00
    9   11   59     -9.70      0.00
    1   13   59     16.59      0.00
    3   13   59      5.29      0.00
    5   13   59      2.35      0.00
    2    2   60     -3.30      0.00
    4    4   60    -16.76      0.00
    0    6   60    -22.92      0.00
    2    6   60     16.99      0.00
    4    6   60     24.33      0.00
    6    6   60    -11.23      0.00
    0    8   60    -21.23      0.00
    4    8   60    -23.77      0.00
    0    0    0      0.00      0.00
# SQUEEZE RESULTS (Version =  30715)
# Note: Data are Listed for all Voids in the P1 Unit Cell
# i.e. Centre of Gravity, Solvent Accessible Volume,
# Recovered number of Electrons in the Void and
# Details about the Squeezed Material
loop_
  _platon_squeeze_void_nr
  _platon_squeeze_void_average_x
  _platon_squeeze_void_average_y
  _platon_squeeze_void_average_z
  _platon_squeeze_void_volume
  _platon_squeeze_void_count_electrons
  _platon_squeeze_void_content
   1 -0.003 -0.006 -0.004     78245     16235 ' '
# Missing Reflections Below sin(th)/lambda = 0.25
loop_
  _platon_missing_refln_index_h
  _platon_missing_refln_index_k
  _platon_missing_refln_index_l
  _platon_missing_refln_theta
    1    1    1     0.759
    0    0    2     0.877
    2    2    2     1.518
    3    3    3     2.278
_platon_squeeze_void_probe_radius                  1.20
_platon_squeeze_details
)
TITL Fm-3m_a.res in Fm-3m
CELL   46.4550   46.4550   46.4550     90.00     90.00     90.00
SPGR Fm-3m
# Solvent Accessible Volume =   78557.4
# Electrons Found in S.A.V. =   15957.4
# Note: Atoms in Void as Cxxx and Qxxx all others
C101 1.000 0.500 0.000 !       6.46 eA-3
C102 0.950 0.499 0.059 !       2.52 eA-3
C103 0.414 0.086 0.000 !       2.02 eA-3
C104 0.443 0.060 0.151 !       1.83 eA-3
C105 1.000 0.499 0.043 !       1.69 eA-3
C106 0.067 0.500 0.000 !       1.47 eA-3
C107 0.303 0.056 0.696 !       1.46 eA-3
C108 0.197 0.444 0.304 !       1.46 eA-3
C109 0.697 0.444 0.804 !       1.46 eA-3
C110 0.803 0.056 0.196 !       1.46 eA-3
C111 0.697 0.695 0.947 !       1.46 eA-3
C112 0.296 0.122 0.203 !       1.31 eA-3
C113 0.390 0.110 0.110 !       1.23 eA-3
C114 0.786 0.402 0.213 !       1.20 eA-3
C115 0.786 0.215 0.077 !       1.18 eA-3
C116 0.695 0.304 0.094 !       1.14 eA-3
C117 0.692 0.426 0.192 !       1.11 eA-3
C118 0.126 0.376 0.089 !       1.08 eA-3
C119 0.314 0.186 0.120 !       1.08 eA-3
C120 0.376 0.109 0.123 !       1.05 eA-3
C121 0.796 0.203 0.110 !       1.04 eA-3
C122 0.612 0.309 0.191 !       1.04 eA-3
C123 0.821 0.128 0.180 !       1.02 eA-3
C124 0.041 0.185 0.185 !       1.00 eA-3
C125 0.474 0.027-0.001 !       0.94 eA-3
C126 0.907 0.181 0.181 !       0.94 eA-3
C127 0.171 0.112 0.173 !       0.93 eA-3
C128 0.703 0.296 0.133 !       0.91 eA-3
C129 0.074 0.176 0.176 !       0.88 eA-3
C130 0.519 0.019 0.019 !       0.88 eA-3
C131 0.773 0.086 0.224 !       0.87 eA-3
C132 1.000 0.422 0.208 !       0.86 eA-3
C133 0.101 0.266 0.234 !       0.84 eA-3
C134 0.574 0.118 0.125 !       0.80 eA-3
Q135 0.885 0.383 0.028 !       0.79 eA-3
C136 0.866 0.426 0.074 !       0.79 eA-3
C137 0.203 0.411 0.202 !       0.79 eA-3
C138 0.238 0.262 0.091 !       0.79 eA-3
C139 0.640 0.307 0.193 !       0.79 eA-3
C140 0.917 0.487 0.013 !       0.78 eA-3
C141 0.204 0.285 0.145 !       0.77 eA-3
Q142 0.833 0.485 0.219 !       0.77 eA-3
C143 0.953 0.450 0.050 !       0.77 eA-3
Q144 0.500 0.092 0.138 !       0.76 eA-3
C145 0.097 0.500 0.000 !       0.76 eA-3
C146 0.338 0.067 0.032 !       0.75 eA-3
C147 0.690 0.135 0.191 !       0.75 eA-3
C148 1.000 0.156 0.000 !       0.73 eA-3
C149 0.709 0.287 0.213 !       0.70 eA-3
C150 0.323 0.355 0.199 !       0.69 eA-3
C151 0.164 0.163 0.188 !       0.68 eA-3
C152 0.436 0.186 0.019 !       0.68 eA-3
C153 0.380 0.228 0.228 !       0.67 eA-3
C154 0.819 0.154 0.154 !       0.67 eA-3
C155 0.158 0.156 0.201 !       0.66 eA-3
C156 0.246 0.101 0.244 !       0.64 eA-3
C157 0.063 0.477 0.023 !       0.64 eA-3
C158 0.662 0.362 0.191 !       0.64 eA-3
C159 0.780 0.220 0.220 !       0.63 eA-3
C160 0.750 0.497 0.094 !       0.62 eA-3
C161 1.000 0.140 0.220 !       0.61 eA-3
C162 0.297 0.339 0.179 !       0.61 eA-3
C163 0.500 0.054 0.163 !       0.61 eA-3
C164 0.338 0.339 0.147 !       0.61 eA-3
C165 0.821 0.179 0.179 !       0.60 eA-3
C166 0.132 0.414 0.086 !       0.59 eA-3
C167 0.758 0.243 0.757 !       0.59 eA-3
C168 0.742 0.757 0.743 !       0.59 eA-3
C169 0.242 0.257 0.743 !       0.59 eA-3
C170 0.742 0.257 0.243 !       0.59 eA-3
C171 0.242 0.757 0.243 !       0.59 eA-3
C172 0.156 0.070 0.156 !       0.58 eA-3
C173 0.631 0.500 0.207 !       0.58 eA-3
C174 0.196 0.193 0.161 !       0.58 eA-3
C175 0.648 0.289 0.215 !       0.57 eA-3
C176 0.780 0.374 0.247 !       0.57 eA-3
C177 0.167 0.168 0.163 !       0.57 eA-3
C178 0.207 0.291 0.160 !       0.56 eA-3
C179 0.363 0.235 0.201 !       0.56 eA-3
C180 0.193 0.203 0.203 !       0.54 eA-3
C181 0.264 0.749 0.763 !       0.53 eA-3
C182 0.774 0.215 0.112 !       0.53 eA-3
C183 0.629 0.129 0.129 !       0.52 eA-3
C184 0.741 0.272 0.772 !       0.52 eA-3
C185 0.840 0.151 0.094 !       0.51 eA-3
C186 0.790 0.136 0.016 !       0.51 eA-3
C187 0.696 0.329 0.212 !       0.51 eA-3
C188 0.156 0.084 0.076 !       0.51 eA-3
C189 0.143 0.242 0.207 !       0.51 eA-3
C190 0.509 0.501 0.008 !       0.50 eA-3
C191 0.416 0.045 0.083 !       0.50 eA-3
)
;
_shelx_fab_checksum              67795
loop_
_space_group_symop_operation_xyz
'x, y, z'
'-x, -y, z'
'-x, y, -z'
'x, -y, -z'
'z, x, y'
'z, -x, -y'
'-z, -x, y'
'-z, x, -y'
'y, z, x'
'-y, z, -x'
'y, -z, -x'
'-y, -z, x'
'y, x, -z'
'-y, -x, -z'
'y, -x, z'
'-y, x, z'
'x, z, -y'
'-x, z, y'
'-x, -z, -y'
'x, -z, y'
'z, y, -x'
'z, -y, x'
'-z, y, x'
'-z, -y, -x'
'x, y+1/2, z+1/2'
'-x, -y+1/2, z+1/2'
'-x, y+1/2, -z+1/2'
'x, -y+1/2, -z+1/2'
'z, x+1/2, y+1/2'
'z, -x+1/2, -y+1/2'
'-z, -x+1/2, y+1/2'
'-z, x+1/2, -y+1/2'
'y, z+1/2, x+1/2'
'-y, z+1/2, -x+1/2'
'y, -z+1/2, -x+1/2'
'-y, -z+1/2, x+1/2'
'y, x+1/2, -z+1/2'
'-y, -x+1/2, -z+1/2'
'y, -x+1/2, z+1/2'
'-y, x+1/2, z+1/2'
'x, z+1/2, -y+1/2'
'-x, z+1/2, y+1/2'
'-x, -z+1/2, -y+1/2'
'x, -z+1/2, y+1/2'
'z, y+1/2, -x+1/2'
'z, -y+1/2, x+1/2'
'-z, y+1/2, x+1/2'
'-z, -y+1/2, -x+1/2'
'x+1/2, y, z+1/2'
'-x+1/2, -y, z+1/2'
'-x+1/2, y, -z+1/2'
'x+1/2, -y, -z+1/2'
'z+1/2, x, y+1/2'
'z+1/2, -x, -y+1/2'
'-z+1/2, -x, y+1/2'
'-z+1/2, x, -y+1/2'
'y+1/2, z, x+1/2'
'-y+1/2, z, -x+1/2'
'y+1/2, -z, -x+1/2'
'-y+1/2, -z, x+1/2'
'y+1/2, x, -z+1/2'
'-y+1/2, -x, -z+1/2'
'y+1/2, -x, z+1/2'
'-y+1/2, x, z+1/2'
'x+1/2, z, -y+1/2'
'-x+1/2, z, y+1/2'
'-x+1/2, -z, -y+1/2'
'x+1/2, -z, y+1/2'
'z+1/2, y, -x+1/2'
'z+1/2, -y, x+1/2'
'-z+1/2, y, x+1/2'
'-z+1/2, -y, -x+1/2'
'x+1/2, y+1/2, z'
'-x+1/2, -y+1/2, z'
'-x+1/2, y+1/2, -z'
'x+1/2, -y+1/2, -z'
'z+1/2, x+1/2, y'
'z+1/2, -x+1/2, -y'
'-z+1/2, -x+1/2, y'
'-z+1/2, x+1/2, -y'
'y+1/2, z+1/2, x'
'-y+1/2, z+1/2, -x'
'y+1/2, -z+1/2, -x'
'-y+1/2, -z+1/2, x'
'y+1/2, x+1/2, -z'
'-y+1/2, -x+1/2, -z'
'y+1/2, -x+1/2, z'
'-y+1/2, x+1/2, z'
'x+1/2, z+1/2, -y'
'-x+1/2, z+1/2, y'
'-x+1/2, -z+1/2, -y'
'x+1/2, -z+1/2, y'
'z+1/2, y+1/2, -x'
'z+1/2, -y+1/2, x'
'-z+1/2, y+1/2, x'
'-z+1/2, -y+1/2, -x'
'-x, -y, -z'
'x, y, -z'
'x, -y, z'
'-x, y, z'
'-z, -x, -y'
'-z, x, y'
'z, x, -y'
'z, -x, y'
'-y, -z, -x'
'y, -z, x'
'-y, z, x'
'y, z, -x'
'-y, -x, z'
'y, x, z'
'-y, x, -z'
'y, -x, -z'
'-x, -z, y'
'x, -z, -y'
'x, z, y'
'-x, z, -y'
'-z, -y, x'
'-z, y, -x'
'z, -y, -x'
'z, y, x'
'-x, -y+1/2, -z+1/2'
'x, y+1/2, -z+1/2'
'x, -y+1/2, z+1/2'
'-x, y+1/2, z+1/2'
'-z, -x+1/2, -y+1/2'
'-z, x+1/2, y+1/2'
'z, x+1/2, -y+1/2'
'z, -x+1/2, y+1/2'
'-y, -z+1/2, -x+1/2'
'y, -z+1/2, x+1/2'
'-y, z+1/2, x+1/2'
'y, z+1/2, -x+1/2'
'-y, -x+1/2, z+1/2'
'y, x+1/2, z+1/2'
'-y, x+1/2, -z+1/2'
'y, -x+1/2, -z+1/2'
'-x, -z+1/2, y+1/2'
'x, -z+1/2, -y+1/2'
'x, z+1/2, y+1/2'
'-x, z+1/2, -y+1/2'
'-z, -y+1/2, x+1/2'
'-z, y+1/2, -x+1/2'
'z, -y+1/2, -x+1/2'
'z, y+1/2, x+1/2'
'-x+1/2, -y, -z+1/2'
'x+1/2, y, -z+1/2'
'x+1/2, -y, z+1/2'
'-x+1/2, y, z+1/2'
'-z+1/2, -x, -y+1/2'
'-z+1/2, x, y+1/2'
'z+1/2, x, -y+1/2'
'z+1/2, -x, y+1/2'
'-y+1/2, -z, -x+1/2'
'y+1/2, -z, x+1/2'
'-y+1/2, z, x+1/2'
'y+1/2, z, -x+1/2'
'-y+1/2, -x, z+1/2'
'y+1/2, x, z+1/2'
'-y+1/2, x, -z+1/2'
'y+1/2, -x, -z+1/2'
'-x+1/2, -z, y+1/2'
'x+1/2, -z, -y+1/2'
'x+1/2, z, y+1/2'
'-x+1/2, z, -y+1/2'
'-z+1/2, -y, x+1/2'
'-z+1/2, y, -x+1/2'
'z+1/2, -y, -x+1/2'
'z+1/2, y, x+1/2'
'-x+1/2, -y+1/2, -z'
'x+1/2, y+1/2, -z'
'x+1/2, -y+1/2, z'
'-x+1/2, y+1/2, z'
'-z+1/2, -x+1/2, -y'
'-z+1/2, x+1/2, y'
'z+1/2, x+1/2, -y'
'z+1/2, -x+1/2, y'
'-y+1/2, -z+1/2, -x'
'y+1/2, -z+1/2, x'
'-y+1/2, z+1/2, x'
'y+1/2, z+1/2, -x'
'-y+1/2, -x+1/2, z'
'y+1/2, x+1/2, z'
'-y+1/2, x+1/2, -z'
'y+1/2, -x+1/2, -z'
'-x+1/2, -z+1/2, y'
'x+1/2, -z+1/2, -y'
'x+1/2, z+1/2, y'
'-x+1/2, z+1/2, -y'
'-z+1/2, -y+1/2, x'
'-z+1/2, y+1/2, -x'
'z+1/2, -y+1/2, -x'
'z+1/2, y+1/2, x'
loop_
_atom_site_label
_atom_site_type_symbol
_atom_site_fract_x
_atom_site_fract_y
_atom_site_fract_z
_atom_site_U_iso_or_equiv
_atom_site_adp_type
_atom_site_occupancy
_atom_site_site_symmetry_order
_atom_site_calc_flag
_atom_site_refinement_flags_posn
_atom_site_refinement_flags_adp
_atom_site_refinement_flags_occupancy
_atom_site_disorder_group
Cu1 Cu 0.500000 0.34184(2) 0.65816(2) 0.0606(4) Uani 1 4 d S T P .
Zn1 Zn 0.500000 0.30015(2) 0.69985(2) 0.0664(4) Uani 1 4 d S T P .
C1 C 0.53850(14) 0.34922(14) 0.70472(13) 0.116(2) Uani 1 1 d . . . .
C2 C 0.56184(16) 0.36417(16) 0.71974(16) 0.151(4) Uani 1 1 d . . . .
C3 C 0.5714(2) 0.3553(2) 0.74689(19) 0.189(4) Uani 1 1 d . U . .
H3 H 0.561560 0.340058 0.756369 0.226 Uiso 1 1 calc R U . .
C4 C 0.5942(2) 0.3677(2) 0.7601(2) 0.210(4) Uani 1 1 d . U . .
H4 H 0.601321 0.359876 0.777603 0.252 Uiso 1 1 calc R U . .
C5 C 0.6077(2) 0.3923(2) 0.7478(3) 0.169(4) Uani 1 2 d S TU P .
C6 C 0.59781(17) 0.40219(17) 0.72052(19) 0.130(4) Uani 1 2 d S T P .
C7 C 0.57516(13) 0.38805(12) 0.70756(12) 0.1045(19) Uani 1 1 d . . . .
H7 H 0.568362 0.394923 0.689534 0.125 Uiso 1 1 calc R U . .
O1 O 0.52966(6) 0.35978(6) 0.68202(6) 0.0727(8) Uani 1 1 d . . . .
O2 O 0.52988(13) 0.32621(11) 0.71496(12) 0.182(3) Uani 1 1 d . U . .
N1L N 0.500000 0.26928(8) 0.73072(8) 0.0534(13) Uani 1 4 d S T P .
C1L C 0.5149(3) 0.2798(2) 0.7569(2) 0.129(6) Uani 0.5 1 d . . P 1
C2L C 0.4706(3) 0.26193(19) 0.73807(19) 0.121(8) Uani 0.5 2 d S T P 2
O1L O 0.500000 0.37493(9) 0.62507(9) 0.099(2) Uani 1 4 d S T P .
loop_
_atom_site_aniso_label
_atom_site_aniso_U_11
_atom_site_aniso_U_22
_atom_site_aniso_U_33
_atom_site_aniso_U_23
_atom_site_aniso_U_13
_atom_site_aniso_U_12
Cu1 0.0560(5) 0.0629(4) 0.0629(4) 0.0233(4) 0.000 0.000
Zn1 0.0638(6) 0.0676(5) 0.0676(5) 0.0300(4) 0.000 0.000
C1 0.128(5) 0.107(4) 0.112(4) 0.066(3) -0.046(4) -0.059(4)
C2 0.166(6) 0.145(6) 0.141(5) 0.097(5) -0.085(5) -0.088(5)
C3 0.213(7) 0.188(6) 0.164(6) 0.095(5) -0.084(5) -0.100(6)
C4 0.230(8) 0.213(7) 0.188(7) 0.125(6) -0.100(6) -0.098(6)
C5 0.176(5) 0.176(5) 0.156(7) 0.069(5) -0.069(5) -0.071(6)
C6 0.138(5) 0.138(5) 0.115(6) 0.074(5) -0.074(5) -0.071(6)
C7 0.110(4) 0.102(4) 0.102(4) 0.054(3) -0.043(3) -0.039(3)
O1 0.0653(16) 0.0706(17) 0.0821(19) 0.0283(15) -0.0078(14) -0.0136(13)
O2 0.218(5) 0.152(4) 0.175(4) 0.108(3) -0.109(4) -0.118(4)
N1L 0.043(3) 0.059(2) 0.059(2) 0.015(3) 0.000 0.000
C1L 0.209(16) 0.090(7) 0.089(7) 0.051(6) -0.075(8) -0.066(8)
C2L 0.047(7) 0.157(14) 0.157(14) 0.120(16) 0.002(3) -0.002(3)
O1L 0.131(6) 0.082(3) 0.082(3) 0.032(3) 0.000 0.000
loop_
_atom_type_symbol
_atom_type_description
_atom_type_scat_dispersion_real
_atom_type_scat_dispersion_imag
_atom_type_scat_source
C C 0.0030 0.0016 'International Tables Vol C Tables 4.2.6.8 and 6.1.1.4'
H H 0.0000 0.0000 'International Tables Vol C Tables 4.2.6.8 and 6.1.1.4'
N N 0.0059 0.0032 'International Tables Vol C Tables 4.2.6.8 and 6.1.1.4'
O O 0.0105 0.0059 'International Tables Vol C Tables 4.2.6.8 and 6.1.1.4'
Cu Cu 0.3320 1.2369 'International Tables Vol C Tables 4.2.6.8 and 6.1.1.4'
Zn Zn 0.2992 1.4004 'International Tables Vol C Tables 4.2.6.8 and 6.1.1.4'
loop_
_geom_angle_atom_site_label_1
_geom_angle_atom_site_label_2
_geom_angle_atom_site_label_3
_geom_angle
_geom_angle_site_symmetry_1
_geom_angle_site_symmetry_3
O1 Cu1 O1 89.25(18) 100_655 19_666
O1 Cu1 O1 168.57(15) 100_655 114_566
O1 Cu1 O1 89.62(18) 19_666 114_566
O1 Cu1 O1 89.62(18) 100_655 .
O1 Cu1 O1 168.57(15) 19_666 .
O1 Cu1 O1 89.24(18) 114_566 .
O1 Cu1 O1L 95.72(8) 100_655 .
O1 Cu1 O1L 95.72(8) 19_666 .
O1 Cu1 O1L 95.72(8) 114_566 .
O1 Cu1 O1L 95.72(8) . .
O1 Cu1 Zn1 84.28(8) 100_655 .
O1 Cu1 Zn1 84.28(8) 19_666 .
O1 Cu1 Zn1 84.28(8) 114_566 .
O1 Cu1 Zn1 84.28(8) . .
O1L Cu1 Zn1 180.00(16) . .
O2 Zn1 O2 89.5(4) 19_666 114_566
O2 Zn1 O2 86.7(4) 19_666 100_655
O2 Zn1 O2 159.0(2) 114_566 100_655
O2 Zn1 O2 159.0(2) 19_666 .
O2 Zn1 O2 86.7(4) 114_566 .
O2 Zn1 O2 89.5(4) 100_655 .
O2 Zn1 N1L 100.52(12) 19_666 .
O2 Zn1 N1L 100.52(12) 114_566 .
O2 Zn1 N1L 100.52(12) 100_655 .
O2 Zn1 N1L 100.51(11) . .
O2 Zn1 Cu1 79.48(12) 19_666 .
O2 Zn1 Cu1 79.48(12) 114_566 .
O2 Zn1 Cu1 79.48(12) 100_655 .
O2 Zn1 Cu1 79.49(11) . .
N1L Zn1 Cu1 180.00(15) . .
O1 C1 O2 124.4(5) . .
O1 C1 C2 117.7(4) . .
O2 C1 C2 117.8(5) . .
C7 C2 C3 117.4(6) . .
C7 C2 C1 120.9(5) . .
C3 C2 C1 121.6(5) . .
C4 C3 C2 122.1(7) . .
C4 C3 H3 119.0 . .
C2 C3 H3 119.0 . .
C3 C4 C5 120.4(7) . .
C3 C4 H4 119.8 . .
C5 C4 H4 119.8 . .
C4 C5 C4 123.1(10) 109_665 .
C4 C5 C6 118.3(5) 109_665 .
C4 C5 C6 118.3(5) . .
C7 C6 C7 122.4(6) . 109_665
C7 C6 C5 118.8(3) . .
C7 C6 C5 118.8(3) 109_665 .
C6 C7 C2 122.8(5) . .
C6 C7 H7 118.6 . .
C2 C7 H7 118.6 . .
C1 O1 Cu1 123.4(3) . .
C1 O2 Zn1 128.5(4) . .
C2L N1L C2L 141.1(11) . 100_655
C2L N1L C1L 56.3(6) . 19_666
C2L N1L C1L 108.9(6) 100_655 19_666
C2L N1L C1L 108.9(6) . 114_566
C2L N1L C1L 56.3(6) 100_655 114_566
C1L N1L C1L 55.6(12) 19_666 114_566
C2L N1L C1L 56.3(6) . 100_655
C2L N1L C1L 108.9(6) 100_655 100_655
C1L N1L C1L 109.0(11) 19_666 100_655
C1L N1L C1L 139.5(8) 114_566 100_655
C1L N1L C1L 139.5(8) 19_666 .
C1L N1L C1L 109.0(11) 114_566 .
C1L N1L C1L 55.6(12) 100_655 .
C2L N1L Zn1 109.5(5) . .
C2L N1L Zn1 109.5(5) 100_655 .
C1L N1L Zn1 110.2(4) 19_666 .
C1L N1L Zn1 110.2(4) 114_566 .
C1L N1L Zn1 110.2(4) 100_655 .
C1L N1L Zn1 110.2(4) . .
C1L C1L N1L 62.2(6) 100_655 .
C1L C1L C1L 89.998(3) 100_655 139_545
N1L C1L C1L 110.2(4) . 139_545
N1L C2L C2L 109.5(5) . 28_556
loop_
_geom_bond_atom_site_label_1
_geom_bond_atom_site_label_2
_geom_bond_distance
_geom_bond_site_symmetry_2
Cu1 O1 1.955(3) 100_655
Cu1 O1 1.955(3) 19_666
Cu1 O1 1.955(3) 114_566
Cu1 O1 1.955(3) .
Cu1 O1L 2.174(6) .
Cu1 Zn1 2.7391(12) .
Zn1 O2 1.971(4) 19_666
Zn1 O2 1.971(4) 114_566
Zn1 O2 1.971(4) 100_655
Zn1 O2 1.971(4) .
Zn1 N1L 2.028(5) .
C1 O1 1.233(5) .
C1 O2 1.237(6) .
C1 C2 1.464(8) .
C2 C7 1.391(7) .
C2 C3 1.400(9) .
C3 C4 1.353(10) .
C3 H3 0.9500 .
C4 C5 1.423(8) .
C4 H4 0.9500 .
C5 C6 1.425(12) .
C6 C7 1.379(6) .
C6 C7 1.379(6) 109_665
C7 H7 0.9500 .
N1L C2L 1.448(13) .
N1L C2L 1.448(13) 100_655
N1L C1L 1.480(10) 19_666
N1L C1L 1.480(10) 114_566
N1L C1L 1.480(10) 100_655
N1L C1L 1.480(10) .
C1L C1L 1.38(3) 100_655
C1L C1L 1.509(17) 139_545
C2L C2L 1.57(2) 28_556
