#------------------------------------------------------------------------------
#$Date: 2019-06-14 11:52:28 +0300 (Fri, 14 Jun 2019) $
#$Revision: 215964 $
#$URL: file:///home/coder/svn-repositories/cod/cif/1/55/14/1551426.cif $
#------------------------------------------------------------------------------
#
# This file is available in the Crystallography Open Database (COD),
# http://www.crystallography.net/
#
# All data on this site have been placed in the public domain by the
# contributors.
#
data_1551426
loop_
_publ_author_name
'Ren-Wu Huang'
'Yong-Sheng Wei'
'Xi-Yan Dong'
'Xiao-Hui Wu'
'Chen-Xia Du'
'Shuang-Quan Zang'
'Thomas C. W. Mak'
_publ_section_title
;
 Hypersensitive dual-function luminescence switching of a
 silver-chalcogenolate cluster-based metal-organic framework
;
_journal_name_full               'Nature Chemistry'
_journal_page_first              689
_journal_page_last               697
_journal_paper_doi               10.1038/nchem.2718
_journal_volume                  9
_journal_year                    2017
_chemical_absolute_configuration ad
_chemical_formula_moiety         'C80 H104 Ag12 F12 N8 O6 S8, 1.2(C2 H3 N)'
_chemical_formula_sum            'C82.4 H107.6 Ag12 F12 N9.2 O6 S8'
_chemical_formula_weight         3101.89
_space_group_crystal_system      tetragonal
_space_group_IT_number           121
_space_group_name_Hall           'I -4 2'
_space_group_name_H-M_alt        'I -4 2 m'
_atom_sites_solution_hydrogens   mixed
_atom_sites_solution_primary     direct
_cell_angle_alpha                90
_cell_angle_beta                 90
_cell_angle_gamma                90
_cell_formula_units_Z            2
_cell_length_a                   17.38140(10)
_cell_length_b                   17.38140(10)
_cell_length_c                   20.0977(3)
_cell_measurement_reflns_used    12073
_cell_measurement_temperature    210.00(10)
_cell_measurement_theta_max      27.8460
_cell_measurement_theta_min      3.6700
_cell_volume                     6071.78(10)
_computing_cell_refinement       'CrysAlisPro 1.171.38.41k (Rigaku OD, 2015)'
_computing_data_collection       'CrysAlisPro 1.171.38.41k (Rigaku OD, 2015)'
_computing_data_reduction        'CrysAlisPro 1.171.38.41k (Rigaku OD, 2015)'
_computing_molecular_graphics    'Olex2 (Dolomanov et al., 2009)'
_computing_publication_material  'Olex2 (Dolomanov et al., 2009)'
_computing_structure_refinement  'ShelXL (Sheldrick, 2015)'
_computing_structure_solution    'ShelXS (Sheldrick, 2008)'
_diffrn_ambient_environment      N~2~
_diffrn_ambient_temperature      210.00(10)
_diffrn_detector                 'CCD plate'
_diffrn_detector_area_resol_mean 16.2312
_diffrn_detector_type            Eos
_diffrn_measured_fraction_theta_full 0.993
_diffrn_measured_fraction_theta_max 0.936
_diffrn_measurement_details
;
List of Runs (angles in degrees, time in seconds):

  # Type    Start    End  Width  t~exp~   \w     \q     \k     \f   Frames
--------------------------------------------------------------------------
  1  \w    -23.00  23.40   0.80    7.50    --  -15.18 -99.00-150.00   58
  2  \w    -24.00  17.60   0.80    7.50    --  -15.18 -99.00  60.00   52
  3  \w     10.00  86.00   0.80    7.50    --   18.07  37.00  60.00   95
  4  \w     50.00  89.20   0.80    7.50    --   18.07 178.00-150.00   49
  5  \w     35.00  90.20   0.80    7.50    --   18.07-178.00 -60.00   69
  6  \w     -1.00  85.40   0.80    7.50    --   18.07  19.00 150.00  108
  7  \w     23.00  64.60   0.80    7.50    --   18.07  57.00-180.00   52
  8  \w     36.00  63.20   0.80    7.50    --   18.07 178.00   0.00   34
  9  \w    -21.00  35.00   0.80    7.50    --   18.07 -57.00 -60.00   70
;
_diffrn_measurement_device       'four-circle diffractometer'
_diffrn_measurement_device_type  'Xcalibur, Eos, Gemini'
_diffrn_measurement_method       '\w scans'
_diffrn_orient_matrix_type
'CrysAlisPro convention (1999,Acta A55,543-557)'
_diffrn_orient_matrix_UB_11      0.0151335000
_diffrn_orient_matrix_UB_12      0.0087153000
_diffrn_orient_matrix_UB_13      0.0310512000
_diffrn_orient_matrix_UB_21      -0.0381652000
_diffrn_orient_matrix_UB_22      0.0063412000
_diffrn_orient_matrix_UB_23      0.0116767000
_diffrn_orient_matrix_UB_31      -0.0027703000
_diffrn_orient_matrix_UB_32      -0.0397336000
_diffrn_orient_matrix_UB_33      0.0086792000
_diffrn_radiation_monochromator  graphite
_diffrn_radiation_probe          x-ray
_diffrn_radiation_type           MoK\a
_diffrn_radiation_wavelength     0.71073
_diffrn_reflns_av_R_equivalents  0.0420
_diffrn_reflns_av_unetI/netI     0.0224
_diffrn_reflns_Laue_measured_fraction_full 0.993
_diffrn_reflns_Laue_measured_fraction_max 0.936
_diffrn_reflns_limit_h_max       21
_diffrn_reflns_limit_h_min       -20
_diffrn_reflns_limit_k_max       21
_diffrn_reflns_limit_k_min       -21
_diffrn_reflns_limit_l_max       23
_diffrn_reflns_limit_l_min       -25
_diffrn_reflns_number            29297
_diffrn_reflns_point_group_measured_fraction_full 0.995
_diffrn_reflns_point_group_measured_fraction_max 0.936
_diffrn_reflns_theta_full        25.250
_diffrn_reflns_theta_max         27.100
_diffrn_reflns_theta_min         3.315
_diffrn_source                   'fine-focus sealed X-ray tube'
_diffrn_source_type              'Enhance (Mo) X-ray Source'
_exptl_absorpt_coefficient_mu    2.088
_exptl_absorpt_correction_T_max  0.764
_exptl_absorpt_correction_T_min  0.600
_exptl_absorpt_correction_type   gaussian
_exptl_absorpt_process_details
;
CrysAlisPro 1.171.38.41k (Rigaku Oxford Diffraction, 2015)
Numerical absorption correction based on gaussian integration over
			a multifaceted crystal model
Empirical absorption correction using spherical harmonics,
 implemented in SCALE3 ABSPACK scaling algorithm.
;
_exptl_crystal_colour            colourless
_exptl_crystal_colour_primary    colourless
_exptl_crystal_density_diffrn    1.697
_exptl_crystal_description       block
_exptl_crystal_F_000             3029
_exptl_crystal_size_max          0.318
_exptl_crystal_size_mid          0.209
_exptl_crystal_size_min          0.153
_refine_diff_density_max         1.477
_refine_diff_density_min         -0.621
_refine_diff_density_rms         0.104
_refine_ls_abs_structure_details
;
 Flack x determined using 1273 quotients [(I+)-(I-)]/[(I+)+(I-)]
 (Parsons and Flack (2004), Acta Cryst. A60, s61).
;
_refine_ls_abs_structure_Flack   -0.047(17)
_refine_ls_extinction_coef       .
_refine_ls_extinction_method     none
_refine_ls_goodness_of_fit_ref   1.072
_refine_ls_hydrogen_treatment    constr
_refine_ls_matrix_type           full
_refine_ls_number_parameters     200
_refine_ls_number_reflns         3293
_refine_ls_number_restraints     62
_refine_ls_restrained_S_all      1.113
_refine_ls_R_factor_all          0.0398
_refine_ls_R_factor_gt           0.0338
_refine_ls_shift/su_max          0.000
_refine_ls_shift/su_mean         0.000
_refine_ls_structure_factor_coef Fsqd
_refine_ls_weighting_details
;
 w=1/[\s^2^(Fo^2^)+(0.0563P)^2^+12.0974P]
 where P=(Fo^2^+2Fc^2^)/3
;
_refine_ls_weighting_scheme      calc
_refine_ls_wR_factor_gt          0.0927
_refine_ls_wR_factor_ref         0.0966
_reflns_Friedel_coverage         0.825
_reflns_Friedel_fraction_full    0.998
_reflns_Friedel_fraction_max     0.935
_reflns_number_gt                2992
_reflns_number_total             3293
_reflns_threshold_expression     'I > 2\s(I)'
_cod_data_source_file            nchem.2718-s13.cif
_cod_data_source_block           ag12bpy_acetonitrile
_cod_original_cell_volume        6071.78(11)
_cod_original_formula_sum        'C82.40 H107.60 Ag12 F12 N9.20 O6 S8'
_cod_database_code               1551426
_chemical_oxdiff_formula         C80H104O8N8S8Ag12
_shelx_space_group_comment
;
The symmetry employed for this shelxl refinement is uniquely defined
by the following loop, which should always be used as a source of
symmetry information in preference to the above space-group names.
They are only intended as comments.
;
_reflns_odcompleteness_completeness 99.56
_reflns_odcompleteness_iscentric 1
_reflns_odcompleteness_theta     26.32
_olex2_refinement_description
;
1. Fixed Uiso
 At 1.2 times of:
  All C(H) groups
 At 1.5 times of:
  All C(H,H,H) groups
2. Restrained distances
 C14-N2
 1.15 with sigma of 0.02
 C14-C15
 1.4 with sigma of 0.02
 O1-O2
 2.2 with sigma of 0.01
 C6-C4 = C5-C4
 1.53 with sigma of 0.01
 C7-C8
 1.54 with sigma of 0.01
 F1-C8 \\sim F2B-C8 \\sim F2-C8 \\sim F1B-C8
 with sigma of 0.01
 O2-C7 \\sim C7-O1
 with sigma of 0.01
3. Restrained planarity
 O2, O1, C7, C8
 with sigma of 0.1
4. Uiso/Uaniso restraints and constraints
Uanis(C7) \\sim Ueq, Uanis(F1) \\sim Ueq, Uanis(F1B) \\sim Ueq, Uanis(F2) \\sim
Ueq, Uanis(F2B) \\sim Ueq, Uanis(O1) \\sim Ueq, Uanis(O2) \\sim Ueq: with sigma
of 0.01 and sigma for terminal atoms of 0.02
Uanis(C5) \\sim Ueq: with sigma of 0.003 and sigma for terminal atoms of 0.006
Uanis(O1) = Uanis(O2)
5. Others
 Fixed Sof: Ag2(0.65) Ag2B(0.35) Ag3(0.25) H3A(0.5) H3B(0.5) H3C(0.5) H6A(0.5)
 H6B(0.5) H6C(0.5) O1(0.5) O2(0.25) F1(0.275) F1B(0.225) F2(0.55) F2B(0.45)
 N2(0.15) C14(0.15) C15(0.15) H15A(0.15) H15B(0.15) H15C(0.15)
6.a Riding coordinates:
 C15(H15A,H15B,H15C)
6.b Aromatic/amide H refined with riding coordinates:
 C9(H9), C10(H10), C12(H12), C13(H13)
6.c Idealised Me refined as rotating group:
 C2(H2A,H2B,H2C), C3(H3A,H3B,H3C), C5(H5A,H5B,H5C), C6(H6A,H6B,H6C)
Comments: Several groups, including one of the silver ions, 
trifluoroacetate, one t-butyl mercaptan anion and guest acetonitrile 
molecules, were observed to be disordered. Among them, 
the t-butyl mercaptan anion was not split, but the ADP of C5 
was refined with "ISOR 0.003 0.006". The C-C bond lengths 
in one of the anions were restrained using "DFIX 1.53 0.01". 
For the trifluoroacetate, the fluorine and oxygen atoms 
were split over two equal parts. The geometry was restrained 
using the "SADI" or "DFIX" commands, whereas their thermal 
parameters were restrained using "ISOR 0.01 0.02". In addition, 
the C-CO2 group was restrained in the same plane with
"FLAT". A large electron peak was detected close to Ag2. 
The disordered model obtained by splitting the Ag2 over two 
sites with fixed occupancy ratio of 0.65:0.35 was applied, 
resulting in a better result. The guest acetonitrile was seriously 
disordered due to the high lattice symmetry and the small size 
of the molecule compared with the cavity. Thus, only the 
main part was assigned, as can be observed from the 
difference Fourier map. &#x00A1;&#x00B0;DFIX&#x00A1;&#x00B1; restrained the C-N triple 
bond length to be 1.15 angstroms, and &#x00A1;&#x00B0;DFIX 1.4&#x00A1;&#x00B1; 
restrained the C-C length, with only the isotropic thermal 
parameters being refined for the three atoms.
;
_shelx_res_file
;
TITL A in I-42m #121
REM reset to I-42m #121
CELL 0.71073 17.3814 17.3814 20.0977 90 90 90
ZERR 2 0.0001 0.0001 0.0003 0 0 0
LATT -2
SYMM +Y,-X,-Z
SYMM -X,-Y,+Z
SYMM -Y,+X,-Z
SYMM +X,-Y,-Z
SYMM -X,+Y,-Z
SYMM -Y,-X,+Z
SYMM +Y,+X,+Z
SFAC C H Ag F N O S
UNIT 164.8 215.2 24 24 18.4 12 16
EQIV $1 1-Y,1-X,+Z
DFIX 1.15 C14 N2
DFIX 1.4 C14 C15
DFIX 2.2 0.01 O1 O2
DFIX 1.53 0.01 C6 C4 C5 C4
DFIX 1.54 0.01 C7 C8
SADI 0.01 F1 C8 F2B C8 F2 C8 F1B C8
SADI 0.01 O2 C7 C7 O1
FLAT O2 O1 C7 C8
ISOR 0.01 0.02 C7 F1 F1B F2 F2B O1 O2
ISOR 0.003 0.006 C5
EADP O1 O2

L.S. 50
PLAN  10
BIND Ag2 O1
BIND Ag2B O1
BIND O2 Ag2B_$1
BIND O2 Ag2_$1
FREE O1 O2
BOND
MORE -1
BOND $H
CONF
fmap 2
acta 50.5
OMIT 0 0 4
OMIT 0 2 4
REM <olex2.extras>
REM <HklSrc "%.\\Ag12bpy_Acetonitrile.hkl">
REM </olex2.extras>

WGHT    0.056300   12.097400
FVAR       0.02708
AG1   3    0.500000    0.500000    0.203836    10.25000    0.02781    0.02781 =
         0.04543    0.00000    0.00000   -0.00266
PART 1
AG2   3    0.661339    0.472073    0.158701    10.65000    0.03319    0.04985 =
         0.05779   -0.00465    0.00660    0.00193
PART 0
PART 2
AG2B  3    0.658677    0.470434    0.173598    10.35000    0.02330    0.04454 =
         0.05387   -0.00618   -0.00100    0.00428
PART 0
AG3   3    0.584431    0.500000    0.000000    10.25000    0.03602    0.04825 =
         0.04835    0.01799    0.00000    0.00000
S1    7    0.400879    0.400879    0.198573    10.50000    0.03281    0.03281 =
         0.04127    0.00347    0.00347   -0.00611
C1    1    0.374330    0.374330    0.284526    10.50000    0.06087    0.06087 =
         0.04331    0.00745    0.00745   -0.02330
C2    1    0.287965    0.394410    0.293492    11.00000    0.06110    0.16449 =
         0.07714    0.03221    0.02441   -0.02318
AFIX 137
H2A   2    0.279129    0.446525    0.279642    11.00000   -1.50000
H2B   2    0.274027    0.388869    0.339464    11.00000   -1.50000
H2C   2    0.257306    0.360258    0.266917    11.00000   -1.50000
AFIX   0
C3    1    0.422484    0.422484    0.330602    10.50000    0.10640    0.10640 =
         0.04776    0.00580    0.00580   -0.04722
PART -1
AFIX 137
H3A   2    0.471734    0.398498    0.336694    10.50000   -1.50000
H3B   2    0.397042    0.426974    0.372821    10.50000   -1.50000
H3C   2    0.429436    0.472740    0.311724    10.50000   -1.50000
AFIX   0
PART 0
S2    7    0.602015    0.397985    0.071347    10.50000    0.04978    0.04978 =
         0.03414    0.00078   -0.00078    0.01280
C4    1    0.670530    0.329470    0.032148    10.50000    0.06908    0.06908 =
         0.03207   -0.00349    0.00349    0.01897
C5    1    0.723737    0.373935   -0.012198    11.00000    0.11726    0.11835 =
         0.10536    0.02008    0.04896    0.02842
AFIX 137
H5A   2    0.694628    0.398000   -0.047052    11.00000   -1.50000
H5B   2    0.760932    0.339620   -0.031333    11.00000   -1.50000
H5C   2    0.749725    0.412662    0.013389    11.00000   -1.50000
AFIX   0
C6    1    0.714694    0.285306    0.084989    10.50000    0.09469    0.09469 =
         0.07254    0.00391   -0.00391    0.05844
PART -1
AFIX 137
H6A   2    0.748800    0.319702    0.107940    10.50000   -1.50000
H6B   2    0.744046    0.245111    0.064282    10.50000   -1.50000
H6C   2    0.679153    0.263188    0.116150    10.50000   -1.50000
AFIX   0
O1    6    0.691234    0.402374    0.269250    10.50000    0.09549    0.10878 =
         0.09550    0.00734   -0.01927    0.00018
O2    6    0.625696    0.300395    0.239921    10.25000    0.09549    0.10878 =
         0.09550    0.00734   -0.01927    0.00018
PART 0
C7    1    0.659671    0.340329    0.279783    10.50000    0.06839    0.06839 =
         0.12894   -0.00129    0.00129    0.00916
C8    1    0.688896    0.311104    0.346323    10.50000    0.10582    0.10582 =
         0.07846    0.01085   -0.01085    0.03938
PART 1
F1    4    0.742533    0.257467    0.335282    10.27500    0.12651    0.12651 =
         0.13930    0.02676   -0.02676    0.01962
PART 0
PART 2
F1B   4    0.653488    0.346512    0.396175    10.22500    0.17180    0.17180 =
         0.09044   -0.00841    0.00841   -0.00992
PART 0
PART 1
F2    4    0.723944    0.364175    0.382499    10.55000    0.18935    0.25694 =
         0.16484   -0.10605   -0.09366    0.00740
PART 0
PART 2
F2B   4    0.763901    0.318282    0.352238    10.45000    0.09946    0.24337 =
         0.20261    0.04478   -0.08556   -0.01195
PART 0
N1    5    0.794980    0.484874    0.166215    11.00000    0.03280    0.05895 =
         0.07181    0.00290   -0.00821    0.00428
C9    1    0.829879    0.549695    0.149379    11.00000    0.03603    0.05369 =
         0.08022    0.01426   -0.00743    0.00986
AFIX  43
H9    2    0.799386    0.591277    0.137027    11.00000   -1.20000
AFIX   0
C10   1    0.910480    0.559677    0.148997    11.00000    0.04002    0.05543 =
         0.08680    0.01666    0.00027    0.00022
AFIX  43
H10   2    0.932033    0.606960    0.137967    11.00000   -1.20000
AFIX   0
C11   1    0.957240    0.497157    0.165507    11.00000    0.03311    0.05524 =
         0.06324   -0.00303   -0.00689    0.00509
C12   1    0.920374    0.428535    0.182486    11.00000    0.03849    0.04770 =
         0.07878    0.00245   -0.00432    0.00519
AFIX  43
H12   2    0.949205    0.385136    0.193013    11.00000   -1.20000
AFIX   0
C13   1    0.840499    0.425242    0.183616    11.00000    0.04003    0.04712 =
         0.07182    0.00082   -0.00765   -0.00195
AFIX  43
H13   2    0.817218    0.379637    0.197043    11.00000   -1.20000
AFIX   0

N2    5    1.000000    0.205058    0.000000    10.15000    0.17270
C14   1    1.000000    0.269581    0.000000    10.15000    0.09076
C15   1    1.000000    0.347048    0.000000    10.15000    0.12841
PART -1
AFIX   3
H15A  2    1.040340    0.365468    0.028470    10.15000   -1.50000
H15B  2    0.951320    0.365468    0.015980    10.15000   -1.50000
H15C  2    1.008340    0.365468   -0.044450    10.15000   -1.50000
AFIX   0
HKLF 4

REM  A in I-42m #121
REM R1 =  0.0338 for    2992 Fo > 4sig(Fo)  and  0.0398 for all    3293 data
REM    200 parameters refined using     62 restraints

END

WGHT      0.0563     12.0975

REM Highest difference peak  1.477,  deepest hole -0.621,  1-sigma level  0.104
Q1    1   0.5000  0.5000  0.5000  10.12500  0.05    1.48
Q2    1   0.6590  0.3410  0.2327  10.50000  0.05    1.17
Q3    1   1.0000  0.4769  0.0000  10.50000  0.05    0.73
Q4    1   0.7427  0.3988  0.3216  11.00000  0.05    0.60
Q5    1   0.7463  0.3857  0.0105  11.00000  0.05    0.52
Q6    1   1.0000  0.3053  0.0000  10.50000  0.05    0.46
Q7    1   0.6800  0.3200 -0.0483  10.50000  0.05    0.44
Q8    1   1.0314  0.2510 -0.0290  11.00000  0.05    0.43
Q9    1   1.0242  0.2987 -0.0127  11.00000  0.05    0.42
Q10   1   0.9270  0.5000  0.0000  10.50000  0.05    0.42
;
_shelx_res_checksum              17746
_shelx_hkl_file
;
   0   0  -4   13.98    0.47
   0   0   4   12.86    0.43
   0   0  -6 1000.00   20.79
   0   0  -8   58.21    1.53
   0   0  -8   54.90    1.57
   0   0 -10    0.11    0.08
   0   0 -10    0.14    0.15
   0   0 -10    0.35    0.12
   0   0 -12  102.30    2.41
   0   0 -12  110.13    2.80
   0   0 -14    8.52    0.39
   0   0 -14    8.63    0.61
   0   0 -16    2.48    0.22
   0   0 -16    2.21    0.39
   0   0 -18    9.06    0.72
   0   0 -18   10.26    0.39
   0   0 -20    1.93    0.38
   0   0 -22    6.60    0.69
   0   0 -24    4.57    0.64
   0  -1  -5  156.12    3.24
   0  -1   5  144.25    3.23
   0  -1   5  141.25    3.23
   1   0  -5  140.34    3.07
   1   0   5  142.74    3.19
  -1   0  -5  141.54    3.22
   0   1  -5  139.70    3.23
   1   0  -5  153.28    3.25
   1   0  -7   21.20    0.58
   0  -1  -7   20.73    0.68
   1   0  -7   22.34    0.76
   0   1  -7   19.84    0.74
   0  -1  -7   20.47    0.74
   1   0   7   20.60    0.72
  -1   0  -7   21.55    0.75
  -1   0  -9   43.76    1.34
   0   1  -9   45.05    1.36
   1   0  -9   44.75    1.30
  -1   0  -9   44.68    1.28
   0  -1  -9   43.20    1.05
   1   0  -9   43.01    1.33
   0  -1  -9   43.24    1.33
   0  -1  -9   44.88    1.27
   1   0  -9   44.64    1.10
   1   0   9   43.11    1.29
   0   1 -11   35.26    0.99
   0  -1 -11   34.13    1.19
   0  -1 -11   33.21    0.86
  -1   0 -11   33.66    1.12
   1   0 -11   34.18    1.14
   0   1 -11   33.56    1.20
   0  -1 -11   34.91    1.11
  -1   0 -11   32.81    1.18
   1   0 -11   35.61    1.22
   1   0 -11   31.97    0.91
   0   1 -13   18.06    0.67
   1   0 -13   19.66    0.63
   0  -1 -13   19.79    0.90
   0   1 -13   19.14    0.91
  -1   0 -13   20.15    0.91
   0  -1 -13   19.30    0.58
   1   0 -13   20.22    0.92
   0  -1 -13   20.18    0.59
  -1   0 -13   17.64    0.50
   0  -1 -15    2.20    0.17
  -1   0 -15    1.69    0.11
   0   1 -15    1.71    0.20
   1   0 -15    1.84    0.18
  -1   0 -15    1.61    0.18
   0  -1 -15    1.53    0.14
   1   0 -15    1.79    0.33
   0   1 -15    1.61    0.33
   0  -1 -15    1.76    0.31
  -1   0 -15    1.72    0.32
   1   0 -17   -0.18    0.27
   0  -1 -17   -0.09    0.23
   0   1 -17   -0.05    0.11
   0  -1 -17   -0.02    0.08
   1   0 -17    0.03    0.09
  -1   0 -17    0.03    0.03
  -1   0 -17   -0.16    0.10
   0   1 -17    0.23    0.23
  -1   0 -17   -0.25    0.28
   1   0 -19    6.44    0.62
   0  -1 -19    8.17    0.69
   1   0 -19    6.55    0.35
  -1   0 -19    7.16    0.67
   0   1 -19    6.43    0.64
   0  -1 -21    1.03    0.32
   1   0 -21    0.69    0.32
   0   1 -21    0.71    0.32
  -1   0 -21    0.22    0.29
   1   0 -23   -0.07    0.29
   0  -1 -23    0.22    0.30
   0   1 -23   -0.12    0.31
  -1   0 -23    0.24    0.31
  -1   0 -25    4.76    0.65
   1   0 -25    4.47    0.65
   0   1 -25    4.62    0.64
   0  -1 -25    4.66    0.63
  -1  -1 -24    2.79    0.50
   1   1 -24    2.18    0.45
  -1  -1 -22    2.70    0.47
   1   1 -22    3.68    0.55
   1   1 -20    2.43    0.45
  -1  -1 -20    2.17    0.41
   1   1 -18    2.60    0.42
  -1  -1 -18    2.42    0.39
   1   1 -16    0.48    0.25
  -1  -1 -16    0.10    0.07
   1   1 -16    0.23    0.14
  -1  -1 -16    0.26    0.23
   1   1 -14   10.49    0.48
  -1  -1 -14   10.85    0.67
  -1  -1 -14   10.52    0.34
   1   1 -14   12.17    0.73
  -1  -1 -14   11.25    0.43
   1   1 -12    4.52    0.28
   1   1 -12    4.72    0.42
  -1  -1 -12    4.64    0.42
  -1  -1 -12    4.48    0.19
  -1  -1 -10   26.10    0.94
   1   1 -10   24.87    0.75
   1   1 -10   23.72    0.93
  -1  -1 -10   23.70    0.84
   1  -1  10   25.10    0.92
  -1  -1 -10   23.43    0.60
  -1  -1  -8    8.94    0.42
  -1  -1  -8    9.44    0.48
  -1  -1  -8    9.28    0.27
   1   1  -8    9.33    0.38
   1   1  -8   10.06    0.51
   1  -1   8    8.71    0.46
  -1  -1  -6   44.02    1.18
   1  -1   6   40.95    1.17
   1   1  -6   42.10    1.07
  -1  -1  -6   42.64    1.11
   1   1  -6   42.87    1.19
   1  -1   4   21.94    0.66
  -1  -1  -4   23.02    0.65
   1   1  -4   22.14    0.66
   1  -1  -4   24.36    0.70
  -1  -1   4   24.44    0.70
  -1  -1   4   23.78    0.64
   1   1   4   23.36    0.64
   1   1   4   24.11    0.70
   1   1   6   44.98    1.21
   1  -1  -6   49.38    1.29
  -1  -1   6   46.69    1.28
  -1   1  -6   47.82    1.29
   1  -1  -8    9.44    0.30
  -1  -1   8    8.71    0.48
   1   1   8    9.96    0.46
   1  -1  -8   10.58    0.46
   1  -1  -8   10.30    0.51
  -1   1  -8    9.89    0.51
   1  -1 -10   25.10    0.88
  -1   1 -10   26.59    0.92
  -1   1 -10   24.55    0.95
   1  -1 -10   24.66    0.93
   1  -1 -10   23.62    0.64
   1  -1 -12    4.69    0.43
   1  -1 -12    4.68    0.22
  -1   1 -12    5.51    0.46
   1  -1 -14   11.88    0.71
   1  -1 -14   10.30    0.38
  -1   1 -14   10.95    0.69
   1  -1 -16   -0.02    0.21
  -1   1 -16    0.33    0.28
  -1   1 -16    0.14    0.12
   1  -1 -16    0.43    0.14
   1  -1 -18    1.79    0.39
   1  -1 -18    2.36    0.22
  -1   1 -18    1.59    0.35
  -1   1 -20    2.18    0.44
   1  -1 -20    2.07    0.38
  -1   1 -22    2.89    0.51
   1  -1 -22    3.17    0.49
  -1   1 -24    1.86    0.44
   1  -1 -24    1.67    0.45
  -2   0   4    4.09    0.25
   2   0   4    4.07    0.24
   0  -2  -4    4.41    0.20
   2   0  -4    4.06    0.24
   0  -2   4    3.56    0.22
  -2   0   4    4.45    0.19
   0  -2  -4    4.67    0.19
   0  -2   4    4.58    0.27
   0   2  -4    4.36    0.26
   0  -2  -4    4.41    0.23
   0  -2  -4    4.07    0.23
   2   0   4    3.98    0.22
   0   2   4    3.98    0.19
   0  -2  -6  139.45    3.06
   0  -2  -6  138.07    2.97
   2   0   6  134.05    3.03
   0  -2  -6  127.85    2.90
   0  -2   6  134.36    3.07
  -2   0   6  132.64    2.90
   2   0  -6  132.03    3.08
  -2   0  -6  139.24    3.08
   0   2  -6  132.33    3.09
   0  -2   6  130.32    3.09
   2   0   8   14.15    0.57
   2   0  -8   11.43    0.56
   0  -2  -8   11.83    0.49
   0   2  -8   12.07    0.58
   0  -2  -8   12.35    0.41
  -2   0  -8   13.12    0.54
   2   0  -8   11.92    0.42
   0  -2  -8   12.01    0.56
   0  -2   8   11.42    0.55
  -2   0  -8   12.73    0.57
  -2   0 -10   12.80    0.58
   2   0  10   12.26    0.58
   2   0 -10   12.12    0.63
  -2   0 -10   12.99    0.63
   2   0 -10   11.97    0.43
   2   0 -10   12.71    0.59
   0  -2 -10   10.32    0.31
   0  -2 -10   12.22    0.42
   0   2 -10   12.30    0.51
   0   2 -10   11.65    0.62
   0  -2 -10   11.52    0.52
   0  -2 -10   12.30    0.61
   0  -2 -12    5.47    0.21
   0  -2 -12    6.51    0.47
   0  -2 -12    6.11    0.40
   0  -2 -12    6.67    0.30
   2   0  12    6.92    0.47
  -2   0 -12    5.23    0.45
   2   0 -12    5.90    0.48
   0   2 -12    5.93    0.37
   0   2 -12    5.71    0.47
   2   0 -12    6.19    0.31
   2   0 -14    7.12    0.56
   0   2 -14    7.38    0.42
   0   2 -14    6.38    0.52
   0  -2 -14    6.50    0.31
   2   0 -14    6.35    0.33
   0  -2 -14    7.34    0.56
  -2   0 -14    6.49    0.53
   0  -2 -14    5.71    0.23
   0   2 -16    1.13    0.30
   0  -2 -16    0.93    0.13
  -2   0 -16    1.23    0.30
   0  -2 -16    0.58    0.26
   0   2 -16    0.74    0.17
   2   0 -16    1.26    0.33
  -2   0 -18    1.26    0.33
   0   2 -18    1.47    0.34
   0  -2 -18    0.77    0.30
   2   0 -18    1.99    0.41
   0  -2 -20    2.00    0.40
   2   0 -20    3.05    0.46
   0   2 -20    2.83    0.45
  -2   0 -20    2.38    0.42
   2   0 -22    0.91    0.34
  -2   0 -22    0.72    0.34
   0   2 -22    0.55    0.27
   0  -2 -22    0.50    0.34
   0   2 -24    1.25    0.38
   2   0 -24    0.58    0.30
  -2   0 -24    1.26    0.37
  -1  -2 -25    0.76    0.34
  -2  -1 -25    0.74    0.31
   2   1 -25    1.02    0.39
   1   2 -25    0.96    0.36
   2   1 -23    0.61    0.34
  -1  -2 -23    0.04    0.25
   1   2 -23   -0.01    0.29
  -2  -1 -23    0.32    0.25
   2   1 -21    0.22    0.29
   1   2 -21    0.24    0.26
  -2  -1 -21   -0.01    0.24
  -1  -2 -21    0.30    0.27
  -1  -2 -19    3.02    0.44
   2   1 -19    3.43    0.50
   1   2 -19    2.76    0.46
  -2  -1 -19    3.49    0.49
  -1  -2 -17    0.82    0.28
   1   2 -17    1.24    0.34
   2   1 -17    1.12    0.35
   2   1 -17    0.87    0.16
   1   2 -17    0.92    0.18
  -2  -1 -17    1.32    0.34
   1   2 -15   13.94    0.81
  -1  -2 -15   12.31    0.42
   1   2 -15   12.71    0.59
   2   1 -15   14.34    0.83
   2   1 -15   12.11    0.54
  -1  -2 -15   13.96    0.79
  -2  -1 -15   14.84    0.82
  -2  -1 -13    3.67    0.39
  -1  -2 -13    3.59    0.38
   2   1 -13    2.84    0.24
   2   1 -13    3.84    0.40
   1   2 -13    2.80    0.26
   2  -1  13    4.34    0.39
   1   2 -13    3.59    0.41
  -2  -1 -11   19.30    0.82
  -1  -2 -11   18.20    0.71
  -1  -2 -11   18.19    0.80
   1   2 -11   19.58    0.85
   2   1 -11   17.79    0.63
  -2  -1 -11   17.83    0.73
   1   2 -11   18.70    0.68
   2   1 -11   17.76    0.82
   2  -1  11   18.51    0.80
   1  -2  11   19.23    0.83
   1  -2   9   27.14    0.98
  -1  -2  -9   27.59    0.95
   2   1  -9   26.72    0.98
  -2  -1  -9   27.97    0.96
  -2  -1  -9   27.97    0.90
   1  -2   9   26.64    0.96
   1   2  -9   27.51    0.86
   2   1  -9   26.37    0.81
   2  -1   9   27.78    0.96
   1   2  -9   27.75    0.99
  -1  -2  -9   27.73    0.87
  -2   1   7   12.17    0.36
  -1  -2  -7   11.99    0.45
   1   2  -7   11.61    0.46
   2  -1   7   11.20    0.51
  -2  -1  -7   12.46    0.52
  -2  -1  -7   11.75    0.47
   2   1  -7   11.86    0.54
  -1  -2  -7   11.34    0.51
   2   1  -7   11.64    0.43
   1  -2   7   12.82    0.55
   1   2  -7   11.77    0.54
   1  -2   7   11.40    0.51
  -1  -2  -5   46.66    1.19
   2   1  -5   44.17    1.21
   2   1  -5   44.46    1.13
   1   2  -5   46.44    1.22
  -2  -1  -5   45.17    1.18
  -2   1   5   45.78    1.04
  -1  -2  -5   45.66    1.10
   2  -1   5   44.28    1.19
  -2  -1  -5   46.11    1.14
   1  -2   5   44.42    1.21
   1  -2   5   45.31    1.19
   2  -1   3   18.25    0.46
   1  -2   3   17.33    0.52
  -1  -2  -3   18.24    0.45
  -1  -2  -3   18.72    0.51
   1  -2   3   19.50    0.56
   1   2  -3   18.58    0.54
   2   1  -3   17.29    0.54
   2  -1   3   17.73    0.54
  -1  -2   3   16.99    0.53
  -2  -1   3   16.53    0.52
   1   2   3   17.19    0.54
   2  -1  -3   18.35    0.54
  -1  -2   3   17.66    0.53
   2  -1  -3   17.00    0.45
   1  -2  -3   17.62    0.51
   1  -2  -3   17.02    0.50
   1   2   3   17.39    0.44
   2   1   3   16.70    0.48
   1  -2  -3   16.95    0.50
   2   1   3   17.16    0.53
  -2  -1   3   18.69    0.51
   1  -2  -5   43.82    1.11
   2  -1  -5   46.78    1.21
   1  -2  -5   45.95    1.18
   1   2   5   41.70    1.03
   1   2   5   42.70    1.20
  -1  -2   5   45.99    1.20
   1  -2  -5   45.20    1.15
  -2  -1   5   48.76    1.12
  -2  -1   5   42.90    1.19
   2   1   5   45.06    1.20
   1   2   5   44.80    1.09
   2   1   5   44.74    1.13
   2   1   7   12.98    0.51
  -2   1  -7   13.70    0.57
  -1   2  -7   13.66    0.58
   2  -1  -7   13.49    0.57
   1  -2  -7   13.69    0.56
   1   2   7   12.63    0.48
  -2  -1   7   13.14    0.46
  -2  -1   7   12.31    0.55
  -1  -2   7   11.76    0.54
  -2   1  -9   26.81    0.98
  -1  -2   9   28.27    1.00
   1   2   9   28.01    0.96
   1  -2  -9   28.50    0.91
   1  -2  -9   26.83    0.97
  -1   2  -9   26.33    0.98
   2   1   9   28.80    0.93
   2  -1  -9   28.80    1.00
  -2  -1   9   28.99    1.01
  -2   1  -9   28.15    0.95
  -2   1 -11   17.52    0.80
   2  -1 -11   18.11    0.82
   2  -1 -11   16.98    0.73
   1  -2 -11   16.91    0.59
   2   1  11   17.84    0.74
  -1   2 -11   17.31    0.81
   1  -2 -11   18.84    0.82
   1  -2 -11   18.32    0.73
   2  -1 -13    3.71    0.39
   1  -2 -13    3.52    0.25
   1  -2 -13    3.86    0.41
  -1   2 -13    3.31    0.39
  -2   1 -13    3.32    0.39
   1  -2 -15   13.37    0.79
  -1   2 -15   12.52    0.60
  -1   2 -15   14.19    0.82
  -2   1 -15   14.07    0.81
   2  -1 -15   13.46    0.82
   1  -2 -15   13.68    0.54
   1  -2 -17    0.95    0.30
  -2   1 -17    0.91    0.29
  -1   2 -17    0.84    0.30
   1  -2 -17    0.93    0.16
   2  -1 -17    1.01    0.32
  -1   2 -19    4.16    0.52
   1  -2 -19    3.79    0.27
   2  -1 -19    3.70    0.49
   1  -2 -19    3.19    0.46
   2  -1 -19    3.64    0.30
  -2   1 -19    3.22    0.46
  -1   2 -21    0.43    0.29
   2  -1 -21    0.51    0.31
   1  -2 -21    0.13    0.26
  -2   1 -21   -0.10    0.32
   1  -2 -23    0.23    0.29
  -1   2 -23    0.26    0.30
  -2   1 -23   -0.11    0.31
   2  -1 -23   -0.33    0.35
   2  -1 -25    0.55    0.30
  -2   1 -25    0.58    0.30
   1  -2 -25    1.01    0.41
  -1   2 -25    0.73    0.34
   2   2 -24    1.10    0.41
  -2  -2 -24    0.41    0.33
  -2  -2 -22    1.91    0.41
   2   2 -22    1.23    0.34
  -2  -2 -20    2.95    0.45
   2   2 -20    3.89    0.53
  -2  -2 -18    1.42    0.32
   2   2 -18    1.95    0.38
   2   2 -16    3.52    0.44
   2   2 -16    3.23    0.29
  -2  -2 -16    3.07    0.41
   2   2 -14   16.51    0.68
  -2  -2 -14   16.99    0.86
   2   2 -14   17.65    0.91
   2  -2  14   17.84    0.89
   2   2 -12   31.49    1.00
   2   2 -12   30.44    1.19
  -2  -2 -12   32.10    1.16
  -2  -2 -12   31.65    1.06
   2  -2  12   31.68    1.18
   2  -2  10   53.82    1.59
   2  -2  10   50.20    1.55
  -2  -2 -10   53.25    1.45
   2   2 -10   52.36    1.42
   2   2 -10   52.61    1.61
  -2  -2 -10   52.12    1.55
   2   2  -8   23.98    0.76
   2  -2   8   23.38    0.84
  -2  -2  -8   23.09    0.74
   2  -2   8   22.85    0.82
  -2  -2  -8   23.22    0.82
   2   2  -8   23.12    0.86
   2  -2   6   19.29    0.71
  -2  -2  -6   21.39    0.70
  -2  -2  -6   20.84    0.63
   2   2  -6   21.51    0.73
   2  -2   6   21.73    0.70
   2   2  -6   20.79    0.67
   2  -2   4   22.95    0.72
   2   2  -4   23.82    0.71
  -2  -2  -4   23.65    0.67
  -2   2   4   23.63    0.66
   2  -2   4   23.52    0.67
  -2  -2  -4   23.97    0.63
   2   2  -2   27.08    0.70
   2  -2   2   27.35    0.71
   2  -2   2   28.86    0.75
   2  -2   2   28.67    0.67
   2   2  -2   27.37    0.71
  -2  -2  -2   27.52    0.71
  -2  -2   0    4.55    0.19
   2   2   2   25.77    0.72
  -2  -2   2   27.30    0.73
   2  -2  -2   26.76    0.67
   2   2   2   25.51    0.69
   2   2   4   25.54    0.67
  -2  -2   4   27.57    0.76
  -2   2  -4   26.77    0.68
   2   2   4   27.87    0.80
  -2  -2   4   25.22    0.77
   2  -2  -4   27.22    0.77
   2  -2  -4   25.39    0.70
   2  -2  -6   21.91    0.68
   2  -2  -6   21.43    0.74
   2   2   6   21.89    0.56
   2   2   6   22.42    0.67
  -2  -2   6   22.86    0.69
   2   2   6   21.98    0.77
  -2  -2   6   22.59    0.76
   2  -2  -8   23.82    0.84
  -2   2  -8   22.41    0.84
   2   2   8   23.03    0.76
  -2  -2   8   22.90    0.84
  -2   2 -10   52.37    1.61
   2   2  10   54.46    1.50
   2  -2 -10   52.77    1.60
   2  -2 -12   33.97    1.25
  -2   2 -12   34.77    1.27
   2  -2 -14   19.97    0.96
  -2   2 -14   18.82    0.95
  -2   2 -16    3.63    0.45
   2  -2 -16    3.66    0.47
   2  -2 -16    3.04    0.28
   2  -2 -18    1.44    0.36
  -2   2 -18    1.59    0.37
   2  -2 -18    1.47    0.20
  -2   2 -20    3.61    0.50
   2  -2 -20    3.10    0.47
  -2   2 -22    1.04    0.35
   2  -2 -22    1.97    0.44
  -2   2 -24    0.53    0.31
   2  -2 -24    1.03    0.40
   0  -3  -1    7.73    0.29
   3   0  -1    8.47    0.31
   3   0   1    8.34    0.30
   0  -3   1    7.84    0.27
   0  -3  -1    7.48    0.29
   0   3   1    7.59    0.27
  -3   0   1    7.60    0.24
   3   0   3  175.57    3.76
   0  -3  -3  177.35    3.67
  -3   0   3  173.79    3.72
   0  -3   3  160.07    3.73
   3   0  -3  178.59    3.76
   0  -3  -3  163.67    3.75
   0   3   3  165.51    3.67
   0  -3   3  178.52    3.78
   0   3   3  168.00    3.74
   3   0  -3  168.28    3.75
   0  -3  -3  168.62    3.74
   0   3   3  179.35    3.63
   3   0   3  175.43    3.72
   0  -3   5   37.95    1.05
   0  -3  -5   38.93    0.92
   0   3   5   36.50    1.01
  -3   0   5   38.53    0.96
   0  -3   5   39.31    1.09
   3   0   5   35.66    1.01
   0   3   5   37.03    0.97
   3   0   5   38.65    1.05
  -3   0   5   36.30    1.05
   0   3  -5   36.41    1.05
   0  -3  -5   39.37    1.02
   0  -3  -5   37.45    1.05
   3   0  -5   37.62    1.06
  -3   0  -7    0.61    0.13
  -3   0   7    0.57    0.10
   0  -3  -7    0.22    0.10
  -3   0   7    0.54    0.17
   0  -3  -7    0.61    0.10
   0  -3  -7    0.51    0.15
   0  -3   7    0.64    0.17
   0  -3   7    0.58    0.16
   0  -3  -7    0.40    0.10
   3   0   7    0.64    0.15
   0   3  -7    0.66    0.17
   3   0  -7    0.43    0.15
   0   3   7    0.70    0.14
   0  -3   9   11.51    0.58
   0  -3  -9   11.17    0.42
   0  -3  -9   11.70    0.57
  -3   0  -9   12.35    0.55
  -3   0   9   10.78    0.57
  -3   0   9   11.77    0.43
  -3   0  -9   11.77    0.57
  -3   0  -9    9.95    0.54
   3   0  -9   11.03    0.58
   0   3  -9   11.44    0.59
   3   0   9   11.30    0.55
   0  -3  -9   11.74    0.48
   0   3   9   11.18    0.55
   0  -3 -11    0.34    0.09
   3   0 -11    0.27    0.17
   0   3 -11    0.30    0.18
   0  -3 -11    0.51    0.13
   0  -3 -11    0.33    0.20
   3   0  11    0.37    0.15
  -3   0 -11    0.33    0.19
   0   3 -11    0.28    0.11
   3   0 -13    0.19    0.25
   3   0  13    0.21    0.17
   0  -3 -13    0.02    0.08
   0   3 -13   -0.11    0.13
   0  -3 -13    0.07    0.11
   0   3 -13   -0.05    0.23
   0  -3 -13    0.11    0.19
  -3   0 -13   -0.41    0.25
   0  -3 -15    3.96    0.44
  -3   0 -15    4.16    0.46
   0  -3 -15    4.08    0.25
   3   0  15    3.11    0.37
   3   0 -15    3.41    0.45
   0   3 -15    3.51    0.44
  -3   0 -17    0.68    0.32
   0   3 -17    0.42    0.26
   0  -3 -17    0.45    0.25
   3   0 -17    0.73    0.30
   0   3 -19    4.87    0.56
   0  -3 -19    4.19    0.51
  -3   0 -19    5.99    0.60
   3   0 -19    4.60    0.56
  -3   0 -21   -0.20    0.28
   3   0 -21   -0.12    0.24
   0  -3 -21    0.66    0.32
   0   3 -21    0.05    0.24
   3   0 -23   -0.36    0.33
   0   3 -23   -0.01    0.25
  -3   0 -23    0.22    0.27
   0  -3 -23    0.26    0.30
   3   0 -25   -0.64    0.41
  -3   0 -25   -0.46    0.37
   0  -3 -25   -0.02    0.27
   0   3 -25   -0.14    0.27
   1   3 -24    0.28    0.32
  -3  -1 -24   -0.14    0.29
   3   1 -24   -0.32    0.30
  -3  -1 -22    0.21    0.24
   3   1 -22    0.36    0.29
  -1  -3 -22    0.25    0.23
   1   3 -22   -0.21    0.28
   3   1 -20    2.80    0.47
  -3  -1 -20    2.22    0.41
   1   3 -20    2.59    0.46
  -1  -3 -20    2.43    0.46
  -3  -1 -18    1.52    0.36
   1   3 -18    1.49    0.35
   3   1 -18    1.13    0.32
  -1  -3 -18    1.04    0.30
  -1  -3 -16    2.96    0.41
   1   3 -16    3.56    0.47
   3  -1  16    3.85    0.44
  -3  -1 -16    4.07    0.47
   3   1 -16    3.10    0.43
   1   3 -14    6.76    0.56
   1   3 -14    6.25    0.41
   3   1 -14    6.38    0.54
  -3  -1 -14    6.46    0.53
   3  -1  14    6.46    0.51
  -1  -3 -14    6.59    0.53
   1   3 -12   10.66    0.53
  -1  -3 -12   10.57    0.52
  -1  -3 -12    9.72    0.59
   1   3 -12   10.13    0.63
   3  -1  12   10.78    0.61
   1  -3  12   10.38    0.63
   3   1 -12    9.61    0.62
  -3  -1 -12   11.36    0.64
   3   1 -12   10.16    0.46
  -1   3  10   35.54    1.21
   3  -1  10   36.99    1.22
   3   1 -10   35.93    1.06
   1   3 -10   37.47    1.15
   3   1 -10   37.33    1.26
  -3  -1 -10   36.87    1.15
  -1  -3 -10   36.57    1.09
  -1  -3 -10   37.14    1.22
  -3  -1 -10   34.21    1.20
   1  -3  10   37.57    1.26
   1   3 -10   37.98    1.27
  -1  -3  -8   12.94    0.57
   1  -3   8   12.88    0.58
   1  -3   8   13.39    0.61
  -3  -1  -8   13.27    0.54
   3   1  -8   12.30    0.59
   3  -1   8   13.11    0.57
   1   3  -8   13.00    0.61
  -1  -3  -8   12.32    0.47
  -1   3   8   12.32    0.57
  -3   1   8   13.35    0.42
   1   3  -8   13.43    0.55
  -3  -1  -8   12.53    0.57
   3  -1   6    0.99    0.16
  -1  -3  -6    1.16    0.11
   1  -3   6    1.14    0.17
  -3  -1  -6    1.27    0.15
   3   1  -6    0.82    0.16
  -1  -3  -6    0.99    0.16
   1  -3   6    1.13    0.18
   1   3  -6    0.84    0.14
   1   3  -4   32.41    0.92
   3   1  -4   31.44    0.92
   1  -3   4   34.82    0.96
  -1  -3  -4   33.83    0.78
   1  -3   4   33.02    0.91
  -1  -3  -4   35.22    0.88
  -1  -3  -4   33.74    0.94
   3  -1   4   31.68    0.91
  -1  -3  -4   33.76    0.95
   3  -1   4   33.02    0.80
   3  -1   4   33.12    0.89
  -1  -3  -4   33.72    0.81
  -3  -1  -2   35.56    0.80
   3   1  -2   33.33    0.88
  -1  -3  -2   33.88    0.89
  -1  -3  -2   34.38    0.85
   1   3  -2   34.14    0.84
   3   1  -2   31.72    0.86
   3  -1   2   35.89    0.82
  -1  -3  -2   34.06    0.88
   3  -1   2   34.38    0.87
   1   3  -2   33.02    0.81
  -3   1   2   34.03    0.78
  -1   3   2   32.66    0.85
   1  -3   2   34.84    0.88
   1  -3   0   24.62    0.65
   3  -1   0   25.64    0.67
  -1  -3   0   25.48    0.67
   1   3   0   25.04    0.59
   3   1   0   24.19    0.67
  -1  -3   0   25.82    0.69
  -1  -3   0   24.26    0.66
  -1   3   0   25.40    0.59
   1  -3   0   25.50    0.63
   3  -1  -2   32.28    0.85
   1   3   2   32.00    0.85
   1  -3  -2   33.91    0.86
   1  -3  -2   32.81    0.85
  -3  -1   2   31.17    0.83
  -1  -3   2   34.53    0.90
   3   1   2   32.40    0.86
   1  -3  -2   33.54    0.88
  -1  -3   4   31.62    0.90
   3  -1  -4   34.04    0.92
   1   3   4   30.88    0.91
   3   1   4   32.83    0.91
   3  -1  -4   31.25    0.77
  -3  -1   4   33.43    0.88
   3   1   4   31.21    0.84
   1  -3  -4   32.88    0.87
  -3  -1   4   30.07    0.88
  -3   1  -4   30.57    0.84
   1   3   4   30.64    0.83
   1   3   4   32.04    0.75
   1  -3  -4   32.72    0.86
   1  -3  -4   30.92    0.87
  -1   3  -6    0.97    0.17
   3  -1  -6    0.59    0.15
   3   1   6    1.04    0.14
   1   3   6    0.80    0.10
   1  -3  -6    0.79    0.14
   3  -1  -6    0.79    0.11
  -1  -3   6    0.96    0.15
  -3  -1   6    0.69    0.13
   1   3   6    0.67    0.15
   1  -3  -6    1.38    0.15
   1  -3  -6    0.82    0.16
   3   1   6    0.76    0.17
  -3   1  -6    0.59    0.12
   1   3   6    0.87    0.14
  -3  -1   6    0.62    0.15
   1   3   8   12.39    0.55
   1  -3  -8   12.89    0.58
  -3  -1   8   13.05    0.49
  -1  -3   8   12.62    0.59
  -1   3  -8   13.12    0.61
  -3   1  -8   12.75    0.56
  -3  -1   8   13.08    0.60
   3   1   8   12.50    0.54
   1  -3  -8   13.83    0.57
   1  -3  -8   13.04    0.49
   3  -1  -8   13.03    0.61
  -3   1 -10   35.31    1.21
   1   3  10   34.48    1.16
  -1   3 -10   36.70    1.23
   3   1  10   36.04    1.14
   1  -3 -10   36.79    1.09
  -3   1 -10   34.17    1.17
  -3   1 -10   37.49    1.19
   3  -1 -10   36.24    1.23
   1  -3 -10   35.87    1.01
   1  -3 -10   35.33    1.19
  -1   3 -12    9.79    0.62
   3   1  12    9.83    0.57
  -3   1 -12   10.77    0.63
   1  -3 -12   10.51    0.54
   1  -3 -12   10.75    0.63
   1  -3 -12   10.08    0.44
   3  -1 -12   10.37    0.64
   1  -3 -14    7.13    0.37
   3  -1 -14    6.85    0.57
  -3   1 -14    7.68    0.58
   1  -3 -14    7.01    0.56
  -1   3 -14    6.88    0.57
   3   1  14    6.47    0.49
  -1   3 -16    3.92    0.49
   1  -3 -16    3.56    0.28
   3  -1 -16    3.15    0.43
   1  -3 -16    3.60    0.46
  -3   1 -16    4.06    0.48
   3  -1 -18    0.88    0.33
  -1   3 -18    1.86    0.36
   1  -3 -18    1.31    0.35
   1  -3 -18    1.07    0.17
  -3   1 -18    0.90    0.29
   3  -1 -20    2.72    0.45
  -1   3 -20    3.23    0.50
   3  -1 -20    2.61    0.29
   1  -3 -20    2.94    0.47
  -3   1 -20    2.52    0.43
  -1   3 -22    0.46    0.27
  -3   1 -22    0.12    0.28
   1  -3 -22    0.60    0.30
   3  -1 -22    0.59    0.33
  -3   1 -24    0.57    0.37
  -1   3 -24   -0.02    0.32
   3  -1 -24    0.60    0.32
   1  -3 -24    0.74    0.31
  -2  -3 -25    0.64    0.36
  -3  -2 -25    0.64    0.29
   3   2 -25    0.00    0.27
   2   3 -25    0.39    0.32
   2   3 -23    0.42    0.31
  -3  -2 -23    0.64    0.33
  -2  -3 -23   -0.24    0.26
   3   2 -23    0.25    0.25
   3   2 -21    1.26    0.35
  -2  -3 -21    1.53    0.35
   2   3 -21    1.36    0.39
  -3  -2 -21    0.96    0.32
   3   2 -19    2.41    0.42
  -3  -2 -19    2.31    0.38
   2   3 -19    2.53    0.44
  -2  -3 -19    1.76    0.38
   2   3 -17    2.29    0.41
   3   2 -17    3.00    0.46
  -3  -2 -17    2.92    0.40
   3   2 -17    2.71    0.28
  -2  -3 -17    2.53    0.39
   3   2 -15   21.81    0.84
   3   2 -15   24.85    1.15
   2  -3  15   25.57    1.12
   2   3 -15   24.52    1.13
   3  -2  15   24.06    1.09
  -2  -3 -15   23.05    1.05
  -3  -2 -15   22.50    1.05
   2   3 -13   14.59    0.65
   2  -3  13   15.17    0.80
   3   2 -13   14.78    0.63
   2   3 -13   14.76    0.80
   3  -2  13   15.11    0.78
  -2  -3 -13   14.34    0.75
   3   2 -13   15.79    0.83
  -3  -2 -13   15.22    0.77
  -2  -3 -13   14.04    0.65
   2   3 -11   21.39    0.80
   2   3 -11   21.44    0.93
  -3  -2 -11   23.00    0.82
   3   2 -11   22.01    0.78
   3   2 -11   21.22    0.93
   3  -2  11   21.87    0.91
  -3  -2 -11   20.23    0.87
  -2  -3 -11   21.41    0.77
  -2  -3 -11   21.60    0.88
   2  -3  11   22.35    0.93
  -3  -2  -9   78.55    1.97
   2  -3   9   79.86    2.13
  -2  -3  -9   79.53    1.93
  -3  -2  -9   76.00    2.05
   3  -2   9   78.15    2.10
   3   2  -9   78.77    1.97
   3   2  -9   78.76    2.13
  -3   2   9   78.75    1.75
   2   3  -9   78.83    2.13
  -2  -3  -9   75.79    2.04
   3  -2   9   76.52    2.07
   2   3  -9   82.87    2.03
   2  -3   9   79.53    2.08
   3   2  -7   51.49    1.39
   2  -3   7   52.20    1.48
   2   3  -7   52.89    1.42
   3   2  -7   53.15    1.47
   3  -2   7   54.14    1.43
  -2  -3  -7   53.61    1.31
   3  -2   7   51.46    1.46
   2   3  -7   52.66    1.47
   2  -3   7   50.70    1.42
  -3  -2  -7   52.13    1.42
  -2  -3  -7   54.59    1.42
  -3  -2  -7   52.50    1.35
   2  -3   5    3.96    0.27
  -2  -3  -5    3.35    0.17
   3  -2   5    3.47    0.23
   3   2  -5    3.46    0.25
   3  -2   5    3.21    0.25
   2   3  -5    3.42    0.25
   2  -3   5    3.53    0.23
  -2  -3  -5    3.54    0.22
   3   2  -5    3.27    0.25
  -2   3   5    3.72    0.25
   3   2  -3  122.73    2.82
  -3   2   3  129.10    2.75
   2   3  -3  124.78    2.79
   2  -3   3  125.52    2.77
   3  -2   3  126.09    2.78
  -2  -3  -3  128.57    2.74
   2  -3   3  133.91    2.87
  -2  -3  -3  127.49    2.86
  -2  -3  -3  130.64    2.84
  -3  -2  -3  125.01    2.78
   2   3  -3  124.41    2.78
   3  -2   3  127.87    2.86
   3  -2   3  128.17    2.74
   3   2  -3  123.57    2.81
   3   2  -1    5.53    0.25
  -2  -3  -1    6.00    0.26
  -2  -3  -1    6.46    0.26
   2  -3   1    6.00    0.23
   3   2  -1    5.39    0.20
   2   3  -1    5.50    0.22
   2   3  -1    5.51    0.19
   2  -3   1    5.82    0.26
  -2  -3  -1    5.65    0.27
   2  -3   1    6.11    0.20
   3  -2   1    5.62    0.27
   2  -3   1    6.31    0.28
  -3  -2  -1    6.13    0.26
  -3  -2  -1    5.88    0.23
   3  -2   1    6.27    0.25
   2  -3  -1    6.78    0.23
  -2  -3   1    6.22    0.30
  -3   2  -1    7.12    0.21
  -3  -2   1    6.69    0.22
  -2  -3   1    6.89    0.22
   3   2   1    6.42    0.28
   3  -2  -1    7.36    0.28
   2  -3  -1    6.21    0.26
   2  -3  -1    6.97    0.31
  -2   3  -1    6.43    0.22
   2   3   1    6.53    0.25
   2  -3  -1    6.70    0.22
  -2  -3   3  128.76    2.87
   3  -2  -3  135.21    2.89
   2   3   3  121.77    2.91
  -2   3  -3  130.58    2.84
   2  -3  -3  127.94    2.86
   2   3   3  128.71    2.75
   2  -3  -3  131.91    2.93
  -3  -2   3  129.92    2.92
   3  -2  -3  130.39    2.81
   3   2   3  128.25    2.90
  -3   2  -3  128.70    2.79
  -2  -3   3  132.03    2.94
   3   2   3  134.79    2.93
   2  -3  -3  133.69    2.88
  -3  -2   3  131.77    2.91
   2   3   5    4.05    0.19
   3   2   5    4.09    0.30
   2  -3  -5    4.16    0.27
   3  -2  -5    4.30    0.29
   3  -2  -5    3.85    0.21
  -3  -2   5    4.56    0.27
   2  -3  -5    4.21    0.26
  -2   3  -5    4.00    0.26
   3   2   5    3.94    0.22
  -2  -3   5    3.58    0.27
   2   3   5    3.71    0.27
  -3   2  -5    4.36    0.20
   2  -3  -5    3.87    0.24
  -3  -2   5    3.78    0.27
  -2  -3   5    4.01    0.27
  -3   2  -5    3.73    0.23
   3  -2  -7   53.53    1.35
   2  -3  -7   52.61    1.38
   2   3   7   53.19    1.26
   2  -3  -7   54.41    1.47
  -3   2  -7   53.74    1.23
   3   2   7   53.28    1.49
  -3  -2   7   53.57    1.49
  -3  -2   7   52.88    1.39
   2  -3  -7   54.17    1.41
   3  -2  -7   55.28    1.49
  -2  -3   7   52.51    1.49
   2   3   7   53.02    1.34
   2   3   7   51.63    1.50
  -3   2  -7   52.09    1.42
   3   2   7   52.91    1.37
   2   3   9   79.27    1.98
   3  -2  -9   80.67    1.99
   3   2   9   79.25    2.02
   3  -2  -9   81.14    2.14
   2  -3  -9   83.68    1.99
  -3   2  -9   74.53    2.05
   2  -3  -9   83.66    2.13
  -3  -2   9   78.09    2.13
   2  -3  -9   82.39    2.05
  -3  -2   9   78.22    1.97
  -2   3  -9   80.18    2.16
  -3   2  -9   79.42    1.75
   2  -3 -11   22.69    0.82
  -2   3 -11   22.75    0.94
   3   2  11   23.32    0.85
   2  -3 -11   22.95    0.77
   2  -3 -11   22.85    0.92
  -3   2 -11   22.58    0.94
  -3   2 -11   20.76    0.53
   2  -3 -11   22.41    0.85
   3  -2 -11   22.21    0.93
   2  -3 -13   16.14    0.63
   2  -3 -13   15.21    0.81
   3   2  13   14.95    0.72
  -3   2 -13   15.25    0.81
  -2   3 -13   14.54    0.80
   3  -2 -13   15.93    0.83
  -3   2 -15   24.91    1.14
   2  -3 -15   24.53    0.85
   3  -2 -15   24.92    1.14
  -2   3 -15   23.83    1.12
   2  -3 -15   23.05    1.09
   2  -3 -17    2.58    0.42
   2  -3 -17    2.38    0.25
  -2   3 -17    3.50    0.46
   3  -2 -17    3.00    0.44
  -3   2 -17    3.09    0.44
  -2   3 -19    2.70    0.44
   2  -3 -19    2.78    0.46
   2  -3 -19    2.56    0.26
  -3   2 -19    1.88    0.39
   3  -2 -19    2.69    0.46
   3  -2 -19    2.25    0.27
   2  -3 -21    1.54    0.35
  -3   2 -21    1.46    0.39
   3  -2 -21    1.51    0.39
  -2   3 -21    1.65    0.40
  -2   3 -23    0.42    0.32
  -3   2 -23    0.12    0.27
   2  -3 -23    0.06    0.27
   3  -2 -23    0.14    0.27
   3  -2 -25    0.74    0.39
   2  -3 -25    0.07    0.25
  -2   3 -25    0.11    0.28
  -3  -3 -24    0.17    0.29
   3   3 -24   -0.10    0.28
  -3  -3 -22    0.89    0.29
   3   3 -22    1.56    0.41
  -3  -3 -20    0.84    0.28
   3   3 -20    1.45    0.36
   3   3 -18   14.26    0.92
  -3  -3 -18   13.63    0.87
  -3  -3 -16    3.89    0.44
   3  -3  16    4.35    0.47
   3   3 -16    5.00    0.54
   3  -3  14    6.62    0.54
  -3  -3 -14    6.53    0.52
   3   3 -14    6.28    0.42
   3   3 -14    6.27    0.55
   3   3 -12   74.36    1.99
   3  -3  12   74.83    2.16
  -3  -3 -12   74.41    1.97
   3   3 -12   75.11    2.20
  -3  -3 -12   73.16    2.10
  -3   3  10   68.45    1.50
  -3  -3 -10   71.82    1.79
  -3  -3 -10   68.59    1.90
   3   3 -10   68.18    1.84
   3   3 -10   71.03    1.99
   3  -3  10   68.14    1.97
   3  -3  10   70.69    1.93
   3   3  -8    3.24    0.27
   3  -3   8    3.86    0.33
   3   3  -8    3.66    0.32
   3  -3   8    4.08    0.31
  -3  -3  -8    3.54    0.28
  -3  -3  -8    3.72    0.24
  -3   3   6  127.00    2.88
   3   3  -6  131.61    2.98
   3   3  -6  123.15    2.96
   3  -3   6  123.46    3.00
   3  -3   6  127.59    2.91
  -3  -3  -6  128.89    2.90
   3   3  -4   96.43    2.31
  -3   3   4  101.40    2.27
   3  -3   4  103.52    2.38
   3   3  -4   97.17    2.31
  -3  -3  -4  101.33    2.32
   3  -3   4  101.75    2.26
  -3  -3  -2    5.95    0.30
   3   3  -2    5.79    0.23
   3  -3   2    6.22    0.26
   3  -3   2    5.91    0.30
  -3  -3  -2    6.06    0.27
   3  -3   2    6.54    0.31
   3   3  -2    6.36    0.26
   3   3  -2    5.98    0.28
   3  -3   0    2.10    0.21
  -3   3   0    2.31    0.15
  -3  -3   0    2.26    0.20
  -3   3   0    2.35    0.15
   3  -3   0    2.50    0.15
   3   3   0    2.23    0.17
  -3  -3   0    2.04    0.16
   3  -3   0    2.38    0.14
  -3   3  -2    6.38    0.26
  -3  -3   2    6.47    0.27
   3  -3  -2    7.05    0.36
   3  -3  -2    6.86    0.30
  -3  -3   2    6.14    0.34
   3  -3  -2    6.95    0.29
  -3   3  -2    6.85    0.24
   3   3   2    6.44    0.30
  -3   3  -2    7.22    0.25
   3  -3  -4  103.86    2.34
  -3   3  -4  110.37    2.37
   3   3   4   99.56    2.28
  -3  -3   4  101.73    2.43
  -3   3  -4  100.46    2.29
  -3  -3   4  106.28    2.39
   3  -3  -4  104.91    2.42
  -3   3  -4  103.47    2.37
  -3   3  -4  102.98    2.34
   3   3   4  107.50    2.46
  -3  -3   4  108.11    2.45
   3  -3  -6  129.63    2.97
   3   3   6  129.32    3.01
  -3  -3   6  125.70    2.96
   3  -3  -6  125.98    2.86
  -3  -3   6  127.29    2.99
  -3   3  -6  127.78    2.80
   3   3   6  122.61    2.81
  -3  -3   6  126.24    2.94
   3   3   8    3.28    0.24
  -3  -3   8    3.72    0.32
  -3   3  -8    3.46    0.20
   3  -3  -8    3.41    0.31
   3   3   8    3.30    0.32
   3  -3  -8    3.66    0.26
  -3  -3   8    3.46    0.28
   3   3   8    3.40    0.18
  -3  -3   8    3.35    0.30
  -3   3 -10   68.89    1.60
   3   3  10   68.77    1.80
  -3   3 -10   67.68    1.96
   3  -3 -10   70.62    1.83
   3  -3 -10   69.23    1.95
  -3   3 -12   75.69    2.17
   3  -3 -12   75.45    2.15
  -3   3 -12   73.26    1.68
   3   3  12   72.02    1.98
  -3   3 -14    7.39    0.58
   3  -3 -14    6.43    0.56
   3  -3 -14    6.50    0.42
  -3   3 -14    6.28    0.24
   3  -3 -16    3.48    0.44
   3  -3 -16    3.43    0.32
  -3   3 -16    3.97    0.49
   3  -3 -18   12.40    0.62
   3  -3 -18   14.36    0.92
  -3   3 -18   14.10    0.90
  -3   3 -20    1.77    0.41
   3  -3 -20    1.23    0.22
   3  -3 -20    1.30    0.36
  -3   3 -22    0.47    0.31
   3  -3 -22    0.22    0.26
  -3   3 -24   -0.24    0.26
   3  -3 -24    0.26    0.29
   0  -4   0    2.03    0.12
   4   0   0    2.26    0.18
   0  -4   0    2.07    0.17
   0   4   0    2.16    0.12
   0   4   2    0.64    0.08
   4   0   2    0.94    0.15
   4   0  -2    0.90    0.16
   0  -4  -2    0.97    0.14
   4   0  -2    0.73    0.12
   0  -4   2    1.07    0.14
  -4   0   2    0.64    0.10
   0   4   2    0.73    0.13
   0  -4  -2    0.88    0.15
   0   4   2    0.86    0.12
   0   4   4   -0.02    0.10
   4   0  -4   -0.11    0.12
   0   4  -4    0.08    0.10
   4   0  -4    0.02    0.12
   0  -4   4    0.01    0.10
   4   0   4    0.09    0.10
   0  -4   4    0.13    0.12
   0   4   4    0.05    0.12
   4   0   4    0.05    0.10
  -4   0  -4    0.16    0.10
  -4   0   4   -0.04    0.10
   0  -4  -4    0.06    0.15
   0  -4  -4    0.28    0.13
   0   4   4    0.13    0.07
   0  -4  -4   -0.09    0.08
   0   4   4    0.02    0.08
   4   0  -6   33.99    1.05
   0   4   6   32.93    0.98
  -4   0  -6   33.75    1.01
   0  -4  -6   35.58    0.88
   0   4   6   34.59    0.96
   0  -4   6   36.82    1.10
  -4   0   6   34.60    1.04
   0  -4  -6   34.46    1.04
   0  -4   6   35.61    1.05
   4   0   6   35.09    1.03
   0   4  -6   34.26    1.04
   4   0   6   33.81    1.01
   0  -4  -6   36.27    1.00
   0  -4   8    1.83    0.26
   0  -4  -8    1.35    0.15
  -4   0   8    1.67    0.23
   4   0  -8    1.48    0.23
   0   4  -8    1.73    0.25
   0  -4  -8    1.27    0.21
   4   0   8    1.40    0.19
  -4   0  -8    1.41    0.20
  -4   0   8    1.47    0.16
  -4   0  -8    1.67    0.20
   0   4   8    1.24    0.19
   0  -4   8    1.32    0.20
   0  -4  -8    1.49    0.21
   0   4  10    0.49    0.16
  -4   0  10    0.80    0.13
   0  -4 -10    0.52    0.18
   0  -4 -10    0.71    0.12
   4   0 -10    0.71    0.20
   0   4 -10    0.84    0.22
   0   4 -10    0.76    0.16
   4   0  10    0.94    0.19
  -4   0 -10    0.51    0.18
  -4   0 -10    0.89    0.18
   4   0 -12    0.85    0.24
   0  -4 -12    0.54    0.20
   0  -4 -12    0.35    0.11
   0   4 -12    0.17    0.17
   4   0  12    0.40    0.16
  -4   0 -12    0.50    0.20
   0   4 -12    0.49    0.14
   0   4 -14    0.08    0.23
   4   0  14    0.24    0.20
  -4   0 -14    0.27    0.22
   0  -4 -14    0.29    0.25
   4   0 -14    0.47    0.25
  -4   0 -16    0.71    0.26
   0   4 -16    0.86    0.28
   4   0  16    0.47    0.22
   0  -4 -16    1.19    0.33
   4   0 -16    1.32    0.33
   4   0 -18    0.75    0.31
  -4   0 -18    1.24    0.33
   0   4 -18    1.37    0.36
   0  -4 -18    0.65    0.23
  -4   0 -20    1.64    0.38
   4   0 -20    0.62    0.31
   0   4 -20    1.23    0.39
   0  -4 -20    1.11    0.34
  -4   0 -22    0.12    0.25
   0   4 -22   -0.05    0.28
   0  -4 -22   -0.31    0.29
   4   0 -22    0.17    0.29
   0   4 -24    1.29    0.41
  -4   0 -24    0.83    0.34
   4   0 -24    1.22    0.40
   0  -4 -24    1.40    0.39
   1   4 -25    0.79    0.38
  -4  -1 -25    0.35    0.31
  -1  -4 -25   -0.14    0.29
   4   1 -25    0.15    0.31
  -1  -4 -23   -0.41    0.32
   4   1 -23   -0.07    0.29
  -4  -1 -23    0.08    0.26
  -4  -1 -21    0.21    0.26
  -1  -4 -21    0.25    0.22
   1   4 -21    0.08    0.27
   4   1 -21    0.35    0.26
   4   1 -19    2.58    0.43
   1   4 -19    2.42    0.43
  -4  -1 -19    2.64    0.42
  -1  -4 -19    2.93    0.44
   4  -1  17    0.59    0.23
   4   1 -17    1.13    0.32
  -1  -4 -17    1.76    0.36
   1   4 -17    1.34    0.35
  -4  -1 -17    1.12    0.33
  -4  -1 -15    0.89    0.26
   1   4 -15    1.68    0.34
  -1  -4 -15    1.17    0.29
   4  -1  15    1.92    0.32
   4   1 -15    1.61    0.35
   4  -1  13    3.29    0.36
   4   1 -13    2.80    0.37
  -1  -4 -13    2.76    0.27
  -4  -1 -13    3.19    0.38
  -1  -4 -13    3.18    0.37
   1   4 -13    3.06    0.38
   1   4 -11    6.78    0.49
   1   4 -11    5.64    0.40
  -4  -1 -11    6.07    0.40
  -4  -1 -11    5.03    0.42
   4  -1  11    5.63    0.42
   4   1 -11    5.45    0.46
  -1  -4 -11    5.65    0.34
  -4   1  11    5.48    0.29
  -1  -4 -11    5.65    0.42
   1  -4  11    6.62    0.49
   4  -1   9   24.56    0.90
   4   1  -9   26.02    0.96
   1  -4   9   25.86    0.97
  -1   4   9   26.02    0.91
  -1  -4  -9   25.48    0.76
  -4   1   9   26.22    0.73
  -1  -4  -9   22.73    0.59
   1   4  -9   26.77    0.91
   1  -4   9   25.64    0.92
  -1  -4  -9   24.13    0.93
  -4  -1  -9   26.17    0.92
  -1  -4  -9   25.94    0.89
   1   4  -9   27.25    0.98
  -4  -1  -9   26.90    0.88
  -1  -4  -7   12.80    0.37
   1   4  -7   13.35    0.59
   4  -1   7   12.01    0.54
  -1  -4  -7   12.39    0.42
   4   1  -7   12.71    0.58
   1  -4   7   12.74    0.59
  -1  -4  -7   13.08    0.58
   1   4  -7   12.86    0.56
  -1   4   7   13.65    0.54
  -1  -4  -7   13.84    0.54
   1  -4   7   12.53    0.55
  -1  -4  -5   14.72    0.43
   4   1  -5   14.37    0.56
   4  -1   5   14.15    0.53
  -1   4   5   14.06    0.51
   1  -4   5   13.92    0.53
  -1  -4  -5   14.68    0.49
  -1  -4  -5   14.68    0.58
  -1  -4  -5   14.81    0.57
   4  -1   5   13.99    0.43
  -1   4   5   13.84    0.40
   4   1  -5   13.99    0.56
  -1   4   5   14.12    0.52
  -1  -4  -5   14.43    0.39
   4  -1   5   13.39    0.54
   1   4  -5   14.73    0.55
   1  -4   5   15.65    0.59
  -4  -1  -3    4.57    0.20
   4  -1   3    4.03    0.25
  -1  -4  -3    4.10    0.22
  -4   1   3    4.26    0.23
   4  -1   3    4.42    0.22
   1  -4   3    4.20    0.26
   4   1  -3    4.33    0.26
  -1  -4  -3    3.97    0.26
  -1   4   3    4.14    0.22
  -4   1   3    4.28    0.16
   1   4  -3    4.11    0.23
  -1  -4  -3    4.46    0.27
   4   1  -3    3.75    0.26
  -1  -4  -3    4.23    0.18
  -1   4   3    3.56    0.23
   1   4  -1    4.01    0.15
  -1  -4  -1    3.60    0.22
   1  -4   1    4.10    0.21
  -4  -1  -1    3.84    0.15
   1   4  -1    3.84    0.16
   4   1  -1    3.47    0.19
   1   4  -1    3.93    0.20
  -1  -4  -1    3.71    0.24
  -1   4   1    3.95    0.19
   1  -4   1    3.62    0.21
  -4   1   1    3.80    0.15
   4  -1   1    4.54    0.24
  -1  -4  -1    3.74    0.16
   4   1  -1    4.02    0.24
  -1  -4  -1    3.76    0.23
   4   1   1    4.43    0.17
  -1  -4   1    4.60    0.17
   4   1   1    4.76    0.26
  -1  -4   1    4.57    0.27
   1  -4  -1    3.65    0.24
   4  -1  -1    4.61    0.25
   1   4   3    4.35    0.23
   4   1   3    3.96    0.25
   4  -1  -3    4.03    0.25
   1  -4  -3    3.77    0.25
   4   1   3    3.95    0.26
   1  -4  -3    4.10    0.24
   1   4   3    3.63    0.25
   1  -4  -3    4.43    0.22
  -4  -1   3    3.76    0.23
   1  -4  -3    4.08    0.25
   1   4   3    3.86    0.18
   1   4   5   14.21    0.57
  -4   1  -5   14.24    0.51
   1  -4  -5   15.33    0.54
   1  -4  -5   13.68    0.53
   4   1   5   13.98    0.51
   1   4   5   14.53    0.50
  -4  -1   5   14.20    0.53
   4   1   5   15.58    0.57
  -1  -4   5   14.95    0.57
   4  -1  -5   14.22    0.57
   4  -1  -5   15.01    0.42
  -4  -1   5   14.67    0.56
   1  -4  -5   14.76    0.52
  -1  -4   7   12.42    0.56
   4  -1  -7   12.80    0.43
  -1  -4   7   13.07    0.57
   1   4   7   11.95    0.45
   1   4   7   12.46    0.59
   1  -4  -7   12.29    0.54
   1  -4  -7   13.00    0.54
   1  -4  -7   13.14    0.50
   4  -1  -7   12.15    0.57
   1   4   7   12.46    0.51
  -4  -1   7   11.94    0.48
  -4  -1   7   12.01    0.55
  -4   1  -7   12.13    0.52
  -1   4  -7   12.39    0.56
  -1   4  -7   12.87    0.57
   4   1   7   12.33    0.51
   4   1   7   12.41    0.56
   1  -4  -9   24.97    0.89
  -1  -4   9   26.44    0.95
  -4  -1   9   24.33    0.94
  -4   1  -9   23.90    0.89
   1   4   9   24.07    0.88
  -4  -1   9   24.64    0.79
   1  -4  -9   25.35    0.81
  -4   1  -9   25.89    0.92
   4  -1  -9   27.01    0.80
   1  -4  -9   25.51    0.80
   1  -4  -9   24.63    0.90
   4   1   9   24.83    0.87
   4  -1  -9   25.96    0.97
  -1   4  -9   25.15    0.96
   4   1  11    6.07    0.41
  -4   1 -11    5.62    0.44
   1  -4 -11    6.00    0.44
   4  -1 -11    6.26    0.47
   1  -4 -11    5.78    0.36
   1  -4 -11    5.98    0.34
  -1   4 -11    6.20    0.47
  -4  -1  11    5.50    0.33
   4  -1 -13    3.33    0.41
  -4   1 -13    3.88    0.41
   4   1  13    3.43    0.35
   1  -4 -13    3.18    0.26
  -1   4 -13    3.05    0.38
   1  -4 -13    2.72    0.35
   1  -4 -13    3.27    0.31
  -4   1 -15    0.60    0.29
   1  -4 -15    1.07    0.18
  -1   4 -15    1.35    0.35
   1  -4 -15    1.01    0.27
   4   1  15    0.96    0.24
   4  -1 -15    1.50    0.33
  -4   1 -17    0.29    0.28
   4  -1 -17    1.04    0.32
  -1   4 -17    0.80    0.30
   1  -4 -17    1.06    0.17
   1  -4 -17    1.12    0.30
   4   1  17    0.86    0.24
  -4   1 -19    2.11    0.41
   4  -1 -19    2.85    0.47
  -1   4 -19    3.35    0.49
   1  -4 -19    2.94    0.44
  -1   4 -21    0.00    0.29
   1  -4 -21   -0.20    0.27
  -4   1 -21   -0.46    0.33
   4  -1 -21    0.04    0.30
  -4   1 -23    0.70    0.36
  -1   4 -23    0.01    0.27
   1  -4 -23    0.12    0.24
   4  -1 -23    0.74    0.36
  -4   1 -25    0.10    0.33
   4  -1 -25   -0.17    0.30
   1  -4 -25   -0.16    0.26
  -1   4 -25    0.30    0.25
  -4  -2 -24    0.05    0.27
   4   2 -24   -0.06    0.29
   2   4 -24   -0.09    0.30
  -2  -4 -24    0.14    0.29
  -4  -2 -22   -0.08    0.28
  -2  -4 -22    0.53    0.29
   4   2 -22    0.74    0.33
   2   4 -22    0.00    0.25
  -2  -4 -20    1.71    0.37
   4   2 -20    1.81    0.40
   2   4 -20    1.34    0.40
  -4  -2 -20    1.17    0.34
   4   2 -18    3.10    0.46
  -2  -4 -18    1.18    0.32
   4  -2  18    1.68    0.33
   2   4 -18    2.69    0.45
  -4  -2 -18    1.90    0.35
   4   2 -16    1.62    0.36
  -4  -2 -16    1.62    0.33
   2   4 -16    1.16    0.32
  -2  -4 -16    1.26    0.30
   4  -2  16    1.53    0.31
   4   2 -14    5.26    0.50
   2  -4  14    4.83    0.46
  -4  -2 -14    4.31    0.44
   4  -2  14    4.53    0.45
   2   4 -14    4.64    0.49
  -2  -4 -14    3.97    0.42
   2  -4  12   38.24    1.39
   4   2 -12   38.09    1.38
  -2  -4 -12   37.67    1.29
   2   4 -12   37.13    1.24
   2   4 -12   38.19    1.38
  -2  -4 -12   36.68    1.15
  -4   2  12   39.86    0.98
   4  -2  12   37.67    1.33
  -4  -2 -12   38.89    1.32
  -4   2  10   37.13    0.93
   2   4 -10   37.63    1.27
   4  -2  10   35.73    1.19
  -4  -2 -10   34.88    1.18
   2   4 -10   35.14    1.16
   2  -4  10   34.63    1.25
  -4  -2 -10   37.64    1.13
   4   2 -10   35.65    1.25
  -2  -4 -10   35.87    1.17
   4  -2  10   35.92    1.22
  -2  -4 -10   35.97    1.04
  -2   4   8    6.08    0.38
   4  -2   8    6.65    0.41
  -2  -4  -8    6.15    0.30
   2  -4   8    6.85    0.44
   2  -4   8    6.21    0.39
  -2  -4  -8    7.46    0.40
   4   2  -8    6.54    0.42
   2   4  -8    6.82    0.43
   2   4  -8    6.17    0.39
   4  -2   6   43.72    1.18
   4  -2   6   42.56    1.25
  -2  -4  -6   43.97    1.09
   4  -2   6   44.00    1.07
   4   2  -6   43.90    1.25
  -2  -4  -6   44.18    1.17
  -2  -4  -6   37.67    1.21
  -2   4   6   43.98    1.21
   2  -4   6   44.36    1.21
   2  -4   6   44.35    1.28
  -2   4   6   44.34    1.21
  -2  -4  -6   42.69    1.27
  -2  -4  -6   45.62    1.05
   2   4  -6   42.80    1.23
   4  -2   4   64.56    1.66
  -4   2   4   65.11    1.51
   4   2  -4   66.19    1.64
  -2  -4  -4   65.82    1.67
  -2  -4  -4   66.21    1.65
  -2  -4  -4   69.81    1.54
   4   2  -4   63.72    1.63
   4  -2   4   67.67    1.54
   2  -4   4   67.76    1.68
   2   4  -4   63.53    1.60
  -4  -2  -4   65.94    1.56
   4  -2   4   65.96    1.56
   4  -2   4   66.83    1.56
   2  -4   4   67.90    1.60
  -2   4   4   62.51    1.59
  -2  -4  -4   64.23    1.56
  -2  -4  -2   15.96    0.56
   4   2  -2   16.43    0.42
  -2  -4  -2   16.49    0.56
   4  -2   2   16.97    0.45
   2   4  -2   16.50    0.47
   4   2  -2   16.18    0.56
  -4  -2  -2   16.30    0.48
  -2  -4  -2   17.21    0.55
  -2  -4  -2   16.76    0.50
   2   4  -2   16.38    0.48
   2  -4   2   17.11    0.55
   4  -2   2   17.81    0.55
   2  -4   0   10.92    0.39
  -2   4   0   11.17    0.31
  -2  -4   0   11.63    0.35
  -4  -2   0   11.01    0.36
   4   2   0   10.72    0.41
   2   4   0   11.10    0.35
  -2  -4   0   11.34    0.41
   4   2   0   11.22    0.37
   2  -4   0   11.40    0.31
   4  -2   0   11.65    0.41
   4  -2   0   11.46    0.31
  -2  -4   0   10.53    0.43
  -2  -4   0   11.81    0.43
  -4  -2   2   16.38    0.53
  -2  -4   2   17.39    0.49
   2  -4  -2   17.01    0.59
   4  -2  -2   16.87    0.55
   2  -4  -2   15.54    0.54
   4   2   2   15.52    0.48
  -2  -4   2   17.33    0.49
  -4   2  -2   17.31    0.41
   4   2   2   15.88    0.55
   2  -4  -2   17.74    0.50
  -2   4  -2   17.58    0.52
  -4  -2   2   16.55    0.42
  -2   4  -2   16.12    0.45
  -2  -4   2   16.51    0.59
   4  -2  -4   67.44    1.55
   2  -4  -4   66.15    1.65
  -4   2  -4   67.01    1.58
  -4  -2   4   67.41    1.69
  -2   4  -4   67.67    1.64
  -2  -4   4   71.80    1.66
   2  -4  -4   67.01    1.70
  -2  -4   4   68.93    1.73
   2  -4  -4   69.85    1.67
   2  -4  -4   68.02    1.64
   4   2   4   69.47    1.71
   2   4   4   67.53    1.48
  -4  -2   4   67.22    1.68
   2   4   4   64.92    1.70
   4  -2  -4   68.51    1.69
  -2   4  -6   45.04    1.25
  -2  -4   6   48.06    1.28
  -2  -4   6   46.04    1.31
   4  -2  -6   44.93    1.13
  -4  -2   6   44.48    1.29
   2  -4  -6   47.56    1.29
   2  -4  -6   45.39    1.24
   4   2   6   44.28    1.19
   2  -4  -6   44.99    1.25
   4  -2  -6   45.15    1.30
   2  -4  -6   46.30    1.26
  -4   2  -6   43.25    1.20
  -4  -2   6   44.56    1.24
   2   4   6   45.45    1.32
   2   4   6   45.56    1.10
   4   2   6   47.64    1.31
   2  -4  -8    6.52    0.42
  -4  -2   8    6.37    0.36
   4   2   8    6.30    0.36
   2   4   8    5.98    0.29
   2  -4  -8    7.05    0.38
   4  -2  -8    6.41    0.32
   2  -4  -8    6.01    0.36
  -2  -4   8    6.28    0.41
   2   4   8    6.83    0.45
  -4   2  -8    6.83    0.38
  -2  -4   8    6.89    0.42
  -4  -2   8    5.76    0.39
   2   4   8    6.36    0.31
   4   2   8    6.02    0.41
   4  -2  -8    6.62    0.44
   2  -4  -8    6.48    0.40
   4  -2 -10   35.74    1.23
  -4   2 -10   34.96    1.16
  -4  -2  10   36.59    1.10
   4  -2 -10   37.45    1.08
   4   2  10   36.23    1.13
   2  -4 -10   36.09    1.17
   2  -4 -10   35.26    1.08
  -2   4 -10   36.44    1.25
   2  -4 -10   35.61    1.20
   4  -2 -12   41.67    1.23
  -4   2 -12   39.68    1.39
   2  -4 -12   39.29    1.36
   4   2  12   39.25    1.28
   2  -4 -12   39.44    1.23
  -2   4 -12   38.35    1.40
   4  -2 -12   37.95    1.39
   2  -4 -12   36.79    1.16
  -2   4 -14    4.81    0.49
  -4   2 -14    4.24    0.46
   2  -4 -14    4.88    0.35
   4  -2 -14    4.97    0.48
   2  -4 -14    4.85    0.47
   4   2  14    4.41    0.40
   2  -4 -16    1.00    0.29
  -4   2 -16    1.74    0.40
   4  -2 -16    1.54    0.38
   4   2  16    1.47    0.27
   2  -4 -16    1.29    0.20
  -2   4 -16    0.59    0.29
   4  -2 -18    2.72    0.47
   2  -4 -18    2.33    0.26
  -4   2 -18    1.97    0.42
   2  -4 -18    2.19    0.40
  -2   4 -18    1.75    0.36
   4  -2 -20    1.68    0.38
  -2   4 -20    1.86    0.42
   2  -4 -20    1.71    0.40
  -4   2 -20    1.47    0.35
   4  -2 -20    1.42    0.25
   2  -4 -22    0.28    0.29
   4  -2 -22    0.45    0.31
  -4   2 -22    0.14    0.27
  -2   4 -22   -0.10    0.30
  -2   4 -24    0.20    0.32
   2  -4 -24    0.14    0.28
  -4   2 -24    0.64    0.36
   4  -2 -24   -0.01    0.28
   3   4 -25    0.27    0.31
  -3  -4 -25    0.61    0.30
  -4  -3 -25    0.09    0.25
   4   3 -25   -0.33    0.34
   3   4 -23    0.62    0.32
  -3  -4 -23    0.18    0.26
   4   3 -23    0.56    0.38
  -4  -3 -23    0.76    0.31
  -4  -3 -21    0.93    0.29
   3   4 -21    0.95    0.38
   4   3 -21    0.44    0.32
  -3  -4 -21    0.29    0.26
  -4  -3 -19    1.61    0.36
   4   3 -19    1.44    0.40
  -3  -4 -19    0.93    0.28
   3   4 -19    1.20    0.35
   4  -3  19    1.42    0.34
   3  -4  17    4.46    0.50
   4  -3  17    5.12    0.51
   3   4 -17    4.24    0.51
  -3  -4 -17    3.77    0.45
  -4  -3 -17    3.74    0.46
   4   3 -17    4.20    0.51
   3   4 -15   17.68    0.95
   4   3 -15   17.16    0.95
   3  -4  15   16.02    0.91
  -4  -3 -15   16.14    0.86
   4  -3  15   17.35    0.92
  -3  -4 -15   16.64    0.87
  -3  -4 -13   22.74    0.84
   3   4 -13   22.88    1.04
  -4  -3 -13   22.22    0.97
   3  -4  13   21.96    1.02
  -3  -4 -13   23.51    0.98
   4   3 -13   23.83    1.06
   4  -3  13   23.34    1.02
   4   3 -13   21.05    0.86
   3   4 -11    3.90    0.40
  -3  -4 -11    3.69    0.34
   4  -3  11    3.92    0.37
   4   3 -11    3.93    0.40
  -4  -3 -11    3.48    0.29
   3  -4  11    3.93    0.39
  -4   3  11    4.18    0.19
   3   4 -11    3.82    0.33
   4   3 -11    4.37    0.34
  -3  -4 -11    4.02    0.29
  -4  -3 -11    4.11    0.36
  -3  -4  -9   29.22    0.85
  -3  -4  -9   28.09    0.96
   4   3  -9   27.45    0.95
   4  -3   9   27.62    1.01
   3  -4   9   26.98    0.96
  -4  -3  -9   27.62    0.96
   3  -4   9   27.01    1.02
   4   3  -9   28.94    1.03
   3   4  -9   27.41    0.97
   4  -3   9   28.70    0.97
   3   4  -9   26.71    1.01
  -3   4   7   63.63    1.71
   4   3  -7   63.52    1.73
   3   4  -7   67.52    1.75
   3   4  -7   63.40    1.72
   3  -4   7   63.20    1.66
   3  -4   7   64.62    1.77
  -3  -4  -7   65.64    1.65
   4  -3   7   62.25    1.73
  -3  -4  -7   61.64    1.70
   4  -3   7   65.06    1.65
   4   3  -7   63.68    1.71
  -3   4   5   11.47    0.46
   3   4  -5   10.44    0.45
  -4  -3  -5   11.56    0.46
   4  -3   5   10.78    0.41
   4   3  -5   10.86    0.47
   3  -4   5   11.37    0.44
  -3  -4  -5   11.02    0.51
  -3   4   5   10.78    0.47
   3  -4   5   11.79    0.52
  -3  -4  -5   11.99    0.43
   4   3  -5   11.05    0.48
   3   4  -5   11.09    0.46
  -4   3   5   11.41    0.42
  -3  -4  -5   12.12    0.49
   4  -3   5   10.75    0.50
   4  -3   5   11.14    0.42
  -3  -4  -5   11.94    0.50
   4   3  -3   35.08    0.85
  -3  -4  -3   36.75    0.98
  -4  -3  -3   34.83    0.94
  -3  -4  -3   35.73    1.01
   4   3  -3   34.03    0.98
   3  -4   3   36.32    1.02
  -3   4   3   35.14    0.96
  -3  -4  -3   36.00    0.99
   4  -3   3   35.10    0.85
   3   4  -3   34.57    0.94
  -3  -4  -3   35.47    0.96
  -4   3   3   34.73    0.91
   4   3  -3   34.69    0.94
   4  -3   3   36.24    0.96
   3   4  -3   34.40    0.92
   4  -3   3   36.85    1.03
   4  -3   3   34.88    0.97
   3  -4   1   34.37    0.84
   3   4  -1   33.56    0.88
   3   4  -1   33.31    0.89
   4   3  -1   33.45    0.93
  -4  -3  -1   34.01    0.91
  -3  -4  -1   35.37    0.89
  -3  -4  -1   35.04    0.93
   4  -3   1   35.71    0.90
  -3  -4  -1   31.84    0.96
  -3   4   1   33.23    0.85
  -4  -3  -1   36.65    0.90
   4  -3   1   34.63    0.81
  -3  -4  -1   34.14    0.93
   3  -4   1   33.31    0.97
  -4   3   1   34.25    0.90
   3  -4   1   34.09    0.87
  -3   4   1   35.96    0.91
   4   3  -1   33.90    0.86
   3   4  -1   32.41    0.80
   4  -3   1   32.78    0.97
   3  -4  -1   35.60    0.86
   3   4   1   34.28    0.91
   3  -4  -1   32.25    0.90
  -4   3  -1   34.45    0.91
  -4   3  -1   35.15    0.83
   4   3   1   33.12    0.94
   3  -4  -1   33.28    1.00
   4  -3  -1   34.53    0.87
   3  -4  -1   35.54    0.82
  -4  -3   1   34.36    0.86
  -3   4  -1   35.13    0.89
   4  -3  -1   35.84    0.92
  -3  -4   1   35.81    0.90
  -3  -4   1   33.85    0.90
  -3   4  -1   34.29    0.85
   4   3   1   34.38    0.90
  -3  -4   1   33.05    0.99
  -4  -3   1   35.58    0.88
  -3  -4   1   35.93    0.83
  -4   3  -3   36.82    0.98
   3  -4  -3   37.59    1.08
   3  -4  -3   38.33    1.03
  -3  -4   3   38.85    1.08
  -3   4  -3   36.38    0.94
  -4   3  -3   35.06    0.86
   3   4   3   35.54    1.04
   4   3   3   34.86    0.97
  -4  -3   3   36.25    1.06
  -4   3  -3   37.83    0.90
  -4  -3   3   36.50    0.98
  -3   4  -3   38.03    1.03
   3  -4  -3   37.93    0.96
   4  -3  -3   39.28    1.01
  -3  -4   3   37.37    0.96
   4   3   3   38.63    1.06
  -3   4  -3   34.03    0.93
   4   3   3   36.67    1.02
  -4  -3   5   11.09    0.49
  -4  -3   5   10.84    0.49
   3   4   5   10.90    0.36
   4  -3  -5   11.27    0.50
  -3  -4   5   12.44    0.48
  -3   4  -5   11.88    0.46
  -3  -4   5   11.05    0.50
   3   4   5   11.51    0.52
  -3  -4   5   10.96    0.50
  -3   4  -5   11.84    0.45
  -4   3  -5   10.93    0.46
   4  -3  -5   11.23    0.41
  -4   3  -5   10.49    0.40
   3  -4  -5   11.11    0.44
   4   3   5   10.73    0.40
   4   3   5   11.54    0.51
   3  -4  -5   11.44    0.51
  -4  -3   5   11.33    0.48
   3  -4  -5   12.50    0.50
  -4  -3   7   64.98    1.73
   4  -3  -7   65.25    1.74
  -3  -4   7   58.20    1.69
   3   4   7   62.21    1.54
  -3  -4   7   65.67    1.73
  -4  -3   7   63.01    1.69
   3   4   7   64.99    1.78
   4   3   7   62.50    1.59
   3  -4  -7   65.21    1.65
   3  -4  -7   65.85    1.71
  -4   3  -7   69.04    1.56
   4  -3  -7   63.46    1.59
   4   3   7   63.70    1.77
  -3  -4   7   64.53    1.76
  -4  -3   7   62.46    1.75
  -3   4  -7   66.57    1.59
   3  -4  -7   61.90    1.70
  -4   3  -7   65.51    1.64
   3   4   9   26.86    0.83
   3   4   9   26.86    1.02
  -4  -3   9   24.46    0.88
   4  -3  -9   26.75    0.99
  -4   3  -9   25.31    0.90
   3   4   9   26.31    0.74
  -3   4  -9   28.21    0.79
   4  -3  -9   27.59    0.86
   3  -4  -9   27.21    0.90
   4   3   9   26.87    0.87
   3  -4  -9   26.07    0.96
  -3  -4   9   27.06    0.99
   4   3   9   26.26    1.00
   3  -4  -9   24.51    0.88
   3  -4 -11    3.91    0.32
   3   4  11    4.11    0.30
   3  -4 -11    4.19    0.33
   3  -4 -11    4.00    0.39
  -4  -3  11    3.36    0.30
   4  -3 -11    4.54    0.41
   4  -3 -11    4.24    0.32
  -3   4 -11    4.02    0.39
   4   3  11    4.18    0.33
  -3   4 -11    4.07    0.23
   4   3  13   23.63    0.92
  -4   3 -13   23.47    1.05
  -3   4 -13   23.09    1.05
   3  -4 -13   22.67    1.02
   3  -4 -13   21.99    0.86
   4  -3 -13   25.21    1.07
  -3   4 -13   23.51    0.69
   3  -4 -15   16.79    0.73
   4   3  15   17.24    0.81
   3  -4 -15   17.64    0.93
   4  -3 -15   17.77    0.94
  -3   4 -15   17.99    0.96
  -3   4 -15   16.40    0.53
  -4   3 -15   17.50    0.95
   3  -4 -17    3.40    0.46
   4  -3 -17    3.94    0.49
   4  -3 -17    4.14    0.39
  -3   4 -17    3.76    0.51
   3  -4 -17    3.82    0.35
  -4   3 -17    4.19    0.50
   4  -3 -19    1.69    0.38
   3  -4 -19    1.34    0.33
   3  -4 -19    1.35    0.23
  -4   3 -19    1.19    0.34
   4  -3 -19    0.93    0.21
  -3   4 -19    1.47    0.35
   3  -4 -21    1.20    0.35
  -4   3 -21    0.68    0.30
  -3   4 -21    0.26    0.25
   4  -3 -21    0.89    0.34
   4  -3 -23    0.18    0.29
  -4   3 -23    1.10    0.37
  -3   4 -23    0.64    0.33
   3  -4 -23    0.27    0.26
  -3   4 -25    0.00    0.29
   3  -4 -25    0.39    0.34
  -4   3 -25   -0.38    0.32
   4  -3 -25    0.70    0.33
   4   4 -24   -0.24    0.31
  -4  -4 -24   -0.41    0.32
   4   4 -22    1.86    0.45
  -4  -4 -22    1.48    0.37
   4   4 -20    1.34    0.35
  -4  -4 -20    1.88    0.39
   4  -4  18    7.35    0.65
  -4  -4 -18    8.40    0.66
   4   4 -18    7.77    0.70
  -4  -4 -16    0.64    0.26
   4   4 -16    1.06    0.32
   4  -4  16    0.81    0.25
   4   4 -14    5.54    0.53
   4  -4  14    4.75    0.47
  -4  -4 -14    5.00    0.46
   4  -4  12   32.67    1.24
  -4  -4 -12   30.72    1.15
  -4  -4 -12   32.27    1.05
   4   4 -12   32.71    1.25
   4   4 -10   27.21    0.98
   4  -4  10   26.70    1.04
   4   4 -10   26.90    1.03
  -4  -4 -10   25.84    0.95
   4  -4  10   26.34    0.97
   4  -4   8   50.43    1.51
  -4  -4  -8   50.19    1.40
   4  -4   8   51.09    1.42
  -4   4   8   47.81    1.47
   4   4  -8   47.93    1.48
   4   4  -8   51.66    1.49
  -4  -4  -6   59.67    1.60
  -4   4   6   60.08    1.51
   4   4  -6   57.93    1.57
   4   4  -6   57.47    1.57
   4   4  -6   60.45    1.64
  -4  -4  -6   62.06    1.58
   4  -4   6   57.39    1.63
  -4  -4  -6   57.76    1.50
   4  -4   6   59.07    1.50
  -4  -4  -4   69.29    1.67
   4  -4   4   68.48    1.72
   4  -4   4   65.22    1.54
   4  -4   4   63.95    1.64
  -4   4   4   65.43    1.60
  -4  -4  -4   64.67    1.64
   4   4  -4   65.45    1.64
   4   4  -4   63.72    1.62
  -4  -4  -4   66.50    1.72
  -4   4   2   55.97    1.38
   4   4  -2   55.31    1.34
   4  -4   2   58.10    1.37
  -4  -4  -2   55.73    1.41
   4   4  -2   55.11    1.41
   4   4  -2   56.44    1.35
   4  -4   2   57.19    1.47
  -4  -4  -2   58.16    1.43
  -4  -4  -2   56.42    1.44
   4  -4   0    1.87    0.15
  -4   4   0    2.21    0.16
  -4  -4   0    2.02    0.16
   4  -4   0    2.10    0.16
  -4  -4   0    2.26    0.18
  -4  -4   0    1.79    0.21
   4   4   0    2.19    0.18
  -4  -4   0    2.15    0.13
   4   4   0    1.92    0.17
   4  -4   0    2.21    0.22
  -4   4   0    1.85    0.15
  -4  -4   2   54.68    1.33
   4   4   2   53.48    1.40
  -4  -4   2   56.64    1.39
   4   4   2   56.72    1.40
  -4  -4   2   59.14    1.51
   4  -4  -2   54.96    1.36
  -4   4  -2   56.73    1.32
  -4   4  -2   54.20    1.34
   4  -4  -2   57.62    1.51
  -4   4  -2   54.44    1.28
   4  -4  -2   55.40    1.38
  -4  -4   4   67.49    1.76
  -4   4  -4   65.87    1.64
   4   4   4   65.67    1.75
  -4   4  -4   65.19    1.52
  -4   4  -4   71.55    1.70
   4  -4  -4   67.64    1.77
   4   4   4   65.85    1.68
  -4  -4   4   67.78    1.65
  -4   4  -4   68.21    1.60
   4  -4  -4   69.60    1.68
  -4   4  -6   60.00    1.46
   4   4   6   55.31    1.38
  -4   4  -6   54.76    1.41
   4  -4  -6   57.78    1.46
   4   4   6   55.30    1.59
  -4   4  -6   59.21    1.51
   4  -4  -6   57.96    1.56
  -4  -4   6   53.33    1.56
  -4  -4   6   55.52    1.56
  -4  -4   6   58.94    1.54
   4  -4  -6   55.73    1.57
  -4   4  -8   51.52    1.26
   4  -4  -8   49.87    1.44
   4   4   8   48.54    1.27
   4   4   8   45.27    1.46
  -4   4  -8   44.91    1.32
  -4  -4   8   50.27    1.45
   4  -4  -8   46.05    1.40
   4  -4  -8   47.42    1.32
  -4  -4   8   46.73    1.40
  -4  -4  10   28.21    0.96
  -4   4 -10   24.54    0.91
   4   4  10   26.23    1.05
  -4   4 -10   25.79    0.76
   4   4  10   25.51    0.86
   4  -4 -10   26.43    1.00
   4   4  10   25.12    0.72
   4  -4 -10   26.76    0.90
   4  -4 -10   25.71    0.94
   4  -4 -12   31.90    1.12
  -4   4 -12   33.10    1.27
   4  -4 -12   35.33    1.27
   4   4  12   33.22    1.10
  -4   4 -12   33.44    0.90
  -4   4 -14    5.01    0.50
  -4   4 -14    5.87    0.26
   4  -4 -14    5.86    0.43
   4  -4 -14    5.21    0.51
   4   4  14    6.03    0.44
   4  -4 -16    0.61    0.20
   4  -4 -16    0.63    0.28
  -4   4 -16    0.71    0.27
  -4   4 -18    7.62    0.69
   4  -4 -18    6.56    0.48
   4  -4 -18    7.20    0.66
  -4   4 -20    1.81    0.39
   4  -4 -20    1.56    0.26
   4  -4 -20    1.60    0.39
  -4   4 -22    1.16    0.37
   4  -4 -22    1.51    0.38
   4  -4 -24   -0.45    0.33
  -4   4 -24    0.44    0.38
   0  -5  -1    4.53    0.17
   0  -5   1    4.01    0.22
   5   0   1    4.11    0.26
   0  -5  -1    3.86    0.25
   0   5  -1    4.39    0.22
   5   0  -1    3.86    0.18
   0  -5  -1    3.88    0.14
   0  -5   1    3.67    0.24
   0   5   1    3.65    0.22
   5   0  -1    4.14    0.26
   0   5   3   72.09    1.67
  -5   0   3   73.68    1.73
   0  -5   3   76.29    1.82
   0  -5  -3   75.79    1.67
   0  -5  -3   75.45    1.78
   0   5   3   71.02    1.78
   0   5   3   76.17    1.74
   0  -5  -3   74.56    1.82
   5   0  -3   74.72    1.74
   0   5  -3   72.80    1.80
  -5   0  -3   73.60    1.60
   5   0   3   73.93    1.77
   5   0  -3   73.80    1.84
   0  -5  -3   71.76    1.82
   5   0   3   74.11    1.83
   5   0   5   24.63    0.82
   5   0  -5   25.18    0.85
   0  -5  -5   24.66    0.87
   0  -5   5   27.57    0.89
   0  -5  -5   26.71    0.85
  -5   0   5   27.02    0.82
   5   0   5   26.88    0.83
   0  -5  -5   27.59    0.76
   0   5   5   25.33    0.85
   5   0  -5   27.61    0.88
   0   5  -5   25.47    0.83
   0   5   5   27.38    0.71
   0   5   5   26.70    0.83
   0  -5  -5   25.59    0.86
  -5   0  -5   25.80    0.81
   0   5   5   24.94    0.75
   5   0  -7   10.56    0.54
   0  -5   7   10.54    0.54
   0   5   7    9.66    0.44
   0   5  -7   10.30    0.52
   0  -5   7    9.48    0.50
  -5   0   7    9.52    0.49
   5   0   7   10.56    0.51
   0  -5  -7   11.16    0.48
   5   0   7   10.48    0.49
  -5   0  -7    9.89    0.48
   0  -5  -7    9.88    0.36
   5   0  -7   10.95    0.34
   0   5   7   10.55    0.47
   0  -5  -7   10.36    0.52
   0   5   9    8.19    0.46
   0  -5  -9    8.39    0.37
   0  -5  -9    7.82    0.46
   5   0  -9    8.23    0.51
  -5   0  -9    7.63    0.46
   0   5  -9    8.21    0.48
   5   0   9    8.26    0.47
   0   5  -9    8.40    0.51
   0  -5   9    7.80    0.51
  -5   0   9    8.69    0.40
  -5   0 -11    0.23    0.17
   0  -5 -11    0.06    0.16
   5   0  11   -0.07    0.12
   0   5 -11    0.18    0.18
   5   0 -11   -0.14    0.20
   0  -5 -11    0.13    0.08
  -5   0  11    0.00    0.09
   5   0  13    0.70    0.19
   0  -5 -13    1.16    0.25
  -5   0 -13    0.73    0.27
   5   0 -13    0.93    0.25
   0  -5 -13    1.04    0.17
   0   5 -13    1.41    0.30
  -5   0  13    0.91    0.16
   5   0  15    8.57    0.61
   0  -5 -15    8.59    0.63
   0   5 -15    9.43    0.71
  -5   0 -15    8.55    0.64
   5   0 -15    8.34    0.66
   5   0 -17    0.35    0.28
   0  -5 -17    0.39    0.26
   5   0  17    0.49    0.22
  -5   0 -17    1.31    0.35
   0   5 -17    0.37    0.27
   5   0 -19    4.26    0.54
   5   0  19    3.66    0.45
   0   5 -19    3.72    0.50
  -5   0 -19    4.07    0.53
   0  -5 -19    4.21    0.52
   0  -5 -21    0.70    0.33
   0   5 -21    0.69    0.31
  -5   0 -21    0.83    0.32
   5   0 -21    0.79    0.32
   5   0 -23    1.07    0.40
   0  -5 -23    0.18    0.23
   0   5 -23    0.95    0.37
  -5   0 -23    0.83    0.33
   5   0 -25   -0.21    0.32
   0  -5 -25    0.03    0.26
   0   5 -25    0.04    0.34
  -5   0 -25    0.15    0.28
  -1  -5 -24    0.46    0.28
   1   5 -24    0.62    0.34
   5   1 -24    0.30    0.27
  -5  -1 -24    0.04    0.30
  -5  -1 -22    0.11    0.26
   5   1 -22   -0.07    0.28
   1   5 -22    0.49    0.35
  -1  -5 -22    0.36    0.30
  -1  -5 -20    0.66    0.30
   5   1 -20    1.45    0.37
  -5  -1 -20    1.10    0.35
   1   5 -20    1.74    0.42
   1   5 -18    0.28    0.25
   5   1 -18    0.34    0.27
   5  -1  18    0.15    0.22
  -5  -1 -18    0.18    0.22
  -1  -5 -18    0.08    0.22
  -1  -5 -16    3.55    0.44
   5  -1  16    4.31    0.46
   1   5 -16    3.50    0.45
   5   1 -16    3.81    0.48
  -5  -1 -16    3.78    0.45
  -5  -1 -14    1.18    0.28
   5  -1  14    1.46    0.28
  -1  -5 -14    1.44    0.20
  -1  -5 -14    1.56    0.30
   1   5 -14    1.30    0.32
   5   1 -14    1.89    0.35
   5   1 -12    0.68    0.24
   5  -1  12    0.67    0.19
   1  -5  12    0.88    0.24
  -5   1  12    0.60    0.13
  -1  -5 -12    0.79    0.14
   1   5 -12    0.30    0.21
  -1  -5 -12    0.54    0.20
  -5  -1 -12    0.73    0.24
  -5  -1 -10    5.46    0.38
  -5   1  10    5.38    0.30
   5   1 -10    5.69    0.45
   1   5 -10    5.68    0.44
   5  -1  10    6.06    0.42
  -1  -5 -10    5.37    0.30
  -1  -5 -10    5.83    0.41
   1   5 -10    5.53    0.40
   1  -5  10    6.18    0.47
  -5  -1  -8    2.51    0.26
   1   5  -8    2.57    0.28
  -1   5   8    2.37    0.24
  -1  -5  -8    2.36    0.23
  -5   1   8    2.37    0.26
  -1  -5  -8    2.20    0.16
   5   1  -8    2.45    0.29
  -1  -5  -8    2.52    0.27
   5  -1   8    2.19    0.13
   5  -1   8    2.76    0.27
   1  -5   8    2.71    0.27
  -1  -5  -8    2.43    0.14
   1   5  -8    2.94    0.28
   1  -5   8    2.54    0.29
   5  -1   6   21.25    0.72
  -1   5   6   21.44    0.56
   5   1  -6   20.28    0.74
  -5  -1  -6   21.26    0.74
   5   1  -6   20.49    0.77
  -1  -5  -6   21.92    0.68
  -5   1   6   20.66    0.73
  -1  -5  -6   20.87    0.60
   1   5  -6   20.92    0.75
   1  -5   6   21.35    0.78
  -1  -5  -6   20.64    0.53
   5   1  -6   19.70    0.75
  -1   5   6   21.04    0.70
   5  -1   6   20.23    0.74
  -1  -5  -6   19.22    0.75
  -1  -5  -6   20.99    0.77
  -1   5   6   20.63    0.72
   1  -5   6   19.58    0.72
  -5   1   4    5.86    0.21
   5  -1   4    6.13    0.34
  -1   5   4    6.07    0.33
   5  -1   4    5.19    0.29
  -5  -1  -4    5.99    0.25
  -1  -5  -4    5.82    0.35
   1  -5   4    6.15    0.35
  -1  -5  -4    7.43    0.38
   5   1  -4    5.97    0.32
  -1  -5  -4    6.34    0.25
   1   5  -4    5.61    0.30
   5   1  -4    5.72    0.33
  -1  -5  -4    6.10    0.29
  -1   5   4    5.53    0.27
  -5   1   4    6.00    0.30
   5   1  -4    6.28    0.35
  -1   5   2   39.85    1.04
  -5  -1  -2   42.63    0.94
   1   5  -2   40.43    0.94
  -1  -5  -2   41.54    1.12
   1   5  -2   39.66    1.07
  -1  -5  -2   39.01    1.08
   5   1  -2   39.82    1.03
  -1   5   2   39.12    0.99
  -5   1   2   40.78    0.98
  -1  -5  -2   40.92    0.98
  -1  -5  -2   43.05    1.13
   1  -5   2   40.54    1.08
   5  -1   2   42.03    1.11
   1   5  -2   41.47    1.00
   5   1  -2   38.61    1.11
   1   5   0   36.82    0.85
   5   1   0   36.37    1.02
  -1  -5   0   36.57    1.05
  -1  -5   0   33.34    1.00
   1   5   0   37.39    0.91
   1  -5   0   38.30    0.94
   1  -5   0   36.61    0.99
   5  -1   0   38.54    1.02
  -1  -5   0   38.04    0.85
  -1   5  -2   41.18    1.05
   1  -5  -2   39.90    1.00
   5  -1  -2   40.24    1.08
   5   1   2   38.85    0.91
   1   5   2   37.26    1.05
   1   5   2   42.24    1.06
   5   1   2   37.56    1.07
   1  -5  -2   37.44    1.06
   1  -5  -2   35.54    1.05
   1   5   4    6.58    0.36
   5   1   4    6.41    0.36
   5   1   4    6.91    0.36
  -5  -1   4    6.46    0.33
   1  -5  -4    6.96    0.36
   1  -5  -4    6.61    0.30
   1  -5  -4    6.74    0.37
  -1   5  -4    6.43    0.35
   1   5   4    7.44    0.31
   1   5   4    6.17    0.27
   5  -1  -4    6.72    0.36
   1  -5  -4    6.56    0.33
   1   5   6   21.54    0.79
   1  -5  -6   21.45    0.71
  -1   5  -6   21.10    0.75
   1  -5  -6   21.44    0.76
   5  -1  -6   21.56    0.57
   1  -5  -6   20.16    0.78
   1   5   6   21.90    0.71
   1   5   6   20.68    0.68
   1  -5  -6   22.21    0.77
   5   1   6   22.65    0.78
   5  -1  -6   20.45    0.77
  -1  -5   6   21.51    0.77
   5  -1  -6   21.83    0.79
  -5  -1   6   20.68    0.74
   5   1   6   20.07    0.71
  -5   1  -6   20.61    0.71
  -5  -1   6   21.59    0.72
  -1   5  -8    2.20    0.27
  -5  -1   8    1.59    0.22
  -1   5  -8    1.93    0.25
   1  -5  -8    2.02    0.24
   1  -5  -8    2.15    0.22
   5  -1  -8    2.29    0.17
  -1  -5   8    1.93    0.25
   1   5   8    2.05    0.28
   5   1   8    1.64    0.20
   5  -1  -8    2.18    0.27
   1  -5  -8    2.00    0.26
  -5   1  -8    1.87    0.22
   1   5   8    2.00    0.20
  -5  -1   8    1.67    0.20
   1  -5  -8    2.21    0.24
   5   1   8    2.29    0.27
   1   5   8    2.23    0.23
   1   5  10    5.24    0.38
   1  -5 -10    5.57    0.32
   5  -1 -10    6.21    0.46
   1  -5 -10    5.86    0.36
   1  -5 -10    5.24    0.39
  -5  -1  10    5.69    0.34
   5   1  10    5.11    0.37
  -1   5 -10    5.44    0.44
   5  -1 -10    5.91    0.32
   5  -1 -12    0.54    0.15
  -5  -1  12    0.63    0.15
   1  -5 -12    0.56    0.23
   5  -1 -12    0.93    0.28
   5   1  12    0.66    0.19
  -1   5 -12    0.92    0.27
   1  -5 -12    0.82    0.15
  -5   1 -12    0.54    0.23
   1  -5 -12    0.77    0.13
   1  -5 -14    1.26    0.30
   5  -1 -14    1.96    0.35
   5  -1 -14    1.21    0.21
  -5   1 -14    1.34    0.31
   5   1  14    1.26    0.26
   1  -5 -14    1.18    0.18
  -1   5 -14    1.00    0.26
   1  -5 -14    1.13    0.19
   5  -1 -16    4.51    0.52
  -5   1 -16    3.68    0.46
   1  -5 -16    3.84    0.46
  -1   5 -16    3.88    0.50
   5   1  16    4.07    0.43
  -1   5 -18    0.25    0.24
   5   1  18    0.03    0.20
  -5   1 -18   -0.33    0.30
   1  -5 -18    0.26    0.23
   5  -1 -18    0.59    0.33
   1  -5 -20    2.06    0.39
  -5   1 -20    1.62    0.38
   5  -1 -20    1.08    0.31
  -1   5 -20    1.46    0.40
  -5   1 -22    0.30    0.33
   5  -1 -22    0.39    0.31
   1  -5 -22    0.11    0.27
  -1   5 -22    0.11    0.28
   1  -5 -24    0.56    0.32
  -1   5 -24   -0.03    0.31
  -5   1 -24    0.10    0.28
   5  -1 -24   -0.03    0.29
  -5  -2 -25   -0.27    0.32
   5   2 -25   -0.25    0.35
   2   5 -25   -0.10    0.30
  -2  -5 -25   -0.39    0.29
   2   5 -23   -0.13    0.29
   5   2 -23    0.52    0.30
  -2  -5 -23    0.06    0.25
  -5  -2 -23   -0.01    0.27
  -2  -5 -21   -0.21    0.22
   2   5 -21    0.24    0.26
   5   2 -21   -0.12    0.23
  -5  -2 -21    0.26    0.27
   2   5 -19    1.15    0.36
  -2  -5 -19    1.17    0.34
   5  -2  19    0.79    0.28
  -5  -2 -19    0.73    0.28
   5   2 -19    0.98    0.33
  -2  -5 -17    2.41    0.38
   5  -2  17    2.60    0.39
   2   5 -17    2.03    0.40
   5   2 -17    1.42    0.37
  -5  -2 -17    2.20    0.37
   2  -5  15    0.89    0.27
   5   2 -15    1.38    0.35
  -2  -5 -15    0.92    0.27
  -5  -2 -15    1.23    0.29
   5  -2  15    0.92    0.26
   2   5 -15    1.00    0.30
  -2  -5 -13    1.63    0.09
   5  -2  13    2.12    0.31
   2  -5  13    2.20    0.34
   5   2 -13    1.88    0.33
  -2  -5 -13    2.08    0.22
  -2  -5 -13    2.19    0.31
   2   5 -13    1.93    0.30
  -5  -2 -13    1.97    0.31
  -5   2  13    2.30    0.18
   5  -2  11    4.10    0.38
  -5   2  11    3.70    0.23
  -5  -2 -11    4.15    0.37
  -5  -2 -11    3.76    0.31
  -2  -5 -11    3.73    0.26
  -2  -5 -11    4.10    0.36
   5   2 -11    4.06    0.40
  -2  -5 -11    3.40    0.17
   2   5 -11    3.32    0.36
   2  -5  11    4.07    0.40
  -2  -5  -9    2.00    0.15
   5  -2   9    1.87    0.25
   5   2  -9    2.10    0.27
  -2   5   9    2.46    0.26
   2   5  -9    2.08    0.28
   2  -5   9    2.08    0.29
  -2  -5  -9    2.18    0.17
   2  -5   9    1.99    0.24
  -2  -5  -9    1.98    0.24
   2   5  -9    1.91    0.23
  -2  -5  -7    2.85    0.28
  -2  -5  -7    2.51    0.15
  -2   5   7    3.03    0.26
   2  -5   7    2.68    0.28
  -2   5   7    2.79    0.27
   5   2  -7    2.39    0.27
   5  -2   7    2.46    0.17
   2   5  -7    2.18    0.25
  -2  -5  -7    2.60    0.18
  -2  -5  -7    2.38    0.22
   2   5  -7    2.76    0.27
   5   2  -7    2.34    0.26
   5   2  -7    2.81    0.28
  -2  -5  -7    2.33    0.26
   2  -5   7    2.09    0.22
   5  -2   7    3.16    0.28
  -2   5   5   18.78    0.68
  -2  -5  -5   19.86    0.72
   2  -5   5   19.81    0.72
  -2   5   5   18.67    0.64
  -2  -5  -5   18.37    0.60
  -2  -5  -5   19.33    0.70
   5   2  -5   18.50    0.68
  -2   5   5   17.81    0.69
   5   2  -5   18.66    0.69
   5  -2   5   19.28    0.62
  -5   2   5   19.79    0.55
  -2  -5  -5   20.38    0.59
   5  -2   5   19.74    0.71
   2  -5   5   18.56    0.65
   2   5  -5   18.21    0.65
  -5  -2  -5   19.41    0.61
   5   2  -5   19.49    0.69
   5  -2   5   18.59    0.60
  -2   5   3    6.28    0.30
   5   2  -3    6.33    0.35
   2  -5   3    6.75    0.35
  -2  -5  -3    6.20    0.34
   5  -2   3    6.66    0.23
  -2  -5  -3    6.88    0.23
   5  -2   3    6.97    0.28
  -2  -5  -3    6.66    0.30
   5   2  -3    7.15    0.34
  -2  -5  -3    6.12    0.35
   2   5  -3    6.65    0.34
   2   5  -3    5.98    0.27
  -5   2   3    6.73    0.26
  -5  -2  -3    6.90    0.27
  -2  -5  -3    6.63    0.33
   2   5  -3    5.96    0.28
   5  -2   3    6.48    0.34
   2  -5   1    1.70    0.16
   2   5  -1    1.98    0.13
   2  -5   1    1.99    0.10
  -2  -5  -1    1.93    0.19
   2   5  -1    1.86    0.10
  -2   5   1    2.03    0.13
   5   2  -1    2.01    0.20
  -5   2   1    2.41    0.12
  -2  -5  -1    1.93    0.18
  -2  -5  -1    1.83    0.19
  -2  -5  -1    1.90    0.13
   5  -2   1    2.22    0.19
   2  -5   1    1.74    0.17
   5   2   1    2.02    0.19
   5  -2  -1    2.57    0.21
   2   5   1    2.27    0.14
  -2   5  -1    2.47    0.19
  -2  -5   1    2.15    0.14
   2  -5  -1    1.84    0.18
  -5  -2   1    2.06    0.13
   2  -5  -1    2.20    0.12
   5   2   1    2.35    0.15
  -2   5  -1    2.13    0.10
  -2  -5   1    2.20    0.23
   2   5   3    5.72    0.33
   5   2   3    5.28    0.25
  -2  -5   3    6.17    0.37
   2  -5  -3    5.70    0.28
   2  -5  -3    6.09    0.35
  -2   5  -3    5.72    0.30
   5   2   3    5.90    0.33
  -2   5  -3    5.95    0.23
  -5  -2   3    6.15    0.32
   2  -5  -3    5.74    0.33
   2   5   3    6.13    0.31
   2  -5  -3    5.67    0.31
  -2  -5   3    6.56    0.28
  -2   5  -3    6.25    0.31
   5  -2  -3    5.89    0.32
   2   5   5   17.80    0.46
  -5  -2   5   18.84    0.67
  -5   2  -5   17.22    0.58
   2  -5  -5   19.28    0.66
   5   2   5   18.08    0.68
   2   5   5   17.98    0.69
  -5  -2   5   18.76    0.68
   2  -5  -5   18.65    0.69
   5  -2  -5   19.74    0.70
   2  -5  -5   19.15    0.67
  -5  -2   5   18.63    0.67
  -2   5  -5   17.28    0.63
   2  -5  -5   18.58    0.63
  -2  -5   5   19.60    0.64
   2  -5  -5   16.77    0.68
  -2  -5   7    2.45    0.25
  -5  -2   7    2.10    0.23
   2  -5  -7    2.00    0.22
  -5  -2   7    2.35    0.23
   2  -5  -7    2.07    0.22
  -2   5  -7    2.29    0.24
   5   2   7    2.24    0.21
  -5   2  -7    2.09    0.21
   2   5   7    2.22    0.27
   5   2   7    2.20    0.25
   2  -5  -7    2.26    0.23
   5  -2  -7    2.33    0.17
   2  -5  -7    2.13    0.23
   5  -2  -7    2.40    0.27
  -2  -5   7    2.12    0.23
  -2  -5   9    2.33    0.27
   5   2   9    2.20    0.30
   2  -5  -9    1.88    0.22
  -2   5  -9    2.01    0.26
  -5  -2   9    2.56    0.25
   2   5   9    2.16    0.19
   5  -2  -9    2.45    0.30
   2  -5  -9    2.43    0.26
   2  -5  -9    2.42    0.27
  -5   2  -9    2.28    0.25
   5   2   9    2.38    0.24
  -2   5  -9    1.94    0.27
   2   5   9    2.08    0.29
   5  -2  -9    1.95    0.18
  -2   5 -11    3.61    0.38
   5   2  11    3.72    0.32
  -5  -2  11    3.42    0.29
   2  -5 -11    3.31    0.33
   5  -2 -11    3.38    0.37
   5  -2 -11    3.83    0.29
   2  -5 -11    3.46    0.30
   5  -2 -13    2.71    0.27
  -2   5 -13    2.46    0.38
   2  -5 -13    2.55    0.36
   2  -5 -13    2.43    0.26
  -5   2 -13    2.48    0.37
   2  -5 -13    2.02    0.24
  -5  -2  13    2.39    0.27
   5  -2 -13    2.00    0.34
   5   2  13    2.02    0.27
   2  -5 -15    1.39    0.33
   5  -2 -15    1.80    0.38
   5   2  15    1.08    0.24
  -2   5 -15    1.93    0.38
   2  -5 -15    1.01    0.20
  -5   2 -15    1.56    0.34
   5  -2 -17    2.20    0.42
   5   2  17    1.81    0.30
  -5   2 -17    1.86    0.39
   2  -5 -17    1.71    0.33
   2  -5 -17    1.96    0.26
  -2   5 -17    1.87    0.39
  -2   5 -19    0.84    0.30
  -5   2 -19    0.60    0.30
   2  -5 -19    0.50    0.30
   5  -2 -19    0.95    0.32
   5  -2 -21    0.19    0.27
  -2   5 -21    0.07    0.26
   2  -5 -21    0.16    0.28
  -5   2 -21    0.21    0.27
   5  -2 -23   -0.12    0.27
  -2   5 -23   -0.16    0.33
  -5   2 -23    0.06    0.30
   2  -5 -23   -0.30    0.28
   2  -5 -25    0.17    0.31
   5  -2 -25    0.43    0.32
  -2   5 -25    0.05    0.34
  -5   2 -25   -0.02    0.33
   3   5 -24   -0.22    0.28
   5   3 -24    0.09    0.24
  -5  -3 -24   -0.69    0.36
  -3  -5 -24   -0.08    0.27
  -3  -5 -22    1.52    0.35
   3   5 -22    1.70    0.39
   5   3 -22    0.75    0.33
  -5  -3 -22    1.19    0.32
   5   3 -20    0.46    0.28
  -5  -3 -20    0.43    0.27
  -3  -5 -20    0.49    0.25
   5  -3  20    0.62    0.29
   3   5 -20    0.62    0.30
  -3  -5 -18    3.30    0.43
   5   3 -18    3.58    0.51
   3   5 -18    2.94    0.44
   5  -3  18    2.74    0.43
  -5  -3 -18    2.58    0.41
   5   3 -16    0.47    0.27
   5  -3  16    0.29    0.21
  -5  -3 -16    0.31    0.25
  -3  -5 -16    0.27    0.06
   3   5 -16    0.10    0.25
  -3  -5 -16    0.32    0.23
   3  -5  16    0.19    0.24
   5  -3  14    2.29    0.32
   3   5 -14    2.61    0.38
  -3  -5 -14    2.03    0.23
  -3  -5 -14    2.19    0.32
  -5  -3 -14    1.79    0.32
   3  -5  14    2.86    0.39
  -3  -5 -14    2.58    0.17
   5   3 -14    1.87    0.33
  -5   3  12   23.93    0.67
   5  -3  12   22.76    0.99
  -3  -5 -12   22.56    0.68
  -5  -3 -12   22.05    0.95
   3  -5  12   23.48    1.04
   3   5 -12   23.52    1.03
   5   3 -12   23.55    1.03
  -3  -5 -12   23.50    0.81
  -3  -5 -12   23.00    0.93
   5  -3  10    9.95    0.54
  -3  -5 -10   10.59    0.44
   5  -3  10   10.66    0.59
  -3  -5 -10   11.90    0.57
   5   3 -10   11.19    0.62
  -3  -5 -10   10.67    0.41
  -5  -3 -10   10.61    0.56
   3   5 -10   11.39    0.63
   3  -5  10   10.90    0.63
  -3  -5  -8   15.25    0.60
   3  -5   8   15.20    0.70
  -3   5   8   14.76    0.65
   5   3  -8   14.30    0.66
  -3  -5  -8   14.91    0.67
   3  -5   8   15.33    0.64
   3   5  -8   15.26    0.67
  -3  -5  -8   15.55    0.54
   5  -3   8   14.29    0.60
   5   3  -8   14.39    0.67
   5  -3   8   13.76    0.66
   3   5  -8   15.52    0.69
   5  -3   6   19.45    0.63
   5   3  -6   19.24    0.74
  -3  -5  -6   20.47    0.66
  -5  -3  -6   20.34    0.68
  -3  -5  -6   19.09    0.73
   5  -3   6   19.60    0.64
  -3   5   6   20.07    0.72
   5   3  -6   18.70    0.73
   3  -5   6   21.00    0.78
  -3  -5  -6   20.79    0.78
  -5   3   6   19.74    0.62
  -3  -5  -6   20.68    0.65
   3   5  -6   20.38    0.72
   3  -5   6   19.78    0.68
   5  -3   6   18.35    0.74
  -3   5   6   19.64    0.71
  -5  -3  -4    7.46    0.33
   5  -3   4    7.73    0.28
  -3  -5  -4    8.00    0.37
   5  -3   4    7.65    0.31
  -3  -5  -4    8.07    0.42
   5   3  -4    7.50    0.39
   3   5  -4    7.36    0.34
  -3  -5  -4    7.92    0.37
   5   3  -4    6.97    0.36
   5  -3   4    7.06    0.36
   5   3  -4    7.33    0.39
   5   3  -4    7.19    0.25
  -3   5   4    7.45    0.37
  -3   5   4    7.35    0.37
  -3  -5  -4    7.48    0.29
  -3  -5  -4    7.81    0.40
   3  -5   4    7.62    0.40
   5  -3   4    7.69    0.41
   3   5  -4    7.65    0.34
   5  -3   4    7.02    0.35
  -5   3   4    7.65    0.32
  -5   3   2   27.15    0.80
   3   5  -2   26.70    0.78
  -3  -5  -2   27.12    0.76
   5   3  -2   26.03    0.82
   5  -3   2   26.96    0.66
   3   5  -2   27.62    0.75
   5  -3   2   24.26    0.82
  -3  -5  -2   27.56    0.84
   5  -3   2   25.96    0.79
  -3  -5  -2   25.27    0.83
   3   5  -2   27.94    0.70
   5   3  -2   26.63    0.69
  -3   5   2   28.15    0.82
  -5  -3  -2   25.73    0.74
   3  -5   2   26.74    0.82
  -3  -5  -2   27.42    0.83
   3  -5   2   27.63    0.70
   3   5   0    2.06    0.16
  -3  -5   0    2.33    0.19
   5  -3   0    1.83    0.12
  -3  -5   0    2.12    0.20
   5  -3   0    1.92    0.17
   5   3   0    1.99    0.19
  -3  -5   0    2.09    0.22
  -5   3   0    1.85    0.17
  -3   5   0    1.99    0.18
   3  -5   0    2.19    0.13
  -3   5   0    1.94    0.12
   3   5   0    1.91    0.18
   5   3   0    2.03    0.16
  -5  -3   0    1.84    0.15
   3  -5   0    1.87    0.16
   3  -5   0    2.12    0.22
  -3  -5   0    2.32    0.16
  -3   5  -2   28.42    0.79
   5   3   2   26.03    0.84
   5   3   2   27.01    0.76
  -3  -5   2   25.72    0.88
  -3  -5   2   28.31    0.76
  -5  -3   2   28.71    0.80
  -5  -3   2   27.30    0.69
   5  -3  -2   27.61    0.82
  -5   3  -2   28.33    0.67
   3  -5  -2   26.51    0.82
   3  -5  -2   27.43    0.73
   3   5   2   27.13    0.77
   3  -5  -2   28.52    0.90
   3  -5  -2   26.42    0.72
  -3  -5   2   28.46    0.72
  -5   3  -2   26.74    0.80
  -3   5  -2   26.70    0.70
   5  -3  -4    6.87    0.36
  -5  -3   4    7.05    0.35
   5   3   4    6.18    0.36
  -5   3  -4    6.52    0.27
  -3   5  -4    7.08    0.37
  -3  -5   4    7.44    0.34
  -5   3  -4    6.65    0.35
   3  -5  -4    7.04    0.34
  -3   5  -4    7.16    0.34
  -3   5  -4    6.79    0.30
   3  -5  -4    6.76    0.38
   3  -5  -4    6.90    0.35
   3  -5  -4    7.37    0.41
  -5  -3   4    6.97    0.40
   5   3   4    6.65    0.39
   3   5   4    6.72    0.39
  -3  -5   4    7.17    0.41
  -5  -3   6   18.26    0.72
   5  -3  -6   19.79    0.75
   3   5   6   20.07    0.55
   5   3   6   18.43    0.75
  -3  -5   6   21.15    0.73
   5  -3  -6   19.23    0.61
   5  -3  -6   19.57    0.73
  -5   3  -6   19.50    0.63
  -3   5  -6   20.96    0.69
   5   3   6   18.64    0.64
  -5   3  -6   20.87    0.73
  -5  -3   6   20.17    0.74
   3  -5  -6   19.25    0.69
  -5  -3   6   18.86    0.72
   3  -5  -6   19.31    0.74
   3  -5  -6   20.34    0.72
   3   5   6   19.71    0.78
  -3   5  -6   19.90    0.69
  -3  -5   6   18.06    0.75
   3  -5  -6   21.46    0.74
   3  -5  -8   16.20    0.69
   5   3   8   14.18    0.57
  -5  -3   8   13.98    0.61
  -5  -3   8   13.90    0.65
  -3   5  -8   16.61    0.58
   5  -3  -8   13.74    0.66
   3  -5  -8   14.84    0.65
   3   5   8   14.29    0.70
   3  -5  -8   15.18    0.65
  -3   5  -8   14.88    0.64
  -3  -5   8   15.18    0.66
   5   3   8   15.48    0.70
   5  -3  -8   14.23    0.53
  -5   3  -8   13.94    0.58
   3  -5  -8   14.70    0.61
  -5   3  -8   14.40    0.65
   3   5   8   14.63    0.50
   3  -5 -10   10.56    0.57
   5   3  10   10.21    0.50
   5  -3 -10   10.09    0.47
  -3   5 -10   10.98    0.46
   3   5  10   10.75    0.46
   3   5  10   10.18    0.62
  -5  -3  10    9.22    0.51
   3  -5 -10    9.69    0.52
   5   3  10   10.96    0.62
  -5   3 -10    9.54    0.52
   5  -3 -10    9.72    0.59
   3   5  10   10.16    0.42
  -5  -3  12   21.86    0.86
   5   3  12   22.12    0.87
   5  -3 -12   24.01    1.03
   3  -5 -12   23.07    0.97
   5  -3 -12   23.54    0.84
   3  -5 -12   21.77    0.86
  -3   5 -12   22.73    0.74
  -3   5 -12   22.49    1.00
  -3   5 -14    2.38    0.37
   3  -5 -14    3.23    0.40
  -5   3 -14    2.92    0.42
   5   3  14    2.58    0.31
  -3   5 -14    2.86    0.22
   5  -3 -14    2.67    0.37
   3  -5 -14    2.45    0.30
   3  -5 -16    0.07    0.15
   5  -3 -16   -0.02    0.26
  -5   3 -16    0.17    0.24
  -3   5 -16    0.41    0.27
   5   3  16    0.27    0.19
   3  -5 -16    0.32    0.21
   3  -5 -18    3.64    0.47
  -3   5 -18    2.93    0.45
   5  -3 -18    3.39    0.46
  -5   3 -18    3.20    0.48
   3  -5 -18    3.17    0.32
   5  -3 -18    2.91    0.35
   5  -3 -20    0.86    0.23
  -5   3 -20    0.24    0.30
  -3   5 -20    0.33    0.32
   5  -3 -20    0.28    0.23
   3  -5 -20    0.26    0.25
   5  -3 -22    1.02    0.36
   3  -5 -22    1.13    0.36
  -5   3 -22    0.62    0.29
  -3   5 -22    1.24    0.40
   5  -3 -24   -0.58    0.38
   3  -5 -24   -0.28    0.36
  -3   5 -24   -0.35    0.35
  -5   3 -24   -0.60    0.40
  -4  -5 -23    1.57    0.38
   5   4 -23    2.20    0.48
  -5  -4 -23    1.76    0.40
   4   5 -23    2.20    0.48
  -5  -4 -21    0.82    0.32
   5   4 -21    0.96    0.37
  -4  -5 -21    1.54    0.38
   4   5 -21    0.93    0.30
   4   5 -19    1.48    0.39
  -5  -4 -19    1.46    0.35
   5   4 -19    2.42    0.44
   5  -4  19    1.48    0.35
   4  -5  19    1.63    0.39
  -4  -5 -19    1.50    0.33
   5  -4  17    8.50    0.69
   4  -5  17    7.71    0.67
  -5  -4 -17    7.44    0.62
  -4  -5 -17    9.06    0.66
   5   4 -17    8.22    0.69
   4   5 -17    7.63    0.67
   4  -5  15    5.53    0.54
  -5  -4 -15    5.32    0.50
  -4  -5 -15    5.98    0.52
   5   4 -15    5.25    0.55
   5  -4  15    6.00    0.55
   4   5 -15    5.83    0.56
   5  -4  13   14.36    0.81
   5   4 -13   16.22    0.86
   4  -5  13   14.94    0.84
  -5   4  13   15.13    0.44
   4   5 -13   14.61    0.84
  -4  -5 -13   15.41    0.77
  -4  -5 -13   15.14    0.65
  -5  -4 -13   15.44    0.78
   4  -5  11   20.10    0.92
  -4  -5 -11   18.41    0.79
  -5  -4 -11   18.48    0.80
  -4   5  11   18.77    0.48
   5   4 -11   18.76    0.88
  -5   4  11   18.59    0.56
   5  -4  11   20.41    0.90
   4  -5   9    0.09    0.12
   4   5  -9    0.17    0.15
  -4  -5  -9    0.39    0.15
   5   4  -9    0.19    0.19
  -4  -5  -9    0.50    0.19
  -5  -4  -9    0.11    0.12
   5  -4   9    0.14    0.16
   4  -5   9    0.37    0.19
   5  -4   9    0.25    0.14
  -5  -4  -9    0.03    0.15
   5   4  -9    0.36    0.16
   4   5  -7  123.90    3.08
  -4  -5  -7  124.72    2.89
   5  -4   7  124.48    2.89
   5   4  -7  121.64    3.01
   4   5  -7  122.31    3.00
   5  -4   7  123.32    3.06
   4   5  -7  124.10    2.97
  -5   4   7  125.69    2.88
   4  -5   7  122.82    2.92
  -4   5   7  126.93    2.94
   4  -5   7  126.94    3.08
  -5  -4  -7  123.42    2.95
  -4   5   7  122.17    3.00
  -4  -5  -7  129.04    3.02
  -4  -5  -7  122.02    2.99
  -5  -4  -7  129.42    3.05
   5   4  -7  123.92    3.01
  -5  -4  -5   58.13    1.54
   5   4  -5   53.82    1.48
   4   5  -5   56.35    1.47
  -5  -4  -5   57.88    1.47
   4   5  -5   56.22    1.47
   5  -4   5   55.89    1.38
  -5   4   5   55.84    1.42
   5  -4   5   56.49    1.46
  -4  -5  -5   58.54    1.38
  -4  -5  -5   56.70    1.52
  -4   5   5   57.68    1.48
   4  -5   5   55.27    1.56
   5  -4   5   54.11    1.56
  -4  -5  -5   54.60    1.56
   5   4  -5   54.21    1.51
  -4  -5  -5   55.25    1.50
  -4   5   5   55.43    1.51
  -4  -5  -3   52.78    1.42
  -4  -5  -3   50.91    1.41
  -4  -5  -3   51.09    1.37
   5   4  -3   50.59    1.31
  -4  -5  -3   52.52    1.35
   5   4  -3   51.89    1.38
   5   4  -3   51.43    1.24
  -5  -4  -3   54.90    1.39
   5  -4   3   52.70    1.34
  -4   5   3   51.85    1.38
   5  -4   3   51.91    1.39
   5  -4   3   52.65    1.44
  -5   4   3   52.27    1.32
   4  -5   3   51.72    1.42
   4   5  -3   49.71    1.33
  -4   5   3   52.58    1.36
  -5  -4  -3   52.01    1.40
   4   5  -3   50.74    1.30
  -5  -4  -3   54.08    1.34
   4   5  -3   50.24    1.28
   4   5  -1   58.40    1.47
   5  -4   1   57.46    1.38
  -4   5   1   60.26    1.43
   5  -4   1   57.98    1.59
  -5   4   1   60.02    1.49
   4   5  -1   59.93    1.49
   5   4  -1   58.65    1.44
  -4  -5  -1   61.65    1.52
   4  -5   1   58.50    1.59
  -5  -4  -1   60.98    1.51
  -4  -5  -1   54.65    1.57
   5   4  -1   58.82    1.52
  -5  -4  -1   61.49    1.52
  -4   5   1   62.69    1.50
   4  -5   1   61.04    1.42
  -4  -5  -1   61.00    1.48
   5   4  -1   58.96    1.50
  -4  -5  -1   59.32    1.52
   5  -4   1   63.67    1.48
   4  -5   1   59.39    1.44
  -5  -4  -1   61.81    1.49
   5  -4  -1   63.11    1.53
  -5  -4   1   63.89    1.48
   4   5   1   60.99    1.53
  -5   4  -1   63.04    1.44
   4  -5  -1   63.71    1.38
   4   5   1   61.11    1.56
   5   4   1   61.41    1.57
  -4   5  -1   65.89    1.51
  -5  -4   1   60.58    1.47
  -4   5  -1   58.56    1.45
   4  -5  -1   59.25    1.51
  -5  -4   1   58.81    1.64
  -4  -5   1   64.49    1.42
  -4  -5   1   63.53    1.52
   5  -4  -1   61.18    1.47
   4  -5  -1   63.27    1.47
   5  -4  -1   60.21    1.66
  -5   4  -1   60.75    1.52
   5   4   1   61.13    1.53
  -4  -5   1   56.56    1.63
  -5  -4   1   62.02    1.56
  -4  -5   1   59.57    1.51
   4  -5  -1   62.12    1.66
  -5  -4   3   53.43    1.35
   4  -5  -3   50.30    1.38
   5   4   3   53.28    1.36
  -4   5  -3   50.74    1.30
   5  -4  -3   52.89    1.37
   5   4   3   51.05    1.40
   4   5   3   50.52    1.37
  -5  -4   3   53.87    1.39
   4  -5  -3   50.73    1.48
   4  -5  -3   53.62    1.33
  -5   4  -3   56.14    1.26
  -4   5  -3   54.85    1.44
  -5   4  -3   51.41    1.35
  -5  -4   3   52.90    1.48
  -5   4  -3   52.56    1.23
  -4   5  -3   55.64    1.32
  -4   5  -3   51.59    1.29
  -4  -5   3   50.64    1.47
   5  -4  -3   52.05    1.36
   4   5   3   51.42    1.39
   4  -5  -3   52.60    1.31
  -4  -5   3   53.52    1.36
  -4  -5   3   53.56    1.31
  -5   4  -5   56.61    1.36
   5   4   5   56.32    1.58
  -5  -4   5   57.67    1.50
  -5   4  -5   57.91    1.49
  -4   5  -5   61.04    1.53
  -4   5  -5   58.39    1.46
  -4   5  -5   57.01    1.44
  -5  -4   5   54.63    1.57
  -4   5  -5   54.68    1.34
  -4  -5   5   57.53    1.59
   5  -4  -5   58.60    1.52
   4  -5  -5   56.61    1.48
   4  -5  -5   56.77    1.60
  -4  -5   5   54.59    1.49
   4   5   5   53.91    1.58
   4   5   5   56.18    1.33
  -4   5  -7  128.89    2.87
   4  -5  -7  116.56    2.98
  -4   5  -7  122.81    2.90
   5  -4  -7  123.00    2.83
   4  -5  -7  121.20    2.96
  -5  -4   7  122.14    2.96
   5  -4  -7  118.97    2.98
  -5   4  -7  120.08    2.81
   5   4   7  119.15    2.79
  -5   4  -7  123.50    2.94
  -4  -5   7  120.80    2.99
   4  -5  -7  123.23    2.89
   5   4   7  119.26    3.02
  -4   5  -7  124.44    2.90
  -4  -5   7  127.43    2.97
   4   5   7  123.55    2.73
  -5  -4   7  122.13    2.98
   4   5   7  120.30    3.04
   5  -4  -9    0.06    0.09
   5   4   9    0.10    0.17
  -4  -5   9    0.14    0.15
   4  -5  -9    0.46    0.17
   4   5   9    0.03    0.19
   5   4   9    0.19    0.10
   4   5   9    0.12    0.07
   5  -4  -9    0.38    0.19
  -5   4  -9    0.15    0.11
   4  -5  -9    0.07    0.10
  -5  -4   9    0.52    0.17
   4  -5  -9    0.19    0.15
  -4   5  -9    0.16    0.09
  -4   5 -11   19.90    0.66
   4   5  11   18.91    0.70
   5  -4 -11   18.88    0.87
   5   4  11   17.51    0.54
   4  -5 -11   19.31    0.81
   5   4  11   18.41    0.89
   5   4  11   19.63    0.74
   4   5  11   17.78    0.59
   5  -4 -11   18.63    0.73
   4  -5 -11   17.45    0.83
  -4   5 -11   16.71    0.74
   4   5  11   19.30    0.92
  -5  -4  11   18.57    0.79
  -4   5 -13   14.79    0.83
   4  -5 -13   15.98    0.83
   4   5  13   15.72    0.68
  -5   4 -13   14.81    0.82
  -4   5 -13   15.52    0.56
   4  -5 -13   15.81    0.73
   5   4  13   14.85    0.70
   5  -4 -13   16.18    0.85
  -4   5 -15    5.85    0.30
   4  -5 -15    6.64    0.47
   5  -4 -15    5.85    0.47
   5  -4 -15    7.28    0.61
  -4   5 -15    5.75    0.57
   5   4  15    6.09    0.46
   4  -5 -15    6.52    0.57
  -5   4 -15    5.51    0.55
   5  -4 -17    8.91    0.71
   4  -5 -17    7.75    0.52
  -5   4 -17    6.55    0.61
  -4   5 -17    7.77    0.67
   4  -5 -17    7.97    0.66
   5  -4 -17    8.25    0.55
   4  -5 -19    2.00    0.39
   5  -4 -19    0.82    0.30
  -5   4 -19    1.30    0.39
  -4   5 -19    1.38    0.36
   4  -5 -19    1.60    0.27
   5  -4 -19    2.01    0.30
  -5   4 -21    0.28    0.29
   4  -5 -21    1.11    0.33
   5  -4 -21    0.60    0.31
  -4   5 -21    0.73    0.36
  -4   5 -23    2.44    0.50
   4  -5 -23    1.93    0.48
   5  -4 -23    2.65    0.49
  -5   4 -23    2.09    0.47
  -5  -5 -24    0.12    0.26
   5   5 -24    0.54    0.34
  -5  -5 -22    5.70    0.61
   5   5 -22    5.38    0.67
  -5  -5 -20    1.36    0.34
   5  -5  20    1.79    0.37
   5   5 -20    1.69    0.43
   5   5 -18    5.01    0.57
   5  -5  18    3.33    0.47
  -5  -5 -18    4.33    0.50
   5   5 -16    4.83    0.55
   5  -5  16    3.45    0.44
  -5  -5 -16    5.08    0.49
   5   5 -14   11.93    0.77
  -5  -5 -14   11.18    0.67
   5  -5  14   10.30    0.71
   5   5 -12    9.39    0.62
  -5  -5 -12    8.56    0.55
  -5   5  12    8.54    0.30
   5   5 -12    8.37    0.61
  -5  -5 -12    8.03    0.56
   5  -5  12    8.70    0.60
   5   5 -10   28.00    1.06
   5  -5  10   27.31    1.08
   5  -5  10   27.31    0.98
  -5  -5 -10   25.87    0.96
  -5  -5 -10   29.07    1.05
   5  -5   8   90.13    2.19
   5  -5   8   86.83    2.35
  -5  -5  -8   86.95    2.17
   5   5  -8   87.24    2.28
  -5   5   8   85.68    2.17
   5   5  -8   83.96    2.25
  -5  -5  -8   86.18    2.24
  -5  -5  -6    5.91    0.38
  -5  -5  -6    5.69    0.42
  -5   5   6    5.79    0.34
   5  -5   6    5.54    0.39
   5   5  -6    5.81    0.37
   5   5  -6    6.33    0.37
  -5  -5  -6    6.18    0.37
   5  -5   6    5.96    0.31
  -5   5   6    6.34    0.40
   5   5  -4   70.27    1.68
  -5   5   4   69.72    1.84
  -5  -5  -4   73.12    1.81
  -5  -5  -4   70.32    1.87
   5   5  -4   70.03    1.80
  -5   5   4   72.29    1.78
   5  -5   4   71.64    1.88
   5  -5   4   70.70    1.84
   5   5  -4   70.80    1.75
  -5  -5  -4   73.04    1.82
  -5  -5  -2   82.58    2.10
   5   5  -2   86.49    2.13
   5   5  -2   88.29    2.06
   5  -5   2   88.30    2.22
   5  -5   2   89.94    2.07
   5   5  -2   91.09    2.16
  -5  -5  -2   89.70    2.16
  -5   5   2   89.09    2.09
  -5  -5  -2   85.62    2.22
  -5  -5  -2   92.57    2.14
   5  -5   0   16.12    0.53
   5  -5   0   17.07    0.56
  -5  -5   0   17.43    0.59
   5  -5   0   16.59    0.69
  -5  -5   0   16.83    0.60
  -5   5   0   16.85    0.56
  -5  -5   0   17.53    0.50
  -5  -5   0   17.08    0.69
   5   5   0   18.05    0.62
   5   5   0   17.82    0.60
  -5   5   0   17.48    0.56
   5   5   0   16.49    0.60
  -5  -5   2   90.30    2.31
  -5  -5   2   92.92    2.19
  -5  -5   2   93.35    2.10
  -5   5  -2   90.66    2.03
   5  -5  -2   88.66    2.32
  -5   5  -2   90.76    2.12
   5   5   2   90.31    2.19
   5   5   2   89.04    2.19
   5  -5  -2   89.12    2.14
  -5   5  -2   92.17    2.09
   5  -5  -2   91.96    2.14
  -5   5  -4   71.64    1.69
  -5   5  -4   67.09    1.57
  -5   5  -4   76.64    1.71
  -5   5  -4   71.13    1.76
   5  -5  -4   73.52    1.79
  -5  -5   4   73.46    1.93
   5  -5  -4   70.13    1.94
  -5   5  -4   74.67    1.87
   5  -5  -4   70.81    1.82
   5   5   4   71.20    1.90
  -5  -5   4   73.28    1.77
  -5  -5   4   74.70    1.82
   5   5   4   71.42    1.84
   5   5   4   66.66    1.80
  -5  -5   6    6.75    0.38
  -5  -5   6    6.16    0.41
  -5   5  -6    6.40    0.36
  -5   5  -6    6.98    0.37
   5  -5  -6    6.33    0.38
  -5   5  -6    6.42    0.29
   5   5   6    5.86    0.29
   5   5   6    6.29    0.43
   5  -5  -6    5.56    0.41
   5  -5  -8   83.70    2.26
   5  -5  -8   85.18    2.13
   5   5   8   85.93    2.04
  -5  -5   8   84.79    2.26
  -5   5  -8   82.73    2.08
   5  -5  -8   84.49    2.28
  -5   5  -8   89.93    2.11
   5   5   8   85.53    2.33
  -5  -5   8   83.45    2.23
  -5   5  -8   85.74    2.21
   5  -5 -10   25.91    0.91
  -5   5 -10   24.92    0.91
   5  -5 -10   26.84    1.04
   5  -5 -10   26.65    1.01
   5   5  10   26.78    0.86
   5   5  10   27.12    1.09
  -5   5 -10   26.53    0.83
  -5  -5  10   26.76    1.02
   5   5  12   10.21    0.68
   5   5  12    8.46    0.36
  -5   5 -12    8.75    0.41
   5  -5 -12    9.31    0.57
   5   5  12    9.01    0.48
   5  -5 -12    8.52    0.59
   5  -5 -14   12.87    0.77
  -5   5 -14   12.50    0.79
   5   5  14   12.40    0.63
   5  -5 -14   11.69    0.66
   5  -5 -16    3.67    0.39
  -5   5 -16    4.02    0.50
   5  -5 -16    4.51    0.51
   5  -5 -18    3.81    0.40
   5  -5 -18    4.64    0.54
  -5   5 -18    4.02    0.51
   5  -5 -20    1.87    0.29
  -5   5 -20    1.94    0.43
   5  -5 -20    2.41    0.45
   5  -5 -22    6.28    0.69
  -5   5 -22    5.32    0.66
   5  -5 -24   -0.17    0.30
  -5   5 -24   -0.30    0.27
   0   6   0  105.03    2.33
   0  -6   0  106.76    2.34
   0  -6   0   98.90    2.45
   6   0   0  106.64    2.49
   6   0   0  105.10    2.28
   0   6  -2   44.95    1.16
   0  -6  -2   44.12    0.99
   6   0  -2   46.04    1.24
   0   6   2   42.32    1.02
   0   6   2   43.14    1.15
   0  -6  -2   41.71    1.20
   6   0   2   44.54    1.22
   0   6   2   45.37    1.19
   0  -6  -2   41.84    1.20
   6   0  -2   43.80    1.09
   0  -6   2   44.17    1.17
   0  -6  -4   11.90    0.41
  -6   0   4   11.87    0.46
   0   6  -4   12.91    0.53
   0  -6  -4   12.08    0.50
   0  -6  -4   11.86    0.53
   0   6   4   12.51    0.54
   0   6   4   13.24    0.47
   0   6   4   11.41    0.51
   6   0   4   11.43    0.49
  -6   0  -4   12.17    0.36
   0  -6  -4   10.73    0.52
   0  -6   4   12.49    0.53
   6   0   4   11.04    0.51
   6   0  -4   12.50    0.54
   0   6   4   11.63    0.41
   0  -6  -6   76.18    1.97
   6   0   6   75.16    1.94
   0   6  -6   75.52    1.94
  -6   0   6   75.47    1.92
   0   6   6   72.54    1.84
   0  -6  -6   73.83    1.97
   0  -6  -6   77.54    1.84
   0   6   6   79.19    1.76
   0  -6  -6   74.16    1.99
   0   6   6   73.59    1.98
   6   0   6   75.93    1.93
   0  -6   6   74.03    2.00
   6   0  -6   76.37    1.99
   0   6   6   80.12    1.94
   0  -6  -6   74.97    1.66
   6   0  -6   73.96    1.99
   6   0  -8    1.67    0.24
   0   6  -8    2.73    0.29
  -6   0   8    2.26    0.23
   6   0  -8    2.23    0.29
   0   6   8    2.08    0.22
   6   0   8    2.19    0.25
   0  -6  -8    2.00    0.28
   6   0   8    2.11    0.25
   6   0  -8    2.09    0.14
  -6   0  -8    1.93    0.23
   0  -6  -8    2.33    0.24
   0  -6  -8    2.47    0.16
  -6   0   8    2.17    0.25
   0  -6   8    1.96    0.25
   0   6   8    2.19    0.22
   0  -6  -8    2.41    0.28
   0   6 -10    8.17    0.54
   6   0 -10    8.55    0.35
   6   0 -10    8.39    0.56
   6   0  10    9.12    0.51
   6   0  10    7.23    0.23
   0   6 -10    8.46    0.55
  -6   0  10    9.16    0.44
   0  -6 -10    8.54    0.37
   0   6  10    8.65    0.49
   0  -6 -10    8.58    0.49
  -6   0  12    6.85    0.39
   6   0 -12    7.78    0.39
   6   0 -12    7.40    0.55
   0  -6 -12    6.98    0.49
   0  -6 -12    7.04    0.38
   0   6 -12    7.88    0.57
   6   0  12    6.76    0.49
   6   0  14    1.03    0.23
   0  -6 -14    0.76    0.16
  -6   0 -14    0.97    0.26
  -6   0  14    1.02    0.17
   0   6 -14    0.95    0.29
   0  -6 -14    0.91    0.25
   6   0 -14    1.15    0.30
   6   0 -14    0.65    0.16
   6   0  16   14.51    0.83
   6   0 -16   15.28    0.92
  -6   0 -16   14.97    0.88
   0   6 -16   13.84    0.90
   0  -6 -16   15.08    0.86
   0  -6 -18    4.38    0.51
   6   0  18    4.02    0.47
  -6   0 -18    4.11    0.51
   0   6 -18    4.34    0.53
   6   0 -18    3.76    0.49
   0  -6 -20    0.14    0.26
   0   6 -20    0.74    0.31
   6   0  20    0.55    0.27
  -6   0 -20    0.58    0.30
   6   0 -20    0.47    0.29
   0   6 -22    0.74    0.33
   0  -6 -22    1.10    0.36
  -6   0 -22    1.01    0.34
   6   0 -22    1.25    0.37
   0  -6 -24    0.97    0.33
   6   0 -24    1.19    0.37
  -6   0 -24    0.81    0.35
   0   6 -24    0.76    0.36
  -6  -1 -23    0.37    0.29
   6   1 -23    0.68    0.33
  -1  -6 -23   -0.10    0.25
   1   6 -23   -0.36    0.31
  -1  -6 -21    0.78    0.32
  -6  -1 -21    0.79    0.34
   6  -1  21    0.47    0.26
   1   6 -21    1.20    0.38
   6   1 -21    0.90    0.33
   1   6 -19    2.64    0.46
  -1  -6 -19    3.12    0.45
  -6  -1 -19    2.88    0.43
   6  -1  19    2.69    0.41
   6   1 -19    3.12    0.50
   6  -1  17    2.93    0.41
  -1  -6 -17    2.23    0.39
   6   1 -17    3.28    0.48
  -6  -1 -17    2.47    0.39
   1   6 -17    2.12    0.42
   1   6 -15    6.38    0.59
  -6   1  15    6.61    0.37
  -1  -6 -15    6.10    0.40
   6  -1  15    7.01    0.56
  -6  -1 -15    6.49    0.56
   6   1 -15    5.85    0.57
  -1  -6 -15    6.32    0.53
   6  -1  13    3.16    0.35
   1   6 -13    3.12    0.41
  -6   1  13    3.56    0.26
  -1  -6 -13    3.31    0.26
  -1  -6 -13    2.71    0.33
  -6  -1 -13    2.80    0.35
   6   1 -13    3.49    0.42
   6  -1  11    3.69    0.35
  -6   1  11    3.72    0.27
   6   1 -11    3.24    0.37
  -1  -6 -11    3.50    0.24
  -1  -6 -11    3.89    0.36
   1  -6  11    3.89    0.40
   1   6 -11    3.29    0.38
   1   6 -11    3.74    0.39
   1   6  -9   24.64    0.96
  -1  -6  -9   24.90    0.86
  -1  -6  -9   24.80    0.70
  -1   6   9   23.90    0.87
  -1  -6  -9   22.40    0.94
   6  -1   9   23.80    0.92
   6   1  -9   25.19    0.96
   6  -1   9   24.06    0.65
   1  -6   9   25.25    1.00
   6   1  -9   23.94    0.96
  -1  -6  -7   23.06    0.59
  -1   6   7   24.89    0.64
   6   1  -7   21.65    0.56
   1   6  -7   24.58    0.87
  -1  -6  -7   23.14    0.89
   1  -6   7   23.32    0.89
  -1   6   7   23.32    0.79
   6  -1   7   24.92    0.84
   6  -1   7   23.64    0.85
   1  -6   7   24.23    0.85
   6   1  -7   25.02    0.89
   6   1  -7   23.07    0.87
  -1   6   7   25.71    0.85
  -6   1   7   23.59    0.84
  -6  -1  -7   23.75    0.85
  -1  -6  -7   23.52    0.76
   6   1  -5   62.78    1.67
  -1   6   5   62.56    1.56
   1   6  -5   63.64    1.63
   6  -1   5   62.72    1.67
   6  -1   5   64.79    1.60
   6   1  -5   62.08    1.63
  -1  -6  -5   61.26    1.54
  -1   6   5   63.96    1.68
  -6   1   5   61.96    1.59
   6   1  -5   61.98    1.69
   6  -1   5   61.36    1.67
  -6  -1  -5   62.36    1.48
  -1   6   5   61.08    1.65
  -1  -6  -5   65.33    1.71
  -6   1   5   62.29    1.40
  -1  -6  -5   61.88    1.66
  -1  -6  -5   64.17    1.50
  -1  -6  -5   61.49    1.69
  -1   6   5   65.18    1.52
   1  -6   5   61.49    1.69
   1   6  -5   63.68    1.69
   1   6  -3  161.38    3.48
  -1   6   3  163.20    3.55
  -1  -6  -3  163.53    3.71
   6  -1   3  167.92    3.71
  -1   6   3  157.92    3.62
   6  -1   3  167.64    3.60
   1   6  -3  162.65    3.58
   6   1  -3  160.35    3.61
  -1  -6  -3  160.57    3.64
  -6   1   3  161.52    3.55
   1  -6   3  163.25    3.68
   6   1  -3  155.94    3.71
  -6  -1  -3  163.29    3.46
  -1  -6  -3  173.32    3.73
   1   6  -3  166.03    3.67
   1  -6   1   40.18    1.15
  -1  -6  -1   41.51    1.19
   6  -1   1   43.20    1.19
  -1   6   1   43.25    1.08
   1   6  -1   43.87    1.10
   1   6  -1   42.40    0.97
   6   1  -1   42.42    1.08
  -1  -6  -1   43.88    1.19
  -1  -6  -1   44.36    0.99
   1  -6   1   44.19    1.12
   6   1  -1   41.52    1.19
   1  -6  -1   43.93    1.07
   1  -6  -1   42.87    1.19
   1   6   1   46.20    1.23
   6   1   1   43.14    1.01
   6  -1  -1   45.88    1.22
  -1   6  -1   44.73    1.13
   1   6   1   44.30    1.02
   6   1   1   42.11    1.21
  -1   6  -3  165.98    3.70
   1   6   3  173.85    3.68
   1   6   3  154.83    3.69
   1  -6  -3  165.02    3.73
   6  -1  -3  170.52    3.73
   1   6   3  159.04    3.48
  -6  -1   3  165.25    3.63
   1  -6  -3  167.24    3.64
   1  -6  -3  161.56    3.72
   6   1   3  163.44    3.73
   1  -6  -5   62.87    1.67
   1  -6  -5   61.25    1.69
   6   1   5   60.57    1.68
  -6  -1   5   62.24    1.63
  -1   6  -5   61.73    1.65
   1  -6  -5   63.50    1.55
   6  -1  -5   64.19    1.69
   1   6   5   61.14    1.51
   1   6   5   62.87    1.54
   1   6   5   62.82    1.68
  -1   6  -5   64.63    1.69
   6   1   5   64.61    1.66
   1  -6  -5   64.53    1.65
   6  -1  -7   23.52    0.87
   1  -6  -7   23.47    0.78
   1   6   7   22.56    0.76
   1   6   7   24.24    0.80
  -1   6  -7   23.16    0.85
   1   6   7   23.41    0.89
  -6   1  -7   23.31    0.80
  -6  -1   7   23.65    0.84
  -1  -6   7   24.06    0.87
   1  -6  -7   20.90    0.87
   6  -1  -7   23.37    0.62
  -6  -1   7   23.34    0.82
   6  -1  -7   21.87    0.87
   6   1   7   22.42    0.85
  -1   6  -7   21.75    0.83
   6   1   7   22.08    0.80
   1  -6  -7   23.34    0.85
   1  -6  -7   24.77    0.87
  -1   6  -9   25.73    0.98
  -6  -1   9   23.88    0.85
   1  -6  -9   26.15    0.77
  -6   1  -9   24.35    0.90
   1  -6  -9   23.93    0.88
   6   1   9   25.11    0.91
   6  -1  -9   25.40    0.72
   6  -1  -9   23.66    0.97
   1   6   9   25.82    1.01
  -1   6  -9   24.16    0.94
   1   6   9   25.94    0.89
   1   6   9   25.81    0.84
   6   1   9   26.02    0.97
   1  -6 -11    2.64    0.31
  -1   6 -11    3.24    0.36
  -6  -1  11    3.51    0.29
   6  -1 -11    3.36    0.24
   6  -1 -11    3.29    0.38
   1  -6 -11    3.58    0.26
   6   1  11    3.75    0.34
  -1   6 -11    3.41    0.36
  -6  -1  13    3.00    0.27
  -1   6 -13    2.94    0.39
   6  -1 -13    3.01    0.39
   6  -1 -13    3.53    0.28
  -6   1 -13    3.33    0.39
   6   1  13    3.39    0.35
   1  -6 -13    3.38    0.28
   1  -6 -13    3.46    0.38
   6  -1 -15    7.53    0.63
   1  -6 -15    6.14    0.54
   6  -1 -15    6.33    0.43
  -6   1 -15    6.14    0.56
  -1   6 -15    6.18    0.58
   6   1  15    6.71    0.53
  -6   1 -17    2.44    0.40
   1  -6 -17    2.64    0.40
   6   1  17    2.10    0.33
  -1   6 -17    2.74    0.44
   6  -1 -17    2.62    0.46
  -1   6 -19    3.02    0.48
   6   1  19    3.24    0.43
   1  -6 -19    2.40    0.41
   6  -1 -19    2.26    0.43
  -6   1 -19    2.57    0.45
   6  -1 -21    1.16    0.35
  -1   6 -21    0.49    0.34
   1  -6 -21    1.06    0.33
  -6   1 -21    0.60    0.29
  -1   6 -23    0.12    0.31
   1  -6 -23   -0.40    0.30
   6  -1 -23    0.31    0.27
  -6   1 -23   -0.12    0.24
  -2  -6 -24    0.36    0.32
   2   6 -24    0.75    0.35
   6   2 -24    0.96    0.39
  -6  -2 -24    0.90    0.36
  -2  -6 -22    0.85    0.31
   6   2 -22    1.06    0.35
  -6  -2 -22    0.83    0.33
  -2  -6 -20    0.39    0.25
   6   2 -20    0.88    0.37
   6  -2  20    0.11    0.22
  -6  -2 -20    0.29    0.24
   2   6 -20    0.58    0.29
   6  -2  18    1.95    0.37
  -6  -2 -18    1.63    0.36
   2   6 -18    1.05    0.32
  -2  -6 -18    1.38    0.30
   6   2 -18    1.85    0.41
  -2  -6 -16    2.79    0.38
  -6  -2 -16    2.50    0.40
   2   6 -16    2.47    0.39
   6  -2  16    3.05    0.41
   6   2 -16    2.38    0.44
   6  -2  14    0.79    0.22
  -2  -6 -14    1.20    0.27
   2  -6  14    1.41    0.31
  -6   2  14    0.98    0.15
   6   2 -14    0.77    0.25
  -6  -2 -14    1.00    0.26
   2   6 -14    0.92    0.28
  -2  -6 -14    0.64    0.13
  -6  -2 -12    0.23    0.21
   2  -6  12    0.27    0.22
   2   6 -12   -0.15    0.18
  -2  -6 -12    0.11    0.08
   6  -2  12   -0.07    0.15
  -2  -6 -12   -0.04    0.17
   2   6 -12   -0.18    0.25
   6   2 -12   -0.11    0.19
  -6   2  12    0.02    0.10
  -2  -6 -12    0.06    0.05
  -2  -6 -10    2.74    0.34
   6  -2  10    3.38    0.34
  -2  -6 -10    3.17    0.21
   2  -6  10    3.74    0.38
   6   2 -10    3.02    0.34
   6   2 -10    3.18    0.35
  -2  -6 -10    3.25    0.19
  -2  -6 -10    3.32    0.31
   2   6 -10    3.79    0.38
  -2  -6  -8   23.52    0.92
   6   2  -8   23.98    0.92
   6  -2   8   24.03    0.91
  -2  -6  -8   22.94    0.70
  -2  -6  -8   24.51    0.65
  -2  -6  -8   25.41    0.82
   6   2  -8   25.43    0.93
  -2   6   8   24.31    0.89
   2  -6   8   24.66    0.95
  -2   6   8   24.34    0.64
   2  -6   8   24.01    0.87
   6  -2   8   23.17    0.69
   2   6  -8   25.60    0.92
  -2   6   8   23.08    0.85
   6   2  -8   24.99    0.93
   6  -2   6   17.43    0.71
   6   2  -6   17.37    0.71
   2   6  -6   19.31    0.70
  -6   2   6   17.92    0.54
  -6   2   6   17.82    0.67
   6  -2   6   17.39    0.59
  -2   6   6   18.02    0.70
   2  -6   6   18.43    0.74
   6   2  -6   17.86    0.72
   6   2  -6   17.67    0.70
   6  -2   6   19.06    0.66
  -2   6   6   18.11    0.71
  -2  -6  -6   17.98    0.60
  -2  -6  -6   17.80    0.73
  -2  -6  -6   18.55    0.73
  -2  -6  -6   19.17    0.60
  -2   6   6   17.72    0.65
   2   6  -6   17.78    0.73
  -6  -2  -6   17.81    0.60
  -2  -6  -4   41.04    1.15
   6  -2   4   41.91    1.11
  -2  -6  -4   44.03    1.01
  -2  -6  -4   44.42    1.24
  -6   2   4   42.43    1.12
  -6  -2  -4   41.30    1.06
   2   6  -4   40.19    1.12
   2   6  -4   42.88    1.23
  -2   6   4   41.28    1.13
   2   6  -4   41.09    1.08
   2  -6   4   43.26    1.23
  -2  -6  -4   43.56    1.13
  -2  -6  -4   43.93    1.25
  -6   2   4   42.12    1.02
   6   2  -4   41.63    1.23
   6   2  -4   40.96    1.17
   6  -2   4   43.63    1.22
   2   6  -2   68.09    1.69
  -2  -6  -2   68.50    1.75
  -2   6   2   67.36    1.63
  -6  -2  -2   71.03    1.58
  -6   2   2   71.16    1.56
   2   6  -2   64.83    1.56
   6   2  -2   66.87    1.76
  -2  -6  -2   68.39    1.59
   6   2  -2   69.73    1.68
  -2  -6  -2   69.73    1.76
   2   6  -2   68.35    1.72
   2   6  -2   69.02    1.57
   6  -2   2   71.03    1.74
  -2  -6  -2   68.29    1.74
   2  -6   2   68.56    1.71
   2   6   0   47.18    1.15
   6  -2   0   48.05    1.26
  -2  -6   0   46.01    1.31
  -2   6   0   49.59    1.26
   2   6   0   45.24    1.10
  -2  -6   0   46.08    1.27
   6   2   0   46.01    1.13
   2  -6   0   47.61    1.19
   2  -6   0   46.45    1.24
   6  -2   0   45.99    1.04
  -2   6   0   46.98    1.10
   6   2   0   45.77    1.28
  -2  -6   0   47.94    1.10
  -2   6  -2   72.85    1.73
   2  -6  -2   68.16    1.73
  -6  -2   2   74.21    1.73
   6   2   2   66.48    1.75
   2   6   2   73.03    1.76
  -2   6  -2   66.38    1.50
  -2  -6   2   66.62    1.80
   2  -6  -2   71.13    1.55
  -2   6  -2   69.49    1.72
   6   2   2   69.76    1.59
   6  -2  -2   71.81    1.76
  -6  -2   2   68.13    1.51
   2  -6  -2   69.31    1.62
   2   6   2   66.76    1.50
   2   6   4   47.52    1.21
   6   2   4   43.14    1.26
   2  -6  -4   43.38    1.26
   2  -6  -4   44.60    1.19
  -6  -2   4   45.12    1.25
  -2   6  -4   43.26    1.21
  -2   6  -4   43.71    1.26
  -6  -2   4   43.90    1.21
   2  -6  -4   43.94    1.24
   6   2   4   42.59    1.25
   6  -2  -4   42.99    1.25
   2   6   4   42.77    1.26
   2  -6  -6   18.27    0.71
  -2   6  -6   17.71    0.68
  -6   2  -6   17.12    0.62
   6  -2  -6   18.31    0.72
  -6  -2   6   18.22    0.70
   6   2   6   18.25    0.66
   6   2   6   17.27    0.71
   2  -6  -6   15.67    0.70
  -6  -2   6   17.78    0.70
   2  -6  -6   18.80    0.70
   2   6   6   18.08    0.74
   2  -6  -6   18.62    0.70
   2  -6  -6   17.76    0.65
  -6  -2   6   18.26    0.71
  -6   2  -8   25.00    0.84
   2  -6  -8   23.50    0.84
   2  -6  -8   25.06    0.93
   6  -2  -8   25.21    0.94
   2  -6  -8   23.92    0.87
  -6  -2   8   23.62    0.85
  -2   6  -8   23.51    0.88
   2   6   8   23.30    0.80
   6  -2  -8   23.82    0.93
   2   6   8   24.36    0.80
   6   2   8   24.60    0.93
   2  -6  -8   23.74    0.87
   6   2   8   22.99    0.82
   2   6   8   22.93    0.93
   6  -2  -8   24.67    0.71
   6   2  10    2.86    0.29
   6  -2 -10    3.52    0.38
   6  -2 -10    3.45    0.24
   6   2  10    3.58    0.37
  -6  -2  10    3.24    0.29
  -2   6 -10    3.49    0.37
   2  -6 -10    2.70    0.30
  -2   6 -10    2.38    0.30
   2   6  10    3.47    0.26
  -6   2 -10    3.02    0.29
   2   6  10    2.88    0.34
   2  -6 -10    3.53    0.32
  -2   6 -12   -0.02    0.17
   6   2  12    0.11    0.14
   2  -6 -12    0.27    0.11
  -6  -2  12    0.12    0.13
   2  -6 -12   -0.06    0.14
   2  -6 -12    0.35    0.18
   6  -2 -12    0.08    0.10
   6  -2 -12    0.02    0.22
  -2   6 -14    0.75    0.30
   2  -6 -14    1.08    0.29
   6   2  14    1.23    0.25
   2  -6 -14    0.61    0.18
  -6  -2  14    0.76    0.20
  -6   2 -14    0.82    0.29
   6  -2 -14    0.86    0.18
   2  -6 -14    0.84    0.18
   6  -2 -14    0.98    0.29
   2  -6 -16    2.67    0.29
   2  -6 -16    3.61    0.46
   6   2  16    2.42    0.34
  -2   6 -16    2.65    0.42
   6  -2 -16    3.25    0.45
  -6   2 -16    2.78    0.40
   6  -2 -18    1.99    0.39
   2  -6 -18    1.18    0.34
  -6   2 -18    1.57    0.37
   6   2  18    1.46    0.29
  -2   6 -20    0.72    0.33
   6  -2 -20    0.89    0.33
  -6   2 -20    0.42    0.29
   2  -6 -20    0.51    0.28
  -6   2 -22    1.07    0.37
   6  -2 -22    0.57    0.29
  -2   6 -22    1.42    0.39
   2  -6 -22    0.74    0.31
  -6   2 -24    0.34    0.27
  -2   6 -24    0.49    0.34
   2  -6 -24    0.69    0.32
   6  -2 -24    0.34    0.31
  -6  -3 -23    0.49    0.26
   3   6 -23   -0.08    0.37
   6   3 -23    0.64    0.32
  -3  -6 -23    0.71    0.30
   6   3 -21    0.84    0.35
   6  -3  21    0.83    0.30
  -3  -6 -21    0.67    0.31
  -6  -3 -21    1.38    0.34
   3   6 -21    0.55    0.33
  -3  -6 -19    1.49    0.34
   6   3 -19    1.02    0.32
   6  -3  19    1.21    0.32
  -6  -3 -19    0.84    0.28
   3   6 -19    1.19    0.33
  -6  -3 -17    3.49    0.43
   3   6 -17    3.26    0.46
   6  -3  17    3.10    0.42
   3  -6  17    3.91    0.49
  -3  -6 -17    3.13    0.42
   6   3 -17    4.41    0.54
   3  -6  15    1.63    0.35
  -6  -3 -15    1.04    0.28
   6  -3  15    1.43    0.30
  -3  -6 -15    1.47    0.21
  -6   3  15    1.60    0.15
   6   3 -15    2.18    0.41
  -3  -6 -15    1.19    0.09
   3   6 -15    1.67    0.36
  -3  -6 -15    1.23    0.28
  -3  -6 -13    0.97    0.16
  -3  -6 -13    1.37    0.25
   3   6 -13    1.13    0.31
  -6   3  13    0.84    0.13
   6  -3  13    1.07    0.24
   3  -6  13    1.16    0.28
   3   6 -13    0.84    0.25
   6   3 -13    1.01    0.28
  -3  -6 -13    0.85    0.11
  -6  -3 -13    0.60    0.22
   3  -6  11    3.63    0.40
   6   3 -11    2.47    0.34
  -3  -6 -11    2.79    0.20
  -3  -6 -11    2.81    0.22
  -6  -3 -11    3.13    0.33
  -3  -6 -11    2.63    0.30
   6  -3  11    2.52    0.32
  -6   3  11    2.28    0.21
   3   6 -11    3.01    0.37
  -3  -6 -11    2.37    0.36
   3   6  -9    1.98    0.28
  -3  -6  -9    2.43    0.20
   6  -3   9    2.53    0.29
  -6  -3  -9    2.12    0.24
   6   3  -9    2.32    0.29
  -3  -6  -9    1.94    0.28
   3  -6   9    2.39    0.30
   6  -3   9    2.28    0.24
   6   3  -9    2.44    0.32
   3  -6   9    2.73    0.28
  -3  -6  -9    2.41    0.25
   6   3  -9    2.37    0.29
  -3  -6  -7   17.66    0.62
  -6   3   7   17.61    0.59
   6   3  -7   17.53    0.74
   6  -3   7   17.70    0.63
  -3  -6  -7   17.53    0.74
   3  -6   7   16.91    0.75
   6  -3   7   17.40    0.59
   6   3  -7   17.50    0.73
  -3  -6  -7   17.71    0.62
  -6  -3  -7   17.53    0.65
   6   3  -7   18.26    0.74
  -3   6   7   16.77    0.68
  -3   6   7   17.66    0.71
   3  -6   7   17.09    0.67
   3   6  -7   17.17    0.69
   6  -3   7   17.59    0.74
  -3  -6  -5    3.83    0.21
   3  -6   5    3.48    0.29
  -3  -6  -5    3.48    0.30
   6  -3   5    3.59    0.20
   6   3  -5    3.32    0.28
   6  -3   5    3.21    0.29
  -3  -6  -5    3.47    0.26
  -3  -6  -5    3.92    0.27
   6  -3   5    3.90    0.27
   3   6  -5    3.40    0.25
   6  -3   5    3.66    0.24
  -6   3   5    3.21    0.20
   6   3  -5    3.72    0.30
   3   6  -5    3.54    0.29
  -6  -3  -5    3.52    0.24
  -3  -6  -5    3.30    0.29
  -3   6   5    3.41    0.27
   6   3  -5    3.35    0.14
   6   3  -5    3.57    0.28
   3   6  -5    4.20    0.26
  -3   6   5    3.81    0.29
  -6  -3  -3   54.56    1.34
   6  -3   3   56.14    1.30
  -3   6   3   55.27    1.41
   6  -3   3   56.15    1.45
   6  -3   3   54.78    1.46
   3  -6   3   55.86    1.47
  -3  -6  -3   51.92    1.45
   3   6  -3   55.51    1.42
  -6   3   3   53.40    1.45
  -3  -6  -3   55.64    1.37
   6   3  -3   53.96    1.45
  -3  -6  -3   54.30    1.20
   6   3  -3   54.55    1.48
  -3  -6  -3   53.87    1.48
   3   6  -3   53.51    1.35
  -3  -6  -3   51.35    1.45
   3   6  -3   53.83    1.32
   3  -6   1    0.68    0.12
  -3  -6  -1    0.80    0.11
  -6  -3  -1    0.89    0.13
  -3  -6  -1    0.90    0.16
   6  -3   1    0.84    0.07
  -6   3   1    0.82    0.13
  -3  -6  -1    1.12    0.17
   3   6  -1    0.86    0.07
   3  -6   1    1.01    0.14
   6  -3   1    1.01    0.14
   3  -6   1    0.83    0.08
   3   6  -1    0.73    0.14
   6   3  -1    0.80    0.15
  -3   6   1    1.02    0.15
  -3  -6  -1    0.71    0.13
   3   6  -1    0.80    0.10
   6  -3  -1    0.83    0.10
  -3   6  -1    0.75    0.06
   6   3   1    0.90    0.15
  -3  -6   1    0.80    0.11
   3   6   1    1.00    0.12
  -3   6  -1    0.77    0.13
   6   3   1    0.88    0.11
   3   6   1    0.99    0.17
  -6  -3   1    0.76    0.10
   3  -6  -1    0.81    0.14
  -3  -6   1    0.89    0.08
  -6  -3   1    0.92    0.12
   3  -6  -1    0.90    0.09
  -6   3  -1    0.90    0.13
   6  -3  -1    0.85    0.14
  -3   6  -1    0.96    0.08
  -3  -6   1    1.00    0.18
   6   3   3   55.81    1.53
  -6   3  -3   55.81    1.27
  -3   6  -3   56.22    1.34
  -3  -6   3   52.89    1.57
   3   6   3   56.84    1.55
   3  -6  -3   58.13    1.38
  -3  -6   3   58.43    1.39
   6  -3  -3   58.62    1.52
   3  -6  -3   54.76    1.51
  -6  -3   3   60.25    1.50
  -3   6  -3   59.95    1.58
  -3   6  -3   59.37    1.48
  -3   6  -3   57.75    1.45
   3  -6  -3   58.95    1.42
   3  -6  -3   58.48    1.60
  -6   3  -3   55.73    1.49
   6   3   3   57.07    1.41
   3  -6  -5    3.95    0.32
  -6   3  -5    3.68    0.28
  -3   6  -5    3.67    0.23
  -3   6  -5    3.94    0.30
   3   6   5    3.47    0.14
  -6  -3   5    3.83    0.29
   3  -6  -5    3.92    0.28
  -3  -6   5    4.23    0.28
   3  -6  -5    3.34    0.27
  -3  -6   5    4.26    0.35
  -6  -3   5    3.57    0.31
   3   6   5    3.68    0.33
   6  -3  -5    3.79    0.30
  -3   6  -5    3.73    0.28
   3  -6  -5    4.02    0.32
   6   3   5    4.13    0.33
   6   3   5    3.62    0.31
  -6  -3   7   17.88    0.72
   3  -6  -7   17.75    0.74
  -3   6  -7   18.17    0.70
   6   3   7   17.70    0.76
   3   6   7   17.68    0.51
  -3   6  -7   19.29    0.71
   3   6   7   18.33    0.77
   3  -6  -7   17.28    0.69
   6  -3  -7   17.44    0.74
   3  -6  -7   17.91    0.70
   6  -3  -7   17.72    0.58
  -6   3  -7   17.48    0.63
  -6   3  -7   17.79    0.72
   6   3   7   16.81    0.64
  -3  -6   7   18.34    0.71
  -6  -3   7   18.03    0.73
  -6  -3   7   16.92    0.72
   3  -6  -7   18.98    0.74
   6  -3  -7   17.69    0.74
   3  -6  -7   15.91    0.73
  -6   3  -9    1.93    0.22
   3  -6  -9    1.94    0.25
  -6  -3   9    1.78    0.23
   3   6   9    2.38    0.31
   3  -6  -9    2.45    0.28
  -3   6  -9    2.25    0.28
   6   3   9    2.23    0.22
   6  -3  -9    2.11    0.19
   3   6   9    2.08    0.20
   6   3   9    2.22    0.30
   6  -3  -9    2.49    0.32
   3   6  11    2.81    0.23
  -6  -3  11    2.51    0.29
   6   3  11    2.82    0.36
   3  -6 -11    2.69    0.31
   3  -6 -11    3.03    0.34
   6   3  11    2.83    0.28
   6  -3 -11    3.37    0.38
  -3   6 -11    3.73    0.39
   3   6  11    2.37    0.36
   6  -3 -11    2.65    0.24
  -3   6 -13    1.29    0.32
   3  -6 -13    1.18    0.22
   6  -3 -13    0.70    0.16
  -6  -3  13    1.00    0.21
   6   3  13    0.98    0.19
  -3   6 -13    0.97    0.15
   3  -6 -13    1.08    0.25
   6  -3 -13    0.90    0.27
  -3   6 -15    1.60    0.32
  -6   3 -15    1.53    0.33
  -3   6 -15    1.51    0.19
   6   3  15    1.54    0.27
   6  -3 -15    1.39    0.32
   3  -6 -15    1.20    0.23
   3  -6 -15    1.38    0.32
   6  -3 -17    3.30    0.49
  -3   6 -17    3.25    0.44
   3  -6 -17    3.08    0.33
   6   3  17    4.22    0.43
   3  -6 -17    3.58    0.47
  -6   3 -17    3.12    0.45
   3  -6 -19    0.82    0.21
  -3   6 -19    1.39    0.41
  -6   3 -19    1.12    0.32
   3  -6 -19    1.46    0.36
   6   3  19    1.88    0.31
   6  -3 -19    1.33    0.38
   6  -3 -21    0.49    0.21
   3  -6 -21    0.87    0.30
  -6   3 -21    1.29    0.36
  -3   6 -21    1.14    0.36
   6  -3 -21    0.86    0.33
   3  -6 -23    0.53    0.30
  -6   3 -23    0.34    0.34
   6  -3 -23    0.33    0.31
  -3   6 -23    0.50    0.30
  -6  -4 -24    0.24    0.26
   4   6 -24   -0.23    0.36
  -4  -6 -24   -0.02    0.28
   6   4 -24   -0.39    0.41
  -4  -6 -22    3.95    0.51
   4   6 -22    3.84    0.59
  -6  -4 -22    3.28    0.48
   6  -4  22    4.96    0.60
   6   4 -22    3.43    0.57
  -6  -4 -20    0.58    0.26
  -4  -6 -20    0.69    0.28
   4   6 -20    0.24    0.28
   6  -4  20    0.70    0.27
   6   4 -20    0.20    0.29
  -6  -4 -18    1.32    0.32
   4   6 -18    1.66    0.38
   6   4 -18    1.12    0.32
  -4  -6 -18    0.90    0.27
   6  -4  18    1.43    0.33
   4  -6  18    1.69    0.37
   4   6 -16    2.34    0.42
   6   4 -16    1.48    0.36
  -6  -4 -16    1.68    0.32
   6  -4  16    1.46    0.31
  -4  -6 -16    1.68    0.30
   4  -6  16    1.67    0.34
  -6  -4 -14    6.06    0.51
   6   4 -14    7.53    0.61
  -4  -6 -14    6.98    0.51
  -6   4  14    6.85    0.29
   4   6 -14    6.70    0.58
   6  -4  14    7.44    0.60
  -4  -6 -14    6.55    0.33
  -4  -6 -14    5.37    0.52
   4  -6  14    7.64    0.62
   4  -6  12    3.52    0.40
  -4  -6 -12    3.14    0.24
  -4  -6 -12    3.89    0.42
   6   4 -12    3.77    0.41
  -4  -6 -12    3.48    0.35
   6  -4  12    3.33    0.38
  -6  -4 -12    3.45    0.36
  -6   4  12    3.70    0.23
   4   6 -12    3.62    0.42
   4   6 -12    3.43    0.43
  -4  -6 -10    7.15    0.50
  -6  -4 -10    8.28    0.48
  -4  -6 -10    7.53    0.45
   6   4 -10    8.99    0.57
   6  -4  10    9.56    0.58
  -4  -6 -10    8.02    0.39
   4   6 -10    7.47    0.52
  -6  -4 -10    7.49    0.47
   4  -6  10    8.02    0.55
   6   4 -10    8.26    0.56
   6   4 -10    6.76    0.49
   6  -4  10    7.15    0.45
   4   6  -8   56.84    1.64
   4  -6   8   55.72    1.57
   6  -4   8   54.03    1.68
  -6  -4  -8   58.54    1.60
  -4  -6  -8   58.54    1.54
   6   4  -8   55.78    1.66
   4   6  -8   56.97    1.60
   6   4  -8   58.23    1.71
  -6   4   8   57.96    1.51
   6   4  -8   56.49    1.66
  -4   6   8   59.67    1.62
   6  -4   8   57.67    1.54
  -4  -6  -8   57.83    1.67
  -4  -6  -8   57.01    1.52
   4  -6   8   55.87    1.71
  -6  -4  -6    4.27    0.29
  -4   6   6    4.52    0.32
  -6   4   6    4.29    0.26
   6  -4   6    4.20    0.35
  -4  -6  -6    4.32    0.31
  -4  -6  -6    4.30    0.33
   4   6  -6    4.53    0.30
  -6  -4  -6    4.54    0.34
   6  -4   6    4.45    0.29
  -4  -6  -6    4.36    0.26
   6   4  -6    4.33    0.35
   6   4  -6    4.27    0.34
   6  -4   6    4.36    0.26
   4  -6   6    4.38    0.34
   6   4  -6    4.59    0.21
  -4   6   6    4.59    0.33
  -4  -6  -6    4.36    0.30
   4   6  -6    4.43    0.31
   6   4  -6    4.65    0.33
   4  -6   4   21.24    0.79
  -4  -6  -4   21.04    0.76
  -6   4   4   20.90    0.67
  -6  -4  -4   22.25    0.70
  -4  -6  -4   21.25    0.76
  -4  -6  -4   22.21    0.73
   6  -4   4   21.51    0.76
  -6  -4  -4   22.17    0.78
  -4   6   4   20.63    0.74
   6  -4   4   21.32    0.81
   6   4  -4   21.72    0.59
   6   4  -4   21.81    0.78
  -4   6   4   20.41    0.74
   6   4  -4   20.46    0.76
   6   4  -4   20.73    0.71
   4   6  -4   21.35    0.70
   4   6  -4   20.68    0.67
   4   6  -4   21.09    0.70
  -4  -6  -4   21.84    0.59
   6  -4   4   20.63    0.73
  -4  -6  -4   20.55    0.78
  -6  -4  -2   85.18    1.99
   6  -4   2   83.03    1.83
  -6  -4  -2   85.00    2.06
  -4  -6  -2   82.64    2.07
   4   6  -2   83.15    2.02
   4  -6   2   87.28    1.92
   4  -6   2   86.27    2.09
  -4  -6  -2   76.90    2.09
  -6   4   2   83.26    2.05
   4   6  -2   80.74    1.88
   6   4  -2   82.44    1.92
   6   4  -2   83.28    2.09
  -4   6   2   88.96    2.07
   6  -4   2   85.16    2.04
  -4  -6  -2   85.47    2.00
  -4   6   2   85.01    2.09
  -4  -6  -2   82.49    2.08
   6  -4   2   83.36    2.12
   4   6  -2   83.27    1.99
  -6  -4  -2   87.26    2.09
   4  -6   0   64.85    1.67
   4  -6   0   69.53    1.85
   4   6   0   68.41    1.74
  -4   6   0   72.71    1.71
  -4  -6   0   70.43    1.73
   6   4   0   66.99    1.75
   4  -6   0   70.51    1.59
  -4  -6   0   67.19    1.50
   4   6   0   67.77    1.67
  -4  -6   0   68.84    1.66
   6  -4   0   69.40    1.84
   6  -4   0   72.17    1.72
  -4  -6   0   67.21    1.82
  -6   4   0   69.15    1.71
  -6  -4   0   72.29    1.77
   6  -4   0   67.72    1.57
  -4   6   0   67.89    1.59
  -6  -4   0   70.63    1.67
   6   4   0   68.04    1.69
  -6   4  -2   83.94    2.05
  -4  -6   2   86.24    1.94
   4  -6  -2   82.88    2.06
  -4  -6   2   81.33    2.17
   6   4   2   85.18    2.02
   6  -4  -2   84.30    1.98
   4  -6  -2   86.36    1.92
  -4  -6   2   85.54    2.01
  -4   6  -2   84.51    1.93
  -6  -4   2   88.22    2.11
   4   6   2   82.83    2.02
   4   6   2   83.69    2.11
   4  -6  -2   84.24    1.95
   6   4   2   85.84    2.12
  -6  -4   2   81.87    1.92
  -6   4  -2   82.88    1.83
   4  -6  -2   84.29    2.19
  -6   4  -2   89.15    1.89
   6  -4  -2   88.76    2.07
  -6  -4   2   75.78    2.16
  -6  -4   2   87.88    2.03
  -4   6  -2   90.84    2.04
  -6  -4   4   23.01    0.77
   6   4   4   21.87    0.83
  -4  -6   4   22.57    0.72
   4   6   4   23.71    0.81
   4  -6  -4   23.04    0.73
  -6  -4   4   21.95    0.85
  -6   4  -4   21.07    0.75
   4   6   4   22.68    0.84
  -4   6  -4   24.12    0.83
   6   4   4   19.68    0.71
   4  -6  -4   23.22    0.72
  -6   4  -4   24.89    0.63
   4  -6  -4   22.10    0.86
   6  -4  -4   22.76    0.79
  -6  -4   4   23.86    0.81
   6   4   4   22.04    0.81
  -4   6  -4   23.75    0.74
  -4   6  -4   22.98    0.69
  -4   6  -4   22.89    0.72
  -4  -6   4   22.37    0.86
   4  -6  -4   23.16    0.80
   4  -6  -6    4.26    0.35
  -4  -6   6    4.37    0.31
   4  -6  -6    4.54    0.31
   4  -6  -6    4.10    0.35
   6   4   6    4.40    0.37
  -4   6  -6    4.11    0.28
  -4  -6   6    4.57    0.37
   4   6   6    4.49    0.21
   4  -6  -6    4.39    0.32
  -4   6  -6    4.76    0.32
  -6   4  -6    4.38    0.25
  -6   4  -6    4.30    0.31
  -6  -4   6    4.29    0.35
  -4   6  -6    4.61    0.32
   4   6   6    3.85    0.35
   6  -4  -6    5.44    0.36
  -6  -4   6    4.57    0.33
  -4  -6   8   54.97    1.67
   6   4   8   52.92    1.48
  -4  -6   8   59.68    1.64
   4  -6  -8   56.07    1.62
   4  -6  -8   53.32    1.64
   6  -4  -8   59.02    1.49
  -4   6  -8   58.40    1.61
   6  -4  -8   55.90    1.68
  -6   4  -8   55.23    1.49
   4  -6  -8   56.31    1.58
   4   6   8   57.27    1.38
  -4   6  -8   59.14    1.55
   4  -6  -8   59.32    1.66
   6   4   8   53.64    1.68
  -6  -4   8   55.91    1.64
   4   6   8   55.65    1.71
   6  -4  -8   55.04    1.64
   6  -4 -10    7.62    0.53
   4   6  10    8.18    0.38
   6   4  10    8.91    0.46
  -6   4 -10    7.37    0.44
   4  -6 -10    7.47    0.50
  -6  -4  10    8.10    0.50
   4  -6 -10    7.33    0.48
  -4   6 -10    8.61    0.43
   6  -4 -10    7.76    0.41
   4   6  10    6.71    0.53
   6   4  10    8.13    0.56
   4   6  12    3.27    0.40
   6  -4 -12    3.31    0.28
   4  -6 -12    3.67    0.36
  -6  -4  12    3.06    0.33
  -4   6 -12    3.30    0.27
   4   6  12    3.26    0.24
   6   4  12    3.85    0.44
   6   4  12    2.90    0.17
  -4   6 -12    3.47    0.40
   4   6  12    3.22    0.26
   6  -4 -12    3.94    0.42
   4  -6 -12    3.15    0.37
   6   4  12    3.13    0.30
   4  -6 -14    6.24    0.54
  -4   6 -14    7.35    0.39
  -4   6 -14    6.07    0.55
  -6   4 -14    7.55    0.61
   6  -4 -14    7.58    0.61
   6   4  14    7.23    0.49
   4  -6 -14    6.35    0.49
  -4   6 -16    1.24    0.33
   6  -4 -16    1.42    0.36
   6  -4 -16    1.25    0.27
   6   4  16    1.59    0.27
   4  -6 -16    1.34    0.25
  -6   4 -16    1.74    0.36
   4  -6 -16    1.82    0.36
  -6   4 -18    1.10    0.33
  -4   6 -18    1.11    0.32
   6   4  18    1.20    0.25
   6  -4 -18    1.60    0.30
   4  -6 -18    1.44    0.26
   6  -4 -18    1.03    0.32
   4  -6 -18    1.90    0.37
   4  -6 -20    0.21    0.26
   4  -6 -20    0.24    0.14
  -4   6 -20    0.84    0.36
   6  -4 -20    0.55    0.29
   6  -4 -20    0.69    0.24
  -6   4 -20    0.94    0.35
  -6   4 -22    3.53    0.57
   6  -4 -22    4.24    0.58
  -4   6 -22    4.62    0.62
   4  -6 -22    4.71    0.61
   6  -4 -24   -0.44    0.38
  -6   4 -24    0.33    0.28
  -4   6 -24    0.15    0.28
   4  -6 -24    0.35    0.35
   6   5 -23    1.96    0.48
  -5  -6 -23    2.40    0.43
  -6  -5 -23    2.54    0.46
   5   6 -23    1.58    0.41
   5   6 -21    1.87    0.43
   6  -5  21    1.34    0.38
  -5  -6 -21    1.59    0.33
   6   5 -21    2.17    0.44
  -6  -5 -21    1.58    0.36
   5   6 -19    0.17    0.27
   6  -5  19    0.06    0.24
  -5  -6 -19    1.14    0.29
   6   5 -19    1.32    0.37
  -6  -5 -19    0.47    0.24
   5  -6  19    0.93    0.31
   6   5 -17    8.79    0.74
  -5  -6 -17    7.85    0.63
   5  -6  17    9.47    0.75
   5   6 -17   10.07    0.79
   6  -5  17    8.81    0.72
  -6  -5 -17    8.25    0.64
   5   6 -15    0.07    0.24
   6  -5  15    0.01    0.20
  -5  -6 -15    0.01    0.20
  -5  -6 -15    0.30    0.24
   6   5 -15    0.08    0.23
   5  -6  15    0.19    0.24
  -5  -6 -15    0.01    0.10
  -6  -5 -15    0.17    0.21
  -5  -6 -13    5.31    0.44
  -5  -6 -13    5.76    0.50
  -6  -5 -13    5.35    0.45
  -6  -5 -13    5.12    0.47
   5  -6  13    5.20    0.50
   5   6 -13    5.60    0.54
   6   5 -13    5.82    0.53
   6  -5  13    5.42    0.50
  -6   5  13    5.95    0.26
   5   6 -13    6.09    0.53
   5   6 -11   11.92    0.71
   5  -6  11    9.83    0.64
   6   5 -11   11.57    0.66
  -6  -5 -11    9.51    0.55
   6   5 -11   10.68    0.69
  -6  -5 -11    9.49    0.57
   6  -5  11   11.24    0.68
   6   5 -11   10.63    0.62
   5   6 -11   10.62    0.64
  -5  -6 -11   10.45    0.56
  -5  -6 -11    9.11    0.60
   6  -5   9   12.15    0.56
  -5   6   9   13.36    0.61
   6   5  -9   11.53    0.62
   6   5  -9   11.73    0.66
  -6  -5  -9   12.29    0.60
  -5  -6  -9   11.46    0.55
   6  -5   9   12.25    0.67
  -5  -6  -9   11.43    0.61
   5  -6   9   11.75    0.57
   6   5  -9   11.30    0.62
   5  -6   9   12.14    0.67
   5   6  -9   11.29    0.59
  -6  -5  -9   12.04    0.57
   5   6  -9   11.73    0.62
  -5  -6  -7   44.21    1.33
  -5   6   7   46.10    1.30
   5   6  -7   44.30    1.31
  -6   5   7   45.06    1.24
  -5  -6  -7   43.62    1.20
   6  -5   7   43.49    1.20
   5  -6   7   44.43    1.24
  -5  -6  -7   43.12    1.29
   6   5  -7   43.26    1.32
   6  -5   7   42.94    1.39
   5   6  -7   40.43    1.29
  -6  -5  -7   40.90    1.27
   6   5  -7   45.27    1.41
   5  -6   7   43.46    1.40
   6   5  -7   44.02    1.34
  -6  -5  -5   38.25    1.11
   6  -5   5   37.21    1.14
   6   5  -5   36.95    1.11
  -5   6   5   37.00    1.16
   5   6  -5   37.64    1.09
  -5  -6  -5   38.82    1.18
   5   6  -5   38.45    1.05
  -6  -5  -5   37.36    1.17
   6  -5   5   36.84    1.21
  -5  -6  -5   39.62    1.16
   5   6  -5   38.17    1.13
  -6   5   5   36.73    1.07
   6   5  -5   38.68    1.22
  -5   6   5   37.88    1.12
  -6  -5  -5   38.10    1.21
   6   5  -5   37.52    1.17
   5  -6   5   37.64    1.21
   6   5  -5   37.42    0.98
  -5  -6  -5   35.65    1.14
   6  -5   3   98.85    2.47
  -5   6   3   98.56    2.38
   5  -6   3   98.75    2.28
  -5  -6  -3   96.65    2.38
   5  -6   3   95.72    2.43
  -6   5   3   98.46    2.34
   6   5  -3   96.50    2.25
   6   5  -3  102.02    2.46
  -6  -5  -3  100.01    2.41
   6  -5   3   98.39    2.33
  -5  -6  -3   98.11    2.36
  -6  -5  -3   98.77    2.43
   5   6  -3   96.96    2.26
  -6  -5  -3   99.11    2.35
   5   6  -3   97.59    2.35
   6   5  -3   97.33    2.40
  -5  -6  -3   93.00    2.44
   5   6  -3   97.00    2.30
  -5  -6  -3  101.19    2.44
   5  -6   3   96.68    2.46
   6  -5   3  100.42    2.45
   5  -6   1   33.73    0.91
   5   6  -1   33.52    0.98
  -5  -6  -1   30.69    1.00
   6   5  -1   33.76    0.95
  -6  -5  -1   34.56    1.00
   5  -6   1   33.87    1.10
   6  -5   1   33.29    0.97
   6   5  -1   34.47    1.01
  -5  -6  -1   33.33    1.10
  -5  -6  -1   33.89    1.01
  -5   6   1   35.29    0.99
   5   6  -1   33.06    0.98
  -5  -6  -1   36.24    1.00
  -5   6   1   32.78    0.92
   5  -6   1   32.93    0.93
   6   5  -1   33.27    1.02
  -5  -6  -1   34.42    0.82
  -6   5   1   33.84    0.98
   6  -5   1   32.17    0.87
  -6  -5  -1   35.02    1.03
   5   6  -1   35.48    1.05
   6  -5   1   33.77    1.10
   5  -6  -1   33.84    1.15
  -6  -5   1   35.36    0.95
  -6  -5   1   34.56    0.96
   5   6   1   33.75    1.05
  -5  -6   1   37.05    0.89
   6  -5  -1   35.12    1.16
  -5   6  -1   34.80    0.94
   6   5   1   34.65    1.02
  -5  -6   1   34.09    1.00
   5   6   1   35.74    1.02
   6   5   1   34.91    1.06
  -5   6  -1   36.70    0.98
   5  -6  -1   34.08    0.83
   5  -6  -1   34.25    0.99
  -6  -5   1   35.64    1.05
  -6   5  -1   35.46    1.00
   6  -5  -1   33.35    0.94
  -6  -5   1   34.89    1.15
  -5  -6   1   32.71    1.13
   5   6   1   35.11    1.05
   5  -6  -1   37.08    0.96
  -6   5  -1   36.29    0.93
  -5  -6   1   34.02    0.99
   6  -5  -1   34.66    1.00
   6   5   3   99.74    2.39
   6  -5  -3   96.63    2.55
  -5   6  -3  101.17    2.33
  -6   5  -3  104.98    2.25
   5   6   3   97.30    2.40
  -5  -6   3  100.92    2.37
  -6  -5   3   94.22    2.52
   6  -5  -3  101.11    2.38
  -5   6  -3  106.58    2.52
  -6   5  -3   98.15    2.36
   5   6   3  101.72    2.43
   5  -6  -3   94.42    2.54
   5  -6  -3   95.73    2.39
   5  -6  -3  102.50    2.29
   5  -6  -3  100.47    2.33
  -5  -6   3   96.40    2.54
  -5   6  -3   96.59    2.29
  -6  -5   3  100.01    2.42
  -6  -5   3   99.55    2.34
   6  -5  -3   97.79    2.36
   6   5   3   95.37    2.43
  -5  -6   3   98.83    2.29
  -6   5  -3   99.20    2.20
  -5   6  -3   97.23    2.28
  -5   6  -5   36.32    1.06
   6   5   5   37.08    1.22
  -6   5  -5   36.72    1.10
   5  -6  -5   38.14    1.17
  -6  -5   5   35.09    1.21
   5  -6  -5   38.47    1.10
   6  -5  -5   35.36    1.23
  -5  -6   5   34.38    1.20
  -5   6  -5   35.61    0.91
   5  -6  -5   37.73    1.24
  -5   6  -5   38.34    1.05
  -5   6  -5   38.98    1.05
  -6  -5   5   36.96    1.11
  -5  -6   5   37.23    1.09
   5   6   5   36.11    1.20
   6  -5  -5   35.81    1.12
   5   6   5   35.75    1.14
  -5   6  -5   38.69    1.16
  -6   5  -5   40.36    1.00
   6   5   5   38.39    1.12
  -5  -6   7   41.92    1.37
   6  -5  -7   42.43    1.29
  -6  -5   7   41.35    1.34
   6   5   7   41.83    1.37
  -5   6  -7   42.46    1.23
   6  -5  -7   42.04    1.38
  -6   5  -7   43.00    1.28
  -5   6  -7   40.94    1.11
   5   6   7   43.25    1.38
  -5   6  -7   40.74    1.21
   5   6   7   40.32    1.08
  -5  -6   7   42.11    1.28
  -6  -5   7   43.57    1.30
  -5   6  -7   43.62    1.26
  -6   5  -7   41.15    1.12
   5  -6  -7   42.64    1.25
   6   5   7   41.95    1.15
   5  -6  -7   40.74    1.35
   5  -6  -9   12.24    0.65
   6  -5  -9   12.04    0.54
   5   6   9   12.30    0.48
  -5  -6   9   11.96    0.65
   6  -5  -9   11.83    0.65
  -5   6  -9   11.48    0.52
   5   6   9   12.53    0.69
   5  -6  -9   12.00    0.63
   5  -6  -9   11.95    0.57
  -6   5  -9   12.31    0.53
   6   5   9   10.75    0.66
  -6  -5   9   10.23    0.60
  -5   6  -9   12.17    0.54
   6  -5  -9   12.85    0.68
   6   5   9   12.23    0.52
  -6   5 -11    9.61    0.52
  -5   6 -11    9.55    0.53
   5   6  11   10.21    0.48
  -5  -6  11   11.05    0.63
  -5   6 -11   10.67    0.50
   6  -5 -11   10.20    0.52
   5  -6 -11   10.55    0.62
   6   5  11   10.43    0.51
   6  -5 -11   11.10    0.65
   6   5  11   11.43    0.71
  -6  -5  11   10.80    0.62
   6  -5 -11   11.39    0.67
   5  -6 -11   10.08    0.63
   5   6  11   11.43    0.70
   6  -5 -13    5.77    0.52
  -5   6 -13    5.67    0.34
   6   5  13    5.10    0.26
   5   6  13    5.73    0.55
   5  -6 -13    5.63    0.47
   6   5  13    5.21    0.53
   6  -5 -13    5.46    0.47
   5  -6 -13    5.57    0.51
   5   6  13    6.00    0.39
  -6  -5  13    5.80    0.46
   5   6  13    5.10    0.29
   6   5  13    6.18    0.42
  -6   5 -15    0.27    0.22
   6  -5 -15    0.28    0.21
   6  -5 -15    0.44    0.21
   6   5  15    0.19    0.13
   5  -6 -15   -0.22    0.21
   5  -6 -15    0.07    0.22
  -5   6 -15    0.16    0.21
   6  -5 -17    7.88    0.59
  -5   6 -17    7.95    0.69
   6  -5 -17    8.85    0.72
   5  -6 -17    8.62    0.69
   6   5  17    8.67    0.58
  -6   5 -17    8.45    0.71
   5  -6 -17    7.45    0.55
   5  -6 -19    0.58    0.20
   6  -5 -19    1.08    0.35
   5  -6 -19    0.86    0.33
  -5   6 -19    0.49    0.29
   6  -5 -19    0.41    0.19
  -6   5 -19    0.33    0.27
  -5   6 -21    3.06    0.53
   6  -5 -21    1.68    0.30
   5  -6 -21    1.91    0.42
   6  -5 -21    2.13    0.44
  -6   5 -21    2.35    0.49
  -5   6 -23    2.79    0.52
  -6   5 -23    2.38    0.50
   5  -6 -23    2.60    0.51
   6  -5 -23    2.52    0.50
  -6  -6 -22    4.89    0.58
   6  -6  22    5.34    0.65
  -6  -6 -22    5.10    0.61
   6   6 -22    5.26    0.67
  -6  -6 -20    0.15    0.23
  -6  -6 -20   -0.27    0.26
   6   6 -20    0.00    0.27
   6  -6  20    0.13    0.27
   6  -6  18    1.00    0.32
  -6  -6 -18    1.30    0.35
   6   6 -18    1.37    0.39
  -6  -6 -18    1.24    0.29
  -6  -6 -16    6.61    0.55
   6  -6  16    7.46    0.64
  -6  -6 -16    8.30    0.66
   6   6 -16    8.49    0.70
   6   6 -14    0.23    0.21
  -6  -6 -14    0.32    0.22
  -6  -6 -14    0.08    0.18
  -6   6  14    0.21    0.05
   6   6 -14    0.23    0.24
   6  -6  14    0.17    0.20
   6  -6  12    0.72    0.22
  -6  -6 -12    0.99    0.22
   6   6 -12    1.09    0.25
  -6  -6 -12    1.03    0.27
   6   6 -12    0.88    0.23
   6   6 -12    1.11    0.31
   6  -6  10    5.18    0.46
   6   6 -10    5.83    0.47
  -6  -6 -10    5.97    0.40
  -6  -6 -10    5.37    0.44
   6  -6  10    5.26    0.40
   6   6 -10    6.58    0.46
   6   6  -8   56.80    1.69
   6  -6   8   62.72    1.61
  -6  -6  -8   58.36    1.58
   6   6  -8   60.42    1.71
   6   6  -8   57.38    1.79
   6  -6   8   57.68    1.78
  -6  -6  -8   55.32    1.67
  -6   6   8   61.76    1.65
  -6  -6  -6   10.86    0.53
   6   6  -6   11.13    0.55
   6   6  -6   11.03    0.44
   6  -6   6   10.94    0.59
   6   6  -6   10.36    0.51
  -6   6   6   10.15    0.49
   6   6  -4   36.65    1.05
   6   6  -4   36.36    1.13
   6   6  -4   38.15    1.03
  -6   6   4   36.48    1.10
  -6  -6  -4   36.78    1.13
   6  -6   4   35.74    1.17
  -6  -6  -4   36.77    1.20
  -6  -6  -4   37.02    1.11
  -6  -6  -4   36.61    1.18
   6  -6   4   36.55    1.19
  -6  -6  -2   79.26    2.17
   6  -6   2   80.46    2.16
  -6   6   2   81.46    2.01
   6   6  -2   81.54    2.00
   6   6  -2   81.17    2.08
  -6  -6  -2   85.07    2.07
   6  -6   2   84.50    1.99
  -6  -6  -2   84.35    2.07
  -6  -6  -2   80.72    2.09
   6   6  -2   82.87    2.06
  -6   6   0  108.58    2.44
   6   6   0  101.48    2.50
  -6  -6   0  101.60    2.65
  -6  -6   0  104.01    2.47
   6   6   0  101.18    2.48
   6  -6   0  105.42    2.43
   6   6   0  106.19    2.54
  -6  -6   0  105.20    2.34
  -6   6   0  103.52    2.43
  -6  -6   0  109.89    2.52
   6  -6   0  103.44    2.66
   6  -6   0   99.54    2.39
  -6  -6   2   83.05    2.08
  -6  -6   2   81.84    2.23
  -6   6  -2   83.39    2.02
  -6   6  -2   85.29    1.98
   6  -6  -2   80.44    2.24
   6   6   2   83.15    2.10
  -6   6  -2   84.49    1.90
   6  -6  -2   82.01    2.03
   6  -6  -2   84.73    2.03
  -6  -6   2   84.95    1.97
   6   6   2   80.90    2.09
  -6   6  -4   38.46    1.01
   6  -6  -4   34.44    1.22
   6  -6  -4   35.41    1.07
   6   6   4   36.65    1.13
  -6  -6   4   35.35    1.09
  -6  -6   4   35.74    1.04
   6  -6  -4   34.71    1.09
  -6   6  -4   35.49    1.04
   6   6   4   36.75    1.21
  -6   6  -4   36.08    0.97
  -6  -6   4   35.00    1.21
   6   6   4   35.42    1.10
   6  -6  -6   10.08    0.59
   6  -6  -6   10.59    0.52
   6   6   6   11.72    0.63
  -6   6  -6   10.71    0.38
  -6   6  -6   10.35    0.50
  -6  -6   6   10.17    0.58
  -6   6  -6   11.51    0.48
   6  -6  -6   10.56    0.56
  -6  -6   6   11.38    0.53
  -6  -6   8   57.41    1.76
   6  -6  -8   60.11    1.70
  -6   6  -8   58.54    1.50
   6  -6  -8   58.37    1.79
   6   6   8   59.88    1.80
   6   6   8   57.35    1.49
  -6  -6  10    4.75    0.43
   6   6  10    5.15    0.48
   6  -6 -10    5.38    0.44
  -6   6 -10    5.63    0.37
   6   6  10    4.97    0.32
   6  -6 -10    5.88    0.47
   6   6  12    0.85    0.31
   6  -6 -12    0.84    0.26
  -6  -6  12    0.79    0.23
   6   6  12    0.61    0.15
   6  -6 -12    1.21    0.28
   6   6  14   -0.10    0.25
   6   6  14    0.37    0.15
   6  -6 -14    0.40    0.23
   6  -6 -14   -0.13    0.25
  -6   6 -16    7.26    0.66
   6   6  16    7.25    0.50
   6  -6 -16    6.84    0.61
   6  -6 -16    6.85    0.55
   6  -6 -18    1.27    0.29
  -6   6 -18    1.18    0.35
   6  -6 -18    0.92    0.33
  -6   6 -20   -0.20    0.27
   6  -6 -20    0.45    0.23
   6  -6 -20   -0.20    0.25
  -6   6 -22    5.25    0.66
   6  -6 -22    6.26    0.72
   0   7   1   22.64    0.78
   7   0   1   22.40    0.79
   0  -7   1   21.70    0.69
   7   0  -1   22.83    0.79
   0   7  -1   23.05    0.69
   0   7   1   21.39    0.70
   0  -7  -1   22.04    0.77
   0  -7   1   22.14    0.76
   7   0  -1   22.14    0.62
   0  -7  -1   22.84    0.62
   0   7   3  112.28    2.47
   0   7   3  120.88    2.67
   0  -7   3  117.19    2.68
   0  -7  -3  106.17    2.38
   0   7  -3  114.72    2.65
   7   0   3  112.60    2.72
   0  -7  -3  116.00    2.73
  -7   0   3  116.19    2.56
   0   7   3  112.74    2.65
   0   7  -3  113.93    2.41
   0  -7  -3  107.52    2.71
   7   0  -3  116.64    2.73
   7   0  -3  111.96    2.56
  -7   0   5   46.07    1.27
   7   0   5   45.32    1.37
   0  -7   5   44.32    1.36
   0  -7  -5   48.20    1.34
   7   0  -5   46.05    1.38
   0   7  -5   46.48    1.36
   0   7   5   47.40    1.23
   0   7   5   44.41    1.18
   0   7   5   48.63    1.38
   0  -7  -5   44.38    1.37
   0  -7  -5   47.62    1.38
   0   7   5   45.80    1.34
  -7   0  -5   48.18    1.11
   0   7  -5   45.23    1.36
   0  -7  -5   46.81    1.18
   0   7  -5   44.37    1.29
   7   0   5   47.30    1.32
   0   7   7    7.54    0.39
   0  -7  -7    7.47    0.48
   0   7  -7    7.82    0.45
   0  -7  -7    7.63    0.46
   0  -7   7    7.49    0.48
   0  -7  -7    7.77    0.39
   0   7   7    7.82    0.44
   0   7   7    8.29    0.34
   7   0   7    7.81    0.46
   0   7  -7    7.66    0.47
   7   0  -7    7.34    0.47
   0   7   7    7.82    0.48
  -7   0   7    8.11    0.44
   7   0  -7    7.91    0.48
   7   0   7    7.73    0.45
   0  -7  -7    7.41    0.25
   0   7   9   18.66    0.75
   0   7   9   18.25    0.74
   7   0   9   20.05    0.81
   7   0   9   17.78    0.79
   0  -7  -9   19.98    0.57
   0   7  -9   19.61    0.84
  -7   0   9   19.23    0.74
   0  -7  -9   20.52    0.89
   0  -7  -9   18.87    0.73
   7   0  -9   18.45    0.53
   0   7  -9   19.70    0.84
   7   0  -9   19.34    0.86
   7   0  -9   20.05    0.86
   0  -7   9   19.38    0.86
   0  -7 -11    0.41    0.23
   0  -7 -11    0.65    0.19
  -7   0  11    0.75    0.17
   7   0  11    0.65    0.06
   7   0  11    0.97    0.21
   7   0 -11    0.82    0.12
   0   7 -11    0.52    0.22
   7   0 -11    0.73    0.24
   0   7 -11    0.65    0.22
   0  -7 -11    0.83    0.12
   7   0 -11    1.30    0.27
   0  -7 -13    2.08    0.32
   7   0  13    1.95    0.28
   0   7 -13    2.08    0.35
  -7   0  13    2.01    0.24
   7   0 -13    2.19    0.21
   7   0 -13    2.73    0.37
   0  -7 -13    2.28    0.21
   0  -7 -15    3.36    0.42
   7   0  15    3.70    0.41
   0   7 -15    4.06    0.48
   0  -7 -15    2.67    0.26
  -7   0  15    3.44    0.29
  -7   0 -15    3.57    0.45
   7   0 -15    2.96    0.42
   7   0 -15    2.95    0.28
   0   7 -17    0.08    0.26
  -7   0 -17    0.34    0.28
   0  -7 -17   -0.18    0.25
   7   0 -17    0.33    0.29
   7   0  17    0.25    0.20
   7   0 -19    3.04    0.48
  -7   0 -19    2.67    0.43
   7   0  19    3.80    0.46
   0   7 -19    2.58    0.46
   0  -7 -19    3.63    0.47
   0  -7 -21    0.74    0.33
   7   0  21    1.22    0.33
   7   0 -21    0.91    0.38
  -7   0 -21    0.58    0.30
   0   7 -21    0.74    0.30
  -7   0 -23    0.70    0.37
   0   7 -23    0.19    0.29
   0  -7 -23   -0.02    0.27
   7   0 -23   -0.24    0.28
  -1  -7 -24    0.22    0.28
   1   7 -24    0.08    0.28
   7   1 -24    0.22    0.30
  -7  -1 -24   -0.37    0.36
  -1  -7 -22    0.53    0.30
  -7  -1 -22    0.87    0.31
   7   1 -22    0.62    0.35
   1   7 -22    0.95    0.34
   7  -1  22    0.85    0.32
   7  -1  20    0.34    0.22
  -1  -7 -20    0.40    0.23
   1   7 -20    0.42    0.29
   7   1 -20    0.93    0.33
  -7  -1 -20    0.21    0.25
  -1  -7 -18    1.07    0.29
  -7  -1 -18    0.57    0.28
   7  -1  18    0.51    0.23
   1   7 -18    1.39    0.36
   7   1 -18    0.54    0.26
  -1  -7 -16    4.38    0.47
   7  -1  16    4.31    0.47
   1   7 -16    5.29    0.56
  -7  -1 -16    4.88    0.52
  -7   1  16    4.63    0.33
   7   1 -16    4.76    0.56
   7  -1  14    2.38    0.33
   7   1 -14    2.03    0.34
  -7   1  14    2.53    0.24
   1   7 -14    2.15    0.37
  -7  -1 -14    2.87    0.38
  -1  -7 -14    2.31    0.34
  -1  -7 -14    2.25    0.22
   7   1 -12    1.68    0.29
   1   7 -12    1.65    0.31
  -1  -7 -12    1.42    0.31
   1   7 -12    1.33    0.30
  -1  -7 -12    1.39    0.16
   7   1 -12    1.39    0.16
   7  -1  12    0.97    0.23
  -1  -7 -12    1.52    0.25
   7   1 -12    1.72    0.33
   1  -7  12    1.59    0.31
  -7   1  12    1.42    0.20
   1   7 -10    5.78    0.46
   1  -7  10    5.96    0.49
   7   1 -10    6.38    0.50
  -1  -7 -10    5.55    0.26
  -7   1  10    5.87    0.36
  -1  -7 -10    5.70    0.47
   7  -1  10    6.02    0.44
   7   1 -10    5.87    0.47
  -1  -7 -10    6.45    0.42
   7  -1  10    5.51    0.25
   7   1 -10    5.83    0.25
   1   7 -10    5.67    0.46
   1   7  -8   36.10    1.18
   1  -7   8   34.84    1.23
   7   1  -8   34.48    1.20
   7  -1   8   35.58    0.96
  -1  -7  -8   37.35    1.24
  -1   7   8   36.50    0.91
   7   1  -8   36.09    1.21
   7  -1   8   32.73    1.14
  -1  -7  -8   33.82    0.83
  -1   7   8   35.45    1.14
  -7   1   8   33.94    1.13
  -1   7   8   37.22    1.21
  -1  -7  -8   34.99    1.05
   7  -1   8   35.20    1.14
  -1   7   8   33.32    1.08
  -1  -7  -6   41.16    1.31
  -7  -1  -6   42.14    1.09
  -1   7   6   44.51    1.30
   1   7  -6   40.88    1.30
   7  -1   6   40.68    1.29
   1  -7   6   41.25    1.31
   7   1  -6   43.08    1.32
   7  -1   6   43.40    1.22
   7   1  -6   43.83    1.26
  -1  -7  -6   43.50    1.11
   1   7  -6   42.09    1.24
  -1  -7  -6   42.75    1.29
  -1   7   6   42.93    1.12
  -7   1   6   40.87    1.20
  -1   7   6   40.68    1.28
  -1   7   6   41.20    1.17
   7   1  -6   41.06    1.29
  -1  -7  -4   51.87    1.48
   1   7  -4   51.17    1.35
   1   7  -4   51.43    1.44
   1   7  -4   50.94    1.25
  -1   7   4   51.68    1.31
  -1   7   4   50.91    1.40
  -7   1   4   54.27    1.34
  -1   7   4   54.68    1.38
  -7  -1  -4   54.35    1.22
   7   1  -4   50.60    1.48
  -1  -7  -4   51.89    1.48
   7  -1   4   51.23    1.47
   1  -7   4   54.64    1.47
   7  -1   4   52.57    1.37
   7   1  -4   51.71    1.38
  -7   1   4   50.52    1.17
  -1  -7  -2   64.35    1.75
  -1  -7  -2   67.62    1.53
   7   1  -2   67.10    1.62
   1  -7   2   67.41    1.69
  -1   7   2   66.54    1.57
  -7   1   2   70.80    1.55
   7  -1   2   69.03    1.76
   1   7  -2   66.85    1.48
  -1  -7  -2   63.11    1.74
   7   1  -2   66.76    1.77
   1   7  -2   67.00    1.57
  -1   7   2   66.33    1.65
   1   7  -2   66.71    1.67
  -1  -7   0  109.18    2.64
   1   7   0  109.98    2.47
   7   1   0  112.64    2.42
   7   1   0  110.78    2.66
   1  -7   0  110.85    2.51
   1  -7   0  113.53    2.63
   7  -1   0  109.18    2.37
  -1  -7   0  110.48    2.36
   7  -1   0  111.56    2.65
   7   1   2   65.53    1.49
   1   7   2   72.53    1.75
   7   1   2   65.76    1.76
   1  -7  -2   66.63    1.74
   1  -7  -2   69.20    1.53
  -1   7  -2   70.36    1.69
   7  -1  -2   69.66    1.76
   1   7   2   65.18    1.69
   1   7   2   64.76    1.45
   1   7   2   64.76    1.45
   7  -1  -4   50.45    1.47
  -1   7  -4   54.05    1.44
   1   7   4   56.18    1.40
   1   7   4   51.61    1.44
   1  -7  -4   52.66    1.39
   7   1   4   52.57    1.43
  -1   7  -4   51.66    1.44
  -1   7  -4   52.70    1.44
   1  -7  -4   50.95    1.46
  -7  -1   4   52.01    1.37
  -7  -1   4   51.99    1.46
   1  -7  -4   51.98    1.47
   1   7   4   50.11    1.23
   7   1   4   49.53    1.47
   1  -7  -6   42.55    1.27
   7   1   6   42.66    1.28
  -1   7  -6   41.30    1.27
  -1   7  -6   41.50    1.30
   1  -7  -6   42.05    1.33
   1   7   6   42.42    1.27
   1   7   6   41.81    1.31
   1   7   6   42.13    1.14
   1   7   6   43.70    1.14
   1  -7  -6   43.16    1.17
   7  -1  -6   41.22    1.30
  -7  -1   6   43.72    1.25
   1  -7  -8   33.53    1.19
   1   7   8   34.10    1.08
   1   7   8   33.74    1.04
   7   1   8   33.46    1.15
   1   7   8   35.22    1.20
  -7  -1   8   33.56    1.09
   7   1   8   33.56    1.10
  -7   1  -8   32.37    1.07
   7  -1  -8   33.39    1.19
   7  -1  -8   34.45    1.19
  -1   7  -8   34.33    1.15
   7  -1  -8   34.30    0.85
  -1   7  -8   34.50    1.16
  -7  -1   8   34.31    1.13
   1  -7  -8   33.56    1.06
   1  -7 -10    5.75    0.30
   1   7  10    5.88    0.37
   7  -1 -10    5.20    0.45
  -1   7 -10    6.11    0.46
   7   1  10    5.44    0.45
   1  -7 -10    5.29    0.47
  -1   7 -10    5.94    0.46
   1   7  10    5.38    0.38
   7  -1 -10    6.62    0.50
   1  -7 -10    5.53    0.40
   7   1  10    5.98    0.42
  -7  -1  10    5.06    0.37
   7  -1 -10    5.68    0.27
  -7  -1  12    1.63    0.23
   7  -1 -12    1.80    0.18
  -1   7 -12    2.13    0.34
   1  -7 -12    1.74    0.20
  -1   7 -12    1.46    0.29
   7  -1 -12    1.71    0.32
   7   1  12    1.68    0.26
   1  -7 -12    1.47    0.25
   7  -1 -14    3.21    0.42
   7  -1 -14    2.22    0.23
   1  -7 -14    2.85    0.38
  -7   1 -14    2.54    0.38
  -7  -1  14    2.55    0.28
   7   1  14    2.06    0.31
   1  -7 -14    2.04    0.23
  -1   7 -14    2.81    0.40
  -1   7 -16    4.44    0.52
   7  -1 -16    5.45    0.57
   7   1  16    4.96    0.48
  -7  -1  16    4.28    0.35
  -7   1 -16    4.48    0.50
   1  -7 -16    4.52    0.48
   1  -7 -18    0.78    0.27
  -1   7 -18    0.63    0.32
  -7   1 -18    0.47    0.25
   7   1  18    0.64    0.23
   7  -1 -18    1.23    0.37
  -7   1 -20    0.85    0.33
   7   1  20    0.34    0.23
   7  -1 -20    1.25    0.34
  -1   7 -20    0.82    0.33
   1  -7 -20    0.71    0.29
  -7   1 -22    1.03    0.34
   7  -1 -22    0.53    0.30
  -1   7 -22    0.53    0.29
   1  -7 -22    0.40    0.31
  -7   1 -24    0.25    0.30
  -1   7 -24    0.74    0.34
   7  -1 -24    0.32    0.33
   1  -7 -24   -0.02    0.30
   2   7 -23    0.08    0.30
  -2  -7 -23    0.55    0.32
  -7  -2 -23    0.63    0.31
   7   2 -23    0.23    0.33
   2   7 -21    1.11    0.36
  -7  -2 -21    1.31    0.34
  -2  -7 -21    0.76    0.29
   7   2 -21    0.82    0.33
   7  -2  21    0.95    0.28
   7  -2  19    0.96    0.29
   2   7 -19    0.62    0.28
  -7  -2 -19    1.07    0.32
  -2  -7 -19    1.51    0.36
   7   2 -19    1.97    0.43
  -7  -2 -17    5.57    0.55
   7   2 -17    6.91    0.66
   7  -2  17    6.26    0.59
  -2  -7 -17    5.67    0.54
   2   7 -17    6.57    0.63
   2   7 -15    0.21    0.24
  -7  -2 -15   -0.20    0.21
   7  -2  15    0.32    0.21
   2  -7  15    0.10    0.21
  -2  -7 -15    0.23    0.23
  -2  -7 -15    0.18    0.09
   7   2 -15    0.14    0.24
  -7   2  15    0.08    0.10
   7   2 -13    4.54    0.48
   7  -2  13    4.38    0.43
  -2  -7 -13    4.42    0.42
   2   7 -13    4.11    0.48
   7   2 -13    4.16    0.44
  -7  -2 -13    3.88    0.42
  -7   2  13    4.05    0.28
  -2  -7 -13    3.72    0.26
  -2  -7 -13    3.95    0.45
   2   7 -13    3.62    0.42
   2  -7  13    3.86    0.45
   7   2 -11    1.35    0.27
   2   7 -11    1.76    0.30
   7  -2  11    2.13    0.31
   2   7 -11    1.72    0.32
  -2  -7 -11    1.58    0.26
  -7   2  11    1.90    0.21
  -2  -7 -11    1.40    0.14
   2  -7  11    1.59    0.30
  -2  -7 -11    1.41    0.31
   7   2 -11    1.40    0.28
  -2  -7  -9    4.60    0.42
  -2  -7  -9    3.98    0.24
  -2   7   9    4.32    0.20
   7  -2   9    4.76    0.26
   7   2  -9    4.44    0.39
   2   7  -9    4.40    0.38
   7  -2   9    4.47    0.37
   2  -7   9    4.34    0.40
  -2  -7  -9    4.47    0.32
   7   2  -9    4.82    0.41
  -2   7   9    4.25    0.34
   2   7  -7   37.34    1.16
   7  -2   7   36.76    1.11
  -2   7   7   36.95    1.19
  -7   2   7   37.49    1.14
  -2   7   7   37.35    0.97
   7   2  -7   35.58    1.19
   7  -2   7   33.00    1.00
  -2   7   7   35.87    1.10
  -2  -7  -7   36.17    1.02
   2  -7   7   35.34    1.22
  -7  -2  -7   37.37    1.04
  -2   7   7   34.55    1.16
  -2  -7  -7   37.40    1.02
   7   2  -7   36.95    1.21
   7   2  -7   35.95    1.17
  -2  -7  -7   33.48    1.18
   7  -2   7   34.49    1.18
   2  -7   5   55.80    1.60
   7   2  -5   58.04    1.62
  -2   7   5   54.87    1.47
  -2   7   5   56.53    1.62
  -2  -7  -5   56.06    1.49
   7  -2   5   55.21    1.57
  -2  -7  -5   57.03    1.47
  -2  -7  -5   54.92    1.59
   7  -2   5   57.02    1.47
   2   7  -5   58.40    1.61
   7   2  -5   56.95    1.54
  -7   2   5   57.64    1.48
   2   7  -5   56.65    1.50
   2   7  -5   55.09    1.42
  -7   2   5   57.92    1.33
  -2  -7  -5   58.72    1.35
  -7  -2  -5   57.06    1.39
  -2  -7  -3   85.03    1.97
  -7  -2  -3   85.64    1.93
  -2  -7  -3   82.13    2.15
   7  -2   3   86.18    2.14
   7   2  -3   89.44    2.19
   2   7  -3   85.14    1.98
  -2  -7  -3   87.50    2.18
   2  -7   3   86.91    2.13
  -2  -7  -3   85.32    2.13
  -7   2   3   85.81    1.96
   7  -2   3   88.11    2.01
  -2   7   3   86.32    2.05
   2   7  -3   85.47    1.94
   7   2  -3   85.85    2.07
  -2   7   3   85.97    2.02
   7  -2   3   82.47    1.83
   2   7  -3   86.01    2.12
  -2  -7  -1  101.19    2.36
  -2   7   1   94.97    2.17
   2   7  -1   94.48    2.23
   2   7  -1   94.76    2.33
   2  -7   1   97.37    2.26
   2   7  -1   94.97    2.11
   2  -7   1   94.47    2.29
  -2   7   1  101.34    2.35
   7   2  -1   95.96    2.36
   7  -2   1   97.41    2.34
  -2  -7  -1   96.61    2.12
  -2  -7  -1   99.13    2.35
   2   7  -1   91.37    2.06
  -2  -7  -1   93.51    2.36
   7   2   1   92.60    2.15
  -2   7  -1  103.74    2.36
   2  -7  -1   94.69    2.05
   2  -7  -1   99.13    2.21
   7   2   1   91.32    2.36
   2   7   1  101.76    2.41
   2  -7  -1   94.29    2.33
   7  -2  -1   94.12    2.34
   2   7   1   96.19    2.13
  -2  -7   1  100.34    2.12
  -2  -7   1   92.24    2.41
   7  -2  -3   89.20    2.23
   7   2   3   84.74    2.02
   2  -7  -3   89.57    2.23
  -2   7  -3   86.62    1.94
   2   7   3   86.49    2.21
   2  -7  -3   90.56    2.11
  -7  -2   3   94.82    2.22
  -2   7  -3   89.48    2.21
  -2   7  -3   97.31    2.22
   2   7   3   97.39    2.23
   7   2   3   87.18    2.25
   7   2   5   56.17    1.59
  -2   7  -5   58.16    1.61
  -7  -2   5   57.59    1.59
   2  -7  -5   57.78    1.53
   2  -7  -5   59.72    1.64
  -2   7  -5   55.70    1.55
   7  -2  -5   57.17    1.60
   7   2   5   54.67    1.60
  -7  -2   5   58.85    1.55
   2   7   5   56.80    1.61
   2  -7  -5   54.76    1.57
  -7  -2   7   34.24    1.14
  -7   2  -7   35.41    1.06
   2   7   7   33.74    1.00
   7   2   7   34.80    1.16
  -7  -2   7   34.23    1.14
   2  -7  -7   37.08    1.22
   2   7   7   34.32    1.19
   2  -7  -7   34.67    1.07
   7   2   7   34.84    1.09
   7  -2  -7   33.98    1.16
   2  -7  -7   37.17    1.16
  -2   7  -7   36.68    1.15
  -2   7  -9    4.80    0.39
   2  -7  -9    4.46    0.41
   2  -7  -9    4.06    0.34
   2   7   9    4.10    0.31
   7  -2  -9    4.54    0.24
   2   7   9    4.42    0.32
   2   7   9    3.75    0.40
   7  -2  -9    4.67    0.40
   7   2   9    4.29    0.33
   7  -2  -9    4.42    0.40
  -7   2  -9    3.79    0.32
  -2   7  -9    4.81    0.41
   7   2   9    4.97    0.41
  -7  -2   9    4.07    0.34
   7   2  11    1.97    0.26
  -2   7 -11    2.05    0.33
   7   2  11    1.79    0.30
   7  -2 -11    2.56    0.34
  -7  -2  11    1.42    0.23
  -2   7 -11    1.88    0.29
   7  -2 -11    1.65    0.29
   2  -7 -11    1.51    0.27
   2   7  11    1.81    0.21
   7  -2 -11    1.90    0.18
   7  -2 -13    3.68    0.44
  -7  -2  13    3.48    0.33
   7   2  13    4.23    0.39
   2  -7 -13    4.15    0.32
  -2   7 -13    3.54    0.43
   2  -7 -13    4.06    0.41
   7  -2 -13    3.73    0.29
   2  -7 -15    0.47    0.23
   7  -2 -15    0.36    0.14
  -7  -2  15    0.18    0.17
   7  -2 -15   -0.06    0.20
   7   2  15    0.14    0.15
  -7   2 -15    0.33    0.28
  -2   7 -15    0.71    0.28
  -2   7 -17    5.99    0.62
   7  -2 -17    6.74    0.65
   7   2  17    7.38    0.58
  -7   2 -17    7.02    0.64
   2  -7 -17    5.89    0.57
   7  -2 -19    1.16    0.34
  -2   7 -19    1.31    0.35
   7   2  19    1.74    0.34
   2  -7 -19    0.89    0.31
  -7   2 -19    1.22    0.34
  -7   2 -21    0.90    0.36
  -2   7 -21    0.78    0.33
   2  -7 -21    1.01    0.35
   7   2  21    1.04    0.28
   7  -2 -21    0.76    0.31
  -2   7 -23    0.83    0.38
  -7   2 -23    0.19    0.26
   7  -2 -23    0.05    0.29
   2  -7 -23    0.13    0.25
  -7  -3 -24    0.35    0.29
   7   3 -24    0.44    0.35
  -3  -7 -24   -0.41    0.32
   3   7 -24    0.20    0.28
   7   3 -22    0.86    0.35
   3   7 -22    1.45    0.41
  -7  -3 -22    2.06    0.42
  -3  -7 -22    1.30    0.34
   7  -3  22    0.97    0.31
  -3  -7 -20   -0.47    0.26
   3   7 -20    0.63    0.36
   7  -3  20    0.22    0.25
  -7  -3 -20    0.04    0.24
   7   3 -20    0.02    0.31
  -3  -7 -18    1.87    0.35
   7  -3  18    1.73    0.34
   3   7 -18    2.08    0.43
  -7  -3 -18    1.70    0.37
   7   3 -18    2.53    0.46
  -3  -7 -16    0.31    0.27
   3   7 -16    0.81    0.30
   3  -7  16    0.42    0.23
   7  -3  16    0.55    0.23
  -7  -3 -16    0.83    0.27
  -3  -7 -16    0.48    0.24
  -7   3  16    0.69    0.12
   7   3 -16    0.45    0.24
   3  -7  14    0.72    0.28
  -7   3  14   -0.01    0.10
   7   3 -14    0.04    0.20
  -3  -7 -14    0.14    0.25
  -7  -3 -14    0.20    0.22
  -3  -7 -14   -0.03    0.19
   3   7 -14    0.45    0.25
   3   7 -14    0.01    0.25
  -3  -7 -14    0.20    0.11
  -3  -7 -14    0.13    0.05
   7  -3  14    0.56    0.25
   7   3 -14    0.12    0.22
   7   3 -12    4.45    0.45
   3  -7  12    3.74    0.42
   7  -3  12    4.43    0.43
   7   3 -12    3.26    0.39
   3   7 -12    3.67    0.42
  -7   3  12    3.75    0.27
  -3  -7 -12    3.70    0.42
  -3  -7 -12    3.64    0.22
  -7  -3 -12    3.82    0.39
  -3  -7 -12    3.92    0.36
   3   7 -12    4.15    0.45
  -3   7  10    1.13    0.10
  -7  -3 -10    1.33    0.22
  -3  -7 -10    1.16    0.15
   3   7 -10    1.02    0.23
   7   3 -10    1.47    0.29
  -3  -7 -10    1.00    0.26
   7  -3  10    1.41    0.22
  -3  -7 -10    1.35    0.20
   7  -3  10    1.09    0.22
   3  -7  10    1.56    0.29
   7   3 -10    1.24    0.26
  -3  -7  -8   18.77    0.81
   7   3  -8   17.25    0.78
   7  -3   8   17.57    0.79
  -3   7   8   17.64    0.73
   7  -3   8   17.62    0.62
  -3  -7  -8   17.76    0.64
  -7  -3  -8   17.36    0.68
   3   7  -8   17.38    0.75
   7   3  -8   18.78    0.81
  -3   7   8   19.24    0.78
   7  -3   8   17.77    0.67
   7   3  -8   18.85    0.80
   3  -7   8   19.00    0.83
  -3  -7  -8   19.31    0.67
  -3  -7  -6    1.49    0.19
  -3   7   6    1.77    0.23
   7  -3   6    1.52    0.18
   7   3  -6    1.83    0.24
  -3  -7  -6    1.21    0.20
   7  -3   6    1.49    0.15
   7  -3   6    1.63    0.24
  -3  -7  -6    1.44    0.15
   3  -7   6    1.87    0.25
   3   7  -6    1.81    0.24
   7  -3   6    1.45    0.18
   3   7  -6    1.66    0.20
   7   3  -6    1.28    0.21
   7   3  -6    1.08    0.21
  -7  -3  -6    1.47    0.17
   3   7  -6    1.39    0.17
  -3   7   6    1.50    0.19
  -3  -7  -6    1.50    0.24
  -7   3   6    1.67    0.15
   7   3  -4   34.06    1.08
  -7  -3  -4   33.35    0.91
  -3  -7  -4   32.83    0.79
   3   7  -4   32.53    0.93
  -3  -7  -4   31.83    1.05
   3   7  -4   32.58    0.92
  -3  -7  -4   34.89    0.96
  -3  -7  -4   31.68    1.02
   7  -3   4   33.85    0.91
   7   3  -4   32.18    1.02
   3   7  -4   31.61    1.04
   7  -3   4   33.05    1.03
   7  -3   4   33.32    0.79
  -7   3   4   32.75    0.88
  -3   7   4   31.59    0.97
   3  -7   4   32.15    1.05
   7  -3   4   31.61    1.02
  -7   3   4   32.25    1.04
  -3   7   4   34.72    1.06
  -3  -7  -4   33.51    1.08
   7   3  -2   29.15    0.89
   7  -3   2   29.43    0.92
  -3  -7  -2   29.38    0.80
  -7   3   2   28.63    0.91
  -3  -7  -2   25.39    0.90
   3   7  -2   27.97    0.78
  -3  -7  -2   27.72    0.92
   3  -7   2   28.44    0.90
   3   7  -2   28.30    0.87
  -3   7   2   29.73    0.93
   7   3  -2   27.60    0.94
   3   7  -2   27.69    0.72
  -7   3   2   28.93    0.73
   3   7  -2   27.80    0.90
  -3  -7  -2   25.82    0.92
  -3  -7   0   16.69    0.67
   7   3   0   18.55    0.59
   3  -7   0   17.85    0.64
  -3  -7   0   19.24    0.57
   7  -3   0   17.91    0.48
  -3  -7   0   17.99    0.67
   7   3   0   17.38    0.69
   3  -7   0   18.50    0.63
  -3  -7   0   18.71    0.74
   3  -7   0   18.52    0.48
  -3   7   0   19.20    0.67
   7  -3   0   18.34    0.67
  -3   7   0   17.94    0.51
   3   7   0   18.57    0.57
   3   7   0   19.97    0.70
  -7   3   0   18.06    0.67
  -7  -3   0   18.48    0.59
   7   3   2   28.25    0.95
  -7   3  -2   29.08    0.93
   3  -7  -2   27.73    0.92
  -3   7  -2   31.18    0.92
  -7  -3   2   30.85    0.91
  -3  -7   2   28.26    1.00
   3  -7  -2   28.89    0.75
  -3   7  -2   27.61    0.71
  -3  -7   2   30.22    0.80
   7  -3  -2   28.12    0.92
   3  -7  -2   29.40    0.79
  -7  -3   2   28.78    0.74
   7   3   2   29.53    0.81
   3   7   2   31.14    0.98
  -3   7  -4   36.86    1.03
  -7   3  -4   31.67    0.78
  -3  -7   4   33.76    1.14
  -3   7  -4   36.23    1.09
  -3   7  -4   35.22    1.11
   7   3   4   32.64    1.08
  -3   7  -4   32.21    0.86
   3   7   4   31.67    1.08
   3  -7  -4   32.99    1.07
  -7  -3   4   34.56    1.05
   7  -3  -4   33.18    1.05
   3  -7  -4   34.35    0.97
   3  -7  -4   33.96    1.13
  -7   3  -4   32.36    1.04
   7   3   4   33.83    1.09
  -3   7  -4   34.04    1.01
   3  -7  -6    1.95    0.26
  -3  -7   6    1.75    0.20
   3   7   6    1.47    0.25
  -3   7  -6    1.46    0.20
  -7  -3   6    2.18    0.25
  -7   3  -6    1.58    0.21
  -3   7  -6    1.33    0.19
  -3   7  -6    1.58    0.16
   7   3   6    1.43    0.23
   3  -7  -6    1.38    0.19
  -7  -3   6    1.82    0.25
   3  -7  -6    1.55    0.23
   3  -7  -6    1.49    0.20
  -7  -3   6    1.48    0.20
   7  -3  -6    1.69    0.24
  -7  -3   8   18.58    0.78
   3  -7  -8   18.94    0.84
   7   3   8   19.15    0.72
   3  -7  -8   19.36    0.80
   7   3   8   17.56    0.81
  -7   3  -8   18.28    0.69
   3   7   8   17.53    0.83
   3  -7  -8   18.83    0.80
   3  -7  -8   19.38    0.76
  -3  -7   8   18.78    0.77
  -3   7  -8   19.11    0.77
   7  -3  -8   19.80    0.83
   3  -7 -10    1.63    0.25
   7   3  10    1.14    0.19
   3   7  10    1.41    0.29
   7  -3 -10    1.07    0.15
   3   7  10    1.37    0.19
   7  -3 -10    0.78    0.22
  -7   3 -10    1.07    0.20
   3  -7 -10    1.04    0.22
   7   3  10    1.68    0.29
   7  -3 -10    1.25    0.25
  -3   7 -10    1.32    0.24
  -7  -3  10    0.95    0.22
   7  -3 -12    3.56    0.42
  -3   7 -12    3.33    0.40
   3  -7 -12    3.58    0.34
   3   7  12    3.37    0.43
   7  -3 -12    3.99    0.29
   3   7  12    2.88    0.26
   7   3  12    3.86    0.44
   3  -7 -12    3.53    0.37
  -7  -3  12    3.36    0.33
   7   3  12    3.25    0.33
  -3   7 -14    0.03    0.21
   3  -7 -14    0.33    0.20
   7  -3 -14    0.16    0.13
  -7  -3  14    0.17    0.19
  -3   7 -14    0.30    0.14
   7  -3 -14    0.00    0.25
   7   3  14    0.34    0.17
   3  -7 -14    0.39    0.24
   7   3  16    0.72    0.23
   3  -7 -16    0.45    0.17
   7  -3 -16    0.61    0.28
  -3   7 -16    0.64    0.28
   3  -7 -16    0.42    0.23
  -7   3 -16    0.69    0.30
  -3   7 -18    1.81    0.38
   7   3  18    1.98    0.32
   3  -7 -18    2.45    0.41
  -7   3 -18    3.08    0.48
   7  -3 -18    2.00    0.41
  -3   7 -20    0.28    0.28
  -7   3 -20    0.12    0.26
   7   3  20    0.15    0.15
   3  -7 -20   -0.15    0.26
   7  -3 -20    0.05    0.28
  -7   3 -22    1.65    0.43
   7  -3 -22    1.77    0.47
   3  -7 -22    1.19    0.32
  -3   7 -22    1.68    0.44
   3  -7 -24   -0.54    0.34
  -7   3 -24    0.35    0.36
   7  -3 -24   -0.14    0.30
   7  -4  23    0.90    0.28
  -4  -7 -23    0.69    0.31
   7   4 -23    0.55    0.39
   4   7 -23    0.76    0.39
  -7  -4 -23    0.22    0.28
  -4  -7 -23    0.62    0.37
  -4  -7 -21    1.32    0.35
   7  -4  21    0.52    0.28
  -7  -4 -21    0.75    0.30
   4   7 -21    1.07    0.36
  -4  -7 -21    0.91    0.34
   7   4 -21    1.55    0.39
  -7  -4 -19    0.69    0.27
   4  -7  19    0.54    0.28
  -4  -7 -19    0.24    0.26
   4   7 -19    0.53    0.31
   7   4 -19    1.05    0.36
  -4  -7 -19    0.83    0.32
   7  -4  19    0.64    0.30
  -4  -7 -17    3.10    0.41
   4  -7  17    4.02    0.51
  -4  -7 -17    4.46    0.51
   7  -4  17    3.09    0.44
   4   7 -17    4.19    0.52
  -7  -4 -17    3.60    0.45
   7   4 -17    4.53    0.55
   4   7 -15    1.01    0.31
  -4  -7 -15    0.76    0.30
  -4  -7 -15    0.72    0.11
  -7  -4 -15    0.49    0.22
   4  -7  15    0.97    0.32
  -4  -7 -15    0.59    0.23
   7   4 -15    0.54    0.26
  -7   4  15    0.69    0.11
   7   4 -15    0.55    0.27
   7  -4  15    0.52    0.24
   7   4 -13    1.97    0.32
   4  -7  13    2.35    0.38
   7  -4  13    1.96    0.32
  -7   4  13    2.23    0.20
  -4  -7 -13    2.30    0.31
   4   7 -13    2.47    0.37
  -4  -7 -13    2.21    0.20
  -4  -7 -13    1.86    0.34
  -7  -4 -13    1.59    0.29
   4   7 -13    2.07    0.39
   7   4 -13    1.60    0.34
  -7  -4 -13    1.88    0.30
  -4  -7 -11    2.54    0.30
  -4  -7 -11    2.81    0.36
   4   7 -11    2.41    0.32
   4  -7  11    2.62    0.34
   7  -4  11    2.24    0.27
   7   4 -11    2.78    0.36
   4   7 -11    2.70    0.38
   7   4 -11    2.96    0.39
  -4  -7 -11    2.74    0.23
   7  -4  11    2.85    0.35
  -7  -4 -11    2.63    0.30
  -7  -4 -11    2.64    0.31
   7   4 -11    2.68    0.35
  -4  -7  -9    8.06    0.43
  -7  -4  -9    8.30    0.47
  -4   7   9    8.03    0.50
  -4  -7  -9    7.34    0.51
   4   7  -9    7.75    0.50
   4   7  -9    8.29    0.48
   7  -4   9    7.84    0.43
   7   4  -9    7.39    0.51
   4  -7   9    7.07    0.52
  -4  -7  -9    7.23    0.39
   7  -4   9    7.87    0.53
   7   4  -9    7.98    0.53
   7   4  -9    7.63    0.50
  -4  -7  -7   12.73    0.48
   4   7  -7   11.75    0.53
   7   4  -7   10.05    0.55
  -4  -7  -7   11.26    0.58
   7  -4   7   10.95    0.46
  -4   7   7   10.95    0.55
  -4  -7  -7   11.23    0.54
  -7  -4  -7   11.28    0.51
   7   4  -7   11.17    0.35
  -4  -7  -7   11.23    0.52
  -4   7   7   11.65    0.57
   7  -4   7    9.91    0.58
   7  -4   7   11.50    0.50
  -7   4   7   11.01    0.46
   4   7  -7   10.95    0.54
   7   4  -7   11.25    0.59
   4  -7   7   11.42    0.61
   7   4  -7   11.54    0.60
  -4  -7  -5   16.67    0.50
   7  -4   5   15.60    0.48
  -7  -4  -5   16.43    0.59
   7   4  -5   15.53    0.68
  -4  -7  -5   15.04    0.67
   7  -4   5   15.91    0.54
  -4   7   5   16.67    0.65
   7  -4   5   16.07    0.64
   7   4  -5   15.53    0.68
   7  -4   5   15.21    0.64
   4   7  -5   15.60    0.59
  -4   7   5   15.96    0.67
  -7   4   5   16.14    0.56
  -4  -7  -5   15.70    0.62
   7   4  -5   15.43    0.45
   7   4  -5   15.37    0.63
   7  -4   5   15.61    0.70
   4   7  -5   15.74    0.60
  -4  -7  -5   14.58    0.63
   4  -7   5   16.67    0.70
  -7  -4  -3   75.38    1.89
  -4  -7  -3   80.22    2.06
   7  -4   3   77.59    2.04
  -4  -7  -3   76.80    2.02
   7  -4   3   76.74    1.98
  -4  -7  -3   80.44    1.92
   4   7  -3   79.72    1.97
  -7   4   3   77.94    2.00
   7   4  -3   79.58    2.05
  -4   7   3   81.98    2.05
  -4  -7  -3   78.77    2.05
   7   4  -3   76.83    2.02
   4  -7   3   77.13    2.02
  -7  -4  -3   74.58    1.99
   4   7  -3   77.19    1.83
   4   7  -3   77.58    1.90
  -7  -4  -3   80.70    2.05
   7  -4   3   83.98    1.80
   7  -4   1    2.24    0.13
   7   4  -1    2.51    0.21
   4  -7   1    2.00    0.19
  -4  -7  -1    2.16    0.23
   4   7  -1    2.24    0.18
  -7  -4  -1    2.51    0.21
   4  -7   1    2.67    0.24
   7  -4   1    2.52    0.28
   7   4  -1    2.51    0.26
   4   7  -1    2.57    0.23
   7  -4   1    2.68    0.24
  -4   7   1    2.61    0.23
  -4  -7  -1    2.50    0.23
  -4  -7  -1    2.47    0.19
  -7  -4  -1    2.30    0.23
  -4  -7  -1    2.57    0.27
   4  -7   1    2.50    0.15
  -7   4   1    2.42    0.22
  -4  -7   1    2.36    0.27
   4  -7  -1    2.62    0.23
   4   7   1    2.61    0.26
  -7  -4   1    2.45    0.23
   4  -7  -1    2.88    0.17
   7   4   1    2.49    0.20
  -4   7  -1    2.67    0.16
  -7   4  -1    2.45    0.22
   4   7   1    2.49    0.20
  -7  -4   1    2.83    0.22
   4  -7  -1    2.44    0.28
   7   4   1    2.84    0.27
  -4   7  -1    2.33    0.21
  -7  -4   1    2.93    0.19
   7  -4  -1    2.59    0.23
  -4  -7   1    2.45    0.14
  -4  -7   1    2.73    0.20
   7  -4  -1    2.67    0.17
   7   4   3   78.42    1.96
  -7   4  -3   83.74    1.80
  -4  -7   3   78.86    2.17
   4  -7  -3   79.56    2.06
   4   7   3   79.14    2.12
  -7   4  -3   78.44    2.04
   4  -7  -3   80.68    1.91
  -7  -4   3   81.64    2.19
  -4   7  -3   78.90    1.86
   4  -7  -3   80.35    1.91
   7   4   3   81.67    2.11
   4  -7  -3   81.05    2.19
  -7  -4   3   83.94    2.03
   4   7   3   79.48    2.11
  -4   7  -3   78.31    1.97
   7  -4  -3   80.26    2.05
  -4   7  -3   88.51    2.04
  -4  -7   3   83.49    1.91
  -7  -4   3   80.67    2.08
  -4  -7   3   83.87    1.96
  -4   7  -3   86.54    2.18
   4   7   5   15.17    0.70
  -7   4  -5   17.15    0.48
   4  -7  -5   14.74    0.70
  -4   7  -5   16.14    0.68
  -4   7  -5   16.40    0.61
  -7  -4   5   16.19    0.65
   7   4   5   14.61    0.68
   7  -4  -5   14.89    0.65
   7   4   5   14.53    0.66
  -7  -4   5   14.26    0.69
   4  -7  -5   15.95    0.60
   4   7   5   14.50    0.42
   4  -7  -5   15.41    0.57
  -4   7  -5   14.33    0.59
   4  -7  -5   14.43    0.66
  -4  -7   5   16.69    0.74
  -4  -7   5   15.98    0.59
  -7   4  -5   15.19    0.63
  -4   7  -5   13.78    0.52
  -4  -7   7   11.58    0.55
  -4   7  -7   10.92    0.54
  -4   7  -7   11.72    0.50
   4  -7  -7   10.43    0.59
   7   4   7   10.99    0.50
  -7   4  -7   10.98    0.46
  -4   7  -7   12.29    0.57
  -7  -4   7   11.20    0.60
   4  -7  -7   11.35    0.56
   4   7   7   10.76    0.62
  -4  -7   7    9.53    0.59
   7  -4  -7   11.15    0.58
   7   4   7   12.19    0.63
   4  -7  -7   11.26    0.60
   4   7   7   10.92    0.36
  -7  -4   9    7.93    0.51
   4  -7  -9    8.27    0.50
   7   4   9    8.08    0.56
   4   7   9    8.03    0.56
   4  -7  -9    7.38    0.50
  -7   4  -9    8.11    0.44
  -4   7  -9    7.91    0.46
   7   4   9    8.28    0.44
   4   7   9    8.24    0.34
  -4   7  -9    7.61    0.50
   7  -4  -9    8.49    0.54
   7  -4  -9    7.85    0.39
   4   7  11    2.37    0.37
   7   4  11    2.27    0.25
   4   7  11    2.13    0.22
  -7  -4  11    1.71    0.27
   7  -4 -11    2.12    0.22
   7   4  11    2.45    0.36
   7  -4 -11    2.95    0.38
  -4   7 -11    2.38    0.26
   4  -7 -11    2.18    0.31
   4  -7 -11    1.94    0.30
   7  -4 -11    3.01    0.36
  -4   7 -13    1.83    0.22
   7   4  13    1.54    0.12
  -7  -4  13    1.74    0.27
   7  -4 -13    2.06    0.36
   4   7  13    1.55    0.19
  -4   7 -13    2.10    0.36
   4  -7 -13    2.03    0.31
   4  -7 -13    1.93    0.28
   4   7  13    1.92    0.38
   7   4  13    1.82    0.25
   7  -4 -13    2.03    0.24
   7   4  13    1.82    0.36
   4  -7 -15    0.86    0.21
  -4   7 -15    0.60    0.30
  -7  -4  15    0.84    0.22
   7   4  15    0.98    0.21
   4  -7 -15    0.64    0.24
  -7   4 -15    1.44    0.37
   7  -4 -15    0.65    0.28
   7   4  17    3.57    0.40
   4  -7 -17    2.91    0.36
   7  -4 -17    4.27    0.51
  -4   7 -17    3.72    0.50
  -7   4 -17    3.43    0.48
   4  -7 -17    3.85    0.48
  -7   4 -19    0.62    0.30
   7   4  19    0.75    0.23
   4  -7 -19    0.91    0.34
  -4   7 -19    0.11    0.29
   7  -4 -19    0.49    0.22
   4  -7 -19    0.57    0.20
   7  -4 -19    0.96    0.35
   7  -4 -21    0.33    0.30
  -7   4 -21    0.86    0.35
   7  -4 -21    0.46    0.21
  -4   7 -21    0.86    0.37
   4  -7 -21    0.96    0.34
  -7   4 -23    0.58    0.36
  -4   7 -23    0.67    0.35
   7  -4 -23    1.05    0.42
   4  -7 -23    0.45    0.31
   5   7 -22    3.50    0.57
   7  -5  22    3.54    0.55
  -7  -5 -22    3.44    0.49
  -5  -7 -22    2.31    0.47
   7   5 -22    4.01    0.60
  -5  -7 -22    2.83    0.45
   7   5 -20    0.08    0.26
   5   7 -20   -0.08    0.28
  -5  -7 -20   -0.28    0.30
  -7  -5 -20    0.24    0.28
   7  -5  20    0.08    0.23
   5  -7  20    0.18    0.25
  -5  -7 -20   -0.08    0.22
  -7  -5 -18    0.72    0.28
   5   7 -18    1.16    0.34
  -5  -7 -18    1.02    0.33
  -7  -5 -18    0.95    0.30
   7  -5  18    0.85    0.28
   5  -7  18    1.23    0.35
   7   5 -18    0.80    0.32
  -5  -7 -18    1.31    0.32
   5   7 -16    3.73    0.48
   5  -7  16    3.23    0.45
   7   5 -16    2.49    0.37
   7   5 -16    2.76    0.42
  -5  -7 -16    3.23    0.44
  -5  -7 -16    2.61    0.36
   7  -5  16    2.40    0.40
  -7  -5 -16    2.84    0.40
  -7  -5 -16    2.08    0.35
   5  -7  14    0.38    0.22
  -5  -7 -14    0.55    0.14
   5   7 -14    0.28    0.30
  -5  -7 -14    0.43    0.20
  -7   5  14    0.50    0.10
  -5  -7 -14    0.77    0.28
  -7  -5 -14    0.68    0.22
   7   5 -14    0.28    0.21
  -7  -5 -14    0.55    0.27
   5   7 -14    0.44    0.24
   7   5 -14   -0.06    0.25
   7  -5  14    0.51    0.25
   7   5 -12    3.89    0.41
  -7  -5 -12    3.38    0.36
  -5  -7 -12    3.04    0.39
  -5  -7 -12    3.81    0.30
  -7  -5 -12    3.87    0.39
   5   7 -12    3.81    0.38
  -5  -7 -12    3.77    0.36
   5   7 -12    4.07    0.45
   5  -7  12    3.99    0.44
   5   7 -12    3.92    0.43
   7   5 -12    3.81    0.42
   7  -5  12    3.34    0.40
   7   5 -12    4.54    0.48
  -5  -7 -10    0.29    0.15
   5   7 -10    0.28    0.17
   7   5 -10    0.64    0.26
   7  -5  10    0.21    0.13
  -7  -5 -10    0.43    0.18
   7   5 -10    0.44    0.20
   5  -7  10    0.52    0.20
  -5   7  10    0.63    0.20
  -5  -7 -10    0.43    0.20
   5   7 -10    0.22    0.14
   5   7 -10    0.18    0.18
  -5  -7 -10    0.18    0.13
   7  -5  10    0.26    0.17
   7   5 -10    0.28    0.18
  -7  -5 -10    0.32    0.16
  -5  -7  -8   26.51    0.99
  -5  -7  -8   26.25    0.85
  -7  -5  -8   24.72    0.90
  -5  -7  -8   25.61    0.90
   7   5  -8   26.15    0.73
   7   5  -8   25.24    0.97
   5  -7   8   24.38    1.02
  -7   5   8   26.16    0.86
  -5   7   8   27.62    0.96
   7   5  -8   25.95    1.02
   7  -5   8   25.99    0.85
   5   7  -8   25.72    0.95
   7   5  -8   26.73    1.00
   7  -5   8   23.67    1.00
   5   7  -8   24.76    0.93
  -7  -5  -6    1.74    0.20
  -5  -7  -6    1.32    0.15
   7   5  -6    1.36    0.12
  -7   5   6    1.45    0.17
   7   5  -6    1.22    0.22
  -5  -7  -6    1.33    0.21
  -5  -7  -6    1.23    0.19
   7  -5   6    1.42    0.20
  -5  -7  -6    1.22    0.20
  -5   7   6    1.35    0.21
   5   7  -6    1.44    0.20
   5  -7   6    1.77    0.24
   7  -5   6    1.42    0.24
   7   5  -6    1.52    0.21
   7  -5   6    1.23    0.14
   7   5  -6    1.52    0.23
   5   7  -6    1.51    0.20
  -5   7   4    4.20    0.31
   7   5  -4    4.45    0.24
   5  -7   4    4.26    0.34
   7  -5   4    4.33    0.31
  -5  -7  -4    4.74    0.36
  -7  -5  -4    4.30    0.29
  -7  -5  -4    3.54    0.31
   7  -5   4    4.02    0.34
   7  -5   4    4.44    0.34
  -7   5   4    3.90    0.27
   5   7  -4    4.05    0.26
  -5  -7  -4    4.76    0.31
  -5   7   4    4.17    0.32
   7   5  -4    4.07    0.33
   5   7  -4    4.39    0.30
  -5  -7  -4    4.57    0.21
   5   7  -4    4.52    0.29
  -5  -7  -4    4.69    0.34
   7   5  -4    4.24    0.34
  -7  -5  -2   48.13    1.31
   7   5  -2   48.06    1.35
  -5  -7  -2   47.61    1.38
   7  -5   2   46.06    1.09
   7  -5   2   46.60    1.44
   5   7  -2   49.06    1.31
   5  -7   2   48.99    1.41
   7   5  -2   47.67    1.40
  -7  -5  -2   51.13    1.37
   7  -5   2   49.11    1.34
  -5  -7  -2   49.45    1.32
  -5  -7  -2   50.27    1.41
  -7  -5  -2   49.32    1.40
   5  -7   2   51.56    1.23
  -5  -7  -2   46.29    1.44
  -5   7   2   49.99    1.41
  -7   5   2   51.15    1.36
   5   7  -2   49.62    1.34
  -5  -7  -2   47.27    1.08
  -7   5   0   30.51    0.94
   7  -5   0   30.03    0.82
  -5  -7   0   29.32    1.05
   5  -7   0   30.24    1.07
   5   7   0   29.54    0.97
   7  -5   0   31.22    0.95
   5  -7   0   29.55    0.91
   7  -5   0   29.20    1.07
  -5  -7   0   30.83    0.92
  -5  -7   0   29.41    0.95
  -7  -5   0   31.42    0.88
   5   7   0   31.11    1.01
  -5  -7   0   30.17    0.74
   5   7   0   30.99    0.92
   5  -7   0   31.28    0.84
   7   5   0   30.43    1.00
  -5   7   0   29.24    0.83
   7   5   0   31.06    0.94
  -7  -5   0   31.03    0.91
  -5   7   0   33.25    0.95
  -7  -5   0   31.59    1.00
   5  -7  -2   51.57    1.19
   7  -5  -2   49.13    1.28
  -7   5  -2   51.50    1.20
   5  -7  -2   48.81    1.26
  -7  -5   2   48.55    1.40
   7   5   2   50.48    1.34
  -5  -7   2   50.84    1.32
  -5   7  -2   52.65    1.34
   7  -5  -2   47.87    1.35
   5  -7  -2   48.19    1.50
  -5  -7   2   50.44    1.22
   7  -5  -2   46.79    1.51
  -7  -5   2   48.34    1.51
   5  -7  -2   47.63    1.35
  -7   5  -2   49.18    1.36
   7   5   2   47.94    1.42
  -7  -5   2   49.55    1.24
   5   7   2   49.41    1.35
  -5  -7   2   46.99    1.49
  -7   5  -2   47.43    1.11
   5   7   2   45.20    1.38
  -5   7  -2   51.55    1.50
  -5   7  -2   47.29    1.23
   5   7   2   47.77    1.41
  -7  -5   2   52.11    1.32
  -7  -5   4    4.70    0.39
  -7   5  -4    4.88    0.23
  -5  -7   4    5.08    0.29
   7  -5  -4    4.24    0.31
   5  -7  -4    4.53    0.34
   7  -5  -4    4.12    0.30
   5  -7  -4    4.47    0.28
   7   5   4    4.56    0.30
  -5   7  -4    4.82    0.36
  -7   5  -4    4.10    0.30
  -5  -7   4    5.15    0.41
   7   5   4    4.03    0.34
   5  -7  -4    3.80    0.36
  -5   7  -4    3.88    0.26
   5  -7  -4    4.72    0.29
   5   7   4    4.41    0.37
  -7  -5   4    4.36    0.31
  -7  -5   4    4.78    0.34
  -5   7  -4    4.83    0.30
  -5   7  -4    4.87    0.28
  -5   7  -6    1.29    0.17
  -7  -5   6    1.16    0.24
  -5   7  -6    1.31    0.18
  -5   7  -6    1.28    0.20
   7   5   6    1.38    0.26
   5   7   6    1.04    0.22
   5  -7  -6    1.35    0.23
  -5  -7   6    1.36    0.19
   5  -7  -6    1.15    0.18
  -7  -5   6    1.17    0.18
  -5   7  -6    1.20    0.12
  -5  -7   6    1.12    0.22
  -5   7  -6    1.24    0.16
  -7   5  -6    1.58    0.20
   5  -7  -6    1.14    0.22
   5  -7  -6    1.36    0.19
   7  -5  -6    1.30    0.20
   5   7   6    1.46    0.12
   7   5   8   25.36    1.03
   5  -7  -8   26.59    1.04
  -5   7  -8   26.97    0.93
   5   7   8   25.36    1.04
  -5   7  -8   24.68    0.88
   7  -5  -8   25.99    0.99
  -5   7  -8   24.00    0.80
   5   7   8   25.85    0.73
   5  -7  -8   27.72    0.98
   5  -7  -8   23.96    0.99
   7   5   8   25.77    0.85
  -5  -7   8   26.45    0.96
  -7  -5   8   24.73    0.99
  -5  -7   8   25.78    1.04
  -5   7  -8   26.02    0.92
  -7   5  -8   25.39    0.81
   7  -5 -10    0.29    0.20
   7   5  10    0.27    0.20
  -5  -7  10    0.48    0.20
  -7  -5  10    0.49    0.20
  -5   7 -10    0.33    0.13
  -5   7 -10    0.28    0.12
   5   7  10    0.45    0.10
  -7   5 -10    0.36    0.13
   7   5  10    0.39    0.12
   5   7  10    0.32    0.21
   5  -7 -10    0.61    0.22
   5  -7 -10    0.43    0.17
   7  -5 -10    0.33    0.11
   7   5  12    4.81    0.36
   5  -7 -12    3.42    0.41
   5  -7 -12    3.87    0.40
  -5   7 -12    3.97    0.31
   5   7  12    3.60    0.28
   5   7  12    3.90    0.46
   7  -5 -12    4.17    0.44
   7   5  12    5.09    0.51
   5   7  12    3.78    0.28
  -7  -5  12    4.14    0.40
  -7  -5  14    0.47    0.21
   7   5  14    0.55    0.26
   5  -7 -14    0.67    0.23
   7   5  14    0.43    0.15
  -5   7 -14    0.56    0.16
  -5   7 -14    0.90    0.30
   7  -5 -14    0.40    0.22
   7  -5 -14    1.05    0.31
   5  -7 -14    0.52    0.26
   5  -7 -16    2.80    0.41
   7   5  16    2.35    0.31
  -5   7 -16    2.53    0.43
   5  -7 -16    2.38    0.34
   7  -5 -16    2.82    0.38
   7  -5 -16    2.65    0.41
  -7   5 -16    2.52    0.40
   7  -5 -18    0.78    0.24
   5  -7 -18    0.65    0.22
  -5   7 -18    0.40    0.26
   7   5  18    0.88    0.21
  -7   5 -18    0.47    0.28
   5  -7 -18    0.80    0.33
   7  -5 -18    0.38    0.29
   7  -5 -20   -0.09    0.19
   7  -5 -20   -0.04    0.25
  -7   5 -20    0.21    0.24
   5  -7 -20    0.02    0.16
  -5   7 -20    0.11    0.27
   5  -7 -20    0.22    0.26
   7  -5 -22    4.78    0.64
  -7   5 -22    3.21    0.54
   5  -7 -22    3.06    0.53
  -5   7 -22    3.59    0.57
  -6  -7 -23    0.92    0.39
  -7  -6 -23    0.70    0.34
  -6  -7 -23    0.29    0.26
  -7  -6 -23    1.22    0.39
   7   6 -23    1.84    0.45
   6   7 -23    1.13    0.40
   7   6 -23    0.00    0.34
   7  -6  23    0.51    0.29
   7   6 -21    0.66    0.29
   6   7 -21    1.05    0.35
   7  -6  21    0.83    0.29
  -6  -7 -21    1.49    0.37
  -6  -7 -21    1.37    0.34
   7   6 -21    1.24    0.39
   6  -7  21    1.04    0.37
  -7  -6 -21    1.07    0.32
  -7  -6 -21    1.09    0.37
   6   7 -19    1.11    0.31
  -7  -6 -19    1.32    0.35
  -6  -7 -19    0.98    0.33
   6  -7  19    1.08    0.33
  -7  -6 -19    1.12    0.32
   7   6 -19    0.99    0.35
   7  -6  19    0.73    0.29
  -6  -7 -19    1.34    0.32
   7   6 -19    0.66    0.27
   7  -6  17    4.38    0.52
   6   7 -17    4.64    0.55
  -6  -7 -17    4.15    0.50
  -7  -6 -17    4.53    0.49
   6  -7  17    4.90    0.57
   7   6 -17    4.40    0.53
  -6  -7 -17    5.00    0.49
  -7  -6 -17    4.87    0.53
   7   6 -17    4.10    0.48
   7   6 -15    0.79    0.25
   6   7 -15    1.05    0.31
   7  -6  15    0.72    0.28
   6   7 -15    0.91    0.27
  -6  -7 -15    1.07    0.29
  -6  -7 -15    0.88    0.26
  -7  -6 -15    0.67    0.24
   6  -7  15    1.16    0.32
  -7  -6 -15    0.75    0.24
  -6  -7 -15    0.77    0.17
   7   6 -15    0.82    0.29
   7   6 -13    2.23    0.34
   6   7 -13    1.72    0.30
  -6  -7 -13    1.72    0.28
   6   7 -13    2.27    0.41
  -6  -7 -13    2.11    0.34
   6   7 -13    2.19    0.35
  -7  -6 -13    2.01    0.31
   7   6 -13    1.56    0.37
  -7  -6 -13    1.52    0.30
  -6  -7 -13    1.89    0.24
   7  -6  13    2.19    0.36
   6  -7  13    2.27    0.37
   7   6 -13    2.72    0.39
  -6  -7 -11    4.72    0.39
   7   6 -11    4.51    0.43
  -7  -6 -11    4.74    0.40
   7  -6  11    4.45    0.45
   7   6 -11    5.08    0.50
  -6  -7 -11    4.43    0.36
   6   7 -11    4.54    0.46
   6   7 -11    5.02    0.45
   6  -7  11    4.25    0.44
  -7  -6 -11    4.47    0.42
  -6  -7 -11    4.75    0.43
   7   6 -11    5.00    0.46
   6   7 -11    4.99    0.43
  -7  -6  -9   10.63    0.58
   6   7  -9   10.94    0.60
  -7   6   9   12.49    0.58
   7   6  -9   11.84    0.64
   6   7  -9   12.01    0.63
   6  -7   9   11.20    0.56
   7  -6   9   11.67    0.69
  -7  -6  -9   11.81    0.57
   7  -6   9   11.63    0.54
  -6  -7  -9   11.95    0.59
  -6  -7  -9   11.53    0.63
   6  -7   9   11.90    0.69
   7   6  -9   12.07    0.69
  -6  -7  -9   11.16    0.54
   7   6  -9   11.99    0.65
   6   7  -9   13.61    0.74
  -6   7   9   12.11    0.60
  -7   6   7    9.65    0.48
  -6   7   7   10.18    0.53
   7   6  -7    9.72    0.53
  -7  -6  -7    9.78    0.52
  -6  -7  -7    9.72    0.54
   7  -6   7    9.56    0.59
   6   7  -7    9.83    0.45
  -6  -7  -7    9.84    0.44
   7   6  -7    8.58    0.52
   6   7  -7    9.67    0.51
   7   6  -7   10.13    0.41
  -6  -7  -7    9.79    0.54
   6   7  -7    9.94    0.53
   6  -7   7   10.00    0.59
   7   6  -7    9.24    0.57
  -6  -7  -5    2.97    0.32
   7   6  -5    3.50    0.33
   7  -6   5    3.63    0.34
   6  -7   5    3.32    0.32
   7   6  -5    3.57    0.27
  -7  -6  -5    3.48    0.29
   7  -6   5    3.26    0.30
  -6  -7  -5    3.41    0.29
   6   7  -5    3.68    0.27
   6   7  -5    3.20    0.24
  -7   6   5    3.09    0.26
   7   6  -5    3.22    0.22
   7   6  -5    3.77    0.32
   6   7  -5    3.11    0.28
  -6  -7  -5    3.10    0.29
  -6   7   5    3.99    0.31
  -6  -7  -3   80.60    2.17
  -7  -6  -3   77.57    2.01
  -6  -7  -3   81.34    2.07
   7  -6   3   79.63    2.14
   7  -6   3   78.64    2.15
  -7  -6  -3   77.73    2.08
   7   6  -3   79.17    2.07
  -6  -7  -3   80.54    2.04
   7   6  -3   79.33    1.93
  -6  -7  -3   79.61    2.10
  -7  -6  -3   79.83    2.07
   6  -7   3   79.56    2.13
   6   7  -3   79.97    2.03
  -6   7   3   85.21    2.09
  -7   6   3   81.78    2.04
   6  -7   3   79.79    1.94
   6   7  -3   79.39    1.98
   6  -7   3   78.11    2.15
   7  -6   3   78.33    1.99
  -6  -7  -1    0.95    0.16
   7  -6   1    1.14    0.13
   6  -7   1    1.01    0.14
   7   6  -1    0.94    0.15
   6  -7   1    0.92    0.21
   7  -6   1    0.80    0.15
   7   6  -1    0.87    0.15
  -6   7   1    1.13    0.16
  -7  -6  -1    0.97    0.16
   6   7  -1    0.92    0.17
  -7  -6  -1    0.88    0.17
  -6  -7  -1    0.62    0.18
  -7  -6  -1    1.09    0.23
  -7   6   1    0.93    0.15
   6  -7   1    0.68    0.12
   6   7  -1    0.96    0.17
   7   6  -1    0.88    0.17
  -6  -7  -1    1.17    0.10
  -6  -7  -1    0.73    0.14
   7  -6   1    1.14    0.22
  -6   7   1    0.79    0.12
   6   7   1    0.67    0.15
   6   7   1    0.45    0.15
  -6  -7   1    0.76    0.14
   6  -7  -1    0.55    0.20
   6  -7  -1    0.78    0.07
   7  -6  -1    1.23    0.22
   6  -7  -1    0.85    0.14
  -6   7  -1    0.82    0.12
   7   6   1    0.77    0.17
  -6  -7   1    0.72    0.21
  -7   6  -1    0.79    0.12
  -7  -6   1    0.83    0.21
   6  -7  -1    1.16    0.15
  -7  -6   1    0.79    0.13
   7  -6  -1    0.86    0.13
   7   6   1    0.73    0.15
  -7   6  -1    0.82    0.13
   7  -6  -1    0.91    0.15
  -7  -6   1    1.04    0.14
  -6  -7   1    0.84    0.11
  -6   7  -1    0.88    0.14
  -7  -6   1    0.75    0.14
  -6  -7   1    0.61    0.13
   6   7   1    0.97    0.16
   7   6   3   77.84    2.01
  -6   7  -3   84.31    1.94
  -7   6  -3   82.15    1.87
  -7   6  -3   79.39    1.79
  -6   7  -3   77.87    1.91
   7  -6  -3   75.15    2.19
   7  -6  -3   74.70    1.98
  -6  -7   3   70.98    2.14
   6  -7  -3   76.07    2.19
  -6   7  -3   76.17    1.86
  -6  -7   3   79.92    1.99
   6  -7  -3   77.96    1.86
   6   7   3   76.33    2.02
   6  -7  -3   78.07    2.01
  -7  -6   3   80.76    2.20
  -7   6  -3   76.23    1.97
   7   6   3   76.45    2.06
  -7  -6   3   80.05    1.95
   6  -7  -3   79.53    1.94
  -6  -7   3   78.90    1.89
  -7  -6   3   82.42    2.05
   7  -6  -3   77.39    1.96
  -6   7  -5    3.42    0.33
   7  -6  -5    3.80    0.38
   7   6   5    4.04    0.31
  -6  -7   5    3.35    0.27
  -6   7  -5    3.71    0.26
  -7   6  -5    4.00    0.24
  -6   7  -5    3.65    0.26
  -6   7  -5    3.25    0.25
   6  -7  -5    3.32    0.35
   6  -7  -5    3.65    0.32
   6  -7  -5    3.30    0.26
  -7   6  -5    3.10    0.26
  -7  -6   5    3.45    0.37
   7   6   5    3.29    0.34
   7   6   5    3.23    0.31
   7  -6  -5    4.02    0.32
  -6  -7   5    3.25    0.35
   6   7   5    3.31    0.35
   6  -7  -5    3.35    0.27
   7  -6  -5    3.72    0.30
  -7  -6   5    3.19    0.27
  -6   7  -7   10.03    0.39
   6  -7  -7    9.57    0.51
   7   6   7   10.48    0.45
  -6   7  -7   10.78    0.50
   7  -6  -7   11.07    0.65
  -6  -7   7    9.23    0.60
  -6  -7   7    9.34    0.52
   6   7   7    9.57    0.60
   7  -6  -7    9.56    0.53
   7   6   7    9.62    0.60
  -7  -6   7    9.39    0.59
   6   7   7    9.93    0.39
   6  -7  -7    9.85    0.61
  -6   7  -7    9.97    0.54
   6  -7  -7    9.54    0.52
   6  -7  -7    9.42    0.56
  -6   7  -7    9.56    0.49
  -7   6  -7    9.93    0.39
  -7  -6   7    9.42    0.52
  -7   6  -9   11.32    0.50
   6   7   9   11.89    0.72
  -6  -7   9   11.48    0.67
  -6   7  -9   11.25    0.49
  -7  -6   9   11.36    0.66
   7   6   9   11.27    0.69
   7  -6  -9   10.59    0.67
  -6   7  -9   11.14    0.57
   6   7   9   11.33    0.46
   7   6   9   11.34    0.50
   6  -7  -9   12.34    0.70
   7  -6  -9   11.08    0.63
   6  -7  -9   11.44    0.62
   6  -7 -11    4.70    0.45
  -7   6 -11    4.76    0.36
  -7  -6  11    4.36    0.43
   6   7  11    5.28    0.32
  -6   7 -11    4.88    0.36
   7  -6 -11    4.67    0.46
  -6  -7  11    4.85    0.44
   7   6  11    4.64    0.48
   6   7  11    4.28    0.48
   7  -6 -11    5.11    0.45
   7   6  11    4.92    0.35
  -6   7 -11    5.23    0.37
   7   6  13    1.89    0.24
   7  -6 -13    1.42    0.33
  -7  -6  13    2.22    0.33
   6  -7 -13    2.32    0.34
  -6   7 -13    2.04    0.26
   6   7  13    1.96    0.23
   7   6  13    1.88    0.39
   7  -6 -13    2.29    0.35
   6  -7 -13    1.70    0.34
   6   7  13    1.75    0.19
   6   7  13    2.50    0.40
   7  -6 -15    1.12    0.28
   7   6  15    1.00    0.21
   7   6  15    1.57    0.36
  -6   7 -15    0.88    0.28
   6  -7 -15    0.77    0.24
   7  -6 -15    0.55    0.24
   6  -7 -15    0.88    0.27
   6   7  15    1.09    0.20
   7  -6 -17    5.21    0.50
   6  -7 -17    4.42    0.46
  -7   6 -17    4.67    0.56
   7   6  17    4.32    0.41
   6  -7 -17    4.83    0.54
   7  -6 -17    4.79    0.55
  -6   7 -17    4.78    0.56
   6  -7 -19    0.71    0.24
  -6   7 -19    1.52    0.39
   7  -6 -19    1.23    0.37
  -7   6 -19    0.72    0.30
   6  -7 -19    0.88    0.31
   7  -6 -19    0.73    0.26
   7  -6 -21    1.13    0.29
  -7   6 -21    1.07    0.37
  -6   7 -21    1.83    0.44
   7  -6 -21    1.02    0.36
   6  -7 -21    0.97    0.35
  -7   6 -23    1.40    0.39
  -6   7 -23    0.74    0.33
   7  -6 -23    0.47    0.32
   6  -7 -23    1.19    0.36
  -7  -7 -22    2.85    0.48
  -7  -7 -22    2.85    0.44
   7   7 -22    2.02    0.43
   7   7 -22    3.33    0.57
   7  -7  22    2.34    0.46
  -7  -7 -20    2.43    0.40
   7  -7  20    1.94    0.39
  -7  -7 -20    1.92    0.40
   7   7 -20    2.77    0.48
   7   7 -20    2.02    0.43
   7   7 -18    0.93    0.29
  -7  -7 -18    1.10    0.33
  -7  -7 -18    0.98    0.29
   7  -7  18    1.10    0.31
   7   7 -18    1.12    0.37
  -7  -7 -16    6.30    0.54
  -7  -7 -16    6.24    0.57
   7  -7  16    6.60    0.63
   7   7 -16    5.92    0.59
   7   7 -16    6.30    0.58
   7  -7  14   13.08    0.84
  -7   7  14   12.01    0.42
  -7  -7 -14   11.10    0.72
   7   7 -14   13.07    0.82
  -7  -7 -14   11.99    0.69
   7   7 -14   13.00    0.85
   7   7 -14   12.56    0.77
   7   7 -12    5.98    0.52
   7  -7  12    5.97    0.54
  -7  -7 -12    5.24    0.43
   7   7 -12    4.77    0.46
   7   7 -12    6.12    0.57
  -7  -7 -12    4.87    0.46
   7   7 -10   11.03    0.70
   7  -7  10   10.45    0.68
   7   7 -10   11.53    0.66
  -7   7  10   11.03    0.60
   7  -7  10   10.86    0.56
   7   7 -10   11.84    0.66
  -7  -7 -10   11.08    0.56
  -7  -7 -10   10.85    0.63
   7   7  -8   44.05    1.21
   7   7  -8   44.35    1.51
  -7  -7  -8   41.40    1.24
   7   7  -8   44.04    1.38
   7   7  -8   42.93    1.40
   7  -7   8   40.79    1.46
  -7   7   8   44.99    1.34
  -7  -7  -8   42.10    1.36
   7   7  -6    0.73    0.21
   7   7  -6    0.99    0.20
  -7   7   6    0.78    0.17
  -7  -7  -6    0.76    0.20
   7  -7   6    0.73    0.19
  -7  -7  -6    0.54    0.16
   7   7  -6    0.54    0.15
   7   7  -6    0.78    0.13
  -7  -7  -4   12.09    0.58
   7  -7   4   11.68    0.63
   7   7  -4   12.44    0.59
  -7   7   4   13.65    0.60
  -7  -7  -4   12.61    0.66
   7  -7   4   11.64    0.63
   7  -7   4   12.06    0.53
   7   7  -4   13.04    0.67
   7   7  -4   13.33    0.52
  -7  -7  -2   78.34    2.11
  -7  -7  -2   80.10    2.26
  -7  -7  -2   85.88    2.14
   7   7  -2   82.76    2.07
  -7  -7  -2   82.66    2.15
   7  -7   2   83.37    2.26
   7   7  -2   82.64    2.14
   7  -7   2   84.16    2.04
  -7   7   2   83.06    2.06
   7  -7   0   17.79    0.63
  -7  -7   0   18.07    0.82
  -7   7   0   18.60    0.67
   7  -7   0   17.92    0.83
  -7  -7   0   19.04    0.59
   7  -7   0   18.24    0.66
  -7   7   0   19.84    0.67
  -7  -7   0   18.75    0.70
   7   7   0   17.97    0.72
   7   7   0   19.03    0.72
  -7  -7   0   18.75    0.72
   7   7   2   86.82    2.22
   7  -7  -2   85.22    2.12
   7  -7  -2   85.63    2.13
   7  -7  -2   85.09    2.39
  -7  -7   2   80.88    2.35
  -7   7  -2   89.72    2.08
  -7   7  -2   82.65    2.10
   7  -7  -2   88.53    1.97
  -7  -7   2   84.37    2.20
  -7  -7   2   87.35    2.06
  -7   7  -2   85.59    1.98
   7  -7  -4   11.64    0.53
  -7   7  -4   11.87    0.48
  -7   7  -4   11.98    0.45
   7  -7  -4   12.92    0.71
   7   7   4   12.35    0.59
  -7   7  -4   11.72    0.52
  -7  -7   4   10.77    0.64
   7  -7  -4   11.39    0.55
  -7  -7   4   11.46    0.51
  -7  -7   4   12.19    0.57
   7   7   4   11.99    0.65
  -7   7  -6    0.75    0.13
  -7   7  -6    0.80    0.15
  -7  -7   6    0.59    0.22
  -7  -7   6    0.81    0.16
   7   7   6    0.58    0.22
   7  -7  -6    0.70    0.24
  -7   7  -6    0.74    0.15
   7  -7  -6    0.80    0.20
   7  -7  -6    0.46    0.14
  -7  -7   8   42.12    1.48
   7  -7  -8   43.10    1.45
   7   7   8   44.84    1.53
  -7   7  -8   42.74    1.15
   7  -7  -8   44.26    1.53
   7  -7  -8   43.56    1.39
   7   7   8   43.45    1.20
   7   7  10   12.80    0.77
   7   7  10   11.25    0.50
  -7  -7  10   11.06    0.69
  -7   7 -10   11.73    0.53
   7  -7 -10   10.95    0.70
   7  -7 -10   10.76    0.63
   7  -7 -12    5.76    0.49
   7   7  12    6.14    0.38
   7  -7 -12    6.04    0.52
   7   7  12    5.62    0.55
  -7  -7  12    6.08    0.53
   7  -7 -14   11.09    0.73
   7   7  14   12.98    0.62
   7  -7 -14   11.17    0.77
   7   7  14   12.47    0.84
   7  -7 -16    5.59    0.56
   7  -7 -16    5.10    0.51
   7   7  16    6.13    0.44
  -7   7 -18    0.43    0.29
   7  -7 -18    0.73    0.29
   7  -7 -18    0.36    0.20
  -7   7 -20    2.54    0.46
   7  -7 -20    1.75    0.32
   7  -7 -22    2.35    0.46
  -7   7 -22    2.62    0.49
   0   8   0    8.89    0.48
   8   0   0    8.56    0.32
   0   8   0    8.94    0.36
   8   0   0    8.61    0.47
   0  -8   0    8.59    0.46
   0  -8   0    9.56    0.37
   0  -8  -2    0.32    0.05
   0   8   2    0.38    0.13
   0   8  -2    0.42    0.11
   0   8   2    0.18    0.06
   0   8   2    0.58    0.14
   0  -8  -2    0.05    0.12
   8   0  -2    0.17    0.09
   0  -8  -2    0.31    0.07
   8   0   2    0.23    0.15
   0  -8   2    0.45    0.13
   8   0  -2    0.28    0.17
   8   0   4   13.35    0.57
   0   8   4   14.90    0.66
   0  -8   4   13.56    0.60
   0   8  -4   13.85    0.42
  -8   0  -4   13.44    0.36
   0   8   4   13.76    0.59
  -8   0   4   13.73    0.52
   0   8  -4   14.31    0.60
   0  -8  -4   15.14    0.66
   0   8   4   13.87    0.47
   8   0   4   13.18    0.62
   0   8   4   14.77    0.58
   8   0  -4   13.41    0.63
   8   0  -4   14.57    0.55
   0  -8   6    1.10    0.21
  -8   0   6    1.18    0.18
   8   0   6    0.88    0.19
   0  -8  -6    1.15    0.21
   0   8   6    1.03    0.14
   0   8   6    1.14    0.21
  -8   0  -6    1.05    0.11
   0   8  -6    1.07    0.18
   8   0   6    0.72    0.17
   0   8   6    1.27    0.20
   0  -8  -6    1.19    0.19
   0  -8  -6    1.01    0.14
   0   8   6    1.15    0.16
   0   8  -6    0.94    0.20
   8   0  -6    0.77    0.20
  -8   0   8    0.23    0.15
   8   0   8    0.31    0.18
   0   8   8    0.21    0.09
   0  -8   8    0.07    0.15
   0   8   8    0.66    0.22
   0   8  -8    0.35    0.19
   0  -8  -8    0.24    0.04
   0  -8  -8    0.45    0.22
   0   8  -8    0.29    0.17
   0   8   8    0.29    0.12
   0  -8  -8    0.58    0.15
   8   0  -8    0.48    0.20
   8   0  -8    0.19    0.18
   8   0   8    0.10    0.15
   8   0 -10   15.07    0.44
  -8   0  10   15.44    0.68
   0   8 -10   15.84    0.77
   8   0 -10   15.38    0.79
   8   0  10   15.69    0.76
   0   8 -10   16.54    0.80
   0  -8 -10   15.50    0.49
   0   8  10   15.59    0.69
   0  -8 -10   16.20    0.69
   8   0  10   15.57    0.74
   0  -8 -10   14.73    0.81
   8   0 -10   15.21    0.79
  -8   0  12    3.59    0.32
   0  -8 -12    3.77    0.24
   8   0 -12    3.76    0.22
   0   8 -12    4.57    0.47
   0   8 -12    4.29    0.44
   0  -8 -12    4.14    0.46
   8   0  12    3.69    0.37
   8   0 -12    4.27    0.45
   0  -8 -12    3.86    0.37
   8   0 -12    5.04    0.49
   8   0 -14    6.75    0.35
   0   8 -14    7.45    0.63
   0  -8 -14    5.29    0.57
  -8   0  14    6.49    0.43
   0  -8 -14    6.32    0.37
   0  -8 -14    6.66    0.53
   8   0 -14    6.56    0.58
   8   0  14    6.85    0.54
   8   0 -14    6.59    0.58
   8   0  16    0.78    0.23
   0  -8 -16    0.67    0.25
  -8   0  16    0.69    0.17
   0   8 -16    0.72    0.29
  -8   0 -16    0.89    0.30
   8   0 -16    0.76    0.27
   8   0  18   -0.12    0.21
   0  -8 -18   -0.33    0.25
   0   8 -18    0.08    0.25
  -8   0 -18    0.35    0.26
   8   0 -18    0.11    0.26
  -8   0 -20    0.83    0.32
   8   0  20    1.26    0.32
   0   8 -20    0.74    0.32
   0  -8 -20    0.89    0.30
   8   0 -20    1.09    0.37
   0   8 -22    0.52    0.32
   0  -8 -22    1.45    0.37
  -8   0 -22    0.54    0.27
   8   0  22    0.62    0.29
   8   0 -22    0.77    0.34
  -8   0 -24    0.29    0.31
   0   8 -24    0.62    0.37
   0  -8 -24    0.58    0.34
   8   0 -24    0.79    0.40
  -8  -1 -23    0.29    0.27
   8   1 -23    1.06    0.42
  -1  -8 -23    0.48    0.29
   1   8 -23    1.05    0.39
   8  -1  23    0.98    0.32
  -1  -8 -21    0.42    0.26
  -8  -1 -21    0.51    0.27
   8  -1  21    0.58    0.24
   8   1 -21    0.60    0.30
   1   8 -21    0.16    0.28
  -1  -8 -19   -0.11    0.23
  -8  -1 -19    0.16    0.21
   1   8 -19    0.68    0.34
   8  -1  19    0.52    0.26
   8   1 -19    0.52    0.28
   8  -1  17    4.52    0.49
   8   1 -17    4.89    0.56
  -1  -8 -17    3.69    0.53
  -8   1  17    4.87    0.34
   1   8 -17    5.36    0.57
  -8  -1 -17    4.41    0.52
  -1  -8 -17    4.39    0.47
   1   8 -15    8.34    0.67
   8  -1  15    8.35    0.63
  -1  -8 -15    8.31    0.61
  -8  -1 -15    8.37    0.64
   8   1 -15    8.35    0.68
   8   1 -15    8.17    0.65
  -8   1  15    7.86    0.45
  -1  -8 -15    9.81    0.74
   8   1 -13    3.56    0.43
  -1  -8 -13    3.77    0.39
   1   8 -13    3.55    0.43
   8   1 -13    2.95    0.22
   8  -1  13    3.50    0.39
  -1  -8 -13    3.77    0.24
   1   8 -13    3.14    0.42
  -8   1  13    4.28    0.33
  -1  -8 -13    3.10    0.43
   8   1 -13    3.71    0.44
   8  -1  11    1.75    0.26
  -1  -8 -11    1.90    0.15
   8   1 -11    2.51    0.35
  -1  -8 -11    1.89    0.34
   1   8 -11    2.24    0.32
   1  -8  11    1.76    0.31
   8  -1  11    2.06    0.15
  -8   1  11    1.72    0.23
   1   8 -11    2.36    0.36
   8   1 -11    1.99    0.32
  -1  -8 -11    1.70    0.25
   8   1 -11    1.95    0.13
  -1   8   9    7.09    0.43
   1  -8   9    7.39    0.53
   1   8  -9    6.95    0.49
  -1  -8  -9    7.60    0.54
   8  -1   9    6.73    0.33
   8  -1   9    6.78    0.46
  -1   8   9    7.32    0.30
   8  -1   9    6.67    0.47
  -1  -8  -9    6.36    0.39
   8   1  -9    6.97    0.50
  -1  -8  -9    6.58    0.23
   1   8  -9    6.04    0.48
   8   1  -9    7.35    0.51
   1  -8   7   32.56    1.18
   1   8  -7   34.51    1.12
  -8  -1  -7   34.68    0.95
  -1  -8  -7   33.51    1.18
   8  -1   7   33.51    1.10
  -8   1   7   33.79    1.09
  -1   8   7   37.11    0.99
   8  -1   7   34.06    1.16
  -1  -8  -7   33.60    0.97
   8   1  -7   32.74    1.18
  -1   8   7   33.23    1.03
  -8   1   5   36.83    0.89
  -8  -1  -5   39.58    0.97
   1   8  -5   40.83    1.23
   8  -1   5   38.47    1.24
   8  -1   5   39.61    1.15
  -1   8   5   41.08    1.13
   1  -8   5   40.10    1.24
  -1   8   5   39.68    1.20
  -1  -8  -5   40.35    1.27
   8   1  -5   38.87    1.26
   8   1  -5   40.17    1.17
  -8   1   5   40.00    1.12
  -1   8   5   37.61    1.07
   1   8  -5   39.82    1.14
   1   8  -5   39.30    1.01
   8   1  -3    2.87    0.23
  -1  -8  -3    2.97    0.29
   1   8  -3    3.03    0.25
   1   8  -3    3.05    0.15
  -1  -8  -3    3.15    0.18
  -1   8   3    3.44    0.27
  -1   8   3    3.11    0.26
   1   8  -3    2.75    0.21
  -1   8   3    2.79    0.19
  -8   1   3    3.01    0.20
   1  -8   3    3.11    0.26
   8  -1   3    3.10    0.30
   8   1  -3    2.64    0.27
   8   1  -1   43.17    1.29
   1  -8   1   45.74    1.18
   1   8  -1   41.10    0.96
  -1   8   1   43.87    1.15
   8  -1   1   44.86    1.30
   1   8  -1   42.56    1.14
   8  -1   1   41.87    0.97
   8   1  -1   43.90    1.12
  -1  -8  -1   45.28    0.99
  -1  -8  -1   42.08    1.27
   1  -8   1   41.24    1.24
   1  -8  -1   46.41    1.30
   8   1   1   41.85    1.01
  -1   8  -1   44.55    1.18
   1   8   1   45.13    1.06
   1   8   1   48.01    1.34
   1  -8  -1   44.66    1.11
   8  -1  -1   44.46    1.04
   8  -1  -1   44.67    1.30
   8   1   1   43.96    1.31
   1   8   1   40.29    0.97
  -1   8  -3    3.48    0.29
   1  -8  -3    3.42    0.30
   8  -1  -3    3.62    0.31
  -8  -1   3    2.82    0.12
   1   8   3    3.04    0.27
   1   8   3    3.17    0.27
  -1   8  -3    3.32    0.26
  -8  -1   3    3.97    0.31
   8   1   3    3.32    0.31
   1   8   3    3.12    0.15
   1  -8  -3    3.29    0.17
   1   8   5   37.16    1.00
   8  -1  -5   41.03    1.26
   8   1   5   39.47    1.20
   1   8   5   38.77    1.22
  -1   8  -5   41.07    1.23
   1  -8  -5   38.73    1.25
  -8   1  -5   37.46    0.89
   1   8   5   41.96    1.15
   8   1   5   40.82    1.27
  -8  -1   5   39.16    1.15
  -1   8  -5   36.49    1.20
   1  -8  -5   38.98    1.16
   8  -1  -7   35.22    1.21
   1  -8  -7   35.29    1.15
   1   8   7   32.38    1.18
  -1   8  -7   34.00    1.14
   1  -8  -7   35.59    1.04
   1   8   7   33.86    1.01
   8   1   7   34.19    1.15
   1   8   7   37.24    1.02
   1   8   7   35.33    1.15
  -8  -1   7   34.70    1.13
  -1   8  -7   32.88    1.15
   8   1   7   35.38    1.15
   1  -8  -7   34.59    1.22
   8  -1  -9    6.81    0.50
   8   1   9    6.86    0.45
   1  -8  -9    6.86    0.42
   1   8   9    6.47    0.50
   8   1   9    6.76    0.48
   1   8   9    6.76    0.40
  -1   8  -9    7.08    0.49
  -1   8  -9    7.20    0.50
   8  -1  -9    6.48    0.49
   1  -8  -9    7.04    0.30
   1   8   9    7.04    0.44
   1  -8  -9    6.37    0.52
  -8  -1   9    7.10    0.47
   1  -8 -11    2.26    0.19
   8   1  11    2.54    0.33
   8  -1 -11    1.72    0.31
   1  -8 -11    1.97    0.34
  -1   8 -11    2.14    0.32
   8   1  11    1.89    0.27
  -8  -1  11    2.14    0.26
   8  -1 -11    2.21    0.16
   8  -1 -11    2.30    0.33
  -1   8 -11    2.16    0.33
   1  -8 -11    2.13    0.29
  -1   8 -13    3.39    0.42
   8   1  13    3.46    0.37
   8  -1 -13    3.76    0.43
  -8  -1  13    3.63    0.34
  -1   8 -13    3.73    0.45
   8  -1 -13    3.49    0.25
   8  -1 -13    3.44    0.44
   1  -8 -13    3.14    0.25
   1  -8 -13    3.59    0.39
   1  -8 -13    3.26    0.44
   8  -1 -15    8.94    0.71
   8   1  15    8.46    0.60
  -1   8 -15    8.94    0.70
   1  -8 -15    8.31    0.62
   8  -1 -15    8.85    0.70
  -8  -1  15    8.40    0.51
  -8   1 -15    9.22    0.68
  -8  -1  17    4.29    0.37
   8  -1 -17    4.80    0.55
  -1   8 -17    4.95    0.56
  -8   1 -17    4.16    0.51
   8   1  17    5.22    0.51
   1  -8 -17    5.34    0.54
  -1   8 -19    0.66    0.31
   8   1  19    0.65    0.25
  -8   1 -19    0.53    0.29
   8  -1 -19   -0.09    0.24
   1  -8 -19   -0.08    0.22
   8   1  21    0.23    0.19
  -8   1 -21    0.41    0.26
   8  -1 -21    0.43    0.29
  -1   8 -21    1.02    0.33
   1  -8 -21    0.55    0.26
  -8   1 -23    0.89    0.34
  -1   8 -23    0.35    0.31
   1  -8 -23    0.34    0.23
   8  -1 -23    0.05    0.27
  -2  -8 -22   -0.13    0.24
   2   8 -22    0.20    0.30
   8  -2  22   -0.19    0.26
  -2  -8 -22    0.50    0.34
   8   2 -22    0.59    0.33
  -8  -2 -22    0.08    0.27
   2   8 -20    0.79    0.32
  -8  -2 -20    1.12    0.36
   8  -2  20    0.93    0.27
   8   2 -20    0.97    0.34
  -2  -8 -20    0.98    0.35
  -2  -8 -20    1.16    0.31
  -2  -8 -18    3.25    0.44
   8  -2  18    2.20    0.38
  -2  -8 -18    2.36    0.47
   2   8 -18    2.16    0.43
  -8  -2 -18    2.48    0.41
   8   2 -18    1.72    0.37
   8   2 -18    2.00    0.38
   8  -2  16    2.78    0.40
  -8  -2 -16    2.24    0.38
   2   8 -16    2.61    0.41
  -8   2  16    2.65    0.25
  -2  -8 -16    2.83    0.38
   8   2 -16    3.62    0.48
  -2  -8 -16    2.90    0.43
   8   2 -16    3.02    0.43
   8   2 -14    4.86    0.49
   2   8 -14    5.80    0.55
  -2  -8 -14    4.81    0.30
   8  -2  14    4.90    0.48
   8   2 -14    4.97    0.30
  -2  -8 -14    4.37    0.49
   2  -8  14    4.84    0.53
  -2  -8 -14    4.64    0.43
  -8   2  14    4.62    0.33
  -8  -2 -14    4.46    0.46
   8   2 -14    6.21    0.57
   2   8 -14    5.08    0.51
  -2  -8 -12    9.83    0.57
   2  -8  12   10.66    0.71
  -2  -8 -12   10.57    0.41
  -2  -8 -12   10.32    0.69
   2   8 -12   10.52    0.67
   2   8 -12   10.61    0.71
   8   2 -12    9.69    0.66
   8   2 -12   11.10    0.71
  -8   2  12    9.95    0.51
   8   2 -12   10.79    0.39
   8  -2  12    9.52    0.62
   2   8 -10   15.31    0.76
  -2  -8 -10   14.47    0.78
   8  -2  10   14.67    0.75
  -8  -2 -10   13.46    0.61
   2   8 -10   14.43    0.77
   8  -2  10   14.29    0.52
  -2   8  10   15.65    0.45
   2  -8  10   16.57    0.83
   8   2 -10   13.53    0.38
  -2  -8 -10   15.73    0.65
   8   2 -10   15.15    0.78
   8   2 -10   15.31    0.78
   2   8  -8   31.55    1.10
   8  -2   8   31.56    0.95
  -8   2   8   31.02    1.07
   8   2  -8   30.72    1.11
  -2  -8  -8   28.94    1.13
  -8  -2  -8   34.81    0.98
   2  -8   8   32.34    1.19
  -2   8   8   33.29    0.91
  -2   8   8   33.09    1.15
  -2  -8  -8   31.59    0.95
   8  -2   8   31.49    1.14
   8   2  -8   31.06    1.14
   8  -2   8   32.89    1.07
  -2  -8  -8   31.86    0.96
  -2   8   8   30.08    1.03
   8   2  -8   30.04    1.15
  -2   8   6    5.68    0.41
   8  -2   6    5.67    0.35
  -8  -2  -6    5.94    0.30
   2  -8   6    5.80    0.42
  -8   2   6    5.99    0.25
   2   8  -6    5.70    0.31
   8   2  -6    6.35    0.41
  -8   2   6    5.68    0.35
   2   8  -6    5.21    0.36
  -2  -8  -6    6.11    0.35
  -2  -8  -6    6.10    0.28
  -2  -8  -6    5.38    0.33
  -2   8   6    5.88    0.35
   8  -2   6    5.39    0.40
  -2  -8  -6    5.92    0.43
   8   2  -6    5.55    0.42
  -2   8   6    6.10    0.33
   8  -2   6    5.89    0.41
  -8  -2  -4   76.61    1.74
  -2  -8  -4   77.15    2.02
   2   8  -4   74.44    1.97
   2  -8   4   72.93    1.97
  -8   2   4   72.38    1.70
  -2  -8  -4   77.34    1.81
  -2   8   4   73.69    1.90
  -2  -8  -4   74.66    1.94
   2   8  -4   73.75    1.76
   8   2  -4   76.79    2.04
   8  -2   4   75.48    1.99
   2   8  -4   74.30    1.84
  -2   8   4   73.18    1.84
  -8   2   4   78.27    1.81
   8   2  -4   73.43    1.90
   8  -2   4   77.93    1.86
   2   8  -2   36.39    0.92
  -2  -8  -2   34.46    1.13
   8  -2   2   36.18    1.13
   2  -8   2   38.89    1.10
  -2  -8  -2   35.52    1.14
  -2   8   2   35.96    1.02
  -2  -8  -2   37.25    1.16
   2   8  -2   36.54    1.13
   8   2  -2   35.56    1.15
   2   8  -2   37.43    1.06
  -8   2   2   36.32    0.90
   2   8  -2   35.64    0.90
  -2   8   2   36.47    1.14
   8   2  -2   35.73    1.04
  -2  -8  -2   37.29    0.94
   2   8   0    0.31    0.07
  -2  -8   0    0.35    0.15
   2  -8   0    0.30    0.12
   2   8   0    0.23    0.13
   8  -2   0    0.35    0.05
   2  -8   0    0.38    0.10
   8   2   0    0.26    0.07
   2   8   0    0.21    0.06
  -2   8   0    0.21    0.11
  -2   8   0    0.34    0.08
  -2  -8   0    0.27    0.06
   8   2   0    0.41    0.15
   8  -2   0    0.39    0.14
   2  -8  -2   34.95    0.85
   2   8   2   35.38    1.11
   2  -8  -2   34.36    1.11
   8   2   2   34.95    0.91
   2   8   2   37.02    1.14
   2   8   2   35.42    0.85
  -2   8  -2   36.95    1.07
   8   2   2   37.05    1.16
  -2   8  -2   37.83    1.12
  -8  -2   2   38.03    1.11
  -8  -2   2   35.74    0.88
   2  -8  -2   36.24    0.95
   8  -2  -2   34.53    1.12
  -2   8  -4   80.64    2.01
   2  -8  -4   77.31    2.05
  -2   8  -4   74.40    1.72
   8   2   4   75.85    2.05
   2   8   4   84.74    2.01
   8   2   4   75.99    2.01
   2  -8  -4   78.18    1.92
   2   8   4   76.15    2.03
  -2   8  -4   71.17    1.96
   8  -2  -4   75.91    2.04
  -8  -2   4   79.52    2.03
  -2   8  -4   76.76    2.01
  -8  -2   6    5.78    0.37
   2   8   6    5.50    0.28
   2  -8  -6    5.27    0.41
   2   8   6    4.89    0.40
   8   2   6    5.35    0.40
   2  -8  -6    5.45    0.37
   8   2   6    5.10    0.39
  -2   8  -6    5.09    0.37
   8  -2  -6    5.13    0.39
   2   8   8   31.73    1.17
   2   8   8   31.17    1.06
   2   8   8   31.86    0.96
  -8  -2   8   30.21    1.09
   2  -8  -8   30.87    1.16
   8   2   8   31.26    1.06
   2  -8  -8   31.77    1.02
   8   2   8   30.98    1.13
  -2   8  -8   29.57    1.09
   8  -2  -8   31.93    1.15
   2   8  10   15.10    0.67
   8   2  10   15.73    0.71
  -8  -2  10   15.00    0.71
  -2   8 -10   15.16    0.77
  -2   8 -10   15.20    0.76
   8  -2 -10   15.31    0.79
   8   2  10   15.93    0.79
   8  -2 -10   15.80    0.52
   2   8  10   15.63    0.82
   8  -2 -10   14.56    0.77
   2  -8 -10   14.18    0.79
   2  -8 -10   14.45    0.70
   8  -2 -12    9.76    0.42
   8   2  12    9.65    0.57
  -2   8 -12   10.95    0.67
  -2   8 -12   10.48    0.67
   2   8  12    9.40    0.51
  -8  -2  12    8.91    0.54
   8   2  12    9.54    0.66
   2  -8 -12   10.08    0.47
   2  -8 -12    9.04    0.58
   8  -2 -12   10.28    0.68
   8  -2 -12    9.80    0.66
   8  -2 -14    4.37    0.50
   8  -2 -14    4.28    0.49
  -8  -2  14    4.05    0.37
   8   2  14    4.74    0.42
  -2   8 -14    4.74    0.52
   2  -8 -14    4.56    0.34
   8  -2 -14    4.30    0.30
   2  -8 -14    4.62    0.45
  -8   2 -16    3.21    0.45
  -8  -2  16    2.15    0.28
  -2   8 -16    2.46    0.41
   8   2  16    2.59    0.35
   8  -2 -16    3.09    0.46
   2  -8 -16    2.94    0.41
  -8   2 -18    2.88    0.46
   8  -2 -18    3.69    0.51
   8   2  18    2.45    0.38
  -2   8 -18    2.77    0.46
   2  -8 -18    2.41    0.41
   2  -8 -20    0.84    0.31
  -8   2 -20    0.63    0.29
  -2   8 -20    0.66    0.31
   8   2  20    0.83    0.26
   8  -2 -20    0.50    0.35
  -8   2 -22    0.44    0.32
   8   2  22    0.01    0.19
   8  -2 -22    0.67    0.38
   2  -8 -22    0.55    0.31
  -2   8 -22   -0.55    0.37
   8   3 -23   -0.18    0.27
   8  -3  23    0.22    0.23
  -3  -8 -23    0.17    0.27
   3   8 -23   -0.08    0.31
  -3  -8 -23    0.18    0.29
  -8  -3 -23    0.19    0.29
   8   3 -23    0.07    0.32
   8   3 -21    0.20    0.28
  -3  -8 -21    0.46    0.27
   3   8 -21   -0.08    0.30
   8   3 -21    0.55    0.30
  -3  -8 -21   -0.17    0.31
  -8  -3 -21    0.00    0.23
   8  -3  21    0.36    0.25
   8   3 -19   -0.02    0.23
   8  -3  19    0.11    0.21
  -8  -3 -19    0.18    0.22
   3   8 -19    0.42    0.30
  -3  -8 -19    1.05    0.31
   8   3 -19    0.55    0.33
  -3  -8 -19    0.50    0.28
  -3  -8 -17    3.33    0.42
   8   3 -17    2.77    0.42
   8  -3  17    3.84    0.47
  -8  -3 -17    3.44    0.44
   3  -8  17    3.56    0.49
  -3  -8 -17    2.75    0.43
   3   8 -17    3.63    0.50
   8   3 -17    3.60    0.49
  -3  -8 -15    2.63    0.36
   8   3 -15    2.67    0.43
   8  -3  15    2.60    0.37
  -3  -8 -15    2.00    0.38
  -8   3  15    2.72    0.24
   3  -8  15    2.79    0.44
   3   8 -15    2.29    0.39
   8   3 -15    2.50    0.39
  -8  -3 -15    2.58    0.37
   3  -8  13    9.56    0.70
  -3  -8 -13    8.62    0.36
   8  -3  13    9.53    0.65
   8   3 -13    9.60    0.68
   3   8 -13    8.26    0.65
  -8   3  13    8.68    0.45
  -3  -8 -13    8.31    0.65
  -8  -3 -13    7.70    0.57
  -8  -3 -13    8.97    0.56
  -3  -8 -13    9.77    0.58
   8   3 -13    9.79    0.68
   3   8 -13    9.68    0.67
   8  -3  11    1.60    0.26
  -3  -8 -11    2.17    0.27
   3  -8  11    1.69    0.30
   8   3 -11    1.59    0.29
   3   8 -11    1.51    0.28
   8  -3  11    1.99    0.31
  -3   8  11    1.34    0.10
   8   3 -11    1.81    0.33
  -3  -8 -11    1.62    0.17
   3   8 -11    1.64    0.31
  -8  -3 -11    1.32    0.23
  -3  -8 -11    1.68    0.30
   8   3  -9   10.69    0.61
   3  -8   9    9.98    0.62
   8   3  -9    9.01    0.59
  -3  -8  -9    9.07    0.44
   8  -3   9    9.89    0.44
  -3   8   9    9.98    0.39
  -3  -8  -9    9.67    0.60
   8  -3   9    9.52    0.59
  -3   8   9   11.48    0.62
   3   8  -9    9.54    0.56
  -3  -8  -9    9.99    0.48
  -8  -3  -9    9.09    0.48
   8  -3   9   10.09    0.49
   8   3  -9    9.56    0.59
   8  -3   7   33.55    1.06
   3  -8   7   35.42    1.23
  -3   8   7   36.13    1.20
  -8   3   7   34.08    0.94
   8  -3   7   37.02    1.01
   8   3  -7   35.20    1.18
  -8   3   7   35.69    1.11
   8  -3   7   35.06    1.22
   8  -3   7   34.99    1.07
  -3  -8  -7   36.53    1.12
  -8  -3  -7   36.20    1.03
  -3  -8  -7   33.75    1.19
   8   3  -7   36.30    1.20
  -3  -8  -7   35.86    0.98
   8   3  -7   33.76    1.20
  -3  -8  -7   33.90    1.06
   3   8  -7   33.09    1.05
   3   8  -7   34.52    1.12
  -3   8   7   35.54    1.12
  -8  -3  -5   14.41    0.51
  -3  -8  -5   12.45    0.63
   3   8  -5   13.52    0.52
  -3  -8  -5   13.76    0.60
  -3   8   5   13.22    0.56
  -8   3   5   13.87    0.47
   3  -8   5   13.67    0.64
   3   8  -5   15.18    0.66
   8  -3   5   14.16    0.61
   8  -3   5   14.04    0.53
  -3  -8  -5   13.47    0.55
   8   3  -5   13.26    0.65
  -3   8   5   13.84    0.65
  -3  -8  -5   13.85    0.42
   8   3  -5   13.76    0.61
  -8   3   5   13.52    0.53
   3   8  -5   13.24    0.54
   8  -3   5   14.21    0.64
   8  -3   5   13.93    0.43
  -8  -3  -3    5.11    0.27
   3   8  -3    5.31    0.27
  -3   8   3    5.56    0.37
   3  -8   3    4.67    0.33
  -3  -8  -3    4.47    0.34
   3   8  -3    5.03    0.33
   8  -3   3    5.28    0.28
  -3   8   3    5.32    0.31
  -8   3   3    5.57    0.25
   8   3  -3    5.07    0.38
   3   8  -3    5.19    0.35
   8  -3   3    5.27    0.36
  -3  -8  -3    4.91    0.27
  -3  -8  -3    5.00    0.37
   3   8  -3    5.33    0.26
   8   3  -3    4.52    0.33
  -8   3   3    4.63    0.34
   3  -8   1   22.85    0.77
  -3  -8  -1   22.42    0.81
   3   8  -1   21.58    0.79
  -3   8   1   23.23    0.81
   8   3  -1   23.27    0.70
  -3  -8  -1   21.98    0.84
   8  -3   1   21.40    0.79
  -8   3   1   21.93    0.80
  -3  -8  -1   21.71    0.64
   3  -8   1   22.66    0.75
   3   8  -1   19.99    0.52
   3   8  -1   21.80    0.64
  -3  -8  -1   23.84    0.82
   8   3  -1   21.80    0.83
   3   8  -1   21.91    0.72
  -3   8   1   22.26    0.65
   3   8   1   21.92    0.66
   8   3   1   22.37    0.68
  -3   8  -1   24.41    0.82
  -8  -3   1   22.39    0.66
  -3   8  -1   21.50    0.60
  -3  -8   1   22.14    0.88
   3  -8  -1   22.09    0.72
  -3  -8   1   22.87    0.65
   3  -8  -1   22.88    0.80
   8   3   1   23.14    0.85
   8  -3  -1   22.61    0.81
  -8   3  -1   21.98    0.81
   3  -8  -1   22.31    0.57
   3   8   1   24.41    0.87
   8  -3  -1   22.27    0.61
   3   8   1   22.30    0.65
   3   8   1   22.53    0.83
  -3   8  -3    5.72    0.36
   3   8   3    5.30    0.38
   3  -8  -3    5.27    0.37
   8   3   3    5.20    0.38
  -8  -3   3    6.11    0.37
   3   8   3    5.84    0.38
  -3  -8   3    5.39    0.41
   3  -8  -3    5.83    0.30
   8   3   3    5.39    0.28
  -8   3  -3    4.81    0.34
  -8  -3   3    4.84    0.20
   3   8   3    4.96    0.19
   3  -8  -3    5.73    0.25
  -3   8  -3    5.99    0.41
  -3   8  -3    5.47    0.22
   8  -3  -3    5.29    0.36
  -8   3  -5   13.70    0.38
  -3   8  -5   14.56    0.61
   8  -3  -5   13.61    0.64
  -3   8  -5   14.54    0.67
   3  -8  -5   13.85    0.57
   3   8   5   13.27    0.65
   8   3   5   13.24    0.65
  -3   8  -5   13.33    0.46
   3  -8  -5   13.45    0.65
   8   3   5   12.88    0.65
  -3   8  -5   14.10    0.60
  -8  -3   5   14.03    0.62
   8   3   7   33.80    1.20
   3   8   7   35.62    1.24
  -3   8  -7   37.58    1.21
   3  -8  -7   35.41    1.15
   3  -8  -7   35.96    1.24
  -8  -3   7   33.36    1.19
  -3   8  -7   33.79    1.14
   8  -3  -7   35.36    1.20
   8   3   9    9.44    0.51
   8   3   9    9.44    0.59
   3   8   9   10.26    0.53
  -8  -3   9    9.10    0.55
  -8   3  -9    8.97    0.48
  -3   8  -9   10.10    0.58
   3  -8  -9    8.96    0.52
   3  -8  -9    9.83    0.62
   3   8   9    9.39    0.61
   8  -3  -9   10.07    0.60
   8  -3 -11    1.50    0.30
   3   8  11    1.43    0.32
   8   3  11    1.47    0.23
   3   8  11    1.27    0.20
   8  -3 -11    1.30    0.16
   3  -8 -11    1.59    0.27
  -8  -3  11    1.40    0.25
   8   3  11    1.83    0.33
  -3   8 -11    1.33    0.26
  -3   8 -11    1.65    0.29
   8  -3 -11    1.56    0.30
   3  -8 -11    1.57    0.31
  -8  -3  13    8.42    0.55
   3   8  13    8.86    0.48
   8   3  13    9.38    0.58
   8  -3 -13    8.29    0.44
   8   3  13    9.48    0.70
   8  -3 -13    8.33    0.66
   3  -8 -13    9.30    0.61
  -3   8 -13    9.19    0.66
   8  -3 -13    9.22    0.66
   8  -3 -15    3.08    0.45
   8   3  15    2.61    0.33
  -3   8 -15    2.81    0.43
  -8  -3  15    2.53    0.32
   3  -8 -15    2.36    0.36
  -3   8 -17    3.45    0.47
   8   3  17    3.16    0.39
  -8   3 -17    3.46    0.50
   8  -3 -17    4.25    0.53
   3  -8 -17    3.38    0.43
  -3   8 -19   -0.04    0.24
   8  -3 -19    0.22    0.30
  -8   3 -19    0.52    0.31
   8   3  19    0.46    0.22
   3  -8 -19    0.29    0.22
   8  -3 -21   -0.07    0.30
  -3   8 -21    0.26    0.25
   8   3  21   -0.22    0.24
   3  -8 -21    0.42    0.30
  -8   3 -21    0.62    0.35
  -8   3 -23   -0.29    0.33
   8  -3 -23    0.39    0.28
  -3   8 -23    0.40    0.33
   3  -8 -23   -0.48    0.26
   8   4 -22    0.78    0.31
  -4  -8 -22    0.37    0.24
  -4  -8 -22    0.46    0.30
  -8  -4 -22    1.09    0.34
   4   8 -22    0.91    0.37
   8  -4  22    0.51    0.26
   8   4 -22    0.46    0.34
   4   8 -20    0.19    0.29
   8   4 -20    0.59    0.31
   8  -4  20    0.10    0.23
  -8  -4 -20    0.14    0.20
  -4  -8 -20   -0.04    0.29
   8   4 -20   -0.01    0.25
  -4  -8 -20    0.17    0.24
   4   8 -18    2.89    0.44
  -4  -8 -18    2.11    0.36
  -4  -8 -18    2.01    0.41
  -8  -4 -18    1.87    0.35
   8  -4  18    2.03    0.37
   4  -8  18    1.68    0.39
   8   4 -18    2.35    0.44
   8   4 -18    1.70    0.39
  -4  -8 -16    0.04    0.19
   8  -4  16    0.07    0.18
  -8  -4 -16    0.11    0.21
  -4  -8 -16    0.75    0.29
  -8  -4 -16    0.50    0.25
   4   8 -16    0.30    0.25
   4  -8  16    0.22    0.25
   8   4 -16    0.57    0.28
   8   4 -16    0.61    0.28
   8   4 -14    0.70    0.25
   4   8 -14    0.88    0.29
   8  -4  14    0.99    0.27
  -4  -8 -14    0.81    0.13
  -4  -8 -14    0.71    0.28
  -8  -4 -14    1.11    0.27
   4   8 -14    1.27    0.34
   4  -8  14    0.80    0.29
  -8  -4 -14    1.05    0.28
  -4  -8 -14    1.25    0.27
   8   4 -14    0.87    0.31
  -8   4  14    0.89    0.15
   4  -8  12   10.99    0.73
   4   8 -12   11.91    0.76
  -4  -8 -12   10.63    0.47
   4   8 -12   10.85    0.70
  -8  -4 -12   10.67    0.63
   8   4 -12   11.40    0.71
  -8  -4 -12   11.11    0.61
  -4  -8 -12   11.09    0.70
   8  -4  12   10.71    0.69
   8   4 -12   10.93    0.70
  -4  -8 -12   10.69    0.59
   4   8 -10    2.56    0.30
   8   4 -10    2.10    0.32
  -4  -8 -10    2.19    0.25
   4   8 -10    2.53    0.32
  -4  -8 -10    2.19    0.33
   8  -4  10    2.36    0.26
   8  -4  10    2.76    0.34
   4  -8  10    2.49    0.34
   8   4 -10    2.23    0.34
   4   8 -10    2.28    0.35
  -4   8  10    2.24    0.31
  -4  -8 -10    2.43    0.23
  -8  -4 -10    2.36    0.27
   8   4 -10    2.28    0.33
  -4   8   8    5.52    0.42
   8  -4   8    5.13    0.33
   4  -8   8    5.89    0.46
  -8   4   8    5.78    0.32
   8   4  -8    6.22    0.47
   8   4  -8    4.89    0.41
  -4  -8  -8    4.90    0.41
  -4  -8  -8    5.59    0.32
   8  -4   8    5.55    0.32
   8  -4   8    4.72    0.42
   8   4  -8    4.94    0.19
   8   4  -8    6.01    0.46
   4   8  -8    4.72    0.37
   4   8  -8    5.29    0.36
  -8  -4  -8    5.20    0.35
  -4  -8  -8    5.28    0.35
   8  -4   6    1.17    0.13
  -4  -8  -6    1.25    0.23
   8  -4   6    0.91    0.21
   8  -4   6    1.15    0.18
  -4  -8  -6    1.03    0.18
  -8   4   6    1.06    0.15
  -4   8   6    0.98    0.19
   8  -4   6    1.05    0.15
  -8  -4  -6    1.03    0.16
   8   4  -6    0.78    0.18
  -4  -8  -6    1.39    0.19
   4  -8   6    1.16    0.22
   4   8  -6    0.72    0.14
   8   4  -6    1.06    0.22
  -4   8   6    0.84    0.16
   4   8  -6    1.03    0.16
  -4  -8  -6    1.44    0.14
  -8   4   4    2.39    0.20
  -8  -4  -4    2.68    0.21
   8   4  -4    2.64    0.27
  -4  -8  -4    2.24    0.11
  -4  -8  -4    2.54    0.28
   4  -8   4    2.82    0.28
   4   8  -4    2.29    0.19
  -4  -8  -4    2.74    0.28
  -4  -8  -4    2.64    0.22
   8  -4   4    2.66    0.28
   4   8  -4    2.95    0.22
   8  -4   4    2.57    0.18
   8  -4   4    2.25    0.25
   4   8  -4    2.79    0.26
   4   8  -4    2.96    0.27
  -4   8   4    2.56    0.24
   8   4  -4    2.59    0.28
  -4   8   4    2.82    0.28
  -4  -8  -2   15.88    0.68
   4  -8   2   15.73    0.65
   4   8  -2   16.12    0.66
  -8   4   2   16.52    0.67
   8   4  -2   15.70    0.65
  -8   4   2   16.28    0.47
  -4   8   2   16.12    0.69
  -8  -4  -2   15.89    0.63
  -4   8   2   17.21    0.68
   8   4  -2   15.11    0.68
   4   8  -2   15.90    0.47
   4   8  -2   16.08    0.56
   8  -4   2   15.48    0.65
   8  -4   2   17.09    0.51
  -4  -8  -2   14.91    0.69
  -4  -8  -2   17.27    0.58
  -8  -4   0    0.81    0.13
   4  -8   0    0.69    0.14
   8   4   0    0.79    0.13
   4   8   0    0.93    0.17
   8  -4   0    0.76    0.08
   4  -8   0    1.06    0.16
  -4   8   0    1.03    0.17
  -4  -8   0    0.98    0.16
   4   8   0    0.86    0.13
   4  -8   0    0.96    0.10
   8  -4   0    1.01    0.18
   8   4   0    0.71    0.17
  -4  -8   0    0.88    0.20
  -4  -8   0    0.87    0.12
  -8   4   0    0.80    0.16
   4  -8  -2   15.47    0.65
  -4   8  -2   16.45    0.64
   4   8   2   16.29    0.70
   8   4   2   15.39    0.56
   8  -4  -2   15.57    0.65
   8  -4  -2   15.94    0.54
   4   8   2   16.04    0.57
  -4  -8   2   14.71    0.72
   8   4   2   14.43    0.67
  -8  -4   2   17.47    0.64
  -8  -4   2   15.70    0.50
  -8   4  -2   15.71    0.65
   4  -8  -2   16.64    0.50
  -4   8  -2   15.29    0.47
  -4  -8   2   16.24    0.56
  -4   8  -4    2.80    0.25
  -8   4  -4    2.71    0.13
  -4   8  -4    2.38    0.17
   4  -8  -4    2.64    0.22
  -4  -8   4    2.32    0.30
  -4  -8   4    2.23    0.19
  -8   4  -4    2.37    0.24
   4  -8  -4    2.67    0.31
   4   8   4    2.21    0.28
   8   4   4    2.63    0.28
  -8  -4   4    2.43    0.31
  -8  -4   4    2.18    0.23
   4  -8  -4    2.64    0.28
  -4   8  -4    2.16    0.22
   4  -8  -4    2.29    0.19
   8  -4  -4    2.67    0.27
   8   4   4    2.58    0.22
   4  -8  -6    1.13    0.22
  -4   8  -6    1.24    0.19
  -4   8  -6    0.80    0.16
  -4  -8   6    0.99    0.17
  -4   8  -6    0.99    0.13
   4   8   6    1.05    0.23
   4  -8  -6    1.16    0.19
  -4  -8   6    1.10    0.25
   4  -8  -6    1.08    0.24
   8   4   6    0.80    0.20
   8   4   6    1.06    0.21
   8  -4  -6    1.05    0.23
  -8  -4   6    0.87    0.22
   4  -8  -8    5.24    0.45
   8   4   8    5.10    0.36
   8   4   8    5.56    0.46
  -4  -8   8    6.08    0.40
   4  -8  -8    5.26    0.44
  -4   8  -8    6.12    0.42
  -8  -4   8    5.65    0.44
   4   8   8    5.90    0.48
  -4   8  -8    5.62    0.40
  -4   8  -8    5.89    0.36
   4  -8  -8    6.03    0.43
   8  -4  -8    6.59    0.46
  -8  -4  10    2.28    0.31
   4  -8 -10    1.89    0.27
  -8   4 -10    2.07    0.24
   4  -8 -10    2.37    0.34
   8  -4 -10    2.90    0.35
   8   4  10    2.34    0.35
   4   8  10    2.49    0.35
  -4   8 -10    2.03    0.29
  -4   8 -10    2.24    0.26
   4  -8 -10    1.79    0.27
   8   4  10    1.88    0.24
   4   8  12    9.82    0.69
  -4   8 -12   10.35    0.56
  -8  -4  12   10.15    0.62
   8   4  12   11.19    0.60
   8   4  12   11.01    0.72
   8  -4 -12    9.66    0.48
  -4   8 -12   11.37    0.71
   4  -8 -12   10.32    0.64
   8  -4 -12   10.55    0.71
   4  -8 -12   11.28    0.66
   4   8  12   10.19    0.52
   8  -4 -12   10.72    0.69
   8  -4 -14    1.09    0.30
   8   4  14    0.80    0.22
   4  -8 -14    0.34    0.22
   8   4  14    1.22    0.33
   4  -8 -14    0.53    0.19
  -4   8 -14    0.61    0.15
  -4   8 -14    0.82    0.30
   8  -4 -14    1.20    0.33
  -8  -4  14    0.80    0.25
   8  -4 -16   -0.19    0.29
  -8  -4  16   -0.03    0.18
   8   4  16    0.19    0.14
  -8   4 -16    0.42    0.26
   4  -8 -16    0.25    0.26
  -4   8 -16    0.46    0.26
   4  -8 -16    0.12    0.18
   8   4  18    1.63    0.29
  -4   8 -18    2.32    0.42
  -8   4 -18    2.05    0.42
   8  -4 -18    2.20    0.44
   4  -8 -18    2.12    0.39
  -4   8 -20   -0.41    0.35
   8  -4 -20    0.15    0.22
   4  -8 -20    0.20    0.25
   8   4  20    0.23    0.19
  -8   4 -20   -0.09    0.25
   8  -4 -20    0.66    0.31
  -8   4 -22    0.84    0.39
  -4   8 -22   -0.04    0.26
   8  -4 -22    0.60    0.33
   4  -8 -22    0.51    0.29
  -5  -8 -23   -0.08    0.25
  -8  -5 -23    0.30    0.28
   8  -5  23    0.25    0.26
   8   5 -23    0.20    0.27
  -5  -8 -23   -0.22    0.31
  -8  -5 -23    0.90    0.34
   5   8 -23   -0.06    0.32
   8   5 -23    0.14    0.27
   8   5 -21    0.30    0.25
   5   8 -21    0.41    0.34
  -5  -8 -21   -0.24    0.27
  -8  -5 -21    0.12    0.30
  -5  -8 -21    0.64    0.31
   8   5 -21    0.49    0.36
  -8  -5 -21   -0.01    0.23
   8  -5  21   -0.33    0.31
   8   5 -19    0.00    0.27
   5   8 -19    0.00    0.26
  -8  -5 -19   -0.30    0.23
  -8  -5 -19    0.01    0.24
   5  -8  19    0.08    0.24
  -5  -8 -19    0.49    0.27
   8  -5  19    0.02    0.22
   8   5 -19    0.08    0.22
  -5  -8 -19    0.12    0.24
   8   5 -17    4.29    0.50
   5   8 -17    4.89    0.57
   8  -5  17    3.95    0.49
  -5  -8 -17    3.71    0.43
  -8  -5 -17    3.34    0.43
   5  -8  17    3.79    0.51
  -5  -8 -17    5.31    0.58
  -8  -5 -17    4.06    0.46
   8   5 -17    4.26    0.55
  -5  -8 -15    0.26    0.25
  -5  -8 -15    0.21    0.20
   5   8 -15    0.31    0.24
  -8  -5 -15    0.44    0.21
   8  -5  15    0.13    0.20
   5   8 -15    0.55    0.31
  -8  -5 -15    0.45    0.23
   5  -8  15    0.63    0.25
  -8   5  15    0.49    0.11
  -5  -8 -15    0.22    0.10
   8   5 -15    0.63    0.29
   8   5 -15    0.86    0.28
  -8  -5 -13    5.24    0.46
   5   8 -13    5.07    0.50
  -8  -5 -13    5.57    0.48
   8  -5  13    4.64    0.47
   5  -8  13    4.92    0.50
   8   5 -13    6.92    0.57
   5   8 -13    6.04    0.58
  -5  -8 -13    4.86    0.48
  -5  -8 -13    5.02    0.34
   8   5 -13    4.92    0.49
   5   8 -13    5.72    0.48
  -5  -8 -13    5.18    0.43
   5   8 -11    2.70    0.32
   5   8 -11    2.46    0.34
  -5  -8 -11    2.93    0.38
   8   5 -11    1.81    0.31
   5   8 -11    2.75    0.38
   5  -8  11    2.81    0.37
   8   5 -11    2.80    0.38
  -5  -8 -11    2.79    0.27
  -8  -5 -11    2.36    0.30
  -5  -8 -11    2.52    0.28
  -8  -5 -11    2.65    0.31
   8  -5  11    2.64    0.29
   8  -5  11    2.06    0.32
   8   5 -11    2.49    0.36
  -5   8   9    1.39    0.26
   8  -5   9    1.21    0.18
   8   5  -9    1.05    0.11
  -8   5   9    1.03    0.17
  -5  -8  -9    1.15    0.25
   8   5  -9    1.33    0.29
   8   5  -9    1.11    0.24
   5   8  -9    1.12    0.23
  -5  -8  -9    1.44    0.22
  -5  -8  -9    1.28    0.19
   5   8  -9    1.25    0.29
   8  -5   9    0.92    0.23
  -8  -5  -9    1.11    0.21
   8   5  -9    1.00    0.23
   5   8  -9    1.26    0.22
   5  -8   9    1.29    0.26
  -5  -8  -7   14.24    0.52
  -5   8   7   14.89    0.67
  -8   5   7   12.92    0.54
  -8  -5  -7   13.50    0.59
  -5  -8  -7   12.26    0.65
   5   8  -7   13.70    0.61
   8  -5   7   12.41    0.49
   8  -5   7   12.83    0.69
   8  -5   7   13.41    0.61
  -5  -8  -7   13.25    0.63
   8   5  -7   13.43    0.67
   8   5  -7   14.36    0.71
   8   5  -7   13.25    0.65
   5   8  -7   13.77    0.61
   5  -8   7   13.23    0.70
   8   5  -7   12.88    0.42
  -5  -8  -5    0.23    0.15
   8   5  -5    0.30    0.15
   8   5  -5   -0.04    0.16
  -5   8   5    0.02    0.12
  -8  -5  -5    0.09    0.12
  -5  -8  -5    0.08    0.15
   8   5  -5    0.19    0.07
   8  -5   5    0.31    0.15
   5   8  -5    0.34    0.13
   5   8  -5    0.15    0.11
   8  -5   5   -0.11    0.14
  -5  -8  -5    0.07    0.11
   5  -8   5    0.03    0.14
  -5  -8  -5    0.11    0.07
  -8   5   5    0.09    0.09
   8  -5   5    0.19    0.16
   5   8  -5    0.09    0.10
  -5  -8  -3    3.89    0.33
  -5  -8  -3    4.33    0.29
   8   5  -3    4.02    0.34
   8  -5   3    4.06    0.35
   5   8  -3    3.96    0.28
   8  -5   3    4.03    0.19
  -8  -5  -3    4.30    0.33
   5  -8   3    3.43    0.31
  -5  -8  -3    4.04    0.36
   8  -5   3    4.08    0.31
  -8  -5  -3    4.18    0.28
   8   5  -3    4.09    0.34
  -5   8   3    5.04    0.36
   5   8  -3    4.01    0.23
   5   8  -3    4.23    0.31
  -8   5   3    4.13    0.31
   8  -5   1    8.16    0.30
   5  -8   1    7.98    0.41
   8   5  -1    8.44    0.42
  -8  -5  -1    8.22    0.42
  -5   8   1    8.43    0.45
  -5  -8  -1    7.80    0.50
   5  -8   1    7.66    0.44
   5   8  -1    8.27    0.39
   8  -5   1    8.12    0.52
   5  -8   1    8.45    0.33
  -5  -8  -1    8.15    0.45
   8  -5   1    7.76    0.42
   5   8  -1    7.38    0.44
   8   5  -1    7.87    0.47
  -5  -8  -1    8.86    0.40
  -8   5   1    7.89    0.43
  -5  -8  -1    7.70    0.46
   5  -8  -1    7.95    0.51
   8   5   1    7.74    0.40
   8  -5  -1    7.56    0.33
   5   8   1    8.37    0.48
  -5   8  -1    8.04    0.42
   5  -8  -1    8.24    0.34
   8  -5  -1    8.28    0.44
   5   8   1    7.47    0.38
   8  -5  -1    6.74    0.49
  -8   5  -1    7.59    0.42
   5  -8  -1    7.36    0.41
   8   5   1    7.39    0.45
  -8  -5   1    8.63    0.38
  -8  -5   1    8.34    0.40
  -5  -8   1    7.59    0.51
  -5  -8   1    7.82    0.28
  -5   8  -1    7.66    0.32
  -5  -8   1    7.98    0.38
   8   5   3    3.99    0.34
  -5   8  -3    4.64    0.31
   5  -8  -3    4.42    0.25
  -5  -8   3    3.88    0.37
   8   5   3    3.98    0.28
  -5  -8   3    4.25    0.24
  -5   8  -3    3.74    0.26
  -8  -5   3    4.38    0.39
   5  -8  -3    3.85    0.25
   5  -8  -3    4.26    0.39
   5   8   3    4.23    0.36
  -8   5  -3    4.26    0.20
   5  -8  -3    3.63    0.30
  -8  -5   3    4.28    0.30
  -8   5  -3    3.85    0.30
  -5   8  -3    4.18    0.23
   8  -5  -3    4.61    0.34
   8  -5  -3    3.87    0.27
  -5  -8   3    4.05    0.27
  -8  -5   5    0.14    0.12
  -5   8  -5    0.05    0.04
  -5   8  -5    0.10    0.11
  -5  -8   5    0.16    0.09
   5  -8  -5    0.02    0.17
  -8  -5   5    0.14    0.17
   5   8   5    0.19    0.18
  -5   8  -5    0.14    0.09
   8   5   5    0.44    0.20
   8   5   5    0.31    0.17
   5  -8  -5    0.09    0.09
  -8   5  -5    0.11    0.06
  -5   8  -5    0.17    0.08
   8   5   5    0.08    0.12
  -5  -8   5   -0.06    0.17
   5  -8  -5    0.30    0.17
   8  -5  -5    0.15    0.14
   5  -8  -5    0.05    0.10
  -5   8  -7   13.43    0.59
   5  -8  -7   13.93    0.73
   5  -8  -7   13.81    0.70
   5  -8  -7   14.18    0.64
  -5  -8   7   13.24    0.61
   5   8   7   12.61    0.70
  -5   8  -7   12.54    0.59
  -8  -5   7   12.00    0.67
  -5   8  -7   13.16    0.55
   5   8   7   13.19    0.41
   8   5   7   12.80    0.70
   8  -5  -7   14.67    0.69
  -5  -8   7   11.91    0.69
   5  -8  -7   13.08    0.59
   8   5   9    0.98    0.17
   5  -8  -9    1.22    0.27
  -5   8  -9    1.48    0.26
   5   8   9    1.16    0.12
   8  -5  -9    1.03    0.24
   5  -8  -9    1.00    0.25
  -5  -8   9    1.36    0.27
   8   5   9    1.14    0.26
   5   8   9    1.68    0.33
  -8   5  -9    1.14    0.18
  -8  -5   9    1.76    0.29
  -5   8  -9    1.25    0.20
   8  -5 -11    3.07    0.38
  -5   8 -11    2.23    0.27
   8   5  11    2.46    0.26
   5  -8 -11    1.85    0.34
  -5   8 -11    2.35    0.26
   5   8  11    1.92    0.35
   5   8  11    2.57    0.20
  -8  -5  11    2.90    0.36
   5  -8 -11    3.56    0.39
   8   5  11    2.58    0.38
   5  -8 -13    5.22    0.47
   8  -5 -13    5.77    0.55
  -8  -5  13    5.46    0.48
   8  -5 -13    5.95    0.54
   8   5  13    5.36    0.41
   5  -8 -13    5.47    0.50
  -5   8 -13    5.11    0.39
   8   5  13    5.54    0.57
   5   8  13    5.77    0.59
   5   8  13    5.34    0.36
   8  -5 -15    0.40    0.26
   8   5  15    0.30    0.16
   8  -5 -15    0.34    0.29
  -8  -5  15    0.17    0.19
  -5   8 -15    0.76    0.30
   8  -5 -15    0.56    0.26
   8   5  15    0.00    0.25
   5  -8 -15    0.77    0.25
   5  -8 -15    0.49    0.24
  -5   8 -17    3.41    0.48
   5  -8 -17    4.31    0.44
   8  -5 -17    3.78    0.45
  -8   5 -17    5.37    0.58
   5  -8 -17    4.04    0.50
   8  -5 -17    3.47    0.49
   8   5  17    3.66    0.40
   5  -8 -19    0.23    0.19
  -8   5 -19   -0.11    0.27
  -5   8 -19    0.16    0.25
   5  -8 -19    0.32    0.26
   8   5  19    0.20    0.15
   8  -5 -19   -0.61    0.32
   8  -5 -19   -0.22    0.23
  -8   5 -21   -0.07    0.27
   8  -5 -21    0.14    0.23
  -5   8 -21   -0.11    0.26
   5  -8 -21    0.05    0.27
   8  -5 -21   -0.07    0.22
   5  -8 -23   -0.33    0.32
  -5   8 -23    0.29    0.35
  -8   5 -23   -0.01    0.27
   8  -5 -23    0.44    0.35
   8   6 -22    0.64    0.32
   8  -6  22    0.78    0.30
  -8  -6 -22    0.82    0.31
   6   8 -22    1.60    0.44
   6  -8  22    0.69    0.32
   8   6 -22    1.14    0.38
  -8  -6 -22    1.27    0.36
  -6  -8 -22    1.20    0.40
  -6  -8 -22    0.69    0.28
   8   6 -20    0.59    0.29
   6   8 -20    0.08    0.20
   6   8 -20    0.48    0.29
   8  -6  20    0.45    0.26
   6  -8  20    0.74    0.32
  -6  -8 -20    0.63    0.26
   8   6 -20    1.00    0.38
  -8  -6 -20    0.64    0.29
  -8  -6 -20    0.71    0.28
  -6  -8 -20    0.89    0.30
   8   6 -18    1.29    0.34
   6   8 -18    1.63    0.38
   6  -8  18    1.47    0.36
   6   8 -18    1.06    0.29
  -8  -6 -18    0.85    0.27
  -8  -6 -18    1.43    0.33
  -6  -8 -18    1.16    0.31
  -6  -8 -18    1.68    0.33
   8  -6  18    0.81    0.29
   8   6 -18    1.46    0.38
   6   8 -16    1.42    0.30
   6   8 -16    0.84    0.30
  -6  -8 -16    1.54    0.33
   6  -8  16    1.43    0.33
   8   6 -16    1.18    0.31
  -8  -6 -16    1.24    0.30
  -8  -6 -16    1.38    0.29
  -6  -8 -16    1.14    0.25
   8  -6  16    1.17    0.29
   8   6 -16    1.30    0.33
   6   8 -14    1.89    0.33
   6   8 -14    2.26    0.37
  -8  -6 -14    2.09    0.33
   6  -8  14    2.32    0.38
   8  -6  14    2.67    0.40
   6   8 -14    2.43    0.41
  -6  -8 -14    2.17    0.24
  -6  -8 -14    2.48    0.33
   8   6 -14    1.98    0.35
  -6  -8 -14    2.09    0.34
   8   6 -14    1.80    0.35
  -8  -6 -14    2.17    0.32
  -6  -8 -12    9.90    0.57
  -8  -6 -12    9.66    0.60
  -6  -8 -12    8.71    0.63
  -8  -6 -12    9.76    0.61
   8  -6  12   10.29    0.70
   8   6 -12    9.55    0.66
  -6  -8 -12   10.05    0.53
   6  -8  12   10.84    0.74
   8   6 -12   10.95    0.70
   6   8 -12   10.65    0.68
   6   8 -12   10.59    0.74
   8   6 -12   10.41    0.73
   6   8 -12   10.24    0.64
  -6  -8 -10    3.33    0.31
  -6   8  10    3.54    0.36
  -8   6  10    3.56    0.32
   6   8 -10    2.73    0.34
  -8  -6 -10    3.55    0.35
  -6  -8 -10    3.38    0.32
   8   6 -10    3.50    0.23
  -8  -6 -10    2.89    0.30
   8  -6  10    3.00    0.28
   8   6 -10    2.99    0.40
   6   8 -10    3.77    0.43
   6  -8  10    3.48    0.40
   8   6 -10    3.38    0.37
  -6  -8 -10    3.07    0.37
   8  -6  10    2.75    0.36
   8   6 -10    3.71    0.39
   6   8 -10    3.21    0.34
  -6   8   8    9.75    0.56
  -8   6   8    9.76    0.50
  -6  -8  -8    9.84    0.46
  -8  -6  -8   10.55    0.55
  -6  -8  -8    9.37    0.57
   8   6  -8    9.76    0.39
   8  -6   8    8.77    0.59
   6  -8   8    9.29    0.60
  -6  -8  -8    9.18    0.54
   8   6  -8    9.42    0.59
   8   6  -8    9.70    0.61
   8  -6   8    9.99    0.45
   8   6  -8   10.39    0.58
   6   8  -8    9.72    0.63
   6   8  -8    8.93    0.52
   6   8  -8    8.76    0.52
   8   6  -6    2.34    0.18
  -6  -8  -6    2.76    0.20
   8   6  -6    2.76    0.32
  -8  -6  -6    2.38    0.26
   8  -6   6    2.56    0.28
  -8   6   6    2.32    0.24
   8  -6   6    2.25    0.29
  -6  -8  -6    2.53    0.28
   6   8  -6    2.64    0.24
   8   6  -6    2.40    0.26
  -6  -8  -6    2.61    0.29
   8   6  -6    2.63    0.30
   6   8  -6    2.59    0.27
  -6   8   6    2.81    0.30
   6  -8   6    2.39    0.30
   6   8  -6    2.57    0.25
  -8  -6  -4    2.81    0.26
  -6  -8  -4    2.54    0.28
  -6  -8  -4    2.58    0.16
   6  -8   4    2.42    0.29
  -8   6   4    2.63    0.24
   8  -6   4    2.36    0.28
  -6  -8  -4    2.87    0.31
   8  -6   4    2.39    0.26
  -6  -8  -4    2.36    0.24
   6   8  -4    2.54    0.21
   8  -6   4    2.25    0.29
  -6   8   4    2.58    0.27
   6   8  -4    2.47    0.25
   8   6  -4    2.77    0.29
   8   6  -4    2.99    0.21
   8   6  -4    2.44    0.29
   6   8  -4    2.60    0.24
   8   6  -2   29.37    0.99
   6  -8   2   30.38    1.05
   8   6  -2   31.31    1.05
   8  -6   2   30.00    1.10
   6   8  -2   30.46    0.96
  -6  -8  -2   32.29    1.13
   8  -6   2   29.69    0.97
  -6   8   2   31.22    1.06
  -6  -8  -2   29.54    1.02
   6  -8   2   29.77    0.87
  -6  -8  -2   28.82    0.72
   6   8  -2   30.11    0.99
  -6  -8  -2   31.45    0.97
  -8  -6  -2   30.47    1.00
  -8   6   2   29.65    0.98
   8  -6   0    0.31    0.19
  -6  -8   0    0.08    0.05
  -8  -6   0    0.14    0.10
   6  -8   0    0.06    0.09
   6   8   0   -0.02    0.10
  -6  -8   0    0.16    0.12
   8   6   0   -0.01    0.09
   6  -8   0    0.41    0.19
   6   8   0    0.10    0.14
  -6  -8   0   -0.04    0.19
  -8  -6   0   -0.16    0.18
  -6   8   0    0.14    0.12
   6  -8   0    0.13    0.09
   8   6   0    0.46    0.16
   8  -6   0    0.13    0.11
  -8  -6   0    0.05    0.08
  -6  -8   0   -0.14    0.10
  -8   6   0    0.11    0.10
   8  -6   0    0.04    0.07
  -6   8   0   -0.04    0.08
  -8   6  -2   30.00    1.00
  -6  -8   2   32.30    0.86
  -8   6  -2   29.17    0.74
  -8  -6   2   29.29    0.90
   6  -8  -2   30.51    1.00
   8   6   2   31.17    1.00
   8  -6  -2   30.67    0.92
   8  -6  -2   31.82    1.19
  -6   8  -2   30.71    0.89
   6   8   2   29.94    1.06
  -8  -6   2   30.04    1.16
   6  -8  -2   32.41    0.81
   6  -8  -2   31.82    0.92
  -6  -8   2   30.43    1.14
   8   6   2   32.29    1.08
   6   8   2   31.57    1.01
  -8  -6   2   32.17    0.96
  -8   6  -2   33.00    0.87
   8  -6  -2   30.40    1.00
   6  -8  -2   30.29    1.16
  -6  -8   2   32.39    0.99
  -6   8  -2   33.02    0.99
  -6  -8   4    2.32    0.23
  -6   8  -4    2.07    0.20
  -6  -8   4    2.61    0.22
  -8   6  -4    2.54    0.18
  -8   6  -4    2.44    0.24
  -6   8  -4    2.18    0.22
   6  -8  -4    2.66    0.35
   8  -6  -4    2.90    0.36
  -6  -8   4    1.75    0.27
   6  -8  -4    2.49    0.26
   8  -6  -4    2.66    0.25
  -8  -6   4    2.05    0.29
   8  -6  -4    2.53    0.26
   6  -8  -4    2.25    0.22
   8   6   4    2.16    0.27
   8   6   4    2.53    0.24
  -6   8  -4    2.48    0.21
   6  -8  -4    1.81    0.18
  -8  -6   4    2.68    0.25
   6   8   4    2.12    0.30
  -8   6  -6    2.94    0.21
  -6   8  -6    2.41    0.23
   6  -8  -6    2.41    0.29
   6   8   6    2.14    0.31
  -6   8  -6    2.25    0.22
  -6  -8   6    2.23    0.24
  -6   8  -6    2.16    0.13
   8  -6  -6    2.58    0.29
  -6   8  -6    2.58    0.25
   8  -6  -6    2.91    0.38
  -6  -8   6    2.27    0.33
   6  -8  -6    2.43    0.25
  -8  -6   6    2.44    0.25
   6  -8  -6    2.77    0.35
   8   6   6    2.58    0.33
  -8  -6   6    2.99    0.36
   8  -6  -6    2.35    0.28
   6  -8  -6    2.45    0.25
  -6   8  -8    8.97    0.39
   6  -8  -8    8.57    0.58
   6   8   8    8.87    0.36
   6  -8  -8    9.40    0.62
   8   6   8    9.69    0.47
  -6  -8   8    9.44    0.62
   8   6   8    8.47    0.60
   6  -8  -8    9.76    0.54
   8  -6  -8    8.86    0.62
  -6   8  -8    9.72    0.52
  -6   8  -8    9.04    0.48
  -8  -6   8    8.31    0.57
   8  -6  -8    9.57    0.57
   6   8   8    9.35    0.64
   6  -8  -8    9.07    0.52
  -6  -8   8    9.46    0.54
   8  -6 -10    3.08    0.40
   6   8  10    3.74    0.44
   6  -8 -10    3.40    0.41
  -8  -6  10    2.64    0.35
  -6   8 -10    2.98    0.27
  -6  -8  10    3.11    0.39
   6   8  10    3.41    0.23
   8   6  10    3.25    0.28
  -8   6 -10    3.04    0.27
   8   6  10    4.07    0.46
   6  -8 -10    3.31    0.39
   8  -6 -10    2.85    0.35
   6  -8 -12   10.49    0.69
   8   6  12   10.94    0.76
   6   8  12   11.02    0.76
   6   8  12   10.73    0.48
   8  -6 -12   10.78    0.72
  -8  -6  12    9.90    0.66
   8   6  12   10.68    0.56
   8  -6 -12   10.29    0.70
   8  -6 -14    2.48    0.38
   8   6  14    2.51    0.41
   6  -8 -14    2.50    0.37
   8   6  14    2.63    0.29
   6  -8 -14    1.85    0.32
   8  -6 -14    2.66    0.39
   8  -6 -14    2.29    0.39
  -8  -6  14    1.82    0.32
   6   8  14    2.39    0.42
  -6   8 -16    1.01    0.29
   8  -6 -16    1.38    0.29
   6  -8 -16    1.43    0.30
   6  -8 -16    1.19    0.31
   8   6  16    1.54    0.26
   8  -6 -16    1.65    0.34
  -8   6 -18    1.37    0.37
   6  -8 -18    1.61    0.35
  -6   8 -18    0.93    0.34
   8  -6 -18    1.14    0.30
   8   6  18    1.52    0.27
   8  -6 -18    1.51    0.37
   6  -8 -18    1.44    0.31
   6  -8 -20    0.52    0.28
  -6   8 -20    0.26    0.27
   6  -8 -20    0.69    0.25
   8  -6 -20    0.58    0.25
  -8   6 -20    0.61    0.33
   8  -6 -20    0.83    0.34
  -6   8 -22    0.68    0.36
   6  -8 -22    1.44    0.42
  -8   6 -22    1.11    0.36
   8  -6 -22    0.25    0.30
   8   7 -21    0.31    0.21
   7   8 -21    0.10    0.23
   7  -8  21   -0.05    0.24
  -7  -8 -21   -0.14    0.22
  -8  -7 -21   -0.01    0.22
   7   8 -21    0.32    0.29
  -8  -7 -21    0.31    0.24
  -7  -8 -21    0.06    0.23
   8  -7  21   -0.19    0.25
   8   7 -21   -0.11    0.33
   8   7 -19    4.12    0.52
  -7  -8 -19    4.71    0.56
  -7  -8 -19    2.50    0.40
   7   8 -19    4.41    0.53
  -8  -7 -19    3.80    0.47
  -8  -7 -19    4.15    0.51
   7  -8  19    3.78    0.53
   8  -7  19    3.93    0.53
   7   8 -19    3.85    0.55
   8   7 -19    3.62    0.52
   8   7 -17    5.38    0.56
   8  -7  17    5.95    0.63
  -8  -7 -17    5.35    0.54
  -7  -8 -17    4.64    0.49
   7  -8  17    5.57    0.62
  -7  -8 -17    5.69    0.57
  -8  -7 -17    5.04    0.50
   7   8 -17    6.01    0.58
   7   8 -17    5.82    0.61
   8   7 -17    6.15    0.64
  -8  -7 -15    1.70    0.33
   7  -8  15    1.25    0.32
   7   8 -15    1.28    0.34
   7   8 -15    1.89    0.33
   8  -7  15    1.52    0.31
  -7  -8 -15    1.72    0.23
  -8  -7 -15    1.66    0.30
   7   8 -15    1.57    0.34
  -7  -8 -15    1.56    0.28
  -7  -8 -15    1.29    0.31
   8   7 -15    1.83    0.36
   8   7 -15    1.86    0.34
   8  -7  13   13.47    0.85
  -7  -8 -13   13.05    0.69
   7  -8  13   11.79    0.79
  -8  -7 -13   12.70    0.69
   8   7 -13   11.99    0.76
  -7  -8 -13   12.21    0.75
   8   7 -13   12.54    0.79
   7   8 -13   12.42    0.78
  -8  -7 -13   14.11    0.76
   8   7 -13   13.53    0.86
   7   8 -13   11.43    0.72
   7   8 -13   12.93    0.84
  -7  -8 -13   12.92    0.65
  -7  -8 -11   33.96    1.18
  -8  -7 -11   37.17    1.32
   8  -7  11   35.42    1.41
   7  -8  11   35.69    1.42
  -7   8  11   37.92    1.29
  -7  -8 -11   36.41    1.25
  -7  -8 -11   36.44    1.34
   8   7 -11   37.49    1.46
   7   8 -11   36.39    1.33
   8   7 -11   36.68    1.36
   7   8 -11   37.19    1.35
  -8  -7 -11   34.74    1.22
   7   8 -11   37.86    1.47
   8   7 -11   36.38    1.36
   8   7  -9    1.82    0.32
  -7  -8  -9    2.27    0.28
   8   7  -9    1.74    0.18
   8  -7   9    1.87    0.31
   7   8  -9    2.21    0.29
   8   7  -9    2.22    0.29
   7  -8   9    2.24    0.34
  -8  -7  -9    1.38    0.21
  -7  -8  -9    1.68    0.21
  -8  -7  -9    1.90    0.27
  -7   8   9    2.28    0.29
  -8   7   9    1.96    0.26
   7   8  -9    1.62    0.31
  -7  -8  -9    1.73    0.29
   8   7  -9    2.04    0.29
   7   8  -9    1.94    0.29
   7   8  -9    1.84    0.21
   7   8  -7   38.12    1.37
  -8  -7  -7   35.66    1.19
  -7  -8  -7   35.63    1.23
   7   8  -7   35.13    1.17
   7  -8   7   35.98    1.31
  -7  -8  -7   36.31    1.05
   8   7  -7   34.70    1.24
   8   7  -7   36.82    1.03
   7   8  -7   35.75    1.21
   8   7  -7   34.51    1.18
   7   8  -7   36.41    1.09
  -7  -8  -7   34.93    1.25
   8   7  -7   37.30    1.34
   8  -7   7   35.72    1.32
  -8   7   7   37.19    1.17
  -7   8   7   37.02    1.21
  -8  -7  -5   31.02    1.06
  -7  -8  -5   28.29    1.07
  -7  -8  -5   30.53    1.16
   8  -7   5   31.19    1.13
   7   8  -5   35.73    1.24
   8   7  -5   33.70    1.20
   8   7  -5   31.78    0.94
   7   8  -5   29.38    0.97
  -8   7   5   32.21    1.05
   7  -8   5   31.23    1.16
  -7   8   5   32.76    1.10
   8   7  -5   32.30    1.12
   7   8  -5   31.82    1.08
   7   8  -5   32.10    1.00
   8  -7   5   32.35    1.19
  -8  -7  -3   20.26    0.78
  -7  -8  -3   18.78    0.79
   7  -8   3   19.00    0.84
   8   7  -3   22.10    0.73
   8  -7   3   19.77    0.74
   8  -7   3   20.52    0.88
   7   8  -3   20.58    0.76
   7  -8   3   20.24    0.88
  -8   7   3   21.99    0.81
   8  -7   3   20.35    0.88
  -7  -8  -3   20.15    0.89
  -8  -7  -3   19.43    0.89
   7   8  -3   20.41    0.79
   8   7  -3   19.65    0.80
  -7   8   3   21.17    0.83
   7  -8   3   19.80    0.70
   7  -8   1   46.44    1.53
   8  -7   1   45.58    1.22
   7  -8   1   45.60    1.28
   7   8  -1   46.45    1.38
   8  -7   1   46.66    1.33
   8  -7   1   46.67    1.54
  -7  -8  -1   46.79    1.53
  -8  -7  -1   47.28    1.56
   7  -8   1   46.94    1.28
  -8  -7  -1   48.90    1.23
   7   8  -1   45.62    1.37
   8   7  -1   47.92    1.43
  -7  -8  -1   47.19    1.14
  -7  -8  -1   48.26    1.38
  -8  -7  -1   47.68    1.38
  -8   7   1   46.81    1.34
  -7   8   1   46.03    1.29
   7  -8  -1   46.97    1.33
   8  -7  -1   46.61    1.27
   7   8   1   47.87    1.40
  -8   7  -1   51.20    1.29
   7  -8  -1   48.21    1.58
   8  -7  -1   46.58    1.57
   8   7   1   47.20    1.43
  -8   7  -1   47.22    1.14
  -8  -7   1   49.12    1.58
  -7  -8   1   51.86    1.39
  -7   8  -1   50.97    1.34
   7  -8  -1   44.34    1.05
   7   8   1   47.19    1.42
  -8  -7   1   47.26    1.32
  -7  -8   1   48.62    1.20
   7  -8  -1   48.39    1.30
   8  -7  -1   45.42    1.33
  -8  -7   1   49.47    1.28
  -7  -8   1   45.79    1.55
  -8   7  -1   46.62    1.34
  -7  -8   1   50.53    1.39
  -7   8  -1   45.61    1.28
   7  -8  -3   20.92    0.78
  -7   8  -3   20.56    0.72
   8  -7  -3   19.66    0.74
  -8   7  -3   20.60    0.66
   7  -8  -3   20.29    0.93
   8  -7  -3   18.92    0.91
  -7  -8   3   19.29    0.67
   7  -8  -3   20.68    0.63
   7   8   3   19.82    0.79
  -8  -7   3   22.22    0.96
  -7   8  -3   19.49    0.66
  -8   7  -3   20.78    0.76
  -7   8  -3   20.09    0.70
   7  -8  -3   19.64    0.72
  -8   7  -3   19.90    0.59
  -8  -7   3   19.71    0.71
  -7  -8   3   20.43    0.77
  -7  -8   3   19.77    0.91
   8  -7  -3   20.18    0.76
   8   7   3   19.81    0.82
   7  -8  -5   29.96    1.08
  -7  -8   5   31.83    1.01
  -7   8  -5   34.20    1.01
  -8   7  -5   34.35    0.95
   8  -7  -5   31.95    1.07
  -7   8  -5   30.83    0.99
   8  -7  -5   32.02    1.26
   7  -8  -5   32.31    1.00
   7  -8  -5   29.16    1.21
   8   7   5   32.55    1.21
  -8  -7   5   30.50    1.21
   8   7   5   32.19    1.15
   7   8   5   33.33    1.23
  -7   8  -5   30.91    0.96
  -7  -8   5   30.52    1.21
   8  -7  -5   32.80    1.08
   7  -8  -5   29.09    1.01
  -8   7  -5   29.75    1.02
  -8  -7   5   32.59    1.05
  -7   8  -7   39.16    1.12
  -8   7  -7   35.57    1.04
  -7  -8   7   34.79    1.16
   7   8   7   35.19    0.98
   7  -8  -7   36.67    1.27
   7   8   7   35.14    1.34
   8  -7  -7   34.95    1.22
   8   7   7   34.59    1.33
  -7  -8   7   33.77    1.31
   7  -8  -7   36.01    1.17
  -8  -7   7   34.50    1.31
  -7   8  -7   33.55    0.88
  -7   8  -7   33.91    1.11
   8  -7  -7   35.20    1.36
   8  -7  -7   35.67    1.20
   7  -8  -7   34.99    1.16
  -7   8  -7   35.07    1.10
   7  -8  -7   38.04    1.38
   7   8   9    1.96    0.19
  -7   8  -9    1.94    0.19
   7  -8  -9    1.82    0.31
   7   8   9    2.06    0.36
   7  -8  -9    2.03    0.34
   8  -7  -9    1.82    0.33
  -8  -7   9    2.09    0.32
   8   7   9    2.02    0.34
  -8   7  -9    1.81    0.19
  -7  -8   9    2.13    0.34
   8   7   9    1.83    0.20
   8  -7  -9    2.12    0.29
   7  -8  -9    2.01    0.30
   8   7  11   39.77    1.51
   8   7  11   37.68    1.15
   8  -7 -11   37.23    1.45
   7  -8 -11   35.57    1.33
  -7   8 -11   32.33    1.10
   7  -8 -11   35.50    1.41
  -8   7 -11   34.28    1.12
   7   8  11   36.83    1.07
  -7  -8  11   36.90    1.41
   7   8  11   38.60    1.49
  -8  -7  11   36.53    1.40
   8  -7 -11   38.14    1.38
   8   7  13   13.01    0.88
   7   8  13   12.44    0.57
   8   7  13   13.15    0.62
   8  -7 -13   12.22    0.78
  -8  -7  13   11.49    0.74
   7  -8 -13   12.82    0.79
   7   8  13   12.48    0.85
   8  -7 -13   13.04    0.79
   8   7  15    1.41    0.22
   8  -7 -15    1.76    0.34
   8   7  15    1.40    0.37
   7  -8 -15    1.55    0.32
   8  -7 -15    1.81    0.35
   7   8  15    1.62    0.22
   7   8  15    1.72    0.38
   7  -8 -17    6.00    0.60
   8  -7 -17    5.52    0.54
   8  -7 -17    6.95    0.66
  -7   8 -17    5.58    0.60
   8   7  17    5.85    0.46
  -8   7 -17    7.06    0.69
   7  -8 -17    5.93    0.56
  -7   8 -19    4.25    0.58
   8  -7 -19    4.10    0.47
  -8   7 -19    3.23    0.51
   7  -8 -19    3.44    0.44
   8  -7 -19    4.16    0.58
   7  -8 -19    3.54    0.49
   8  -7 -21   -0.07    0.27
   7  -8 -21   -0.05    0.20
   8  -7 -21   -0.06    0.20
  -8   7 -21    0.55    0.32
  -7   8 -21    0.22    0.31
   7  -8 -21   -0.14    0.23
   8   8 -22    1.16    0.37
  -8  -8 -22    1.10    0.35
   8  -8  22    0.48    0.25
  -8  -8 -22    0.86    0.31
   8   8 -22    0.97    0.38
   8   8 -20    2.87    0.47
  -8  -8 -20    3.13    0.44
  -8  -8 -20    3.26    0.48
   8  -8  20    2.25    0.44
   8   8 -20    3.04    0.51
  -8  -8 -18    0.84    0.27
   8  -8  18    1.13    0.34
  -8  -8 -18    1.49    0.32
   8   8 -18    0.68    0.27
   8   8 -18    0.87    0.33
  -8  -8 -16    3.65    0.46
  -8  -8 -16    2.80    0.37
   8  -8  16    2.88    0.42
   8   8 -16    3.82    0.48
   8   8 -16    2.85    0.40
   8  -8  14   19.90    1.11
  -8  -8 -14   21.22    1.03
  -8  -8 -14   21.04    0.95
  -8  -8 -14   21.44    0.91
   8   8 -14   22.11    1.09
   8   8 -14   19.76    1.03
   8   8 -14   23.07    1.18
  -8  -8 -12    8.37    0.55
  -8  -8 -12    7.57    0.50
  -8  -8 -12    7.74    0.58
   8  -8  12    7.87    0.64
   8   8 -12    8.46    0.60
   8   8 -12   10.01    0.74
   8   8 -12    8.04    0.59
  -8   8  10   29.79    1.08
   8  -8  10   27.11    1.22
   8   8 -10   27.21    0.90
   8   8 -10   29.11    1.25
  -8  -8 -10   30.11    1.13
  -8  -8 -10   26.60    1.10
   8   8 -10   29.12    1.15
  -8  -8 -10   26.71    0.97
   8   8 -10   28.44    1.13
  -8   8   8   55.57    1.59
  -8  -8  -8   52.09    1.61
   8  -8   8   49.97    1.72
  -8  -8  -8   50.39    1.43
  -8  -8  -8   51.06    1.67
   8   8  -8   53.20    1.76
   8   8  -8   51.10    1.58
   8   8  -8   51.25    1.42
   8   8  -8   53.61    1.66
   8   8  -6    1.98    0.33
   8  -8   6    1.24    0.24
  -8  -8  -6    1.56    0.26
  -8  -8  -6    1.34    0.27
   8   8  -6    1.30    0.18
   8   8  -6    1.38    0.21
   8   8  -6    1.62    0.25
  -8   8   6    1.95    0.26
  -8  -8  -4   25.67    0.97
   8   8  -4   28.17    0.91
  -8   8   4   29.45    1.02
   8  -8   4   26.66    1.08
   8  -8   4   27.77    1.09
   8   8  -4   29.96    1.13
  -8  -8  -4   25.87    1.09
   8   8  -4   26.35    0.99
   8  -8   4   27.25    0.93
   8  -8   2   90.52    2.53
   8  -8   2   90.89    2.26
   8   8  -2   90.03    2.30
   8  -8   2   91.25    2.48
  -8  -8  -2   96.19    2.12
   8   8  -2   90.59    2.37
  -8  -8  -2   89.67    2.54
  -8   8   2   86.80    2.27
  -8  -8   0    2.81    0.36
   8  -8   0    2.83    0.37
  -8   8   0    2.70    0.24
   8  -8   0    2.99    0.26
  -8  -8   0    2.55    0.25
   8   8   0    2.95    0.29
   8  -8   0    2.74    0.23
  -8  -8   0    2.58    0.19
  -8   8  -2   95.42    2.25
   8  -8  -2   89.79    2.28
   8  -8  -2   91.56    2.60
   8  -8  -2   91.93    2.29
   8  -8  -2   93.47    2.07
  -8  -8   2   88.81    2.56
  -8   8  -2   89.07    2.27
   8   8   2   90.51    2.40
  -8  -8   2   91.79    2.21
  -8   8  -2   92.16    2.12
  -8   8  -4   29.36    0.90
   8   8   4   27.20    1.03
   8  -8  -4   29.81    0.88
  -8   8  -4   27.33    0.82
   8  -8  -4   28.53    0.98
  -8   8  -4   26.35    0.92
  -8  -8   4   26.11    1.13
   8  -8  -4   26.33    0.94
  -8  -8   4   28.06    0.91
   8  -8  -4   28.00    1.18
  -8   8  -6    1.37    0.19
   8  -8  -6    2.02    0.35
   8  -8  -6    1.52    0.21
   8   8   6    1.36    0.29
   8  -8  -6    1.69    0.23
  -8  -8   6    1.73    0.24
  -8  -8   6    2.19    0.35
  -8   8  -6    1.79    0.20
   8  -8  -6    1.52    0.22
  -8   8  -8   53.23    1.45
   8   8   8   51.33    1.38
   8  -8  -8   50.98    1.65
   8   8   8   53.08    1.78
   8  -8  -8   49.95    1.77
  -8  -8   8   47.48    1.71
   8  -8  -8   51.03    1.59
  -8   8 -10   26.51    0.86
   8   8  10   28.64    0.90
  -8  -8  10   26.20    1.18
   8  -8 -10   27.25    1.22
   8  -8 -10   26.75    1.17
   8  -8 -10   27.13    1.10
   8   8  10   27.45    1.24
  -8  -8  12    7.91    0.63
   8  -8 -12    8.21    0.64
   8   8  12    7.99    0.68
   8   8  12    7.92    0.44
   8  -8 -12    8.17    0.61
   8   8  14   20.56    1.14
   8   8  14   20.01    0.80
   8  -8 -14   20.43    1.05
   8  -8 -14   20.17    1.04
   8  -8 -16    3.08    0.45
   8  -8 -16    2.85    0.40
   8   8  16    2.98    0.50
   8  -8 -18    1.24    0.30
  -8   8 -18    0.71    0.28
  -8   8 -20    2.73    0.51
   8  -8 -20    3.38    0.52
   8  -8 -20    2.63    0.43
  -8   8 -22    0.94    0.33
   8  -8 -22    1.70    0.46
   0  -9   1    1.63    0.22
   0  -9  -1    2.04    0.25
   0   9  -1    2.24    0.19
   9   0   1    1.94    0.10
   0  -9   1    2.09    0.19
   0  -9  -1    2.28    0.16
   9   0  -1    2.08    0.17
   0   9   1    2.11    0.21
   9   0   1    2.19    0.15
   0   9   1    2.23    0.26
   9   0   1    2.48    0.27
   9   0  -1    2.12    0.26
   0  -9   3   14.24    0.60
   0   9  -3   14.23    0.59
   0  -9  -3   13.94    0.66
   0   9   3   15.94    0.65
   0   9   3   14.32    0.61
   0   9   3   13.72    0.45
   0  -9  -3   14.60    0.44
   0  -9  -3   13.82    0.40
   9   0  -3   14.46    0.54
   9   0   3   14.47    0.67
   9   0  -3   14.15    0.66
  -9   0  -5    3.73    0.16
   0  -9  -5    3.86    0.36
   0   9  -5    4.34    0.31
   0   9   5    4.27    0.24
   0   9  -5    4.19    0.34
   9   0   5    4.02    0.33
   0   9  -5    3.54    0.34
  -9   0   5    3.91    0.28
   0   9   5    3.99    0.34
   9   0   5    4.20    0.37
   0  -9   5    3.41    0.31
   9   0  -5    4.23    0.37
   0   9   5    4.31    0.31
   0   9   7   26.14    0.86
  -9   0   7   27.32    0.95
   0   9  -7   26.88    0.97
  -9   0  -7   27.89    0.75
   0   9   7   30.49    0.89
   0   9   7   27.53    1.03
   9   0   7   26.99    0.98
   9   0   7   27.01    1.02
   0  -9  -7   26.70    0.84
   0   9  -7   26.55    1.03
   0  -9   7   25.68    1.02
   0  -9  -7   25.10    1.03
   9   0  -7   26.94    1.06
   0   9   9   24.30    0.87
   0  -9  -9   23.39    0.58
   0  -9  -9   25.15    0.86
   0   9   9   26.53    1.05
   9   0   9   25.71    0.99
   9   0   9   25.10    0.98
   0  -9  -9   25.65    1.06
   0   9  -9   25.91    1.00
   0   9  -9   24.73    1.02
   9   0  -9   24.38    1.04
   9   0  11    2.20    0.29
  -9   0  11    2.20    0.28
   0   9 -11    2.49    0.36
   9   0  11    1.71    0.29
   0   9 -11    1.91    0.32
   0  -9 -11    1.80    0.14
   9   0 -11    2.32    0.36
   9   0  11    2.11    0.18
   0  -9 -11    2.05    0.35
   0  -9 -11    2.12    0.26
   9   0 -11    2.14    0.34
   0  -9 -13    1.57    0.27
   0   9 -13    1.49    0.34
   0   9 -13    1.28    0.32
   9   0 -13    1.53    0.35
   0  -9 -13    1.54    0.16
  -9   0  13    1.43    0.24
   0  -9 -13    1.50    0.35
   9   0  13    1.33    0.26
   9   0 -13    1.41    0.13
   9   0 -13    1.59    0.33
   0   9 -15   29.08    1.31
   0  -9 -15   26.50    1.29
   9   0  15   29.19    1.23
  -9   0  15   27.01    1.02
   9   0 -15   29.70    1.35
   0  -9 -15   30.46    1.22
   9   0 -15   27.09    1.28
   9   0 -17    0.85    0.28
   0   9 -17    0.69    0.28
   9   0  17    1.05    0.27
   0  -9 -17    0.77    0.33
   9   0 -17    0.39    0.30
  -9   0  17    0.74    0.19
  -9   0 -17    1.56    0.38
   0  -9 -17    0.89    0.27
   9   0 -19   -0.19    0.25
   9   0  19    0.09    0.18
  -9   0 -19    0.18    0.29
   0   9 -19   -0.17    0.31
   0  -9 -19    0.16    0.30
   9   0 -19    0.24    0.27
   0  -9 -19   -0.19    0.25
   9   0 -21    0.13    0.22
  -9   0 -21   -0.08    0.24
   9   0  21    0.42    0.24
   0   9 -21    0.23    0.30
   0  -9 -21   -0.16    0.32
   9   0 -21    0.64    0.32
   0  -9 -21    0.30    0.26
   9   0 -23   -0.09    0.28
   9   0  23    0.08    0.20
   0   9 -23    0.50    0.34
  -9   0 -23   -0.10    0.27
   0  -9 -23    0.66    0.40
   9   0 -23   -0.26    0.28
   0  -9 -23    0.78    0.31
  -1  -9 -22   -0.28    0.33
   9  -1  22   -0.23    0.23
  -9  -1 -22    0.17    0.27
   1   9 -22   -0.32    0.29
   9   1 -22    0.10    0.27
   9   1 -22    0.06    0.29
  -1  -9 -22    0.53    0.27
   9   1 -20    2.47    0.44
  -9  -1 -20    2.74    0.45
   1   9 -20    2.24    0.45
   9  -1  20    2.22    0.41
  -1  -9 -20    2.36    0.44
  -1  -9 -20    2.31    0.41
   9   1 -20    3.28    0.53
   9   1 -18    3.69    0.52
   9  -1  18    4.16    0.49
  -1  -9 -18    3.85    0.53
   1   9 -18    3.20    0.47
  -1  -9 -18    3.81    0.47
  -9  -1 -18    3.55    0.49
   9   1 -18    4.17    0.55
   1   9 -16    6.15    0.60
   9  -1  16    6.54    0.57
  -9   1  16    6.90    0.44
  -9  -1 -16    5.74    0.56
   9   1 -16    6.24    0.62
  -1  -9 -16    6.54    0.55
  -1  -9 -16    7.09    0.67
   9   1 -16    5.88    0.60
   1   9 -14   14.79    0.88
   9  -1  14   15.53    0.85
  -1  -9 -14   14.20    0.88
  -9   1  14   14.81    0.68
  -1  -9 -14   14.31    0.76
   9   1 -14   14.77    0.88
   1   9 -14   16.02    0.93
   9   1 -14   13.35    0.86
   9   1 -12   13.94    0.40
  -1  -9 -12   15.89    0.86
  -1  -9 -12   14.50    0.47
  -9   1  12   13.78    0.66
   1   9 -12   15.16    0.82
   9  -1  12   14.55    0.48
   9  -1  12   14.92    0.79
   9   1 -12   14.51    0.83
   1  -9  12   15.46    0.87
  -1  -9 -12   15.19    0.72
   1   9 -12   15.34    0.85
   9   1 -12   14.02    0.81
   1   9 -10   37.99    1.33
   1  -9  10   37.48    1.40
   9  -1  10   38.13    1.34
   9  -1  10   36.99    1.05
   9  -1  10   37.93    1.30
  -9  -1 -10   36.08    1.11
  -1  -9 -10   41.21    1.44
   9   1 -10   38.75    1.40
  -1  -9 -10   37.44    1.18
   1   9 -10   36.81    1.38
   9   1 -10   37.03    1.37
   1   9  -8   11.99    0.62
   1  -9   8   10.33    0.63
  -1   9   8   10.97    0.46
   9   1  -8   10.22    0.63
   9  -1   8   10.15    0.56
  -9  -1  -8   11.08    0.45
  -1  -9  -8   11.12    0.65
  -1  -9  -8   10.37    0.47
   1   9  -8   10.18    0.62
  -9   1   8   11.17    0.56
  -1   9   8   11.80    0.66
   9  -1   8   11.20    0.62
  -1   9   8   10.83    0.52
   1  -9   6    9.41    0.54
  -9  -1  -6    9.94    0.36
  -1  -9  -6    8.89    0.55
   9  -1   6    9.33    0.55
  -1   9   6    9.55    0.46
  -1   9   6    9.16    0.52
   9  -1   6    9.02    0.48
  -1   9   6    9.43    0.44
  -9   1   6    9.86    0.48
   1   9  -6    9.91    0.57
   1   9  -6    8.67    0.48
   9   1  -6    9.52    0.57
   9   1  -6    9.49    0.51
   1   9  -6    9.85    0.40
  -9   1   4   49.78    1.16
  -1  -9  -4   49.19    1.52
   1   9  -4   51.26    1.35
   9   1  -4   51.54    1.39
  -1   9   4   50.45    1.44
   9  -1   4   51.08    1.40
  -1  -9  -4   51.21    1.28
   9  -1   4   50.45    1.52
   1   9  -4   49.68    1.45
  -9   1   4   51.61    1.33
   1  -9   4   49.61    1.47
  -1   9   4   54.04    1.46
   1   9  -4   50.55    1.20
   9   1  -4   48.82    1.52
  -1   9   4   49.20    1.30
  -1  -9  -2   16.37    0.71
   1   9  -2   16.09    0.60
  -1   9   2   16.03    0.60
  -1   9   2   16.09    0.67
  -1   9   2   15.71    0.52
   9   1  -2   15.53    0.70
   9  -1   2   15.91    0.70
   1   9  -2   14.92    0.40
  -1  -9  -2   15.63    0.45
   1  -9   2   15.68    0.62
   1   9  -2   15.56    0.51
   9   1  -2   15.41    0.56
  -1  -9   0    6.30    0.41
   1  -9   0    6.47    0.40
   9   1   0    6.51    0.26
   1  -9   0    7.00    0.34
   1   9   0    7.46    0.46
   1   9   0    6.99    0.31
   9   1   0    7.05    0.32
   9   1   0    6.77    0.44
   9  -1   0    6.61    0.43
  -1   9   0    6.77    0.34
   9  -1   0    6.80    0.25
  -1   9   0    6.99    0.44
  -1  -9   0    6.04    0.20
   1  -9  -2   16.26    0.51
   1  -9  -2   15.12    0.67
   9  -1  -2   16.57    0.71
   9   1   2   15.87    0.44
   1   9   2   17.00    0.70
   1   9   2   15.67    0.64
  -1   9  -2   17.19    0.63
   1  -9  -2   15.33    0.41
   9   1   2   15.78    0.71
   1   9   2   15.11    0.42
   1   9   4   47.24    1.18
   1   9   4   54.91    1.47
   1  -9  -4   50.08    1.52
   9   1   4   49.13    1.44
  -1   9  -4   49.44    1.13
   1  -9  -4   49.49    1.16
   1   9   4   49.48    1.46
   9   1   4   50.68    1.52
  -1   9  -4   52.84    1.46
   9  -1  -4   48.69    1.50
  -9   1  -6    9.46    0.30
   1  -9  -6   10.00    0.52
   1  -9  -6    9.31    0.29
   1   9   6    8.43    0.52
  -9  -1   6    9.05    0.48
   1  -9  -6    9.76    0.57
   1   9   6    9.16    0.39
  -1   9  -6    9.03    0.53
   9   1   6    9.47    0.52
   9  -1  -6    9.79    0.57
   9   1   6    9.52    0.57
   1   9   6   10.52    0.48
   1  -9  -8   11.12    0.51
   1   9   8   10.97    0.49
  -1   9  -8   11.39    0.61
   9   1   8   11.88    0.63
   9   1   8   11.11    0.59
   1   9   8   11.21    0.64
  -1   9  -8   10.39    0.60
   1  -9  -8    9.86    0.63
   9  -1  -8   12.21    0.67
  -1   9 -10   39.79    1.38
  -9  -1  10   37.91    1.28
   1   9  10   37.88    1.41
   9   1  10   38.27    1.36
   1  -9 -10   37.20    1.40
   1  -9 -10   38.48    0.98
   1  -9 -10   37.39    1.21
   1   9  10   36.79    1.19
  -1   9 -10   36.29    1.34
   9  -1 -10   36.93    1.39
   9  -1 -10   39.85    1.42
   9   1  10   37.62    1.30
   1  -9 -12   15.12    0.54
   1  -9 -12   14.73    0.86
   9   1  12   15.11    0.78
   9   1  12   15.35    0.49
   9   1  12   15.76    0.84
  -9  -1  12   14.45    0.71
   9  -1 -12   14.83    0.49
  -1   9 -12   15.60    0.85
   9  -1 -12   15.25    0.87
   1  -9 -12   14.86    0.73
  -1   9 -12   15.26    0.83
   9  -1 -12   14.61    0.83
  -9  -1  14   13.50    0.69
   9   1  14   13.61    0.78
   1  -9 -14   13.53    0.88
  -1   9 -14   15.47    0.90
   9  -1 -14   15.12    0.90
   1  -9 -14   14.04    0.77
  -1   9 -14   14.73    0.86
   9  -1 -14   16.81    0.93
   9  -1 -16    6.26    0.60
  -1   9 -16    6.55    0.63
  -9   1 -16    6.44    0.59
   1  -9 -16    5.92    0.63
  -9  -1  16    5.44    0.43
   9   1  16    6.04    0.53
   9  -1 -16    6.39    0.61
   1  -9 -16    6.34    0.56
   9  -1 -18    3.57    0.51
   9  -1 -18    4.24    0.57
   9   1  18    4.23    0.47
   1  -9 -18    3.55    0.52
  -9  -1  18    3.92    0.37
  -1   9 -18    4.10    0.53
  -9   1 -18    3.69    0.51
   1  -9 -18    4.08    0.50
   9  -1 -20    2.47    0.45
   1  -9 -20    1.48    0.42
  -9   1 -20    2.74    0.47
   9   1  20    2.54    0.39
   9  -1 -20    2.48    0.47
  -1   9 -20    2.67    0.46
   1  -9 -20    1.97    0.38
   9  -1 -22   -0.43    0.29
   9   1  22    0.40    0.24
  -9   1 -22   -0.46    0.32
   1  -9 -22    0.21    0.31
  -1   9 -22    0.20    0.30
   9  -1 -22    0.01    0.32
   1  -9 -22    0.28    0.27
   9   2 -23    0.43    0.35
   9  -2  23    0.15    0.24
  -9  -2 -23    0.32    0.28
  -2  -9 -23    0.54    0.31
  -2  -9 -23    0.12    0.34
   2   9 -23    0.18    0.26
   9   2 -23    0.60    0.33
   9   2 -21    0.53    0.30
  -2  -9 -21    0.45    0.23
  -2  -9 -21    0.17    0.28
  -9  -2 -21    0.11    0.26
   9  -2  21    0.37    0.24
   9   2 -21   -0.05    0.28
   9   2 -19   -0.04    0.24
  -2  -9 -19    0.24    0.23
   9  -2  19    0.15    0.19
  -9  -2 -19    0.07    0.23
   2   9 -19   -0.28    0.28
  -2  -9 -19    0.13    0.24
   9   2 -19    0.15    0.24
   9   2 -17    2.19    0.40
   2   9 -17    2.63    0.42
  -9  -2 -17    2.45    0.40
  -2  -9 -17    2.84    0.45
   9  -2  17    1.60    0.33
  -2  -9 -17    2.49    0.37
   9   2 -17    2.70    0.44
   9  -2  15   12.01    0.77
  -2  -9 -15   11.06    0.79
  -9  -2 -15   12.37    0.78
  -9   2  15   12.19    0.58
   9   2 -15   12.55    0.85
  -2  -9 -15   11.88    0.71
   2   9 -15   13.02    0.82
   2   9 -15   10.88    0.81
   9   2 -15   11.59    0.80
   9  -2  13    7.31    0.57
  -9   2  13    7.27    0.45
  -2  -9 -13    7.44    0.63
  -2  -9 -13    7.00    0.50
   9   2 -13    6.49    0.26
   9   2 -13    7.21    0.60
   2   9 -13    7.63    0.63
   9   2 -13    6.99    0.60
   2  -9  13    8.04    0.65
   2   9 -13    6.50    0.56
  -2  -9 -11    2.70    0.29
   2  -9  11    2.90    0.40
   9  -2  11    2.45    0.20
   9  -2  11    2.59    0.33
  -9  -2 -11    1.87    0.25
  -2  -9 -11    2.41    0.36
   2   9 -11    2.92    0.37
   9   2 -11    2.51    0.38
   9   2 -11    2.31    0.36
   2   9 -11    2.31    0.36
   2   9  -9   22.99    0.92
  -2  -9  -9   21.71    0.97
   2  -9   9   22.33    0.99
   9   2  -9   20.46    0.94
  -2   9   9   23.11    0.71
  -2   9   9   22.48    0.96
   9  -2   9   20.34    0.75
   9  -2   9   21.94    0.95
  -9  -2  -9   22.25    0.77
  -2  -9  -9   23.17    0.78
   9  -2   9   21.74    0.88
   9   2  -9   21.51    0.97
   2   9  -9   21.45    0.97
   2   9  -7   41.36    1.28
  -2   9   7   41.96    1.38
  -9  -2  -7   40.57    1.11
   2  -9   7   39.25    1.37
  -2   9   7   40.07    1.22
   9   2  -7   42.36    1.33
  -2   9   7   42.61    1.18
  -2  -9  -7   39.97    1.38
   9  -2   7   41.70    1.26
   9  -2   7   41.83    1.38
   9   2  -7   41.22    1.40
  -2  -9  -7   41.94    1.10
  -9   2   7   40.37    1.24
   2   9  -7   39.89    1.15
  -9  -2  -5   42.40    1.08
   2   9  -5   42.20    1.21
  -2  -9  -5   40.85    1.36
  -2   9   5   41.97    1.29
  -2   9   5   44.34    1.26
   2  -9   5   43.80    1.35
   9  -2   5   43.89    1.23
  -2  -9  -5   43.74    1.18
   9   2  -5   43.54    1.40
  -9   2   5   42.85    1.19
   2   9  -5   41.51    1.32
  -2   9   5   41.50    1.19
   9  -2   5   41.63    1.35
  -9   2   5   42.61    1.04
   9   2  -5   42.42    1.27
   2   9  -5   41.93    1.11
   2   9  -3    7.05    0.40
  -2  -9  -3    6.30    0.44
   9   2  -3    6.15    0.36
   2  -9   3    6.77    0.40
   2   9  -3    6.95    0.31
  -2   9   3    7.09    0.38
   2   9  -3    5.99    0.40
   9  -2   3    5.78    0.41
  -2  -9  -3    6.38    0.29
  -2   9   3    6.62    0.34
   2   9  -3    6.65    0.27
   9   2  -3    6.68    0.44
  -9   2   3    6.92    0.30
   2  -9   1   34.26    1.11
  -2  -9  -1   37.78    1.18
   9   2  -1   36.71    1.03
  -2   9   1   36.14    1.00
   2   9  -1   34.90    1.01
   2   9  -1   36.33    0.88
   2   9  -1   33.05    0.85
   9  -2   1   36.66    1.16
   2   9  -1   34.80    1.15
  -2  -9  -1   37.43    0.90
   9   2  -1   36.86    1.19
   2  -9   1   35.28    1.05
   2   9   1   36.23    0.92
   2  -9  -1   34.51    1.13
   9   2   1   34.79    0.92
  -2   9  -1   35.38    0.96
   2   9   1   36.53    1.19
   2  -9  -1   36.47    1.00
   9  -2  -1   35.16    1.15
   9   2   1   36.05    1.18
   2   9   3    6.69    0.43
   2  -9  -3    6.93    0.44
   9   2   3    6.73    0.45
   2  -9  -3    7.24    0.30
   2   9   3    6.51    0.42
  -2   9  -3    7.37    0.41
   9   2   3    6.22    0.28
  -9  -2   3    6.63    0.42
   9  -2  -3    6.02    0.42
  -9  -2   3    6.08    0.22
   2  -9  -3    6.84    0.26
  -2   9  -5   41.56    1.05
   2  -9  -5   41.32    1.36
   2   9   5   47.39    1.31
   9   2   5   42.03    1.34
   9  -2  -5   41.80    1.37
   2   9   5   42.75    1.35
   2  -9  -5   43.67    1.26
   9   2   5   41.52    1.37
  -2   9  -5   41.61    1.32
   2   9   7   40.39    1.37
   2  -9  -7   39.60    1.37
   2   9   7   40.80    1.10
   9   2   7   39.04    1.33
   2  -9  -7   41.32    1.30
  -2   9  -7   39.31    1.31
   9  -2  -7   42.25    1.38
   2  -9  -9   21.34    0.82
   2   9   9   22.20    0.98
   9   2   9   22.25    0.95
   9   2   9   21.57    0.88
   2  -9  -9   21.18    0.97
  -9  -2   9   19.52    0.88
   9  -2  -9   22.61    0.98
  -2   9  -9   21.30    0.92
  -2   9  -9   21.49    0.92
  -9  -2  11    2.41    0.30
   2  -9 -11    2.25    0.36
   9   2  11    2.29    0.29
   2  -9 -11    2.59    0.21
   2   9  11    2.52    0.39
  -2   9 -11    2.60    0.36
   9   2  11    2.43    0.35
   9  -2 -11    2.86    0.39
  -2   9 -11    2.33    0.34
   2  -9 -11    2.11    0.28
   9  -2 -11    2.70    0.38
   2  -9 -13    7.03    0.53
   2  -9 -13    7.18    0.39
  -2   9 -13    6.06    0.55
   9   2  13    6.16    0.25
   9   2  13    7.08    0.60
   9  -2 -13    6.45    0.33
  -9  -2  13    6.66    0.49
   9   2  13    6.43    0.50
   9  -2 -13    6.83    0.60
   2  -9 -13    6.62    0.61
  -2   9 -13    7.11    0.59
   9  -2 -13    7.20    0.60
  -2   9 -15   13.61    0.86
   2  -9 -15    9.06    0.76
   9   2  15   12.00    0.72
  -9  -2  15   11.63    0.65
   9  -2 -15   11.24    0.79
   9  -2 -15   12.57    0.84
   2  -9 -15   10.61    0.71
  -9  -2  17    2.53    0.32
   9   2  17    1.98    0.33
   9  -2 -17    3.57    0.50
   2  -9 -17    2.05    0.40
  -2   9 -17    1.35    0.34
  -9   2 -17    2.27    0.39
   9  -2 -17    2.72    0.42
   2  -9 -17    3.01    0.42
   9  -2 -19   -0.25    0.27
  -2   9 -19    0.10    0.27
  -9   2 -19    0.16    0.24
   9   2  19   -0.38    0.21
   2  -9 -19   -0.16    0.25
   9  -2 -19    0.42    0.31
   9   2  21    0.22    0.19
   2  -9 -21    0.14    0.26
  -9   2 -21    0.94    0.38
  -2   9 -21    0.47    0.33
   9  -2 -21    0.73    0.32
   9  -2 -21    0.82    0.34
   9  -2 -23   -0.03    0.31
   9   2  23    0.49    0.27
  -2   9 -23    0.40    0.27
  -9   2 -23    0.03    0.33
   9  -2 -23    0.90    0.39
   2  -9 -23    0.25    0.25
   9   3 -22   -0.27    0.29
  -3  -9 -22   -0.04    0.23
   3   9 -22    0.13    0.29
   9   3 -22    0.13    0.29
  -9  -3 -22    0.15    0.23
  -3  -9 -22   -0.04    0.26
   9  -3  22   -0.10    0.26
   9   3 -20    0.76    0.33
  -3  -9 -20    0.36    0.25
   3   9 -20    0.67    0.30
   9  -3  20    0.02    0.20
  -9  -3 -20    0.18    0.22
  -3  -9 -20    0.19    0.31
   9   3 -20    0.30    0.27
  -3  -9 -18    1.73    0.32
  -9  -3 -18    1.00    0.30
   3   9 -18    1.94    0.40
  -3  -9 -18    2.35    0.43
   9   3 -18    1.95    0.40
   9  -3  18    1.98    0.36
   9   3 -18    1.87    0.41
   9   3 -16    0.10    0.23
  -3  -9 -16    0.21    0.17
  -3  -9 -16    0.32    0.25
  -9  -3 -16    0.04    0.22
  -9  -3 -16    0.55    0.24
   3  -9  16    0.31    0.22
   3   9 -16   -0.04    0.23
   9  -3  16    0.36    0.23
   9   3 -16    0.38    0.29
  -9   3  16    0.39    0.13
  -3  -9 -14    0.57    0.21
  -3  -9 -14    0.11    0.24
  -9  -3 -14    0.84    0.23
   3  -9  14    0.58    0.26
   9   3 -14    0.22    0.24
   3   9 -14    0.32    0.24
   9  -3  14    0.36    0.20
  -9   3  14    0.45    0.15
  -9  -3 -14    0.34    0.21
   9   3 -14    0.76    0.26
   3   9 -14    0.34    0.26
   9   3 -12   13.64    0.39
   3  -9  12   15.85    0.89
  -3  -9 -12   13.46    0.81
   9  -3  12   15.36    0.83
  -9  -3 -12   15.09    0.70
   9   3 -12   15.69    0.85
  -3  -9 -12   14.03    0.69
   9   3 -12   15.36    0.85
   3   9 -12   14.78    0.86
   3   9 -12   14.41    0.80
   3   9 -10   13.00    0.62
  -3   9  10   12.47    0.46
  -9  -3 -10   12.24    0.58
   3  -9  10   12.17    0.74
  -3  -9 -10   11.10    0.69
  -3  -9 -10   12.19    0.56
   9  -3  10   11.55    0.69
   9   3 -10   11.58    0.70
   9  -3  10   12.63    0.53
  -3  -9 -10   12.03    0.53
  -3   9  10   11.46    0.68
   3   9 -10   12.90    0.76
   9  -3  10   12.38    0.59
   9   3 -10   10.80    0.70
   3   9 -10   11.72    0.66
  -3  -9  -8    0.46    0.12
   9  -3   8    0.22    0.12
  -3  -9  -8    0.22    0.12
   3   9  -8    0.27    0.19
   3  -9   8    0.00    0.17
  -3   9   8    0.44    0.21
   9  -3   8    0.35    0.17
   9   3  -8    0.38    0.19
   9  -3   8    0.26    0.10
  -9   3   8    0.21    0.13
  -3  -9  -8    0.51    0.22
   9  -3   8    0.35    0.15
  -3  -9  -8    0.11    0.11
  -9  -3  -8    0.26    0.12
   9   3  -8    0.36    0.18
   3   9  -8    0.23    0.14
   9   3  -8    0.39    0.21
  -3   9   8    0.54    0.12
   3   9  -8    0.60    0.15
  -3   9   6    8.65    0.53
  -3  -9  -6    7.94    0.42
  -9  -3  -6    8.12    0.38
  -3  -9  -6    8.77    0.54
   9  -3   6    8.46    0.52
   9  -3   6    8.69    0.34
   9  -3   6    8.39    0.48
  -3  -9  -6    8.47    0.47
   9  -3   6    9.06    0.44
  -3   9   6    8.02    0.44
   9   3  -6    7.95    0.52
  -3  -9  -6    8.29    0.32
   3  -9   6    7.84    0.51
   9   3  -6    8.43    0.50
  -9   3   6    9.27    0.45
   9  -3   6    7.77    0.52
   3   9  -6    8.11    0.40
   3   9  -6    7.95    0.43
  -9   3   6    8.13    0.34
  -9  -3  -4   17.89    0.59
  -3  -9  -4   17.77    0.77
   3   9  -4   19.30    0.76
   3   9  -4   17.59    0.59
   3  -9   4   18.05    0.75
  -3  -9  -4   19.20    0.77
  -3  -9  -4   18.31    0.63
   9  -3   4   17.77    0.76
  -9   3   4   17.95    0.58
   9  -3   4   18.91    0.65
   3   9  -4   18.28    0.75
  -3   9   4   18.23    0.67
   9   3  -4   19.65    0.74
  -9   3   4   17.57    0.60
   9   3  -4   18.59    0.81
  -3   9   4   20.61    0.81
   3   9  -4   17.84    0.61
   9   3  -2    1.88    0.21
   3  -9   2    1.80    0.21
  -9   3   2    1.77    0.12
   3   9  -2    1.65    0.23
  -3  -9  -2    2.12    0.26
   3   9  -2    2.01    0.20
  -3  -9  -2    1.91    0.26
  -3   9   2    1.84    0.18
   3   9  -2    1.45    0.14
   9  -3   2    1.78    0.23
  -3  -9  -2    2.05    0.17
   3   9  -2    1.71    0.12
   9   3  -2    1.77    0.23
  -3  -9   0    7.42    0.46
   3  -9   0    8.17    0.45
   9   3   0    7.63    0.35
   3  -9   0    8.29    0.41
   9  -3   0    7.06    0.24
  -3   9   0    8.98    0.48
   9  -3   0    8.21    0.47
  -9  -3   0    7.96    0.37
  -3  -9   0    8.44    0.51
  -3   9   0    8.16    0.33
   9   3   0    7.79    0.48
   3   9   0    8.09    0.36
  -3  -9   0    8.54    0.33
   3   9   0    8.45    0.48
   3   9   0    7.64    0.32
   3  -9  -2    1.62    0.12
   9   3   2    1.69    0.15
   3   9   2    1.61    0.12
  -3  -9   2    1.32    0.26
   9  -3  -2    2.06    0.26
   3  -9  -2    1.51    0.16
   3   9   2    1.73    0.23
   9   3   2    1.99    0.27
   3  -9  -2    1.65    0.22
  -9  -3   2    2.28    0.24
  -3   9  -2    1.94    0.22
   3   9   2    1.59    0.24
  -9  -3   2    1.58    0.13
   3  -9  -4   19.64    0.68
   3  -9  -4   17.62    0.78
  -3   9  -4   18.68    0.74
   3   9   4   19.26    0.81
   9   3   4   18.54    0.81
   3   9   4   20.49    0.78
  -3   9  -4   18.09    0.52
   9  -3  -4   19.21    0.79
   3  -9  -4   19.01    0.59
   3  -9  -6    8.44    0.54
   9   3   6    8.27    0.52
   3   9   6    8.94    0.56
   3  -9  -6    8.61    0.47
   9   3   6    7.62    0.52
  -3   9  -6    8.50    0.49
  -3   9  -6    8.55    0.36
   9  -3  -6    8.49    0.53
  -3   9  -8    0.14    0.15
   3   9   8    0.23    0.21
   9   3   8    0.30    0.19
  -9  -3   8    0.27    0.17
   9   3   8    0.49    0.16
   3  -9  -8    0.28    0.20
   9  -3  -8    0.29    0.20
   9   3  10   12.26    0.63
  -9  -3  10   14.09    0.71
   3   9  10   12.53    0.74
   9   3  10   13.12    0.75
   3  -9 -10   13.01    0.65
  -3   9 -10   13.34    0.71
   3  -9 -10   11.00    0.74
   9  -3 -10   12.85    0.74
  -9  -3  12   14.70    0.76
   3   9  12   14.53    0.88
   9   3  12   15.25    0.87
  -3   9 -12   15.21    0.85
   9   3  12   14.34    0.73
   9  -3 -12   16.06    0.88
   3  -9 -12   15.47    0.77
   3  -9 -12   13.27    0.84
  -3   9 -12   15.57    0.83
   9  -3 -12   16.01    0.87
   9  -3 -14    0.45    0.25
  -9  -3  14    0.15    0.18
  -3   9 -14    0.13    0.23
   9   3  14    0.36    0.25
   3  -9 -14    0.77    0.29
   9   3  14    0.69    0.21
   9  -3 -14    0.63    0.31
   3  -9 -14    0.59    0.22
  -9  -3  16    0.17    0.17
   9   3  16    0.60    0.19
   9  -3 -16    0.24    0.21
   3  -9 -16    0.09    0.29
  -3   9 -16    0.39    0.24
   9  -3 -16    0.51    0.25
   3  -9 -16    0.48    0.23
   9  -3 -18    2.00    0.42
   9   3  18    2.05    0.34
   3  -9 -18    2.61    0.43
  -9   3 -18    2.14    0.39
  -3   9 -18    2.63    0.46
   9  -3 -18    2.26    0.43
   9   3  20    0.68    0.25
   9  -3 -20    1.00    0.34
  -9   3 -20    0.46    0.31
   3  -9 -20    0.99    0.31
  -3   9 -20    0.17    0.24
   9  -3 -20    0.01    0.28
   9  -3 -22    0.46    0.30
   9   3  22   -0.03    0.17
   9  -3 -22    0.00    0.23
  -9   3 -22    0.22    0.24
  -3   9 -22    0.25    0.31
   9  -3 -22    0.09    0.31
   3  -9 -22    0.01    0.24
  -4  -9 -21   -0.37    0.25
  -4  -9 -21    0.75    0.34
   9  -4  21   -0.37    0.28
   4   9 -21    0.16    0.31
  -9  -4 -21   -0.19    0.26
   9   4 -21   -0.34    0.30
  -9  -4 -21   -0.26    0.28
   9   4 -21    0.34    0.28
   9   4 -19    0.53    0.29
  -4  -9 -19    0.69    0.26
   4   9 -19    0.37    0.25
  -4  -9 -19    0.55    0.32
  -9  -4 -19    0.79    0.25
  -9  -4 -19   -0.05    0.22
   9  -4  19    1.06    0.33
   9   4 -19    0.47    0.31
   9   4 -17    2.12    0.40
   4  -9  17    2.05    0.40
  -4  -9 -17    2.20    0.35
   4   9 -17    2.09    0.39
   9  -4  17    1.54    0.32
  -9  -4 -17    1.78    0.35
  -9  -4 -17    1.53    0.31
  -4  -9 -17    2.02    0.40
   9   4 -17    2.55    0.43
  -4  -9 -15    0.79    0.22
   4   9 -15    0.98    0.29
   4  -9  15    1.08    0.29
  -9   4  15    1.02    0.16
  -4  -9 -15    0.81    0.29
   4   9 -15    0.14    0.27
  -9  -4 -15    0.92    0.26
   9  -4  15    1.56    0.33
  -9  -4 -15    1.08    0.26
   9   4 -15    0.59    0.24
   9   4 -15    0.97    0.30
  -9  -4 -13    6.10    0.47
  -9  -4 -13    5.48    0.49
   4   9 -13    5.77    0.57
  -4  -9 -13    6.51    0.35
   9  -4  13    5.91    0.53
   4  -9  13    6.82    0.61
  -4  -9 -13    7.08    0.59
   9   4 -13    6.55    0.58
  -4  -9 -13    5.77    0.45
   4   9 -13    6.66    0.56
   9   4 -13    5.63    0.53
   9  -4  11    4.23    0.44
  -9  -4 -11    4.58    0.37
   9   4 -11    4.51    0.46
   9  -4  11    4.53    0.36
  -4  -9 -11    4.43    0.31
  -4   9  11    4.23    0.25
   9   4 -11    4.68    0.46
   9   4 -11    4.15    0.16
   4   9 -11    4.20    0.47
   9   4 -11    4.89    0.47
   4  -9  11    4.12    0.45
  -4  -9 -11    4.10    0.34
  -4  -9 -11    3.97    0.43
   4   9 -11    4.69    0.45
   4   9 -11    4.73    0.40
   9  -4   9   11.54    0.68
  -9  -4  -9   11.17    0.54
   4  -9   9   11.54    0.69
   9  -4   9   10.46    0.51
  -4  -9  -9   11.49    0.50
   4   9  -9   11.07    0.56
  -4   9   9   12.65    0.67
  -4  -9  -9   10.33    0.52
   9   4  -9   11.26    0.65
   4   9  -9   10.76    0.68
   9  -4   9   10.47    0.50
  -4  -9  -9   10.50    0.64
   9   4  -9   10.50    0.65
   9   4  -9   11.51    0.66
   4   9  -9   10.49    0.59
  -4   9   7    9.12    0.54
  -9   4   7    9.14    0.40
  -9  -4  -7    8.26    0.43
  -4  -9  -7    9.33    0.58
   9  -4   7    9.40    0.59
   4  -9   7    9.11    0.57
   9  -4   7    9.34    0.50
   9  -4   7    9.19    0.45
   4   9  -7    8.88    0.48
  -4  -9  -7    8.54    0.48
  -4  -9  -7    8.58    0.36
   9  -4   7    9.34    0.38
   9   4  -7    8.34    0.53
   9   4  -7    8.24    0.55
   4   9  -7    8.92    0.46
  -9   4   7    9.41    0.49
  -4  -9  -7    8.46    0.48
  -9  -4  -5    2.19    0.20
   4   9  -5    2.08    0.20
  -4  -9  -5    2.00    0.27
   4   9  -5    1.92    0.23
   9   4  -5    2.45    0.28
  -4   9   5    2.06    0.23
  -4   9   5    2.32    0.29
   4  -9   5    2.40    0.28
  -9   4   5    2.16    0.19
   9  -4   5    1.98    0.26
  -9   4   5    2.30    0.21
   9  -4   5    2.87    0.23
   9  -4   5    1.90    0.24
  -4  -9  -5    2.15    0.22
  -4  -9  -5    2.08    0.11
  -4  -9  -5    1.90    0.25
   9   4  -5    1.82    0.27
   4   9  -5    2.12    0.20
   9   4  -3    0.61    0.17
   4   9  -3    0.70    0.12
  -4  -9  -3    0.58    0.18
   4   9  -3    0.48    0.13
   4  -9   3    0.62    0.16
  -9   4   3    0.62    0.10
   4   9  -3    0.66    0.15
  -4  -9  -3    0.56    0.18
   9  -4   3    0.75    0.12
   9  -4   3    0.58    0.17
  -4   9   3    0.66    0.14
  -4   9   3    0.57    0.18
  -4  -9  -3    0.46    0.11
   9   4  -3    0.50    0.18
   4   9  -3    0.61    0.10
   4  -9   1    7.66    0.43
  -4  -9  -1    8.00    0.48
   9   4  -1    7.66    0.38
   4  -9   1    8.24    0.44
  -9  -4  -1    8.07    0.41
   4   9  -1    7.76    0.36
  -4  -9  -1    8.41    0.51
   9  -4   1    8.04    0.46
  -4   9   1    8.19    0.46
   9   4  -1    7.80    0.48
  -4  -9  -1    8.41    0.37
   4   9  -1    8.10    0.47
   4   9  -1    7.85    0.40
   4  -9  -1    6.66    0.42
   9   4   1    7.63    0.37
  -4   9  -1    8.26    0.45
   4  -9  -1    8.17    0.41
  -4  -9   1    7.71    0.51
   9  -4  -1    7.84    0.31
  -4   9  -1    7.46    0.27
   4   9   1    7.90    0.37
   4  -9  -1    7.89    0.29
   9   4   1    7.72    0.48
  -9  -4   1    8.47    0.44
   4   9   1    7.40    0.46
   9  -4  -1    7.86    0.45
  -4  -9   1    8.22    0.36
   4   9   1    8.14    0.35
  -9  -4   1    7.39    0.34
   9   4   3    0.52    0.12
   4   9   3    0.54    0.18
  -4  -9   3    0.45    0.20
  -9  -4   3    0.49    0.08
   4   9   3    0.56    0.19
   4  -9  -3    0.54    0.16
   9   4   3    0.41    0.16
  -4   9  -3    0.49    0.08
   4   9   3    0.52    0.07
   9  -4  -3    0.26    0.14
  -9  -4   3    0.31    0.12
   4  -9  -3    0.73    0.11
  -4   9  -3    0.54    0.15
  -4   9  -5    2.24    0.24
  -9   4  -5    2.19    0.12
   4  -9  -5    2.45    0.29
   4   9   5    1.89    0.27
   4  -9  -5    2.69    0.24
  -4  -9   5    2.59    0.35
   4   9   5    1.92    0.28
   9   4   5    1.83    0.26
   9   4   5    2.21    0.29
  -4   9  -5    2.23    0.17
  -9  -4   5    1.94    0.31
   9  -4  -5    2.34    0.28
   4  -9  -5    2.42    0.21
  -9  -4   7    8.50    0.56
   4   9   7    9.11    0.59
   4  -9  -7    8.76    0.49
   9   4   7    8.76    0.58
   4  -9  -7    8.38    0.55
  -4   9  -7    8.04    0.49
   9  -4  -7    9.00    0.56
  -4   9  -7    7.87    0.39
   4  -9  -9   10.71    0.65
  -4   9  -9   10.66    0.60
   9   4   9   11.11    0.57
  -9  -4   9   10.93    0.65
   4   9   9   11.12    0.70
   4  -9  -9   10.92    0.68
  -4   9  -9    9.80    0.50
   9   4   9   11.59    0.69
   9  -4  -9   10.96    0.65
   9   4  11    5.02    0.39
   4  -9 -11    5.23    0.45
   4  -9 -11    3.94    0.47
  -9  -4  11    4.09    0.41
   9   4  11    5.04    0.50
  -4   9 -11    4.39    0.43
   4   9  11    4.43    0.49
   9  -4 -11    4.11    0.45
   9   4  13    6.48    0.47
   4   9  13    5.92    0.59
   9   4  13    5.50    0.55
   4  -9 -13    5.03    0.54
  -9  -4  13    6.38    0.51
   4  -9 -13    6.28    0.52
  -4   9 -13    6.12    0.56
   9  -4 -13    6.86    0.58
   9  -4 -15    0.99    0.30
   9   4  15    0.96    0.32
   9   4  15    0.74    0.19
  -9  -4  15    0.80    0.23
   9  -4 -15    0.72    0.25
   4  -9 -15    1.36    0.34
  -4   9 -15    1.37    0.33
   4  -9 -15    0.94    0.28
  -9  -4  17    2.01    0.31
  -4   9 -17    2.28    0.42
  -9   4 -17    2.50    0.42
   9   4  17    1.73    0.30
   9  -4 -17    1.84    0.38
   4  -9 -17    1.94    0.36
   9  -4 -17    1.93    0.40
   9  -4 -19    0.87    0.34
   9   4  19    0.51    0.23
  -4   9 -19    0.23    0.27
  -9   4 -19    1.01    0.33
   9  -4 -19    0.43    0.30
   4  -9 -19    0.71    0.28
   9  -4 -21   -0.05    0.26
   9  -4 -21   -0.07    0.21
  -4   9 -21    0.46    0.29
  -9   4 -21    0.08    0.28
   9  -4 -21    0.40    0.32
   4  -9 -21   -0.09    0.26
   9   4  21    0.29    0.20
   9   5 -22    0.11    0.26
   5   9 -22    0.57    0.31
  -5  -9 -22    0.59    0.29
  -5  -9 -22   -0.06    0.32
   9  -5  22    0.30    0.31
  -9  -5 -22   -0.49    0.31
  -9  -5 -22   -0.29    0.29
   9   5 -22    0.37    0.33
   9   5 -20    0.83    0.30
   9  -5  20    0.63    0.25
   5   9 -20    0.31    0.29
  -5  -9 -20    0.47    0.23
   5  -9  20    0.18    0.22
  -9  -5 -20    0.66    0.28
  -9  -5 -20    0.53    0.25
  -5  -9 -20    0.09    0.25
   9   5 -20    0.87    0.36
   9   5 -18    1.04    0.32
   5   9 -18    0.53    0.28
  -9  -5 -18    1.59    0.34
  -5  -9 -18    0.71    0.29
   5  -9  18    0.91    0.29
   9  -5  18    1.12    0.33
  -5  -9 -18    0.80    0.31
  -9  -5 -18    1.01    0.30
   9   5 -18    0.94    0.32
   5   9 -16    0.73    0.24
   9  -5  16    1.07    0.31
  -5  -9 -16    1.04    0.27
  -9  -5 -16    1.20    0.29
  -5  -9 -16    0.55    0.29
  -9  -5 -16    1.13    0.29
   5   9 -16    0.65    0.30
   5  -9  16    0.96    0.30
   5   9 -16    0.99    0.29
   9   5 -16    0.92    0.32
   9   5 -16    0.65    0.26
   9   5 -14    2.39    0.39
   5   9 -14    1.87    0.30
   5   9 -14    2.24    0.41
   5   9 -14    2.09    0.36
   5  -9  14    2.50    0.40
  -5  -9 -14    1.56    0.33
  -9  -5 -14    2.14    0.32
  -5  -9 -14    2.15    0.21
   9  -5  14    1.93    0.36
  -9  -5 -14    2.18    0.33
  -5  -9 -14    2.63    0.32
  -9   5  14    2.18    0.23
   9   5 -14    1.78    0.34
   5   9 -12   14.93    0.87
   9   5 -12   12.58    0.42
  -5  -9 -12   12.93    0.78
   9  -5  12   12.83    0.79
  -5   9  12   12.84    0.45
  -9  -5 -12   11.40    0.66
   5   9 -12   13.63    0.76
  -5  -9 -12   12.49    0.57
   9   5 -12   12.63    0.76
   9   5 -12   14.14    0.81
   5  -9  12   12.67    0.80
  -9  -5 -12   12.22    0.67
   9   5 -12   13.15    0.81
  -5  -9 -12   12.46    0.63
   5   9 -12   11.39    0.67
   9  -5  10    5.22    0.48
   5   9 -10    5.63    0.52
   9   5 -10    5.67    0.48
   9   5 -10    6.15    0.51
  -5  -9 -10    5.83    0.50
   5  -9  10    5.72    0.51
  -5   9  10    5.19    0.46
  -5  -9 -10    4.85    0.36
  -9  -5 -10    5.52    0.41
   5   9 -10    5.33    0.41
  -5  -9 -10    5.65    0.37
   9  -5  10    5.39    0.37
   5   9 -10    5.15    0.43
   9   5 -10    4.99    0.21
   9   5 -10    5.51    0.49
  -5   9   8    4.87    0.41
  -5  -9  -8    4.24    0.35
  -9  -5  -8    4.14    0.33
  -5  -9  -8    4.32    0.41
  -9   5   8    4.60    0.30
   9  -5   8    4.49    0.42
   9   5  -8    4.28    0.18
   9  -5   8    4.04    0.33
   5  -9   8    4.47    0.42
   9  -5   8    4.25    0.27
   9   5  -8    4.02    0.39
   5   9  -8    5.47    0.49
   9   5  -8    4.22    0.41
   5   9  -8    4.02    0.34
   9   5  -8    4.24    0.41
   5   9  -8    4.04    0.34
  -5  -9  -8    4.86    0.29
  -5  -9  -6   13.10    0.70
   5  -9   6   14.41    0.73
   9  -5   6   15.02    0.69
  -5  -9  -6   14.77    0.46
  -5  -9  -6   14.58    0.69
  -9  -5  -6   14.49    0.60
   9  -5   6   14.48    0.75
  -9   5   6   13.90    0.57
   9   5  -6   15.31    0.74
  -5   9   6   14.47    0.70
   5   9  -6   14.03    0.64
  -5  -9  -6   13.86    0.63
   5   9  -6   14.67    0.60
   9   5  -6   14.23    0.72
   5   9  -6   14.60    0.62
  -9  -5  -4    9.03    0.44
   9  -5   4    9.57    0.51
   5   9  -4    9.66    0.45
  -5  -9  -4    9.40    0.46
  -5  -9  -4    9.36    0.55
  -5  -9  -4    9.03    0.54
   9  -5   4    9.58    0.37
  -5   9   4    9.69    0.55
   5   9  -4    8.93    0.49
   5  -9   4    8.76    0.53
   9   5  -4   10.23    0.55
   5   9  -4    9.57    0.40
   9   5  -4    8.88    0.54
   9  -5   4    9.27    0.56
  -9   5   4    9.97    0.45
   9   5  -2    7.60    0.41
  -5  -9  -2    6.68    0.45
   9  -5   2    8.38    0.32
   5  -9   2    7.76    0.46
   9   5  -2    7.34    0.48
  -5  -9  -2    8.29    0.52
   9  -5   2    7.27    0.51
  -5   9   2    8.80    0.52
   9  -5   2    8.25    0.47
   5   9  -2    8.01    0.40
   5   9  -2    7.84    0.46
  -5  -9  -2    7.98    0.40
  -9   5   2    7.76    0.29
  -9  -5  -2    7.82    0.44
   5  -9   0   25.57    0.91
   5   9   0   26.76    0.97
   9  -5   0   26.92    0.73
   5  -9   0   25.80    0.92
  -5  -9   0   26.02    1.04
   9  -5   0   27.98    1.09
  -5   9   0   27.75    0.94
   9  -5   0   25.77    0.94
   9   5   0   27.39    0.88
  -5  -9   0   28.12    0.85
   9   5   0   26.66    0.99
  -9  -5   0   26.77    0.85
   5   9   0   27.56    0.86
   5  -9   0   27.57    0.74
   5  -9  -2    8.61    0.48
  -5   9  -2    8.68    0.47
   9   5   2    7.51    0.40
   5   9   2    8.11    0.50
   9   5   2    7.45    0.48
  -5  -9   2    8.00    0.54
  -5  -9   2    8.66    0.40
   9  -5  -2    8.08    0.37
   5   9   2    7.78    0.41
   9  -5  -2    7.59    0.46
  -9  -5   2    8.05    0.35
   5  -9  -2    8.60    0.35
  -5   9  -2    8.18    0.32
  -9  -5   2    8.58    0.45
  -9   5  -4   10.24    0.32
   9   5   4    9.85    0.57
  -5   9  -4    9.85    0.50
  -9  -5   4   10.00    0.51
   5  -9  -4    9.36    0.53
   9   5   4    9.82    0.47
   5   9   4    8.25    0.55
   5  -9  -4    9.68    0.61
  -5  -9   4    9.98    0.42
   5   9   4    8.98    0.56
  -5  -9   4    8.77    0.58
  -9  -5   4    8.89    0.59
  -5   9  -4    9.47    0.47
  -5   9  -4    9.12    0.38
   9  -5  -4    9.11    0.52
   9  -5  -4    9.47    0.46
   5  -9  -4    9.36    0.42
   5  -9  -4    9.27    0.42
   5   9   6   13.98    0.39
   5  -9  -6   14.07    0.71
   9   5   6   14.37    0.75
   5  -9  -6   14.96    0.78
  -9  -5   6   13.67    0.75
  -5  -9   6   14.08    0.60
  -5  -9   6   14.14    0.77
  -5   9  -6   14.24    0.63
   5  -9  -6   15.06    0.63
  -9   5  -6   15.80    0.47
   9   5   6   14.14    0.73
   5   9   6   15.48    0.78
  -5   9  -6   13.88    0.54
   9  -5  -6   14.87    0.71
   5  -9  -6   13.50    0.58
   5   9   8    4.98    0.19
   5  -9  -8    4.70    0.45
   5   9   8    5.04    0.49
   9   5   8    5.63    0.38
   5  -9  -8    5.45    0.48
  -5  -9   8    5.34    0.40
  -5   9  -8    5.00    0.39
   9   5   8    5.13    0.46
  -5   9  -8    4.91    0.34
  -9  -5   8    4.28    0.42
   9  -5  -8    4.86    0.43
  -5  -9   8    4.69    0.48
   5  -9  -8    4.83    0.37
  -9  -5  10    5.62    0.49
   5  -9 -10    6.01    0.54
   5  -9 -10    5.74    0.51
   9   5  10    5.60    0.40
   5   9  10    6.50    0.55
   9   5  10    5.46    0.52
   9  -5 -10    5.23    0.47
  -5   9 -10    6.07    0.47
  -9   5 -10    5.37    0.37
   9   5  12   12.76    0.82
   5  -9 -12   11.77    0.75
   9   5  12   13.67    0.67
  -9  -5  12   12.98    0.75
   5   9  12   14.63    0.87
   5  -9 -12   11.59    0.79
   9  -5 -12   13.93    0.82
   9  -5 -14    2.28    0.39
   5  -9 -14    1.58    0.30
   9   5  14    2.08    0.29
   5  -9 -14    2.43    0.42
   5   9  14    1.83    0.39
   9   5  14    1.76    0.38
  -9  -5  14    2.21    0.33
  -5   9 -14    1.67    0.36
   5  -9 -14    1.87    0.32
   9  -5 -16    0.57    0.24
   5  -9 -16    0.38    0.21
   9   5  16    0.95    0.22
  -5   9 -16    0.76    0.28
  -9  -5  16    0.87    0.26
   9  -5 -16    1.04    0.30
   5  -9 -16    0.62    0.25
   9  -5 -18    0.80    0.33
   9   5  18    1.26    0.27
   9  -5 -18    0.91    0.29
  -5   9 -18    1.10    0.37
  -9   5 -18    1.21    0.36
   9  -5 -18    0.76    0.32
   5  -9 -18    1.15    0.31
   9  -5 -20    0.77    0.34
  -9   5 -20    0.37    0.29
   9   5  20    1.02    0.25
   9  -5 -20    0.45    0.23
  -5   9 -20    1.10    0.36
   5  -9 -20    0.27    0.25
   9  -5 -20    1.23    0.37
   9  -5 -22   -0.10    0.30
  -5   9 -22    0.29    0.27
  -9   5 -22   -0.10    0.28
   9  -5 -22   -0.12    0.28
   5  -9 -22   -0.68    0.35
   9   6 -21    0.22    0.23
   6   9 -21   -0.30    0.29
   6   9 -21    0.08    0.28
  -6  -9 -21   -0.08    0.25
   6  -9  21   -0.15    0.24
   9  -6  21    0.26    0.23
   9   6 -21   -0.20    0.28
  -9  -6 -21    0.40    0.28
  -9  -6 -21    0.03    0.21
  -6  -9 -21    0.02    0.24
   6   9 -19    0.60    0.23
   6   9 -19    0.60    0.32
  -6  -9 -19    0.28    0.24
  -6  -9 -19    0.11    0.22
   9  -6  19   -0.04    0.23
  -9  -6 -19    0.25    0.23
  -9  -6 -19    0.31    0.24
   6  -9  19    0.10    0.20
   9   6 -19    0.11    0.24
   9   6 -19    0.44    0.25
   6   9 -17    2.41    0.38
   6   9 -17    3.01    0.46
  -9  -6 -17    2.22    0.36
  -6  -9 -17    2.19    0.33
   9   6 -17    2.59    0.41
  -6  -9 -17    1.86    0.37
  -9  -6 -17    2.15    0.37
   6  -9  17    2.33    0.44
   9  -6  17    2.55    0.42
   9   6 -17    2.33    0.41
   6   9 -15    0.86    0.25
   9  -6  15    0.46    0.25
   6   9 -15    0.73    0.27
  -9  -6 -15    0.85    0.26
   6  -9  15    1.05    0.33
  -9  -6 -15    0.65    0.23
  -6  -9 -15   -0.01    0.18
  -6  -9 -15    0.74    0.29
   6   9 -15    0.86    0.32
   9   6 -15    0.61    0.28
   9   6 -15    0.68    0.25
   6   9 -13    3.62    0.41
  -6  -9 -13    3.18    0.41
   9   6 -13    3.96    0.45
   6  -9  13    3.42    0.46
   9  -6  13    3.59    0.44
  -9  -6 -13    4.59    0.43
   6   9 -13    3.80    0.49
  -6  -9 -13    3.47    0.35
   9   6 -13    4.62    0.52
  -9  -6 -13    3.22    0.38
  -6  -9 -13    3.73    0.33
   9   6 -13    3.18    0.44
   6   9 -13    3.85    0.42
  -6   9  11    4.09    0.40
   6   9 -11    3.53    0.39
  -9  -6 -11    3.71    0.36
  -6  -9 -11    3.29    0.39
  -6  -9 -11    4.11    0.34
   9   6 -11    3.49    0.21
  -6  -9 -11    3.62    0.33
   6   9 -11    3.94    0.49
   9  -6  11    3.48    0.32
   6  -9  11    3.38    0.42
   9   6 -11    3.49    0.40
   9  -6  11    3.75    0.45
  -9  -6 -11    3.64    0.36
   9   6 -11    3.66    0.46
   9   6 -11    3.72    0.42
   6   9 -11    3.38    0.35
  -9  -6  -9    4.69    0.38
  -6  -9  -9    5.25    0.46
  -9   6   9    5.00    0.35
   6   9  -9    4.30    0.38
  -6  -9  -9    4.62    0.38
  -6  -9  -9    4.14    0.30
   9  -6   9    4.09    0.30
   9  -6   9    4.20    0.42
  -6   9   9    4.78    0.42
   6  -9   9    4.12    0.44
   6   9  -9    5.01    0.48
   9   6  -9    4.07    0.39
   9   6  -9    4.75    0.46
   9   6  -9    4.55    0.23
   9   6  -9    4.01    0.41
   6   9  -9    3.48    0.35
  -6  -9  -7    7.92    0.36
   9   6  -7    7.22    0.31
  -9  -6  -7    7.65    0.45
  -6  -9  -7    7.03    0.50
   6  -9   7    7.24    0.53
  -6  -9  -7    7.68    0.50
   9  -6   7    7.92    0.49
   6   9  -7    7.78    0.48
   6   9  -7    7.17    0.43
   6   9  -7    8.32    0.59
   6   9  -7    7.77    0.45
   9   6  -7    7.64    0.53
   9  -6   7    7.06    0.54
   9   6  -7    7.79    0.55
  -9   6   7    8.16    0.44
  -6   9   7    8.54    0.53
   6  -9   5    0.57    0.20
   9   6  -5    0.49    0.19
  -9  -6  -5    0.33    0.13
   6   9  -5    0.18    0.13
  -6  -9  -5    0.26    0.17
   6   9  -5   -0.03    0.18
  -6  -9  -5    0.18    0.06
   9  -6   5    0.22    0.18
  -6   9   5    0.17    0.14
  -9   6   5    0.30    0.13
  -6  -9  -5    0.35    0.18
   9  -6   5    0.16    0.18
   9  -6   5    0.37    0.16
   6   9  -5    0.44    0.13
   9   6  -5    0.27    0.19
   6   9  -5    0.45    0.15
  -6  -9  -3    0.72    0.18
   6  -9   3    0.34    0.15
   6   9  -3    0.56    0.16
   9  -6   3    0.61    0.16
   9  -6   3    0.57    0.07
  -6  -9  -3    0.57    0.18
  -6   9   3    0.52    0.17
   6   9  -3    0.48    0.13
  -6  -9  -3    0.33    0.12
   9   6  -3    0.63    0.18
   9  -6   3    0.73    0.21
   9   6  -3    0.67    0.20
   6  -9   1    9.36    0.47
   6   9  -1    9.95    0.53
  -6   9   1   10.30    0.52
   9  -6   1    8.79    0.58
   9  -6   1    9.92    0.51
  -6  -9  -1    9.00    0.58
   9   6  -1   10.57    0.57
   6  -9   1    9.89    0.40
   6  -9   1    9.51    0.53
   6   9  -1   10.00    0.48
  -6  -9  -1    9.64    0.47
  -9  -6  -1    8.83    0.47
  -6   9  -1   10.40    0.51
  -9  -6   1   10.02    0.45
   6  -9  -1    9.89    0.50
   9  -6  -1    9.49    0.40
   9   6   1    9.41    0.48
   6   9   1    9.89    0.56
   6  -9  -1    8.81    0.62
   9  -6  -1    8.93    0.61
  -6  -9   1   10.57    0.48
  -6  -9   1   10.60    0.63
  -9  -6   1    9.82    0.63
   9   6   1   10.00    0.56
   6   9   1   10.49    0.50
   9  -6  -1   10.62    0.53
   6  -9  -1   10.31    0.41
  -9  -6   1   10.48    0.48
  -6  -9   1   10.04    0.34
  -6   9  -1    9.60    0.40
  -6  -9   3    0.50    0.13
   6   9   3    0.60    0.20
  -9  -6   3    0.51    0.23
   9   6   3    0.49    0.13
   9   6   3    0.69    0.18
   6  -9  -3    0.29    0.21
   9  -6  -3    0.42    0.22
  -6  -9   3    0.66    0.11
  -9   6  -3    0.63    0.10
   6  -9  -3    0.56    0.10
   6  -9  -3    0.60    0.17
  -6  -9   3    0.63    0.24
   9  -6  -3    0.50    0.16
   6  -9  -3    0.66    0.13
  -6   9  -3    0.65    0.16
  -6   9  -3    0.43    0.10
   6   9   3    0.56    0.16
   9  -6  -3    0.36    0.13
  -6   9  -3    0.67    0.14
  -9  -6   3    0.51    0.15
  -9  -6   5    0.47    0.16
  -6   9  -5    0.33    0.13
  -6  -9   5    0.35    0.12
   6  -9  -5    0.47    0.14
   9  -6  -5    0.28    0.17
  -9   6  -5    0.21    0.07
   9  -6  -5    0.44    0.16
   6  -9  -5    0.52    0.22
   9  -6  -5    0.54    0.26
  -9  -6   5    0.24    0.21
  -6  -9   5    0.22    0.24
  -6   9  -5    0.45    0.15
   6   9   5    0.66    0.24
   9   6   5    0.15    0.17
   6  -9  -5    0.26    0.14
   9   6   5    0.23    0.21
   9   6   5    0.17    0.13
  -6   9  -5    0.40    0.11
   6  -9  -5    0.30    0.12
  -9   6  -7    8.90    0.37
   6  -9  -7    7.41    0.53
   6   9   7    7.96    0.58
   6   9   7    7.71    0.30
   6  -9  -7    8.32    0.59
   6  -9  -7    8.51    0.48
   9  -6  -7    8.36    0.62
  -6  -9   7    6.77    0.56
  -9  -6   7    7.92    0.58
  -6   9  -7    7.43    0.30
   9   6   7    8.22    0.59
  -6  -9   7    7.57    0.46
  -6   9  -7    7.19    0.41
  -6   9  -7    7.68    0.46
   9  -6  -7    7.94    0.53
   6  -9  -7    7.62    0.45
   6   9   9    3.92    0.44
   9   6   9    4.58    0.34
   6   9   9    4.55    0.23
   9  -6  -9    4.57    0.50
  -6   9  -9    4.26    0.28
   6  -9  -9    4.97    0.39
   6  -9  -9    4.07    0.43
  -6  -9   9    4.40    0.47
  -9  -6   9    3.99    0.43
   9   6   9    3.55    0.41
   6  -9  -9    4.08    0.44
   9  -6  -9    4.95    0.45
  -6   9  -9    4.85    0.40
   9   6  11    3.66    0.32
   6   9  11    3.78    0.23
   6  -9 -11    3.60    0.45
   6   9  11    3.41    0.47
   6  -9 -11    3.70    0.44
   9  -6 -11    4.15    0.47
  -9   6 -11    3.44    0.30
   9   6  11    3.92    0.47
  -6   9 -11    3.05    0.28
  -9  -6  11    4.09    0.44
   9  -6 -11    3.72    0.41
   6  -9 -13    2.94    0.40
   9   6  13    4.00    0.35
   6   9  13    3.20    0.46
   6  -9 -13    4.04    0.49
   9  -6 -13    4.02    0.47
  -9  -6  13    3.87    0.43
   9   6  13    3.90    0.51
   9  -6 -13    3.49    0.42
   9  -6 -15    0.85    0.29
   6   9  15    0.83    0.33
  -9  -6  15    0.47    0.21
   9   6  15    0.48    0.30
   9  -6 -15    0.28    0.25
   6  -9 -15    0.91    0.29
   9   6  15    0.56    0.17
  -6   9 -15    0.60    0.27
   6  -9 -15    0.62    0.26
   9  -6 -17    2.10    0.41
   9  -6 -17    2.77    0.42
   6  -9 -17    2.69    0.42
  -9   6 -17    2.86    0.45
   9  -6 -17    2.73    0.47
   6  -9 -17    2.57    0.39
   9   6  17    2.21    0.32
  -6   9 -17    2.32    0.41
   9  -6 -19    0.22    0.30
   6  -9 -19    0.23    0.27
   6  -9 -19    0.15    0.21
  -9   6 -19    0.15    0.24
   9  -6 -19    0.20    0.25
   9  -6 -19    0.30    0.24
  -6   9 -19    0.31    0.28
   9  -6 -21    0.91    0.36
  -9   6 -21    0.22    0.33
   9  -6 -21   -0.28    0.21
  -6   9 -21    0.09    0.25
   6  -9 -21    0.22    0.31
   9  -6 -21    0.12    0.29
   7   9 -20    1.06    0.32
  -7  -9 -20    0.96    0.28
   7  -9  20    0.80    0.34
  -9  -7 -20    0.84    0.28
   9  -7  20    2.01    0.44
  -7  -9 -20    0.95    0.32
   7   9 -20    0.35    0.28
  -9  -7 -20    0.90    0.30
   9   7 -20    1.00    0.37
   9   7 -20    1.03    0.32
   7   9 -18    0.93    0.32
  -7  -9 -18    0.54    0.22
  -9  -7 -18    0.24    0.23
   9  -7  18    0.68    0.32
   9   7 -18    0.49    0.28
  -9  -7 -18    0.06    0.20
   7  -9  18    0.81    0.33
  -7  -9 -18   -0.14    0.26
   9   7 -18    0.72    0.28
   7   9 -18    0.33    0.28
  -9  -7 -16    0.48    0.21
  -7  -9 -16    0.93    0.28
   7  -9  16    1.04    0.32
   9  -7  16    0.88    0.30
  -7  -9 -16    0.88    0.24
   7   9 -16    1.30    0.34
  -9  -7 -16    0.72    0.25
   9   7 -16    1.28    0.32
   9   7 -16    0.81    0.27
   7   9 -16    0.80    0.34
   7   9 -16    0.45    0.21
   7  -9  14    5.80    0.58
  -9  -7 -14    5.03    0.46
  -9  -7 -14    5.68    0.50
   9   7 -14    6.09    0.60
  -7  -9 -14    5.01    0.51
   9  -7  14    6.66    0.59
  -7  -9 -14    6.09    0.43
   9   7 -14    5.64    0.55
   7   9 -14    5.52    0.54
   7   9 -14    6.37    0.64
   9   7 -14    5.95    0.56
   7   9 -14    5.73    0.51
  -7  -9 -14    5.38    0.46
  -7  -9 -12    7.28    0.49
  -9  -7 -12    7.41    0.54
  -7  -9 -12    7.19    0.58
  -7  -9 -12    7.62    0.49
   7  -9  12    7.81    0.65
   9  -7  12    7.55    0.62
   7   9 -12    8.14    0.61
   9   7 -12    7.81    0.37
   7   9 -12    8.21    0.68
   9   7 -12    7.91    0.61
   9   7 -12    7.14    0.58
   9   7 -12    7.45    0.64
   7   9 -12    7.81    0.57
  -9  -7 -12    7.49    0.52
  -7  -9 -10   10.15    0.51
  -7   9  10    9.77    0.61
  -9  -7 -10    9.67    0.58
  -7  -9 -10    9.65    0.63
   7  -9  10    9.91    0.69
   9  -7  10    8.92    0.66
   7   9 -10    9.87    0.70
  -9   7  10    9.59    0.54
  -9  -7 -10    8.84    0.53
  -7  -9 -10    8.71    0.55
   7   9 -10    9.16    0.50
   9   7 -10    9.77    0.62
   7   9 -10    9.94    0.61
   9   7 -10    9.89    0.41
   9   7 -10    9.99    0.69
   9   7 -10    8.92    0.63
   7   9 -10   10.04    0.62
  -7   9   8   15.01    0.72
  -9   7   8   15.00    0.66
  -9  -7  -8   13.66    0.67
  -7  -9  -8   13.01    0.70
  -7  -9  -8   13.87    0.56
   9  -7   8   13.99    0.79
  -7  -9  -8   14.07    0.72
   9   7  -8   14.89    0.80
   7   9  -8   14.16    0.62
   9   7  -8   12.84    0.67
   7   9  -8   14.06    0.67
   7   9  -8   14.83    0.83
   9   7  -8   13.64    0.74
   7   9  -8   14.46    0.70
   7  -9   8   12.80    0.76
   9   7  -8   14.30    0.52
   7   9  -6    2.58    0.26
   7   9  -6    2.75    0.38
   9   7  -6    2.64    0.35
  -7   9   6    2.68    0.31
  -9   7   6    2.86    0.27
  -9  -7  -6    1.86    0.26
   9   7  -6    2.57    0.21
  -7  -9  -6    2.57    0.19
  -7  -9  -6    2.83    0.33
   9  -7   6    3.00    0.34
   9  -7   6    2.53    0.34
  -7  -9  -6    2.84    0.35
   7  -9   6    2.69    0.34
   7   9  -6    2.70    0.26
   9   7  -6    2.70    0.32
   7   9  -6    2.79    0.29
  -9  -7  -4    5.52    0.39
  -7  -9  -4    5.63    0.42
   9  -7   4    6.89    0.50
   9   7  -4    6.48    0.35
  -7  -9  -4    6.34    0.25
   7  -9   4    6.43    0.47
  -7  -9  -4    5.27    0.46
  -9   7   4    6.47    0.41
   9   7  -4    6.25    0.47
   9  -7   4    5.66    0.40
   9  -7   4    6.18    0.48
   7   9  -4    6.22    0.41
  -7   9   4    7.11    0.47
   9   7  -4    6.35    0.46
   7   9  -4    6.33    0.41
   7   9  -4    6.79    0.52
  -7  -9  -2   23.36    0.91
   7   9  -2   23.40    0.88
   7  -9   2   22.82    0.93
   9   7  -2   23.79    0.93
   9  -7   2   24.14    1.01
  -7  -9  -2   23.97    1.01
  -9  -7  -2   22.17    1.01
  -7   9   2   24.55    0.95
   7  -9   2   25.14    0.77
   9  -7   2   23.59    0.86
   7   9  -2   24.64    0.87
  -7  -9  -2   23.79    0.86
  -7  -9  -2   21.74    0.59
   7   9   0    1.90    0.27
   7  -9   0    1.80    0.21
   9  -7   0    1.40    0.16
   9  -7   0    1.65    0.29
  -7  -9   0    1.68    0.13
  -7   9   0    1.96    0.23
   7  -9   0    1.48    0.28
  -7  -9   0    1.71    0.29
  -9  -7   0    1.50    0.32
  -7   9   0    1.75    0.18
   7   9   0    1.78    0.23
   7  -9   0    1.81    0.18
   9   7   0    1.81    0.26
   9  -7   0    1.65    0.22
  -9  -7   0    1.90    0.19
  -9  -7   0    1.60    0.20
  -7  -9   0    1.54    0.20
   7   9   2   22.76    0.86
   7  -9  -2   22.79    0.85
   9  -7  -2   22.98    0.77
  -7  -9   2   23.50    0.70
  -9  -7   2   23.10    0.77
   7  -9  -2   21.39    1.00
   9  -7  -2   22.44    1.03
   7   9   2   22.90    0.93
  -7  -9   2   23.96    1.03
  -9  -7   2   22.32    1.02
   7  -9  -2   22.80    0.61
   9   7   2   24.32    0.94
   7  -9  -2   24.24    0.78
   9  -7  -2   23.42    0.86
  -9  -7   2   23.69    0.80
  -9   7  -2   21.36    0.58
  -7   9  -2   22.55    0.75
  -7   9  -2   24.42    0.84
  -7  -9   2   23.53    0.84
  -7  -9   4    6.52    0.36
  -7   9  -4    6.24    0.39
   7  -9  -4    6.50    0.44
  -9   7  -4    6.46    0.31
   9  -7  -4    5.36    0.38
   7  -9  -4    6.94    0.55
   9  -7  -4    6.20    0.53
  -7  -9   4    5.52    0.48
  -9  -7   4    5.82    0.50
   7  -9  -4    5.68    0.32
   7   9   4    5.37    0.47
   9   7   4    5.82    0.45
  -7   9  -4    6.56    0.36
  -7   9  -4    6.05    0.35
   9  -7  -4    6.11    0.41
   7  -9  -4    6.33    0.37
  -9  -7   4    5.94    0.38
  -7   9  -6    3.00    0.27
  -9   7  -6    2.96    0.22
   9  -7  -6    2.72    0.30
  -9  -7   6    2.27    0.35
   9  -7  -6    2.80    0.40
   7  -9  -6    2.87    0.32
   7  -9  -6    3.17    0.41
   7   9   6    2.82    0.38
  -7  -9   6    3.03    0.39
  -7   9  -6    2.66    0.25
   7  -9  -6    2.96    0.28
  -7  -9   6    2.76    0.28
  -7   9  -6    2.92    0.27
   9   7   6    3.15    0.40
   9  -7  -6    2.87    0.32
   7  -9  -6    2.36    0.27
  -9   7  -8   14.00    0.54
   7   9   8   13.66    0.48
   9   7   8   14.14    0.81
   7  -9  -8   14.10    0.82
   9  -7  -8   13.15    0.82
   9  -7  -8   11.91    0.68
  -9  -7   8   13.47    0.79
   7   9   8   13.06    0.79
  -7   9  -8   12.41    0.44
   7  -9  -8   13.12    0.74
   9  -7  -8   12.76    0.69
  -7  -9   8   13.34    0.80
   7  -9  -8   14.34    0.67
  -7   9  -8   13.61    0.64
   9   7   8   13.24    0.59
   7  -9 -10    8.87    0.65
   7  -9 -10    8.87    0.66
  -9  -7  10    8.59    0.64
   9   7  10   10.28    0.72
  -7   9 -10    8.02    0.41
   9  -7 -10    7.88    0.64
   7   9  10    9.19    0.39
   7   9  10    9.73    0.71
   9   7  10    9.37    0.49
   9  -7 -10    9.50    0.62
  -7  -9  10    9.82    0.70
   7  -9 -10    8.33    0.56
   7   9  12    7.33    0.38
  -9  -7  12    6.76    0.58
   7   9  12    8.13    0.69
   7  -9 -12    7.09    0.60
   9  -7 -12    8.65    0.68
   9   7  12    9.75    0.73
   9   7  12    8.45    0.49
   7  -9 -12    7.93    0.65
   9  -7 -12    8.22    0.62
   7  -9 -12    7.80    0.57
   7  -9 -14    5.43    0.53
   7  -9 -14    6.16    0.60
   9  -7 -14    5.48    0.55
   9   7  14    5.50    0.59
  -9  -7  14    6.03    0.55
   7   9  14    5.22    0.56
   9   7  14    5.34    0.41
   9  -7 -14    5.71    0.55
   9   7  16    0.76    0.19
   7   9  16    1.14    0.37
   9  -7 -16    0.53    0.24
   9   7  16    0.57    0.34
  -7   9 -16    0.49    0.28
   9  -7 -16    0.60    0.28
   7  -9 -16    1.01    0.28
   9  -7 -18    0.46    0.25
   7  -9 -18    0.21    0.20
  -7   9 -18    0.61    0.33
  -9   7 -18    0.58    0.30
   7  -9 -18    0.46    0.26
   9  -7 -18    1.01    0.31
   9  -7 -20    1.03    0.36
   7  -9 -20    0.90    0.30
   9  -7 -20    1.40    0.35
  -7   9 -20    0.92    0.31
  -9   7 -20    0.91    0.34
   9  -7 -20    1.47    0.42
   7  -9 -20    1.44    0.38
   8  -9  21   -0.03    0.22
  -8  -9 -21    0.02    0.22
   9   8 -21   -0.28    0.31
  -9  -8 -21   -0.15    0.25
  -9  -8 -21   -0.41    0.31
  -8  -9 -21    0.05    0.24
   9  -8  21   -0.06    0.21
   8   9 -21    0.35    0.30
   9   8 -21   -0.21    0.27
   8   9 -21   -0.42    0.29
  -9  -8 -19    1.34    0.35
   9  -8  19    1.23    0.34
  -9  -8 -19    1.26    0.31
  -8  -9 -19    0.94    0.28
  -8  -9 -19    1.29    0.37
   8   9 -19    1.32    0.35
   8  -9  19    1.37    0.39
   9   8 -19    2.03    0.44
   8   9 -19    1.66    0.40
   9   8 -19    1.98    0.40
  -9  -8 -17    1.61    0.35
   9  -8  17    1.97    0.41
   8  -9  17    2.10    0.41
  -9  -8 -17    2.28    0.34
  -8  -9 -17    2.15    0.35
  -8  -9 -17    2.09    0.40
   9   8 -17    1.64    0.34
   8   9 -17    1.75    0.36
   9   8 -17    1.53    0.36
   8   9 -17    2.36    0.39
  -9  -8 -15    2.92    0.37
   8   9 -15    2.94    0.48
   9  -8  15    3.42    0.47
   9   8 -15    3.72    0.51
  -9  -8 -15    2.74    0.33
  -9  -8 -15    2.92    0.40
  -8  -9 -15    2.95    0.43
   8  -9  15    3.02    0.46
  -8  -9 -15    2.83    0.34
   9   8 -15    4.18    0.51
   8   9 -15    2.72    0.41
   9   8 -15    3.74    0.47
   8   9 -15    2.10    0.37
   8  -9  13    6.16    0.59
  -8  -9 -13    6.25    0.47
  -9  -8 -13    7.14    0.51
  -9  -8 -13    5.42    0.48
  -8  -9 -13    7.21    0.59
   9  -8  13    6.69    0.62
  -8  -9 -13    7.00    0.51
   9   8 -13    7.15    0.59
   8   9 -13    7.08    0.58
  -9  -8 -13    6.56    0.54
   8   9 -13    7.69    0.68
   9   8 -13    6.91    0.58
   8   9 -13    7.00    0.56
   9   8 -13    8.02    0.68
   9   8 -11   12.85    0.74
  -8  -9 -11   12.41    0.62
  -9  -8 -11   12.48    0.71
  -8  -9 -11   13.14    0.76
   8   9 -11   13.01    0.74
  -8   9  11   13.53    0.72
  -8  -9 -11   12.26    0.69
  -9  -8 -11   12.12    0.71
  -9  -8 -11   11.59    0.63
  -9   8  11   12.85    0.67
   8   9 -11   12.40    0.58
   8  -9  11   11.89    0.79
   9   8 -11   12.04    0.52
   8   9 -11   12.36    0.72
   9  -8  11   12.40    0.80
   8   9 -11   14.77    0.89
   9   8 -11   12.95    0.83
   9   8 -11   12.21    0.75
   8   9  -9    2.92    0.41
  -8   9   9    3.68    0.37
  -9  -8  -9    2.77    0.33
  -8  -9  -9    2.97    0.36
   9  -8   9    3.44    0.40
  -8  -9  -9    2.48    0.26
  -9   8   9    3.22    0.34
  -9  -8  -9    2.62    0.27
   9   8  -9    2.74    0.39
  -8  -9  -9    2.23    0.32
   8   9  -9    2.17    0.23
  -9  -8  -9    3.08    0.39
   9   8  -9    2.64    0.23
   8   9  -9    2.30    0.31
   9   8  -9    2.68    0.32
   9   8  -9    2.47    0.34
   8   9  -9    3.37    0.36
   8  -9   9    2.92    0.38
   9   8  -7   16.87    0.64
  -9  -8  -7   17.46    0.78
   8  -9   7   17.37    0.88
   9  -8   7   16.87    0.88
  -8  -9  -7   18.58    0.87
  -8  -9  -7   17.15    0.81
  -9  -8  -7   16.30    0.86
  -8  -9  -7   17.39    0.62
   8   9  -7   17.58    0.74
   8   9  -7   19.40    0.95
   9   8  -7   18.04    0.92
   9   8  -7   18.26    0.85
   8   9  -7   16.15    0.78
   8   9  -7   17.15    0.69
  -9   8   7   17.77    0.76
  -8   9   7   17.18    0.79
  -9  -8  -5   17.50    0.77
  -8  -9  -5   16.76    0.79
   9   8  -5   18.81    0.69
   9  -8   5   19.81    0.91
   9  -8   5   19.57    0.89
  -9   8   5   17.87    0.76
  -8  -9  -5   16.93    0.86
  -9  -8  -5   17.64    0.89
   8  -9   5   18.10    0.87
   8   9  -5   20.83    0.95
   9   8  -5   19.66    0.92
  -8   9   5   19.24    0.82
   8   9  -5   18.66    0.80
   9   8  -5   17.16    0.80
   8   9  -5   18.61    0.73
  -8  -9  -3    1.93    0.27
   8   9  -3    1.60    0.23
   8  -9   3    2.15    0.30
   9  -8   3    2.06    0.32
   9   8  -3    2.03    0.23
  -9   8   3    1.60    0.24
  -8   9   3    1.71    0.25
   8  -9   3    2.06    0.22
   9  -8   3    1.52    0.21
  -8  -9  -3    1.91    0.14
  -9  -8  -3    1.56    0.31
   8   9  -3    1.88    0.25
   9   8  -3    1.47    0.24
  -8  -9  -3    1.93    0.29
   9  -8   3    1.94    0.30
  -8  -9  -1   25.14    0.70
   8  -9   1   24.64    1.07
  -9  -8  -1   24.79    0.77
   9  -8   1   25.80    1.08
   9  -8   1   24.95    0.88
  -8  -9  -1   23.21    1.06
  -9  -8  -1   22.66    1.05
   8  -9   1   24.54    0.83
   8   9  -1   25.54    0.94
   8   9  -1   24.73    0.93
   9   8  -1   24.88    0.96
   8  -9   1   24.16    0.83
  -8   9   1   23.39    0.83
   8  -9   1   24.47    0.99
   8  -9  -1   24.00    0.85
   9  -8  -1   23.63    0.80
   8  -9  -1   24.36    1.08
  -8   9  -1   25.48    0.87
   9  -8  -1   23.56    1.07
   9  -8  -1   22.78    0.59
  -8  -9   1   25.32    0.73
  -8  -9   1   24.09    1.06
  -9  -8   1   23.36    0.84
  -9  -8   1   23.08    1.06
   8   9   1   25.22    0.93
  -9   8  -1   24.43    0.67
   9   8   1   24.45    0.95
   8  -9  -1   24.10    0.82
   9  -8  -1   23.30    0.86
  -9  -8   1   24.43    0.79
  -8   9  -1   23.14    0.81
  -8  -9   3    1.56    0.18
  -8   9  -3    1.78    0.18
  -9  -8   3    1.46    0.19
   9  -8  -3    1.54    0.20
   8   9   3    1.69    0.25
   8  -9  -3    1.76    0.24
  -9   8  -3    1.93    0.20
   9  -8  -3    1.43    0.31
   8  -9  -3    1.74    0.15
   9  -8  -3    1.85    0.17
  -8   9  -3    1.77    0.22
  -8  -9   3    1.99    0.33
  -9  -8   3    1.90    0.33
   8  -9  -3    1.76    0.33
   9   8   3    1.53    0.26
  -9   8  -3    1.66    0.14
   8  -9  -3    1.57    0.21
  -8   9  -3    1.77    0.20
   9  -8  -3    1.97    0.25
  -8  -9   5   19.22    0.74
  -8  -9   5   18.33    0.93
   9   8   5   18.20    0.91
   8  -9  -5   18.87    0.81
  -8   9  -5   20.05    0.73
  -9   8  -5   18.85    0.66
   9  -8  -5   18.15    0.77
  -8   9  -5   18.33    0.67
   8  -9  -5   19.10    0.97
  -9  -8   5   17.73    0.92
   8  -9  -5   17.70    0.68
   8   9   5   18.42    0.92
   9   8   5   18.86    0.86
   9  -8  -5   17.68    0.77
  -8   9  -5   18.09    0.71
   9  -8  -5   17.81    0.95
   8  -9  -5   17.45    0.73
  -9  -8   5   18.21    0.74
  -8   9  -7   18.42    0.72
  -9   8  -7   18.12    0.67
  -8  -9   7   17.66    0.76
   8  -9  -7   17.26    0.83
  -8  -9   7   18.02    0.93
   9  -8  -7   18.01    0.95
   8   9   7   16.76    0.61
  -9  -8   7   15.83    0.88
   8  -9  -7   17.34    0.74
   8   9   7   18.53    0.95
   9   8   7   17.83    0.92
   9  -8  -7   17.88    0.83
   9  -8  -7   17.04    0.79
   8  -9  -7   17.77    0.94
   8  -9  -7   17.32    0.77
  -8   9  -7   17.37    0.69
   8  -9  -9    2.55    0.33
   8   9   9    2.95    0.23
  -9   8  -9    2.78    0.26
   9   8   9    2.68    0.25
   9   8   9    3.27    0.44
  -8  -9   9    2.52    0.39
   9  -8  -9    3.01    0.37
   9  -8  -9    2.83    0.42
   8  -9  -9    2.29    0.37
  -9  -8   9    2.87    0.39
   8   9   9    3.64    0.45
   8  -9  -9    2.29    0.35
   9  -8  -9    2.97    0.35
  -8  -9  11   11.65    0.79
  -9  -8  11   12.28    0.78
   9   8  11   12.45    0.58
   8  -9 -11   12.80    0.82
   8  -9 -11   11.97    0.78
   9  -8 -11    9.85    0.71
   8   9  11   11.92    0.82
   9   8  11   13.89    0.88
   8   9  11   12.30    0.52
   9  -8 -11   11.81    0.80
   9  -8 -11   12.33    0.74
   8  -9 -11   12.62    0.72
   8  -9 -13    6.93    0.63
   9   8  13    6.65    0.43
   8  -9 -13    6.90    0.61
  -8  -9  13    6.88    0.62
   9  -8 -13    6.63    0.61
   8   9  13    7.14    0.67
   9   8  13    7.08    0.65
  -9  -8  13    7.05    0.59
   9  -8 -13    6.05    0.55
   8  -9 -13    7.56    0.58
   9  -8 -15    2.72    0.42
   8  -9 -15    2.96    0.41
   9  -8 -15    3.16    0.44
   8   9  15    2.31    0.44
  -9  -8  15    2.88    0.43
   9   8  15    2.65    0.46
   8  -9 -15    2.96    0.44
   9  -8 -17    2.05    0.41
   8  -9 -17    1.86    0.36
   9   8  17    2.52    0.48
   8  -9 -17    2.07    0.37
   9  -8 -17    1.21    0.33
  -8   9 -17    1.34    0.37
   9  -8 -19    1.89    0.43
   8  -9 -19    2.21    0.43
   8  -9 -19    1.18    0.30
  -8   9 -19    1.68    0.39
   9  -8 -19    1.23    0.33
  -9   8 -19    1.10    0.36
   9  -8 -21    0.02    0.27
   8  -9 -21    0.20    0.27
   9  -8 -21    0.00    0.24
  -8   9 -21    0.48    0.32
  -9   8 -21    0.40    0.29
   8  -9 -21   -0.05    0.20
  -9  -9 -20    0.25    0.25
   9  -9  20    0.20    0.23
   9   9 -20    0.13    0.25
   9   9 -20    0.10    0.22
   9   9 -18    0.75    0.29
  -9  -9 -18    0.37    0.25
   9  -9  18    0.40    0.28
  -9  -9 -18    0.56    0.25
   9   9 -18    0.34    0.25
  -9  -9 -16    0.16    0.22
   9  -9  16    0.33    0.25
   9   9 -16    0.26    0.31
  -9  -9 -16    0.13    0.19
   9   9 -16    0.44    0.25
   9   9 -16    0.17    0.24
   9  -9  14    3.47    0.46
   9   9 -14    3.34    0.50
  -9  -9 -14    2.66    0.38
  -9  -9 -14    3.20    0.37
  -9  -9 -14    2.38    0.31
   9   9 -14    3.18    0.42
   9   9 -14    2.74    0.39
   9   9 -12    2.80    0.44
   9  -9  12    2.40    0.38
  -9  -9 -12    2.16    0.28
  -9  -9 -12    2.10    0.31
   9   9 -12    1.92    0.22
  -9  -9 -12    2.00    0.32
   9   9 -12    2.20    0.34
   9   9 -12    2.25    0.35
  -9  -9 -10    7.25    0.54
  -9  -9 -10    7.28    0.45
  -9   9  10    8.48    0.54
  -9  -9 -10    8.26    0.59
   9   9 -10    7.48    0.42
   9   9 -10    7.78    0.55
   9  -9  10    7.03    0.62
   9   9 -10    7.92    0.66
   9   9 -10    8.00    0.58
  -9   9   8   10.71    0.60
  -9  -9  -8   10.44    0.62
   9  -9   8    8.90    0.65
  -9  -9  -8    9.60    0.48
  -9  -9  -8    9.26    0.64
   9   9  -8   10.12    0.58
   9   9  -8   10.92    0.72
   9   9  -8    9.59    0.62
   9   9  -8   10.28    0.50
   9   9  -6   -0.14    0.22
  -9   9   6    0.00    0.16
  -9  -9  -6    0.13    0.17
   9  -9   6    0.02    0.15
   9   9  -6   -0.09    0.18
  -9  -9  -6    0.00    0.19
   9   9  -6   -0.01    0.12
  -9  -9  -4    5.03    0.40
   9   9  -4    4.87    0.36
   9  -9   4    4.06    0.41
   9  -9   4    4.57    0.35
  -9  -9  -4    4.42    0.46
  -9   9   4    5.04    0.41
   9  -9   4    5.26    0.46
   9   9  -4    4.97    0.42
   9   9  -4    5.03    0.47
   9  -9   2    7.75    0.58
   9   9  -2    7.82    0.47
  -9  -9  -2    8.61    0.62
   9  -9   2    7.18    0.43
   9   9  -2    7.98    0.51
  -9  -9  -2    8.33    0.36
   9  -9   2    7.32    0.54
   9  -9   0   22.37    0.79
   9  -9   0   23.39    1.07
  -9  -9   0   22.58    1.06
   9  -9   0   23.48    0.84
   9   9   0   23.21    0.93
  -9  -9   0   24.49    0.74
  -9   9   0   20.85    0.81
   9  -9  -2    7.41    0.43
  -9   9  -2    8.35    0.44
  -9  -9   2    8.70    0.64
  -9   9  -2    7.63    0.44
   9  -9  -2    8.70    0.64
   9  -9  -2    7.88    0.28
   9   9   2    8.24    0.52
  -9   9  -2    8.15    0.35
   9  -9  -2    8.04    0.46
  -9  -9   2    8.41    0.40
   9  -9  -4    4.87    0.38
  -9   9  -4    5.33    0.34
   9  -9  -4    5.33    0.53
   9  -9  -4    4.81    0.29
  -9  -9   4    5.82    0.53
   9   9   4    5.20    0.43
   9  -9  -4    4.71    0.36
  -9   9  -4    5.40    0.30
  -9  -9   4    4.75    0.34
  -9   9  -6    0.17    0.12
  -9  -9   6   -0.22    0.26
   9   9   6   -0.20    0.25
  -9  -9   6    0.11    0.13
   9  -9  -6    0.05    0.12
   9  -9  -6    0.00    0.22
   9  -9  -6    0.17    0.15
   9  -9  -6   -0.08    0.15
  -9   9  -8   10.63    0.52
   9  -9  -8   10.62    0.65
   9   9   8   10.56    0.48
  -9  -9   8    8.64    0.68
   9   9   8   10.45    0.73
   9  -9  -8    9.93    0.60
   9  -9  -8   10.11    0.74
   9  -9 -10    6.19    0.54
   9   9  10    7.70    0.41
   9  -9 -10    6.76    0.61
   9   9  10    6.90    0.63
  -9  -9  10    7.25    0.62
   9  -9 -10    7.23    0.53
   9  -9 -12    2.33    0.38
   9  -9 -12    2.56    0.42
   9   9  12    1.73    0.38
   9   9  12    1.93    0.21
  -9  -9  12    2.28    0.39
   9  -9 -12    2.67    0.36
   9  -9 -14    1.69    0.38
  -9  -9  14    2.74    0.43
   9  -9 -14    2.92    0.43
   9   9  14    2.26    0.44
   9  -9 -14    3.47    0.44
   9  -9 -16    0.18    0.23
   9  -9 -16    0.19    0.23
   9   9  16    0.10    0.26
   9  -9 -18    0.44    0.27
  -9   9 -18    0.05    0.24
   9  -9 -20    0.23    0.26
   9  -9 -20   -0.05    0.23
  -9   9 -20    0.02    0.27
   0 -10   0    6.57    0.43
  10   0   0    6.39    0.23
   0 -10   0    6.61    0.34
  10   0   0    6.70    0.29
  10   0   0    6.83    0.46
   0  10   0    7.13    0.34
   0 -10  -2    1.69    0.26
   0 -10  -2    1.52    0.09
   0  10   2    1.78    0.22
   0 -10   2    1.62    0.19
  10   0  -2    1.62    0.17
   0  10   2    1.66    0.13
   0 -10  -2    1.74    0.14
  10   0   2    2.32    0.28
   0  10  -2    2.34    0.21
  10   0  -2    1.64    0.26
   0 -10  -4   38.42    1.27
   0 -10   4   36.36    1.19
   0  10  -4   38.55    1.20
  10   0   4   38.45    1.18
 -10   0   4   35.41    0.83
   0 -10  -4   39.15    0.98
  10   0   4   38.19    1.28
   0  10   4   37.17    0.98
   0  10   4   38.48    1.21
  10   0  -4   38.08    1.28
   0  10  -4   35.54    0.85
   0  10   4   42.07    1.23
 -10   0  -6    9.57    0.31
   0  10   6   10.55    0.51
   0 -10  -6   10.04    0.61
   0  10  -6   10.00    0.52
 -10   0   6    8.88    0.48
   0  10   6    9.45    0.56
  10   0   6    9.72    0.53
  10   0   6    9.95    0.60
   0  10  -6   10.82    0.61
   0  10   6    9.94    0.43
  10   0  -6   11.05    0.63
   0 -10   6   10.16    0.58
   0  10  -6    9.64    0.38
   0  10  -8    0.51    0.20
  10   0   8    0.95    0.21
   0 -10  -8    0.80    0.24
   0  10  -8    1.07    0.22
  10   0   8    1.00    0.23
   0  10   8    0.83    0.16
   0  10   8    0.83    0.24
   0  10   8    0.91    0.25
   0  10   8    0.77    0.15
 -10   0  -8    0.68    0.11
  10   0  -8    1.15    0.27
  10   0  10   37.74    1.36
 -10   0 -10   37.67    1.09
  10   0  10   38.50    1.36
   0  10  10   36.07    1.20
   0  10 -10   38.01    1.36
   0 -10 -10   39.42    1.45
   0 -10 -10   37.45    1.18
   0  10 -10   37.97    1.41
  10   0 -10   40.44    1.46
   0  10 -12    7.64    0.59
   0 -10 -12    6.52    0.58
 -10   0  12    7.02    0.51
   0 -10 -12    7.72    0.29
  10   0  12    7.66    0.35
  10   0  12    8.32    0.58
  10   0  12    7.09    0.58
  10   0 -12    8.81    0.66
   0 -10 -12    7.64    0.50
   0  10 -12    8.35    0.64
  10   0 -12    7.90    0.64
  10   0  14   12.10    0.75
   0  10 -14   12.49    0.81
   0 -10 -14   12.09    0.83
  10   0 -14   12.44    0.83
 -10   0  14   11.99    0.66
   0 -10 -14   12.85    0.71
   0  10 -14   13.03    0.85
  10   0 -14   13.35    0.84
   0  10 -16    6.08    0.61
  10   0  16    5.41    0.52
 -10   0  16    6.04    0.45
  10   0 -16    6.82    0.65
   0 -10 -16    6.07    0.53
   0 -10 -16    6.60    0.68
  10   0 -16    5.34    0.57
  10   0 -18    1.07    0.35
  10   0  18    2.47    0.39
   0  10 -18    1.66    0.37
 -10   0 -18    2.02    0.40
   0 -10 -18    1.12    0.32
  10   0 -18    2.57    0.45
   0 -10 -18    2.17    0.37
  10   0 -20    2.22    0.46
 -10   0 -20    2.25    0.43
   0  10 -20    2.30    0.44
   0 -10 -20    2.48    0.49
  10   0  20    3.01    0.45
  10   0 -20    3.27    0.53
   0 -10 -20    3.01    0.46
  10   0 -22    0.23    0.30
   0  10 -22    0.40    0.29
   0 -10 -22    0.73    0.35
 -10   0 -22    0.36    0.30
  10   0  22   -0.11    0.24
  10   0 -22    0.48    0.34
   0 -10 -22    0.28    0.28
  -1 -10 -21    0.63    0.34
   1  10 -21    0.63    0.32
 -10  -1 -21    0.83    0.32
  10   1 -21    0.72    0.36
  10  -1  21    0.48    0.26
  10   1 -21    0.36    0.34
  -1 -10 -21    0.49    0.28
  10   1 -19    0.76    0.33
   1  10 -19    0.14    0.26
 -10  -1 -19    0.20    0.23
  10   1 -19    0.12    0.25
  10  -1  19    0.26    0.21
  -1 -10 -19    0.48    0.31
  -1 -10 -19    0.65    0.25
   1  10 -17    2.52    0.45
 -10  -1 -17    2.14    0.39
  10   1 -17    2.07    0.39
  -1 -10 -17    1.98    0.40
 -10   1  17    1.76    0.24
  10  -1  17    1.72    0.33
  10   1 -17    1.91    0.41
  -1 -10 -17    1.77    0.32
   1  10 -15   27.32    1.25
  -1 -10 -15   24.04    1.23
 -10   1  15   24.71    0.97
  10   1 -15   25.56    1.26
  -1 -10 -15   26.13    1.10
  10  -1  15   25.67    1.18
  10   1 -15   25.09    1.24
   1  10 -15   23.60    1.22
   1  10 -13    2.85    0.42
  10  -1  13    2.77    0.38
 -10   1  13    2.59    0.31
  -1 -10 -13    2.77    0.42
   1  10 -13    3.17    0.42
  -1 -10 -13    2.40    0.30
  10   1 -13    2.48    0.38
  10   1 -13    2.94    0.42
   1  10 -11    6.07    0.51
  -1 -10 -11    5.49    0.54
   1 -10  11    6.31    0.54
  10  -1  11    6.84    0.53
 -10  -1 -11    6.59    0.40
  10  -1  11    6.71    0.35
  10   1 -11    5.75    0.53
  10  -1  11    6.02    0.49
  -1 -10 -11    6.44    0.43
   1  10 -11    6.23    0.54
  10   1 -11    6.57    0.55
  -1  10   9   27.25    0.98
   1  10  -9   29.33    1.10
 -10  -1  -9   28.93    0.87
  -1  10   9   29.59    1.17
  -1  10   9   30.70    0.90
  10  -1   9   27.37    1.06
  -1 -10  -9   28.57    1.18
  10  -1   9   28.91    1.13
  -1 -10  -9   28.59    0.93
   1 -10   9   26.45    1.14
   1  10  -9   28.16    1.16
  10   1  -9   28.49    1.17
 -10  -1  -7   21.13    0.63
  -1 -10  -7   21.06    0.94
   1  10  -7   20.41    0.82
   1 -10   7   20.54    0.91
  10  -1   7   20.27    0.90
  -1  10   7   21.69    0.77
  10  -1   7   20.84    0.84
  10  -1   7   20.75    0.92
   1  10  -7   20.35    0.92
 -10   1   7   21.04    0.80
  -1  10   7   21.66    0.90
  -1  10   7   20.94    0.93
  10   1  -7   22.20    0.96
  -1  10   7   20.02    0.74
   1  10  -7   19.99    0.68
 -10  -1  -5   16.40    0.47
   1 -10   5   16.06    0.73
  -1 -10  -5   17.30    0.78
   1  10  -5   16.74    0.65
  -1  10   5   17.51    0.70
  -1  10   5   15.70    0.70
  10  -1   5   16.89    0.69
  -1 -10  -5   17.08    0.58
  10  -1   5   16.45    0.77
   1  10  -5   14.84    0.75
 -10   1   5   16.67    0.62
  10   1  -5   16.50    0.78
  -1  10   5   16.89    0.60
   1  10  -5   16.14    0.51
  10   1  -5   15.86    0.67
 -10   1   5   15.21    0.42
  -1  10   3   13.25    0.59
  -1 -10  -3   13.86    0.43
  -1 -10  -3   13.31    0.66
   1 -10   3   12.01    0.58
   1  10  -3   12.17    0.63
   1  10  -3   13.03    0.50
   1  10  -3   12.19    0.35
  10  -1   3   12.45    0.64
  -1  10   3   12.74    0.47
  10   1  -3   12.44    0.65
  10   1  -3   12.93    0.53
   1  10  -3   12.43    0.56
  -1  10   3   13.39    0.62
   1 -10   1    7.79    0.47
  -1 -10  -1    7.69    0.48
   1  10  -1    7.48    0.38
   1  10  -1    7.83    0.31
  -1 -10  -1    7.95    0.25
   1 -10   1    7.85    0.41
  10  -1   1    7.76    0.49
  10   1  -1    8.29    0.38
  -1  10   1    7.79    0.40
  10   1  -1    7.96    0.50
  10  -1   1    7.65    0.26
   1 -10  -1    6.81    0.45
  10   1   1    7.13    0.26
   1 -10  -1    7.53    0.35
   1  10   1    7.50    0.43
   1  10   1    7.51    0.31
   1  10   1    6.88    0.24
  10   1   1    7.21    0.48
  10  -1  -1    7.08    0.47
   1 -10  -3   12.86    0.65
  -1  10  -3   13.86    0.60
  10   1   3   13.36    0.67
   1  10   3   12.87    0.61
   1  10   3   13.57    0.64
   1 -10  -3   13.42    0.44
  10  -1  -3   12.91    0.66
   1  10   3   12.50    0.38
   1  10   5   16.00    0.51
   1 -10  -5   15.96    0.76
  10  -1  -5   16.96    0.78
   1  10   5   18.27    0.72
   1  10   5   15.78    0.74
  -1  10  -5   16.70    0.76
  10   1   5   16.52    0.73
   1 -10  -5   15.68    0.44
  10   1   5   15.56    0.76
  10  -1  -7   22.11    0.94
   1 -10  -7   20.85    0.93
 -10   1  -7   21.82    0.55
   1  10   7   20.58    0.68
  -1  10  -7   21.22    0.85
   1  10   7   20.82    0.91
   1  10   7   22.94    0.79
  10   1   7   21.63    0.88
  10   1   7   21.97    0.94
  -1  10  -7   21.81    0.91
   1 -10  -9   29.88    1.18
   1  10   9   27.14    0.91
  10   1   9   28.06    1.08
  -1  10  -9   27.14    1.08
   1  10   9   29.73    1.17
  10   1   9   29.64    1.12
  -1  10  -9   28.29    1.12
   1 -10  -9   26.03    0.67
  10  -1  -9   29.41    1.17
   1 -10 -11    5.92    0.26
   1 -10 -11    6.19    0.56
 -10  -1  11    5.68    0.47
  10   1  11    6.27    0.53
  10   1  11    6.49    0.49
   1 -10 -11    6.24    0.45
  -1  10 -11    6.74    0.54
  -1  10 -11    5.66    0.50
  10  -1 -11    7.08    0.57
  10   1  13    2.97    0.37
  10   1  13    2.44    0.17
  -1  10 -13    2.72    0.41
 -10  -1  13    2.58    0.32
  10  -1 -13    3.04    0.43
  -1  10 -13    3.16    0.42
  10   1  13    2.39    0.38
   1 -10 -13    3.51    0.38
   1 -10 -13    3.23    0.46
  10  -1 -13    2.84    0.41
  -1  10 -15   25.25    1.22
   1 -10 -15   21.51    1.18
 -10  -1  15   25.33    1.02
  10   1  15   24.12    1.11
  10  -1 -15   25.57    1.25
   1 -10 -15   25.02    1.09
  10  -1 -15   24.76    1.22
  10  -1 -17    1.77    0.40
 -10  -1  17    1.61    0.27
  -1  10 -17    1.30    0.36
   1 -10 -17    1.65    0.38
  10   1  17    1.92    0.34
 -10   1 -17    1.85    0.39
  10  -1 -17    2.43    0.43
   1 -10 -17    2.10    0.36
 -10   1 -19    0.17    0.26
  10   1  19    0.37    0.23
  10  -1 -19   -0.39    0.32
  -1  10 -19    0.46    0.30
   1 -10 -19    0.07    0.24
  10  -1 -19    0.05    0.25
   1 -10 -19    0.23    0.23
  10  -1 -21    1.00    0.38
  -1  10 -21    0.29    0.29
 -10   1 -21    0.88    0.35
  10   1  21    0.90    0.29
   1 -10 -21    0.09    0.35
  10  -1 -21    0.48    0.26
   1 -10 -21    0.53    0.26
  10   2 -22    0.24    0.26
 -10  -2 -22   -0.23    0.30
  10  -2  22    0.44    0.27
  -2 -10 -22    0.41    0.28
   2  10 -22    0.59    0.34
  -2 -10 -22    0.55    0.30
  10   2 -22   -0.09    0.28
  10   2 -20    1.61    0.40
  -2 -10 -20    1.01    0.30
  10  -2  20    0.91    0.30
  -2 -10 -20    2.19    0.47
   2  10 -20    0.99    0.33
 -10  -2 -20    1.31    0.35
  10   2 -20    0.83    0.32
  10   2 -18    0.50    0.29
 -10  -2 -18    1.15    0.31
  10  -2  18    1.14    0.32
  -2 -10 -18    0.98    0.36
   2  10 -18    0.64    0.30
  -2 -10 -18    0.42    0.22
  10   2 -18    0.27    0.27
  10  -2  16    1.85    0.35
 -10  -2 -16    2.22    0.32
   2  10 -16    1.87    0.39
   2  10 -16    2.68    0.43
 -10  -2 -16    1.98    0.35
 -10   2  16    1.86    0.25
  10   2 -16    2.04    0.38
  -2 -10 -16    1.51    0.37
  -2 -10 -16    2.07    0.33
  10   2 -16    2.55    0.40
   2 -10  14    4.72    0.53
   2  10 -14    4.31    0.48
  10  -2  14    4.68    0.48
   2  10 -14    4.04    0.52
 -10  -2 -14    4.35    0.38
 -10   2  14    4.50    0.38
  -2 -10 -14    4.50    0.41
  10   2 -14    4.69    0.52
  -2 -10 -14    4.33    0.50
  10   2 -14    3.81    0.50
   2  10 -12    6.88    0.56
   2 -10  12    5.83    0.56
  -2 -10 -12    7.18    0.61
  10  -2  12    6.50    0.54
 -10  -2 -12    6.27    0.43
  10  -2  12    6.52    0.34
  10   2 -12    6.88    0.59
  -2 -10 -12    7.03    0.47
   2  10 -12    7.49    0.62
  10   2 -12    6.69    0.58
   2  10 -10   22.82    0.97
 -10  -2 -10   22.48    0.79
  -2  10  10   23.81    1.03
  10  -2  10   21.87    0.78
  -2  10  10   22.48    0.72
  10  -2  10   22.55    0.94
   2  10 -10   22.00    1.04
  10  -2  10   21.21    0.99
  -2 -10 -10   23.48    1.05
  -2 -10 -10   22.55    0.81
   2 -10  10   21.30    1.03
  10   2 -10   22.09    1.02
   2  10  -8    0.20    0.11
   2 -10   8    0.27    0.17
   2  10  -8    0.30    0.21
 -10   2   8    0.14    0.14
 -10  -2  -8    0.27    0.10
  10  -2   8    0.13    0.13
   2  10  -8    0.54    0.18
  -2  10   8    0.26    0.13
  -2 -10  -8    0.06    0.18
  10   2  -8    0.19    0.18
  10  -2   8    0.53    0.20
  -2  10   8    0.47    0.13
  -2 -10  -8    0.37    0.14
  -2  10   8    0.23    0.20
  -2 -10  -8    0.35    0.11
  10   2  -8    0.29    0.18
   2  10  -6    3.12    0.34
   2 -10   6    3.09    0.33
 -10  -2  -6    2.95    0.20
  10  -2   6    2.66    0.31
 -10   2   6    2.90    0.16
 -10   2   6    2.80    0.25
  -2 -10  -6    2.78    0.35
   2  10  -6    2.61    0.26
  -2  10   6    2.93    0.26
  10   2  -6    3.38    0.33
  10  -2   6    3.30    0.29
   2  10  -6    2.67    0.21
  -2  10   6    3.46    0.37
  -2  10   6    2.62    0.24
  10   2  -6    2.69    0.34
  -2 -10  -6    3.29    0.26
   2  10  -4   30.14    0.91
  -2 -10  -4   29.90    1.11
   2 -10   4   30.25    1.06
   2  10  -4   30.31    1.04
  -2  10   4   31.23    1.05
  -2  10   4   31.25    1.02
   2  10  -4   30.27    1.09
  -2 -10  -4   31.22    0.88
 -10   2   4   31.70    0.89
  10  -2   4   32.50    0.99
  -2  10   4   30.85    0.93
   2  10  -4   31.27    0.82
  10   2  -4   30.59    1.13
  10   2  -4   30.68    1.00
  10  -2   4   30.29    0.73
  10  -2   4   30.05    1.10
  -2 -10  -2   11.74    0.61
   2  10  -2    9.65    0.37
   2 -10   2   10.48    0.51
  -2  10   2   10.82    0.48
   2  10  -2   11.19    0.50
   2  10  -2   10.71    0.58
  10  -2   2   10.84    0.59
  10   2  -2   11.09    0.49
  -2 -10  -2   11.43    0.38
  10   2  -2   10.61    0.59
   2  10  -2   10.56    0.35
   2 -10   0    2.97    0.30
  10   2   0    2.98    0.19
  -2 -10   0    2.93    0.30
   2 -10   0    3.48    0.25
   2  10   0    3.34    0.22
   2  10   0    3.17    0.32
  10   2   0    2.92    0.33
  10  -2   0    2.79    0.30
  -2 -10   0    3.06    0.16
  -2  10   0    3.13    0.23
   2 -10  -2   11.80    0.59
   2  10   2   10.95    0.35
  10   2   2   11.44    0.39
 -10  -2   2   10.76    0.38
   2 -10  -2   11.52    0.44
   2 -10  -2   10.22    0.29
  10   2   2   11.26    0.61
  10  -2  -2   10.63    0.58
   2  10   2   10.97    0.56
   2 -10  -4   30.50    1.08
   2  10   4   30.47    1.03
   2  10   4   29.78    1.04
   2 -10  -4   31.03    0.79
  10   2   4   29.62    1.09
  10  -2  -4   29.85    1.07
  -2  10  -6    2.96    0.31
   2 -10  -6    2.39    0.16
  10   2   6    1.98    0.30
   2 -10  -6    1.96    0.24
  -2  10  -6    2.76    0.18
   2  10   6    2.98    0.34
  10   2   6    2.60    0.32
   2 -10  -6    2.10    0.30
   2  10   6    2.22    0.25
  10  -2  -6    2.88    0.33
  -2  10  -8    0.57    0.20
   2  10   8    0.09    0.19
  10   2   8    0.13    0.20
  10   2   8    0.35    0.17
   2  10   8    0.46    0.25
   2 -10  -8    0.15    0.20
  10  -2  -8    0.35    0.22
  10   2  10   22.21    0.93
   2  10  10   22.07    1.03
  10   2  10   21.21    0.99
 -10  -2  10   20.19    0.94
   2 -10 -10   22.47    1.04
  -2  10 -10   23.35    1.00
  -2  10 -10   21.30    0.97
  10  -2 -10   21.56    1.01
   2 -10 -12    7.20    0.35
   2 -10 -12    7.09    0.62
  -2  10 -12    6.71    0.58
   2  10  12    5.95    0.57
 -10  -2  12    7.14    0.53
  10   2  12    7.69    0.61
   2 -10 -12    6.89    0.50
  10   2  12    6.52    0.50
  -2  10 -12    7.54    0.59
  10  -2 -12    6.85    0.61
 -10  -2  14    3.65    0.39
  10   2  14    4.52    0.44
  -2  10 -14    3.91    0.46
  -2  10 -14    4.66    0.52
  10   2  14    4.09    0.49
  10  -2 -14    4.56    0.50
   2 -10 -14    3.73    0.48
  10  -2 -14    3.80    0.48
   2 -10 -14    4.65    0.46
  10  -2 -16    2.72    0.45
   2 -10 -16    1.68    0.36
  10   2  16    1.91    0.33
 -10  -2  16    1.96    0.30
  -2  10 -16    2.44    0.39
  10  -2 -16    2.09    0.40
   2 -10 -16    2.04    0.33
  10  -2 -18    1.40    0.37
  10   2  18    0.46    0.19
   2 -10 -18    0.18    0.28
 -10   2 -18    0.45    0.32
 -10  -2  18    0.60    0.21
  10  -2 -18    0.46    0.26
   2 -10 -18    0.67    0.25
  -2  10 -18    0.85    0.34
  10  -2 -20    1.53    0.43
  10   2  20    1.39    0.33
   2 -10 -20    1.10    0.41
  -2  10 -20    1.20    0.39
 -10   2 -20    1.85    0.42
  10  -2 -20    0.50    0.30
   2 -10 -20    1.15    0.32
  10   2  22    0.25    0.22
   2 -10 -22    0.04    0.32
  10  -2 -22    0.79    0.36
 -10   2 -22   -0.07    0.28
  10  -2 -22    1.02    0.44
  -2  10 -22    0.38    0.34
   2 -10 -22    0.14    0.25
  10   3 -21    0.29    0.27
  -3 -10 -21    0.15    0.22
   3  10 -21    0.09    0.28
  -3 -10 -21   -0.32    0.31
  10  -3  21    0.33    0.23
 -10  -3 -21    0.34    0.25
 -10  -3 -21    0.28    0.24
  10   3 -21    0.49    0.32
  -3 -10 -19    0.19    0.20
  10  -3  19    0.45    0.27
   3  10 -19    0.13    0.24
 -10  -3 -19    0.45    0.24
 -10  -3 -19    0.78    0.29
  -3 -10 -19    0.64    0.31
  10   3 -19    0.35    0.28
  10   3 -19    0.42    0.26
  -3 -10 -17    0.88    0.27
  10  -3  17    0.25    0.22
   3  10 -17    0.01    0.25
 -10  -3 -17    0.40    0.23
 -10  -3 -17    0.81    0.26
  -3 -10 -17    0.62    0.30
  10   3 -17    0.56    0.25
  10   3 -17    0.91    0.33
  -3 -10 -15    3.34    0.38
  -3 -10 -15    2.43    0.41
   3 -10  15    3.53    0.48
  10  -3  15    2.45    0.38
 -10  -3 -15    3.35    0.36
  10   3 -15    1.98    0.37
 -10   3  15    3.14    0.30
   3  10 -15    2.78    0.43
 -10  -3 -15    3.42    0.42
   3  10 -15    2.81    0.41
  10   3 -15    2.64    0.41
 -10  -3 -13    2.66    0.30
  -3 -10 -13    2.12    0.29
   3  10 -13    2.71    0.41
  -3 -10 -13    2.67    0.41
   3  10 -13    2.15    0.35
   3 -10  13    3.20    0.42
  10  -3  13    2.72    0.38
  10   3 -13    2.35    0.38
  10   3 -13    2.76    0.40
   3  10 -11    0.30    0.15
  10  -3  11   -0.03    0.15
  10  -3  11    0.22    0.20
   3  10 -11    0.50    0.22
 -10  -3 -11    0.26    0.15
  -3 -10 -11    0.06    0.22
   3 -10  11    0.31    0.22
   3  10 -11    0.39    0.24
  -3  10  11    0.26    0.08
  10  -3  11    0.21    0.11
  10   3 -11    0.06    0.22
  10   3 -11   -0.10    0.24
  -3 -10 -11    0.25    0.13
 -10  -3  -9   12.24    0.55
  -3  10   9   12.52    0.71
  10  -3   9   13.57    0.75
  10  -3   9   12.62    0.59
  -3  10   9   12.66    0.53
  10  -3   9   13.22    0.64
   3 -10   9   11.74    0.72
  10   3  -9   12.96    0.75
  -3 -10  -9   12.78    0.74
  -3 -10  -9   13.64    0.54
   3  10  -9   13.39    0.77
  10   3  -9   12.70    0.72
  10  -3   9   12.34    0.55
   3  10  -9   12.83    0.59
   3  10  -9   11.71    0.64
  -3  10   7    7.12    0.51
 -10  -3  -7    7.24    0.37
  -3 -10  -7    6.50    0.50
   3 -10   7    6.09    0.48
  -3 -10  -7    7.56    0.43
 -10   3   7    6.68    0.31
  -3  10   7    7.64    0.42
  10  -3   7    7.14    0.45
  10  -3   7    6.87    0.43
  -3 -10  -7    7.44    0.31
  -3 -10  -7    6.77    0.43
   3  10  -7    7.09    0.55
  -3  10   7    7.36    0.44
 -10   3   7    6.59    0.41
  10  -3   7    7.36    0.33
  10   3  -7    6.68    0.51
  10  -3   7    7.16    0.53
  10   3  -7    7.57    0.51
   3  10  -7    7.40    0.40
   3  10  -7    6.74    0.42
 -10  -3  -5    7.43    0.34
  -3 -10  -5    7.74    0.52
  10  -3   5    6.96    0.48
   3 -10   5    7.43    0.48
  -3 -10  -5    7.52    0.48
  10  -3   5    7.52    0.41
  -3 -10  -5    7.59    0.38
   3  10  -5    7.29    0.47
  10  -3   5    6.84    0.23
 -10   3   5    7.15    0.32
  -3  10   5    7.22    0.41
 -10   3   5    8.33    0.39
  10   3  -5    7.62    0.47
  10   3  -5    7.03    0.50
   3  10  -5    7.41    0.35
  -3  10   5    7.11    0.50
   3  10  -5    7.19    0.38
  10  -3   3    3.52    0.34
  -3 -10  -3    3.06    0.33
   3 -10   3    3.21    0.29
  10   3  -3    3.27    0.29
 -10   3   3    3.19    0.19
  -3 -10  -3    3.67    0.35
  -3  10   3    3.40    0.27
  10  -3   3    3.41    0.25
   3  10  -3    3.13    0.27
   3  10  -3    3.01    0.31
  -3  10   3    3.05    0.25
  -3 -10  -3    3.22    0.22
  10   3  -3    2.94    0.34
   3  10  -3    3.31    0.20
   3  10  -3    3.26    0.20
   3  10  -1    2.21    0.27
  10   3  -1    2.99    0.22
   3 -10   1    2.57    0.27
  -3 -10  -1    2.53    0.29
   3 -10   1    2.87    0.26
  -3 -10  -1    2.78    0.33
   3  10  -1    2.55    0.17
  -3  10   1    2.91    0.22
   3  10  -1    2.80    0.23
  10  -3   1    2.91    0.31
  10   3  -1    2.78    0.31
  -3 -10  -1    2.70    0.18
  10   3  -1    2.43    0.23
  10   3   1    2.59    0.19
   3 -10  -1    2.46    0.27
 -10  -3   1    2.66    0.20
  10  -3  -1    2.61    0.15
   3  10   1    2.80    0.31
  -3  10  -1    2.65    0.19
   3 -10  -1    2.73    0.23
  10   3   1    2.70    0.31
  10  -3  -1    2.81    0.30
   3  10   1    2.55    0.18
  -3 -10   1    2.77    0.18
   3  10   3    3.19    0.33
   3 -10  -3    3.68    0.34
   3  10   3    2.86    0.32
   3 -10  -3    3.18    0.23
   3  10   3    3.00    0.13
  10   3   3    3.16    0.33
 -10  -3   3    3.01    0.16
  10   3   3    3.20    0.22
   3 -10  -3    3.38    0.18
  10  -3  -3    3.27    0.32
   3 -10  -5    8.49    0.54
  10  -3  -5    7.60    0.51
  -3  10  -5    7.06    0.28
   3  10   5    7.22    0.51
  10   3   5    7.65    0.51
   3 -10  -5    7.63    0.42
  10   3   5    7.67    0.53
  -3  10  -5    7.01    0.46
   3 -10  -5    7.32    0.35
   3 -10  -7    6.32    0.50
  10   3   7    6.22    0.50
   3  10   7    7.15    0.55
   3  10   7    7.06    0.52
  10   3   7    6.47    0.49
 -10  -3   7    6.65    0.51
  -3  10  -7    6.70    0.34
  -3  10  -7    6.22    0.46
  10  -3  -7    6.56    0.50
   3 -10  -9   13.54    0.77
  10   3   9   12.37    0.64
   3  10   9   11.85    0.73
 -10  -3   9   11.58    0.69
  10   3   9   11.12    0.69
  -3  10  -9   12.24    0.68
  10  -3  -9   12.41    0.72
  10   3  11    0.14    0.15
  -3  10 -11    0.28    0.22
  10   3  11    0.19    0.25
   3  10  11    0.30    0.27
  -3  10 -11    0.10    0.21
  10  -3 -11    0.20    0.22
 -10  -3  11    0.26    0.18
   3 -10 -11    0.88    0.31
  -3  10 -13    2.48    0.38
 -10  -3  13    2.12    0.32
  10   3  13    2.84    0.35
   3 -10 -13    1.94    0.38
  10   3  13    2.90    0.41
   3  10  13    3.07    0.45
   3 -10 -13    2.38    0.35
  -3  10 -13    2.61    0.38
  10  -3 -13    3.13    0.44
   3 -10 -15    2.49    0.42
  10  -3 -15    2.14    0.40
  10   3  15    4.34    0.53
 -10  -3  15    2.28    0.32
  10   3  15    3.07    0.39
  -3  10 -15    3.80    0.47
   3 -10 -15    2.92    0.38
  10  -3 -15    3.61    0.48
  10  -3 -17   -0.10    0.27
   3 -10 -17    0.58    0.31
  -3  10 -17    0.35    0.30
 -10  -3  17    0.55    0.20
  10   3  17    0.64    0.23
  10  -3 -17    0.82    0.32
   3 -10 -17    0.65    0.28
  10  -3 -19    0.02    0.25
   3 -10 -19    0.14    0.26
  10   3  19    0.54    0.23
   3 -10 -19    0.25    0.31
  -3  10 -19    0.05    0.22
 -10   3 -19   -0.01    0.26
  10  -3 -19    0.17    0.26
  10  -3 -21    0.63    0.33
  -3  10 -21    0.11    0.26
   3 -10 -21    0.11    0.30
  10   3  21    0.15    0.20
 -10   3 -21    0.29    0.25
  10  -3 -21    0.39    0.29
   3 -10 -21    0.23    0.23
  -4 -10 -22    0.13    0.21
   4  10 -22   -0.10    0.32
  10  -4  22    0.05    0.24
  -4 -10 -22   -0.02    0.26
 -10  -4 -22    0.56    0.30
 -10  -4 -22   -0.13    0.26
  10   4 -22    0.26    0.26
  10   4 -22    0.66    0.30
  -4 -10 -20    1.20    0.30
   4  10 -20    1.45    0.43
  -4 -10 -20    1.34    0.36
  10  -4  20    1.41    0.35
 -10  -4 -20    0.90    0.30
  10   4 -20    1.42    0.37
 -10  -4 -20    1.36    0.33
  10   4 -20    1.62    0.38
  -4 -10 -18    0.37    0.21
   4  10 -18    0.50    0.25
   4 -10  18    0.72    0.28
  -4 -10 -18    0.25    0.24
 -10  -4 -18    0.49    0.23
 -10  -4 -18    0.28    0.24
  10  -4  18    0.54    0.29
  10   4 -18    0.54    0.33
  10   4 -18    0.63    0.29
  -4 -10 -16    0.77    0.25
   4  10 -16    1.16    0.31
  10  -4  16    0.88    0.30
   4  10 -16    1.33    0.37
   4 -10  16    0.96    0.32
  -4 -10 -16    0.20    0.27
 -10  -4 -16    1.01    0.26
 -10  -4 -16    0.77    0.27
  10   4 -16    0.71    0.27
  10   4 -16    0.74    0.29
  10  -4  14    6.68    0.59
  -4 -10 -14    6.82    0.61
 -10  -4 -14    6.38    0.49
 -10   4  14    6.04    0.42
  10   4 -14    7.08    0.63
   4 -10  14    7.17    0.64
  -4 -10 -14    6.67    0.49
 -10  -4 -14    6.13    0.52
   4  10 -14    6.57    0.62
   4  10 -14    7.00    0.59
  10   4 -14    6.99    0.60
   4  10 -14    6.13    0.51
   4 -10  12    6.55    0.59
 -10  -4 -12    6.15    0.45
  -4 -10 -12    5.66    0.54
  -4 -10 -12    6.13    0.37
  10  -4  12    5.15    0.51
   4  10 -12    5.53    0.50
  10   4 -12    6.24    0.56
  -4 -10 -12    6.23    0.44
   4  10 -12    6.13    0.59
  10   4 -12    6.47    0.57
   4  10 -12    5.92    0.46
 -10  -4 -10   11.50    0.57
  -4 -10 -10   12.37    0.75
   4 -10  10   11.82    0.75
  -4  10  10   12.24    0.51
  10   4 -10   11.95    0.72
  10  -4  10   10.54    0.69
  -4 -10 -10   12.35    0.58
  -4  10  10   13.29    0.75
   4  10 -10   11.46    0.75
  10  -4  10   12.14    0.56
  -4 -10 -10   12.33    0.55
  10   4 -10   12.86    0.76
  10  -4  10   11.77    0.56
   4  10 -10   11.49    0.65
  10   4 -10   11.67    0.71
   4  10 -10   13.07    0.63
 -10  -4  -8   17.99    0.69
  -4  10   8   17.17    0.84
  -4 -10  -8   17.36    0.86
   4 -10   8   17.65    0.87
 -10   4   8   17.57    0.62
  10  -4   8   17.77    0.75
  -4 -10  -8   17.28    0.75
  10  -4   8   17.30    0.86
  10   4  -8   17.98    0.87
   4  10  -8   18.47    0.92
  10  -4   8   18.06    0.61
  -4 -10  -8   18.30    0.60
  10   4  -8   19.29    0.87
 -10   4   8   17.07    0.74
   4  10  -8   16.68    0.70
   4  10  -8   16.91    0.75
   4  10  -6    1.92    0.30
   4  10  -6    2.36    0.24
 -10   4   6    1.86    0.21
 -10  -4  -6    2.07    0.21
  10   4  -6    2.15    0.28
 -10   4   6    2.01    0.18
   4 -10   6    2.54    0.32
  10  -4   6    2.54    0.29
  10  -4   6    2.21    0.32
  -4 -10  -6    2.53    0.25
  -4 -10  -6    2.13    0.27
   4  10  -6    2.27    0.28
  -4 -10  -6    2.32    0.32
  -4  10   6    2.73    0.32
  10  -4   6    2.25    0.23
  10  -4   6    2.18    0.13
  10  -4   6    2.28    0.29
  -4 -10  -6    2.32    0.13
  10   4  -6    2.20    0.32
   4  10  -6    2.24    0.22
  -4 -10  -4   23.39    0.96
   4 -10   4   23.31    0.94
  10   4  -4   25.71    0.94
  10  -4   4   23.98    0.99
   4  10  -4   24.94    0.75
  10  -4   4   26.03    0.80
  -4 -10  -4   25.32    0.99
  10  -4   4   24.84    0.96
 -10   4   4   24.95    0.78
   4  10  -4   25.22    0.94
  -4 -10  -4   24.98    0.82
  -4  10   4   24.24    0.87
   4  10  -4   23.99    0.78
  10   4  -4   24.80    1.00
 -10   4   4   25.87    0.75
  -4  10   4   25.80    1.00
  10   4  -2   29.16    0.91
  -4 -10  -2   27.44    1.03
   4  10  -2   26.71    0.69
   4  10  -2   29.66    0.96
   4  10  -2   27.71    0.82
   4 -10   2   27.55    0.98
 -10  -4  -2   27.54    0.94
 -10   4   2   27.31    0.68
  -4  10   2   32.21    1.11
  10  -4   2   26.78    1.00
  10   4  -2   30.58    0.99
  10   4  -2   27.70    1.05
  -4 -10  -2   28.92    1.08
  -4 -10  -2   28.24    0.85
   4  10  -2   27.15    1.01
  10  -4   0    0.80    0.08
   4 -10   0    1.04    0.19
  10   4   0    1.06    0.15
  -4 -10   0    1.03    0.13
  -4 -10   0    1.02    0.22
 -10  -4   0    0.95    0.15
   4  10   0    0.78    0.19
  -4  10   0    0.71    0.10
   4  10   0    0.92    0.14
   4  10   0    0.99    0.14
  10   4   0    0.70    0.20
  10  -4   0    0.64    0.18
   4 -10   0    0.80    0.16
   4 -10   0    0.85    0.07
   4 -10  -2   29.57    1.03
   4  10   2   27.12    1.05
   4 -10  -2   27.64    0.90
  10   4   2   26.61    0.84
  -4 -10   2   29.25    1.14
  10   4   2   29.07    1.08
 -10  -4   2   29.90    1.00
  10  -4  -2   28.65    0.80
  10  -4  -2   27.29    1.01
   4 -10  -2   29.58    0.74
 -10  -4   2   27.49    0.78
  -4  10  -2   27.69    0.72
   4  10   2   28.73    0.78
  -4  10  -2   25.03    0.67
  -4 -10   2   30.49    0.84
   4 -10  -4   26.35    0.99
  -4 -10   4   25.11    1.07
   4  10   4   23.74    0.99
  10   4   4   22.61    0.78
   4  10   4   25.64    1.01
  10   4   4   24.58    1.00
  -4  10  -4   24.00    0.89
   4 -10  -4   24.85    0.74
  -4  10  -4   24.44    0.66
  10  -4  -4   25.44    0.97
   4 -10  -6    2.25    0.22
  -4  10  -6    1.95    0.25
   4  10   6    2.15    0.33
   4 -10  -6    2.07    0.24
   4 -10  -6    2.53    0.33
 -10  -4   6    1.66    0.31
  10   4   6    2.36    0.32
  10   4   6    1.58    0.29
   4  10   6    2.02    0.30
  10  -4  -6    2.11    0.31
  -4  10  -6    1.88    0.16
   4 -10  -8   16.59    0.86
  -4  10  -8   17.79    0.67
   4  10   8   18.66    0.91
 -10  -4   8   18.10    0.89
  10   4   8   19.01    0.90
  10   4   8   19.47    0.81
  -4  10  -8   18.33    0.82
  10  -4  -8   18.10    0.87
   4  10  10   13.17    0.80
   4 -10 -10   12.95    0.78
 -10  -4  10   12.21    0.72
  10   4  10   12.80    0.77
  10   4  10   12.66    0.65
  -4  10 -10   11.59    0.57
  -4  10 -10   11.70    0.68
  10  -4 -10   12.00    0.74
  10   4  12    5.89    0.45
  -4  10 -12    4.95    0.48
   4 -10 -12    5.79    0.58
  10   4  12    5.20    0.54
 -10  -4  12    6.45    0.52
  -4  10 -12    5.17    0.51
   4  10  12    5.61    0.55
  10  -4 -12    5.71    0.54
   4 -10 -14    6.71    0.64
   4  10  14    6.11    0.61
 -10  -4  14    6.62    0.53
  10   4  14    7.73    0.55
  10   4  14    6.55    0.61
  -4  10 -14    6.08    0.58
   4 -10 -14    5.99    0.53
  10  -4 -14    7.13    0.62
  10  -4 -16    0.99    0.33
  -4  10 -16    0.93    0.33
   4 -10 -16    0.31    0.27
 -10  -4  16    0.90    0.24
  10   4  16    0.78    0.24
  10  -4 -16    0.71    0.31
   4 -10 -16    1.09    0.29
  10  -4 -18    0.54    0.28
  10   4  18    0.66    0.21
   4 -10 -18    0.69    0.30
  -4  10 -18    0.15    0.26
 -10  -4  18    0.45    0.24
 -10   4 -18    0.60    0.27
  10  -4 -18    0.85    0.33
   4 -10 -18    0.54    0.24
  10  -4 -20    0.78    0.34
 -10   4 -20    1.24    0.37
  10   4  20    1.24    0.28
   4 -10 -20    1.50    0.42
  -4  10 -20    0.97    0.36
   4 -10 -20    2.07    0.42
  10  -4 -20    1.40    0.41
  10  -4 -22    0.50    0.33
   4 -10 -22    0.09    0.26
  -4  10 -22   -0.23    0.33
  10  -4 -22    0.30    0.25
 -10   4 -22    0.29    0.27
  10  -4 -22   -0.26    0.33
   4 -10 -22   -0.07    0.23
   5  10 -21    0.66    0.29
   5  10 -21    0.65    0.31
 -10  -5 -21    0.42    0.24
  -5 -10 -21    0.37    0.26
  -5 -10 -21    0.03    0.26
  10  -5  21   -0.02    0.23
 -10  -5 -21    0.63    0.26
  10   5 -21    0.87    0.37
  10   5 -21    0.75    0.33
   5  10 -19    0.27    0.21
   5  10 -19    0.96    0.30
  -5 -10 -19    0.80    0.27
   5 -10  19    0.61    0.34
  10  -5  19    0.48    0.27
  -5 -10 -19    0.80    0.33
 -10  -5 -19    0.52    0.26
 -10  -5 -19    0.41    0.26
  10   5 -19    0.30    0.27
  10   5 -19    0.98    0.35
   5  10 -17    3.31    0.42
   5  10 -17    3.67    0.51
  -5 -10 -17    3.46    0.42
   5 -10  17    4.19    0.55
  10  -5  17    2.96    0.46
 -10  -5 -17    3.39    0.42
  10   5 -17    3.58    0.50
 -10  -5 -17    2.61    0.39
  10   5 -17    4.04    0.53
  -5 -10 -17    3.89    0.50
   5  10 -15    0.84    0.23
   5  10 -15    0.95    0.29
  -5 -10 -15    0.84    0.23
   5 -10  15    1.22    0.33
   5  10 -15    0.98    0.34
 -10  -5 -15    0.99    0.27
  10  -5  15    0.49    0.25
 -10   5  15    0.94    0.18
 -10  -5 -15    0.94    0.24
  10   5 -15    1.47    0.32
  -5 -10 -15    0.58    0.27
  10   5 -15    0.83    0.27
   5 -10  13    7.34    0.64
  -5 -10 -13    8.09    0.63
 -10  -5 -13    7.30    0.51
  10  -5  13    7.53    0.63
 -10  -5 -13    6.69    0.54
  -5 -10 -13    6.89    0.42
  10   5 -13    7.54    0.61
   5  10 -13    8.10    0.61
   5  10 -13    8.29    0.69
  -5 -10 -13    7.20    0.49
  10   5 -13    7.48    0.61
   5  10 -13    7.32    0.54
 -10  -5 -11   14.25    0.68
   5 -10  11   14.43    0.86
  10  -5  11   12.06    0.77
  -5  10  11   14.76    0.80
  -5 -10 -11   13.06    0.63
  10   5 -11   12.78    0.77
   5  10 -11   13.23    0.84
  10  -5  11   13.05    0.62
   5  10 -11   14.14    0.75
  -5 -10 -11   14.07    0.63
  10   5 -11   15.01    0.85
  -5 -10 -11   14.61    0.83
  10   5 -11   14.08    0.84
   5  10 -11   14.00    0.71
 -10  -5  -9   10.23    0.54
  -5 -10  -9   11.79    0.71
  -5  10   9   11.68    0.67
   5 -10   9    9.66    0.66
 -10   5   9   11.06    0.51
  10  -5   9   11.46    0.58
  -5 -10  -9   10.56    0.57
  10  -5   9   11.54    0.72
  10  -5   9   10.82    0.48
   5  10  -9   10.62    0.71
   5  10  -9   10.69    0.59
  -5 -10  -9   11.66    0.49
  10   5  -9   11.39    0.70
  10   5  -9   12.11    0.72
   5  10  -9   11.01    0.58
  -5  10   7   15.89    0.77
 -10  -5  -7   15.29    0.63
  -5 -10  -7   15.07    0.77
   5 -10   7   14.79    0.78
  10  -5   7   14.28    0.78
  10  -5   7   14.39    0.70
   5  10  -7   13.96    0.68
  -5 -10  -7   14.96    0.71
   5  10  -7   15.01    0.83
  -5 -10  -7   14.60    0.48
   5  10  -7   14.51    0.64
  10   5  -7   15.32    0.77
  10   5  -7   15.34    0.79
   5  10  -7   15.06    0.65
 -10   5   7   13.90    0.63
 -10   5   7   14.89    0.58
  10  -5   5   31.39    1.14
 -10  -5  -5   31.61    0.99
  -5 -10  -5   29.93    1.15
   5 -10   5   31.04    1.16
  10  -5   5   31.57    1.16
  -5 -10  -5   32.16    1.17
  10  -5   5   32.81    0.93
  -5  10   5   33.13    1.18
   5  10  -5   31.51    1.24
   5  10  -5   33.64    0.97
   5  10  -5   32.34    1.11
 -10   5   5   32.01    0.98
  -5 -10  -5   32.78    1.05
  10   5  -5   32.30    1.16
   5  10  -5   31.85    1.01
  10   5  -5   32.74    1.20
 -10   5   5   31.29    0.96
  10   5  -3    2.90    0.30
   5  10  -3    2.58    0.28
  -5 -10  -3    3.11    0.33
   5  10  -3    2.48    0.26
   5 -10   3    2.62    0.29
  10  -5   3    2.23    0.32
  10  -5   3    2.63    0.19
  -5 -10  -3    2.69    0.33
   5  10  -3    2.76    0.18
  10  -5   3    2.85    0.30
   5  10  -3    2.71    0.23
  -5 -10  -3    2.58    0.23
  -5  10   3    2.86    0.33
 -10   5   3    2.51    0.17
  10   5  -3    2.81    0.33
 -10  -5  -3    2.81    0.28
  -5 -10  -1   27.97    1.07
   5 -10   1   28.47    1.00
  10   5  -1   30.15    0.97
 -10  -5  -1   29.91    0.97
   5  10  -1   31.18    0.99
   5 -10   1   30.24    0.78
   5 -10   1   30.13    1.03
  10  -5   1   28.73    1.15
  -5 -10  -1   28.37    1.13
  10   5  -1   30.54    1.12
  -5  10   1   31.28    1.13
   5  10  -1   30.26    0.92
  10  -5   1   30.16    1.05
  -5 -10  -1   29.44    0.92
   5  10  -1   29.19    1.07
   5 -10  -1   27.06    0.99
   5  10   1   28.15    1.06
  10  -5  -1   27.65    0.78
  10   5   1   29.88    0.93
  -5 -10   1   29.09    1.15
   5 -10  -1   28.43    0.97
   5  10   1   28.46    0.90
  10   5   1   27.88    1.08
   5 -10  -1   29.59    0.78
 -10  -5   1   30.59    0.99
  10  -5  -1   27.47    1.02
 -10  -5   1   28.71    0.87
  -5 -10   1   29.63    0.89
   5  10   3    2.90    0.33
   5 -10  -3    2.63    0.30
  10   5   3    2.67    0.24
  10   5   3    3.02    0.33
  -5 -10   3    2.52    0.33
  10  -5  -3    2.87    0.23
   5  10   3    2.61    0.33
   5 -10  -3    2.59    0.20
  -5  10  -3    2.61    0.17
  10  -5  -3    2.34    0.28
 -10  -5   3    2.54    0.26
 -10  -5   5   33.90    1.28
   5 -10  -5   32.02    1.15
 -10   5  -5   32.70    0.74
  -5  10  -5   30.64    0.87
  -5 -10   5   30.74    1.25
   5  10   5   30.83    1.19
   5 -10  -5   32.43    0.99
   5  10   5   33.68    1.23
  10   5   5   32.32    1.20
   5  10   5   29.73    0.71
  -5  10  -5   32.32    1.07
  10   5   5   31.48    1.20
   5  10   5   28.87    0.72
  10  -5  -5   32.70    1.15
   5 -10  -5   31.71    0.94
 -10   5  -7   16.83    0.49
   5 -10  -7   14.92    0.79
 -10  -5   7   14.20    0.81
   5  10   7   15.17    0.82
   5 -10  -7   14.35    0.68
  10   5   7   15.16    0.81
  -5  10  -7   14.08    0.57
  -5  10  -7   15.33    0.71
  10  -5  -7   14.64    0.75
   5 -10  -7   14.73    0.64
 -10  -5   9   12.18    0.72
  10   5   9   11.04    0.59
   5  10   9   10.88    0.72
  10   5   9   11.58    0.73
   5 -10  -9   11.33    0.70
  -5  10  -9   10.62    0.53
  -5  10  -9   11.75    0.64
  10  -5  -9   11.23    0.69
   5 -10 -11   11.62    0.78
  10   5  11   13.16    0.68
   5  10  11   13.68    0.86
  10   5  11   14.06    0.85
 -10  -5  11   14.87    0.82
  10  -5 -11   14.31    0.82
  -5  10 -11   13.72    0.75
  10   5  13    7.43    0.51
   5 -10 -13    6.27    0.61
 -10  -5  13    7.33    0.59
   5  10  13    7.63    0.66
  10   5  13    7.90    0.68
  10  -5 -13    6.95    0.59
  10   5  15    0.86    0.21
  10   5  15    1.11    0.35
   5 -10 -15    1.17    0.31
  -5  10 -15    0.87    0.31
 -10  -5  15    0.87    0.26
  10  -5 -15    0.81    0.30
  10  -5 -17    3.86    0.52
 -10  -5  17    2.57    0.38
  -5  10 -17    3.44    0.52
  10   5  17    3.90    0.42
   5 -10 -17    3.32    0.50
   5 -10 -17    2.80    0.43
  10  -5 -19    0.57    0.33
  10   5  19    0.86    0.24
   5 -10 -19   -0.16    0.28
  10  -5 -19    0.30    0.25
  -5  10 -19    0.86    0.36
 -10   5 -19    0.68    0.30
  10  -5 -19    0.93    0.34
   5 -10 -19    0.40    0.29
  10  -5 -21    0.67    0.33
 -10   5 -21    0.45    0.32
   5 -10 -21    0.19    0.30
  -5  10 -21    0.60    0.29
  10  -5 -21    0.20    0.26
   5 -10 -21    0.22    0.28
  10  -5 -21    0.16    0.22
   6  10 -20    0.66    0.27
   6  10 -20    1.09    0.36
  10   6 -20    0.99    0.34
  -6 -10 -20    0.59    0.26
  -6 -10 -20    0.62    0.29
 -10  -6 -20    0.58    0.27
   6 -10  20    0.53    0.27
  10  -6  20    0.81    0.28
 -10  -6 -20    0.38    0.24
  10   6 -20    0.56    0.30
   6  10 -18    0.35    0.22
   6  10 -18    0.54    0.31
  -6 -10 -18    0.76    0.26
   6 -10  18    0.41    0.28
 -10  -6 -18    0.30    0.21
  10  -6  18    0.85    0.32
 -10  -6 -18    0.08    0.21
  10   6 -18    0.25    0.24
  10   6 -18    0.18    0.24
   6  10 -16    0.28    0.20
   6  10 -16    0.83    0.30
  -6 -10 -16    0.47    0.20
  -6 -10 -16    1.07    0.32
 -10  -6 -16    1.18    0.29
 -10  -6 -16    1.03    0.27
   6  10 -16    0.38    0.35
   6 -10  16    0.16    0.21
  10   6 -16    0.84    0.28
  10   6 -16    1.00    0.31
  10  -6  16    0.86    0.28
   6  10 -14    1.80    0.34
  10  -6  14    1.82    0.35
  -6 -10 -14    2.09    0.30
   6 -10  14    2.10    0.39
 -10  -6 -14    1.94    0.31
   6  10 -14    1.56    0.37
 -10  -6 -14    1.39    0.28
  -6 -10 -14    1.71    0.22
  -6 -10 -14    1.67    0.34
  10   6 -14    1.98    0.36
  10   6 -14    0.88    0.26
   6  10 -14    1.51    0.29
 -10  -6 -12    6.23    0.48
   6 -10  12    6.96    0.61
 -10  -6 -12    7.14    0.52
  -6 -10 -12    6.67    0.44
  10  -6  12    7.33    0.61
  10   6 -12    7.10    0.59
  -6 -10 -12    6.94    0.58
   6  10 -12    6.69    0.54
   6  10 -12    7.22    0.63
  10   6 -12    6.93    0.58
   6  10 -12    7.32    0.55
  10   6 -12    8.60    0.68
  -6 -10 -12    7.72    0.47
  -6 -10 -10    4.65    0.46
 -10  -6 -10    4.54    0.38
   6 -10  10    4.79    0.48
   6  10 -10    4.70    0.49
  10  -6  10    4.78    0.47
  10   6 -10    4.26    0.19
  10   6 -10    5.13    0.50
 -10   6  10    5.47    0.38
  -6 -10 -10    3.84    0.36
  10  -6  10    4.72    0.33
  10   6 -10    4.10    0.42
   6  10 -10    4.92    0.43
  -6  10  10    5.69    0.48
  10   6 -10    4.90    0.48
   6  10 -10    4.91    0.42
  -6 -10 -10    4.80    0.33
  -6  10   8    5.98    0.49
 -10  -6  -8    6.19    0.42
 -10   6   8    6.60    0.39
   6  10  -8    4.84    0.50
  -6 -10  -8    5.74    0.49
   6 -10   8    5.84    0.51
  10  -6   8    5.54    0.43
  -6 -10  -8    5.94    0.45
   6  10  -8    4.99    0.39
  10  -6   8    5.20    0.49
   6  10  -8    5.76    0.41
  10   6  -8    5.99    0.51
  10   6  -8    6.79    0.53
   6  10  -8    5.97    0.43
  -6 -10  -8    6.86    0.34
   6  10  -6    2.54    0.37
 -10   6   6    1.93    0.23
 -10  -6  -6    2.14    0.24
  10   6  -6    2.30    0.33
  -6 -10  -6    2.13    0.29
  -6  10   6    1.94    0.29
  10  -6   6    2.29    0.30
  10  -6   6    2.11    0.28
  -6 -10  -6    1.88    0.29
   6 -10   6    2.31    0.32
  10  -6   6    2.18    0.33
   6  10  -6    1.92    0.26
  -6 -10  -6    1.94    0.13
  10   6  -6    1.98    0.31
   6  10  -6    1.96    0.24
   6  10  -6    1.97    0.23
 -10  -6  -4   13.75    0.61
  -6 -10  -4   13.73    0.71
   6 -10   4   14.94    0.73
  10  -6   4   14.01    0.74
  -6 -10  -4   14.51    0.76
  10  -6   4   14.41    0.47
 -10   6   4   16.10    0.64
  10  -6   4   14.03    0.68
  10   6  -4   15.78    0.76
   6  10  -4   14.05    0.52
  -6 -10  -4   15.18    0.64
  -6  10   4   16.31    0.76
   6  10  -4   14.62    0.62
  10   6  -4   14.47    0.74
   6  10  -4   14.35    0.67
  -6 -10  -2   14.57    0.70
 -10  -6  -2   12.69    0.60
  -6 -10  -2   13.27    0.72
   6 -10   2   12.48    0.64
  10  -6   2   13.04    0.73
  10   6  -2   12.85    0.68
  10  -6   2   13.54    0.43
  -6  10   2   14.54    0.72
   6  10  -2   12.97    0.56
  10  -6   2   12.86    0.63
  -6 -10  -2   12.88    0.57
 -10   6   2   13.18    0.41
   6  10  -2   12.71    0.64
   6 -10   0    8.56    0.48
  10  -6   0    8.91    0.35
   6  10   0    9.12    0.54
   6 -10   0    8.64    0.50
   6  10   0    8.73    0.45
  10  -6   0    7.54    0.57
  -6 -10   0    8.93    0.60
  10   6   0    9.19    0.56
   6 -10   0    8.80    0.37
 -10  -6   0    9.12    0.47
  10  -6   0    8.81    0.51
  -6 -10   0    8.47    0.44
 -10  -6   0    8.16    0.44
  -6 -10   2   12.93    0.74
   6 -10  -2   12.98    0.63
  10  -6  -2   13.58    0.51
 -10  -6   2   14.47    0.62
  10   6   2   12.89    0.59
  10  -6  -2   12.38    0.76
 -10  -6   2   13.89    0.52
 -10  -6   2   13.36    0.77
   6  10   2   13.71    0.60
  10   6   2   12.90    0.69
   6 -10  -2   14.16    0.51
  10  -6  -2   11.85    0.62
  -6  10  -2   13.38    0.47
  -6 -10   2   13.60    0.57
   6  10   2   12.61    0.68
   6 -10  -4   14.64    0.71
  10  -6  -4   15.25    0.62
  10   6   4   12.93    0.61
   6 -10  -4   15.68    0.84
  -6 -10   4   15.53    0.56
  10  -6  -4   13.88    0.82
  -6 -10   4   13.85    0.80
   6  10   4   15.24    0.78
   6  10   4   14.69    0.78
   6 -10  -4   16.24    0.58
 -10  -6   4   14.88    0.82
  -6  10  -4   14.47    0.53
  10   6   4   15.65    0.77
  -6  10  -4   14.78    0.64
 -10   6  -4   17.02    0.48
  10  -6  -4   14.18    0.70
   6 -10  -4   14.94    0.58
 -10   6  -6    2.38    0.16
   6  10   6    1.76    0.31
   6  10   6    1.97    0.12
  10   6   6    2.28    0.33
  10  -6  -6    2.34    0.28
   6 -10  -6    2.21    0.36
  -6 -10   6    2.36    0.36
  10   6   6    1.93    0.34
   6 -10  -6    2.04    0.23
  -6 -10   6    1.85    0.22
 -10  -6   6    1.78    0.32
  -6  10  -6    1.56    0.23
  -6  10  -6    1.67    0.18
  10  -6  -6    1.88    0.28
   6 -10  -6    1.89    0.23
   6 -10  -6    1.91    0.29
 -10   6  -8    6.42    0.31
   6  10   8    5.32    0.21
   6 -10  -8    5.91    0.50
   6 -10  -8    6.70    0.55
  -6 -10   8    5.62    0.42
  -6 -10   8    6.92    0.57
 -10  -6   8    5.89    0.52
   6  10   8    6.39    0.56
  10   6   8    6.09    0.54
  -6  10  -8    5.93    0.29
  -6  10  -8    6.13    0.37
  -6  10  -8    7.34    0.47
  10  -6  -8    6.35    0.49
   6 -10  -8    6.22    0.41
  10   6  10    4.23    0.36
   6 -10 -10    4.77    0.50
  10   6  10    5.57    0.54
   6  10  10    4.28    0.49
 -10  -6  10    4.94    0.48
   6 -10 -10    4.96    0.49
  10  -6 -10    5.12    0.48
  -6  10 -10    4.46    0.41
   6 -10 -10    4.63    0.40
  10   6  12    7.25    0.49
   6 -10 -12    6.32    0.60
   6 -10 -12    6.77    0.59
  10  -6 -12    7.88    0.66
 -10  -6  12    6.98    0.58
   6  10  12    7.78    0.67
  10   6  12    7.35    0.64
  10  -6 -12    5.68    0.55
  10   6  14    1.44    0.36
  10  -6 -14    1.49    0.35
   6 -10 -14    1.76    0.36
   6 -10 -14    1.42    0.32
   6  10  14    1.98    0.40
 -10  -6  14    1.17    0.29
  10   6  14    1.45    0.25
  10  -6 -14    0.89    0.32
  10   6  16    0.95    0.22
   6 -10 -16    0.65    0.29
  10  -6 -16    0.71    0.28
 -10  -6  16    0.76    0.24
  10   6  16    0.87    0.34
  -6  10 -16    0.38    0.25
   6 -10 -16    0.19    0.19
  10  -6 -16    0.90    0.32
  10  -6 -18   -0.06    0.28
  -6  10 -18    0.35    0.28
  10  -6 -18    0.09    0.23
 -10   6 -18    0.85    0.31
   6 -10 -18    0.76    0.30
   6 -10 -18    0.41    0.29
  10  -6 -20    0.96    0.36
   6 -10 -20    0.99    0.37
  10  -6 -20    0.97    0.31
  -6  10 -20    0.64    0.31
 -10   6 -20    0.19    0.31
   6 -10 -20    0.92    0.33
   7  10 -21   -0.26    0.28
  -7 -10 -21   -0.08    0.23
  10  -7  21   -0.11    0.26
 -10  -7 -21    0.51    0.28
   7 -10  21   -0.29    0.26
  10   7 -21   -0.40    0.37
 -10  -7 -21    0.20    0.24
   7  10 -21    0.03    0.26
  10   7 -21   -0.11    0.24
  -7 -10 -19    0.39    0.23
  -7 -10 -19   -0.13    0.26
 -10  -7 -19   -0.18    0.22
   7 -10  19    0.14    0.23
   7  10 -19   -0.03    0.25
  10  -7  19    0.01    0.20
 -10  -7 -19    0.46    0.25
  10   7 -19    0.05    0.24
  10   7 -19    0.05    0.24
   7  10 -19    0.31    0.26
   7  10 -17    0.96    0.32
   7 -10  17    1.31    0.40
 -10  -7 -17    0.53    0.24
   7  10 -17    0.25    0.31
  -7 -10 -17    0.93    0.25
  -7 -10 -17    0.79    0.29
 -10  -7 -17    0.87    0.29
  10  -7  17    1.22    0.33
  10   7 -17    0.97    0.30
  10   7 -17    0.87    0.31
   7  10 -17    0.81    0.29
 -10  -7 -15    0.81    0.24
   7 -10  15    1.12    0.33
  -7 -10 -15    0.78    0.23
   7  10 -15    0.80    0.27
  10  -7  15    1.08    0.29
   7  10 -15    0.97    0.36
 -10  -7 -15    1.02    0.26
  10   7 -15    1.22    0.31
  10   7 -15    0.88    0.27
  -7 -10 -15    1.16    0.30
   7  10 -15    1.01    0.27
 -10  -7 -13    1.95    0.30
  -7 -10 -13    2.54    0.30
   7 -10  13    2.35    0.39
 -10  -7 -13    2.63    0.36
  -7 -10 -13    2.20    0.36
  10   7 -13    1.77    0.39
  10  -7  13    2.76    0.41
  -7 -10 -13    2.15    0.28
   7  10 -13    3.01    0.47
   7  10 -13    2.16    0.34
  10   7 -13    2.74    0.40
  10   7 -13    2.36    0.38
   7  10 -13    1.84    0.31
   7  10 -11    0.17    0.24
   7 -10  11    0.16    0.21
 -10  -7 -11    0.36    0.17
  -7 -10 -11    0.65    0.25
  10   7 -11    0.30    0.08
  10   7 -11    0.26    0.23
   7  10 -11    0.29    0.14
 -10  -7 -11    0.44    0.17
  -7 -10 -11    0.44    0.18
  -7 -10 -11    0.31    0.15
  -7  10  11    0.29    0.21
  10  -7  11    0.33    0.19
  10   7 -11    0.48    0.23
  10   7 -11    0.47    0.24
   7  10 -11    0.43    0.21
   7  10 -11    0.25    0.19
  10   7  -9    3.42    0.21
   7  10  -9    4.05    0.48
  10  -7   9    3.71    0.43
 -10  -7  -9    3.09    0.33
  -7  10   9    3.73    0.39
 -10   7   9    3.31    0.32
  -7 -10  -9    3.45    0.40
  -7 -10  -9    3.51    0.38
   7  10  -9    3.17    0.31
   7 -10   9    3.21    0.40
  10   7  -9    3.50    0.43
  10   7  -9    3.01    0.36
   7  10  -9    3.72    0.37
   7  10  -9    2.94    0.32
  10   7  -9    3.68    0.42
  -7 -10  -9    3.82    0.28
  10   7  -7    6.36    0.51
 -10  -7  -7    4.97    0.40
  -7 -10  -7    5.37    0.47
   7 -10   7    5.96    0.51
   7  10  -7    6.33    0.56
  10  -7   7    5.34    0.50
  10  -7   7    5.54    0.45
  10   7  -7    5.70    0.29
  -7 -10  -7    5.58    0.46
   7  10  -7    5.42    0.38
   7  10  -7    5.75    0.41
  10   7  -7    5.79    0.50
   7  10  -7    6.34    0.44
 -10   7   7    5.45    0.38
  -7  10   7    6.06    0.47
  -7 -10  -7    5.63    0.29
 -10  -7  -5    2.26    0.26
  -7 -10  -5    2.19    0.30
   7  10  -5    2.04    0.25
  10   7  -5    2.36    0.33
  10  -7   5    2.45    0.34
  -7 -10  -5    2.72    0.35
   7 -10   5    2.75    0.34
   7  10  -5    2.26    0.22
   7  10  -5    2.29    0.27
  10   7  -5    2.23    0.31
  10  -7   5    2.19    0.32
 -10   7   5    2.94    0.28
  10  -7   5    2.21    0.28
   7  10  -5    2.80    0.40
  -7 -10  -5    2.30    0.13
  -7  10   5    2.55    0.32
  -7 -10  -3    0.37    0.17
  10  -7   3    0.49    0.22
  -7 -10  -3    0.18    0.18
  -7  10   3    0.29    0.18
   7  10  -3    0.27    0.14
  10  -7   3    0.12    0.14
   7 -10   3    0.33    0.17
   7  10  -3    0.27    0.14
  10   7  -3    0.09    0.16
  10   7  -3    0.22    0.17
   7 -10   1    0.55    0.16
  10  -7   1    0.60    0.26
 -10  -7  -1    0.46    0.15
  -7 -10  -1    0.79    0.26
  10  -7   1    0.41    0.06
   7  10  -1    0.27    0.15
 -10  -7  -1    0.16    0.23
   7 -10   1    0.50    0.12
   7  10  -1    0.69    0.17
  10  -7   1    0.27    0.14
   7 -10   1    0.56    0.18
 -10  -7  -1    0.64    0.14
  10   7  -1    0.66    0.20
  -7 -10  -1    0.58    0.15
   7 -10  -1    0.57    0.17
  10  -7  -1    0.59    0.12
 -10  -7   1    0.95    0.27
  -7 -10   1    0.39    0.08
  10  -7  -1    0.47    0.24
   7  10   1    0.47    0.20
  -7 -10   1    0.33    0.20
   7  10   1    1.00    0.19
 -10  -7   1    0.43    0.12
  10   7   1    0.40    0.19
   7 -10  -1    0.67    0.13
  10  -7  -1    0.83    0.21
 -10  -7   1    0.37    0.13
  -7 -10   1    0.48    0.15
  -7  10  -1    0.61    0.11
  -7 -10   3    0.47    0.14
 -10  -7   3    0.42    0.14
   7 -10  -3    0.25    0.21
  10  -7  -3    0.33    0.12
  -7  10  -3    0.25    0.12
  10  -7  -3    0.25    0.20
  -7 -10   3    0.23    0.09
   7 -10  -3    0.28    0.08
   7  10   3    0.13    0.13
 -10  -7   3    0.30    0.26
  10   7   3    0.05    0.16
   7 -10  -3    0.40    0.15
  -7 -10   3   -0.05    0.22
  10  -7  -3    0.13    0.15
   7 -10  -3    0.32    0.12
  -7  10  -3    0.26    0.10
  -7  10  -5    1.99    0.23
 -10   7  -5    2.63    0.19
  -7  10  -5    2.37    0.22
  -7 -10   5    2.62    0.25
  10  -7  -5    2.27    0.26
   7 -10  -5    2.24    0.35
  10  -7  -5    2.75    0.42
  -7 -10   5    2.35    0.36
   7 -10  -5    2.30    0.22
   7  10   5    2.34    0.37
  10   7   5    2.44    0.36
 -10  -7   5    2.66    0.37
  10   7   5    2.63    0.34
   7 -10  -5    2.94    0.32
  10  -7  -5    2.60    0.31
   7 -10  -5    2.20    0.23
 -10   7  -7    6.58    0.33
   7  10   7    6.27    0.55
   7  10   7    6.01    0.27
   7 -10  -7    6.11    0.55
  10  -7  -7    5.66    0.57
  10   7   7    5.73    0.53
  10  -7  -7    5.76    0.45
   7 -10  -7    5.69    0.40
   7 -10  -7    6.47    0.51
  -7 -10   7    6.81    0.57
  -7  10  -7    5.61    0.37
  -7 -10   7    6.12    0.42
  10  -7  -7    6.05    0.47
 -10  -7   7    5.73    0.52
   7 -10  -7    5.68    0.41
  -7  10  -7    5.75    0.40
 -10   7  -9    3.46    0.26
   7  10   9    3.06    0.19
  10   7   9    3.27    0.30
   7 -10  -9    3.22    0.44
  10  -7  -9    3.56    0.47
  -7  10  -9    3.19    0.33
  -7 -10   9    3.47    0.44
   7  10   9    3.36    0.45
  10   7   9    2.71    0.39
 -10  -7   9    2.83    0.41
   7 -10  -9    2.93    0.38
  10  -7  -9    2.99    0.37
   7 -10  -9    2.90    0.32
   7 -10 -11    0.38    0.19
 -10  -7  11    0.46    0.24
   7 -10 -11    0.21    0.21
   7 -10 -11    0.64    0.28
  10  -7 -11    0.24    0.25
   7  10  11    0.49    0.28
  10   7  11    0.38    0.26
  10   7  11    0.28    0.13
  10  -7 -11   -0.09    0.22
   7 -10 -13    2.17    0.33
 -10  -7  13    2.03    0.36
   7 -10 -13    2.58    0.42
  10  -7 -13    2.31    0.40
  10   7  13    2.51    0.29
  10   7  13    2.25    0.40
   7  10  13    2.34    0.42
   7 -10 -13    2.56    0.40
  10  -7 -13    1.74    0.35
   7 -10 -15    0.83    0.26
  10   7  15    1.02    0.33
   7 -10 -15    0.46    0.29
   7 -10 -15    1.52    0.32
  10  -7 -15    1.29    0.35
 -10  -7  15    1.18    0.27
   7  10  15    0.42    0.31
  10   7  15    0.96    0.21
  10  -7 -15    1.08    0.29
  -7  10 -17    0.58    0.31
   7 -10 -17    1.28    0.39
   7 -10 -17    1.19    0.31
  10  -7 -17    0.87    0.31
  10   7  17    1.21    0.41
  10  -7 -17    1.64    0.38
  10  -7 -19    0.13    0.24
   7 -10 -19    0.17    0.23
   7 -10 -19    0.24    0.32
  10  -7 -19    0.21    0.27
  -7  10 -19    0.02    0.27
 -10   7 -19   -0.07    0.28
  10  -7 -21    0.04    0.27
   7 -10 -21   -0.14    0.33
  10  -7 -21   -0.45    0.27
  -7  10 -21    0.63    0.35
 -10   7 -21    0.27    0.27
 -10  -8 -20    0.41    0.23
   8 -10  20   -0.04    0.30
  10  -8  20    0.76    0.31
  -8 -10 -20    0.27    0.22
 -10  -8 -20    0.20    0.23
  10   8 -20    0.16    0.27
   8  10 -20   -0.03    0.28
  10   8 -20    0.29    0.23
   8  10 -20    0.49    0.28
  -8 -10 -18    0.31    0.20
   8 -10  18    0.67    0.31
  10  -8  18    1.05    0.32
 -10  -8 -18    0.46    0.23
 -10  -8 -18    0.44    0.24
  -8 -10 -18    0.46    0.23
  10   8 -18    0.83    0.33
   8  10 -18    0.92    0.30
  10   8 -18    0.35    0.25
   8  10 -18    0.45    0.23
   8 -10  16   -0.09    0.22
 -10  -8 -16    0.18    0.20
 -10  -8 -16    0.27    0.22
  10  -8  16    0.05    0.21
   8  10 -16    0.50    0.34
  -8 -10 -16    0.01    0.22
  -8 -10 -16    0.28    0.17
  10   8 -16    0.50    0.27
   8  10 -16    0.15    0.21
  10   8 -16    0.38    0.24
   8  10 -16   -0.15    0.22
   8 -10  14    1.06    0.29
  10  -8  14    1.10    0.29
  -8 -10 -14    1.48    0.31
  -8 -10 -14    1.48    0.25
 -10  -8 -14    1.34    0.27
  10   8 -14    1.87    0.41
 -10  -8 -14    1.54    0.30
  -8 -10 -14    0.99    0.21
  10   8 -14    1.22    0.30
   8  10 -14    1.05    0.33
   8  10 -14    1.43    0.31
  10   8 -14    1.33    0.32
   8  10 -14    1.65    0.30
 -10  -8 -12    2.46    0.33
  10  -8  12    3.27    0.44
  10   8 -12    2.80    0.43
   8  10 -12    2.19    0.26
  -8 -10 -12    2.09    0.36
  -8 -10 -12    2.32    0.27
   8  10 -12    2.97    0.45
  -8 -10 -12    2.58    0.32
 -10  -8 -12    2.92    0.33
  10   8 -12    3.08    0.40
  -8  10  12    3.18    0.38
   8  10 -12    2.67    0.36
  10   8 -12    2.35    0.38
   8  10 -12    2.21    0.33
   8 -10  12    2.61    0.40
 -10   8  10    5.29    0.42
  -8 -10 -10    5.55    0.37
 -10  -8 -10    4.65    0.42
  -8  10  10    5.66    0.48
   8  10 -10    5.31    0.55
   8 -10  10    5.46    0.54
  10  -8  10    5.99    0.55
 -10  -8 -10    5.43    0.41
  10   8 -10    5.70    0.56
  -8 -10 -10    6.07    0.49
   8  10 -10    5.86    0.40
  10   8 -10    5.81    0.49
   8  10 -10    5.66    0.46
  -8 -10 -10    4.46    0.46
  10   8 -10    5.92    0.52
   8  10 -10    5.49    0.46
  10   8 -10    5.25    0.30
 -10   8   8    5.23    0.40
  -8  10   8    5.67    0.47
 -10  -8  -8    4.21    0.39
  -8 -10  -8    4.64    0.44
  -8 -10  -8    5.10    0.31
   8  10  -8    6.01    0.55
  10   8  -8    5.18    0.31
  10   8  -8    5.13    0.51
  10  -8   8    4.99    0.49
  -8 -10  -8    4.97    0.47
   8 -10   8    5.23    0.50
   8  10  -8    5.12    0.39
   8  10  -8    5.42    0.39
  10   8  -8    5.89    0.50
   8  10  -8    4.86    0.42
   8  10  -6    0.48    0.26
 -10   8   6    0.09    0.16
  10   8  -6    0.54    0.24
 -10  -8  -6    0.37    0.18
  -8 -10  -6   -0.07    0.20
  -8  10   6    0.20    0.18
  10  -8   6    0.09    0.18
  10  -8   6    0.02    0.17
   8  10  -6    0.49    0.17
  -8 -10  -6    0.19    0.19
   8 -10   6    0.07    0.18
 -10  -8  -6    0.28    0.23
  10   8  -6    0.26    0.12
   8  10  -6    0.59    0.19
  10   8  -6    0.20    0.20
  -8 -10  -6    0.27    0.09
   8  10  -4    4.24    0.35
  -8 -10  -4    3.63    0.36
   8 -10   4    3.55    0.38
  -8 -10  -4    3.56    0.18
  10  -8   4    3.12    0.37
 -10  -8  -4    3.51    0.32
  -8 -10  -4    4.19    0.43
 -10   8   4    3.25    0.32
  10  -8   4    3.91    0.34
 -10  -8  -4    3.72    0.43
  -8 -10  -4    3.19    0.17
   8  10  -4    3.39    0.33
  10   8  -4    4.21    0.39
  -8  10   4    3.05    0.35
  10  -8   4    3.17    0.38
   8  10  -4    3.45    0.41
  10   8  -4    3.41    0.39
   8 -10   2    2.42    0.31
  10  -8   2    2.58    0.36
  -8  10   2    2.81    0.34
   8  10  -2    2.71    0.30
  -8 -10  -2    2.77    0.38
   8 -10   2    3.05    0.25
 -10  -8  -2    2.40    0.38
 -10  -8  -2    2.80    0.23
  10  -8   2    2.40    0.27
   8  10  -2    2.67    0.29
  10   8  -2    2.61    0.32
  -8 -10  -2    2.65    0.14
  -8 -10   0    7.13    0.28
  10  -8   0    7.34    0.37
   8 -10   0    7.39    0.43
   8 -10   0    7.16    0.50
 -10   8   0    6.43    0.26
  -8 -10   0    6.87    0.56
   8 -10   0    7.86    0.60
  10  -8   0    6.96    0.59
 -10  -8   0    7.51    0.61
   8  10   0    7.25    0.49
   8  10   0    7.68    0.47
   8 -10   0    7.82    0.40
  10   8   0    7.55    0.52
  10  -8   0    7.16    0.45
 -10  -8   0    7.79    0.40
  -8  10   0    6.72    0.38
 -10  -8   2    2.45    0.24
  -8 -10   2    3.08    0.21
  10  -8  -2    2.46    0.24
   8 -10  -2    2.69    0.28
  -8 -10   2    2.35    0.37
  -8  10  -2    2.47    0.26
   8 -10  -2    2.52    0.40
  10  -8  -2    2.54    0.40
 -10  -8   2    3.20    0.41
   8  10   2    2.54    0.29
  10   8   2    2.62    0.32
   8 -10  -2    2.81    0.25
  10  -8  -2    2.89    0.29
 -10   8  -2    2.55    0.13
  -8  10  -2    2.78    0.23
  -8  10  -2    2.30    0.22
 -10  -8   4    2.78    0.28
  -8 -10   4    3.36    0.27
  -8  10  -4    3.51    0.31
  10  -8  -4    3.66    0.31
  -8  10  -4    3.03    0.26
   8 -10  -4    2.96    0.31
 -10   8  -4    3.58    0.25
   8 -10  -4    3.39    0.43
  10  -8  -4    2.85    0.42
   8 -10  -4    3.82    0.25
  -8 -10   4    2.99    0.40
   8  10   4    4.02    0.45
 -10  -8   4    4.14    0.48
  10   8   4    3.64    0.38
  -8  10  -4    3.33    0.27
  10  -8  -4    3.46    0.34
   8 -10  -4    3.73    0.30
  10  -8  -6    0.06    0.16
   8 -10  -6    0.08    0.17
 -10   8  -6    0.14    0.09
  -8 -10   6    0.54    0.27
  10  -8  -6    0.05    0.23
  -8 -10   6    0.23    0.14
   8 -10  -6    0.25    0.14
   8  10   6    0.48    0.28
  10   8   6    0.47    0.28
 -10  -8   6   -0.01    0.23
   8 -10  -6   -0.07    0.24
  -8  10  -6    0.18    0.12
  -8  10  -6    0.16    0.13
  10  -8  -6    0.22    0.16
   8 -10  -6    0.12    0.14
 -10   8  -8    4.82    0.33
   8 -10  -8    5.16    0.53
  10   8   8    4.98    0.36
   8 -10  -8    5.05    0.46
  10  -8  -8    5.60    0.46
  10  -8  -8    5.62    0.58
   8 -10  -8    4.11    0.38
   8  10   8    4.98    0.27
  10   8   8    4.92    0.52
 -10  -8   8    5.13    0.53
   8  10   8    4.80    0.52
  -8 -10   8    4.03    0.48
  10  -8  -8    4.73    0.44
  -8  10  -8    5.46    0.39
   8  10  10    5.27    0.29
  10   8  10    5.31    0.38
  10  -8 -10    4.71    0.48
  10  -8 -10    5.45    0.57
  -8 -10  10    5.72    0.55
   8 -10 -10    4.99    0.51
   8  10  10    5.08    0.54
 -10  -8  10    4.56    0.50
  10   8  10    5.66    0.57
   8 -10 -10    5.35    0.50
  10  -8 -10    5.58    0.49
   8 -10 -10    5.53    0.46
  10  -8 -12    2.52    0.41
  10   8  12    2.55    0.27
  -8 -10  12    2.70    0.44
   8 -10 -12    1.92    0.39
 -10  -8  12    2.43    0.39
   8  10  12    2.89    0.46
  10   8  12    2.30    0.41
   8 -10 -12    2.60    0.41
  10  -8 -12    2.86    0.39
   8 -10 -12    2.76    0.37
   8 -10 -14    1.41    0.29
   8 -10 -14    1.40    0.35
  10   8  14    1.13    0.20
   8 -10 -14    1.16    0.32
  10  -8 -14    0.77    0.28
 -10  -8  14    1.46    0.33
  10   8  14    1.58    0.40
   8  10  14    0.92    0.32
  10  -8 -14    1.31    0.31
   8 -10 -16   -0.02    0.20
   8 -10 -16    0.32    0.25
   8 -10 -16    0.08    0.21
  10  -8 -16    0.39    0.26
   8  10  16    0.14    0.28
  10   8  16   -0.03    0.25
 -10  -8  16    0.02    0.21
  10  -8 -16    0.35    0.24
   8 -10 -18    0.66    0.29
   8 -10 -18    0.71    0.27
   8 -10 -18    0.83    0.36
  -8  10 -18   -0.19    0.31
 -10   8 -18    0.34    0.30
  10  -8 -18    0.37    0.24
  10  -8 -18    0.99    0.34
  10  -8 -20    0.45    0.30
   8 -10 -20    0.04    0.27
   8 -10 -20    0.48    0.24
  10  -8 -20    0.30    0.26
   8 -10 -20    0.58    0.36
 -10   8 -20    0.34    0.30
  -8  10 -20    0.14    0.27
   9 -10  19    0.02    0.29
  10  -9  19   -0.13    0.30
 -10  -9 -19    0.33    0.27
  -9 -10 -19    0.48    0.26
  10   9 -19    0.15    0.24
   9  10 -19    0.01    0.27
  10   9 -19   -0.39    0.28
   9  10 -19    0.66    0.25
  10   9 -17    0.54    0.27
  10  -9  17   -0.12    0.27
 -10  -9 -17    0.50    0.22
  -9 -10 -17    0.42    0.26
 -10  -9 -17    0.38    0.20
   9  10 -17    0.29    0.30
   9 -10  17    0.29    0.25
   9  10 -17    0.72    0.27
  10   9 -17    0.49    0.27
   9  10 -17    0.68    0.27
 -10  -9 -15    2.23    0.37
   9 -10  15    2.62    0.43
  -9 -10 -15    2.56    0.38
 -10  -9 -15    2.64    0.35
   9  10 -15    2.44    0.47
  10   9 -15    2.40    0.46
 -10  -9 -15    2.50    0.34
  -9 -10 -15    2.22    0.33
  10  -9  15    2.68    0.45
  10   9 -15    2.18    0.36
   9  10 -15    3.08    0.42
  10   9 -15    2.09    0.38
   9  10 -15    1.99    0.35
  -9 -10 -13   -0.02    0.15
   9  10 -13    0.71    0.30
 -10  -9 -13    0.39    0.21
   9 -10  13    0.34    0.25
  10   9 -13    0.19    0.30
 -10  -9 -13    0.69    0.20
  -9 -10 -13    0.18    0.17
 -10  -9 -13    0.25    0.18
  10   9 -13    0.44    0.22
  -9 -10 -13    0.07    0.19
   9  10 -13    0.05    0.20
  10   9 -13    0.19    0.20
   9  10 -13    0.24    0.20
  10  -9  13    0.10    0.21
  -9 -10 -11    4.61    0.36
   9 -10  11    4.37    0.50
 -10  -9 -11    4.02    0.42
  -9 -10 -11    4.22    0.44
 -10  -9 -11    4.10    0.37
   9  10 -11    4.58    0.52
  -9  10  11    4.44    0.44
 -10   9  11    4.64    0.42
  10  -9  11    3.58    0.46
  10   9 -11    4.06    0.51
  -9 -10 -11    4.20    0.42
 -10  -9 -11    3.92    0.44
   9  10 -11    4.09    0.42
   9  10 -11    4.25    0.33
  10   9 -11    3.48    0.40
  10   9 -11    4.11    0.45
   9  10 -11    4.12    0.44
 -10   9   9    0.31    0.18
   9  10  -9    0.31    0.26
 -10  -9  -9    0.18    0.17
   9  10  -9    0.02    0.11
  -9 -10  -9    0.30    0.16
  10   9  -9    0.26    0.22
   9 -10   9   -0.15    0.21
  -9 -10  -9    0.06    0.18
 -10  -9  -9    0.12    0.13
  -9 -10  -9    0.29    0.14
  -9  10   9    0.28    0.19
 -10  -9  -9    0.09    0.21
  10  -9   9    0.50    0.23
  10   9  -9    0.10    0.12
   9  10  -9    0.30    0.17
  10   9  -9    0.06    0.18
   9  10  -9    0.03    0.16
 -10  -9  -7    6.14    0.47
  -9 -10  -7    6.06    0.48
   9  10  -7    5.51    0.54
  10   9  -7    6.32    0.38
   9 -10   7    5.04    0.49
  10  -9   7    5.49    0.52
  -9 -10  -7    6.25    0.54
 -10  -9  -7    5.50    0.52
  -9 -10  -7    5.95    0.33
  10   9  -7    6.58    0.57
  10   9  -7    5.61    0.48
   9  10  -7    5.54    0.47
 -10   9   7    6.45    0.47
  -9  10   7    6.10    0.48
   9  10  -7    5.74    0.40
 -10  -9  -5   10.16    0.60
  -9 -10  -5   10.38    0.63
   9  10  -5   10.85    0.57
   9 -10   5   11.70    0.71
  10  -9   5   10.63    0.70
  10  -9   5   10.29    0.69
  10   9  -5   10.78    0.64
  -9 -10  -5   10.74    0.71
 -10  -9  -5   10.10    0.71
  10   9  -5   10.93    0.53
  -9 -10  -5   10.51    0.41
   9  10  -5   12.55    0.77
  10   9  -5   10.41    0.70
 -10   9   5   12.31    0.64
   9  10  -5   10.67    0.62
  -9  10   5   10.34    0.63
   9  10  -3    5.47    0.41
  -9  10   3    4.88    0.44
  10  -9   3    5.81    0.52
 -10   9   3    5.79    0.44
   9 -10   3    5.50    0.37
  10  -9   3    5.48    0.40
 -10  -9  -3    4.63    0.50
 -10  -9  -3    4.94    0.30
   9  10  -3    5.25    0.42
  10   9  -3    5.25    0.44
  -9 -10  -3    5.07    0.24
  -9 -10  -3    5.08    0.50
  10  -9   3    5.21    0.48
  10   9  -3    6.12    0.51
   9 -10   3    5.01    0.46
   9 -10   1    9.96    0.63
   9 -10   1    9.72    0.70
  10  -9   1    9.49    0.68
   9  10  -1    9.14    0.56
  -9 -10  -1   10.38    0.71
   9  10  -1   10.27    0.58
 -10  -9  -1    9.54    0.68
  10  -9   1    9.33    0.52
  10   9  -1    9.44    0.58
 -10  -9  -1   10.29    0.45
  -9 -10  -1   10.05    0.38
   9 -10   1    9.96    0.50
  -9  10   1    9.10    0.49
   9 -10  -1    9.52    0.50
  10  -9  -1    9.56    0.47
   9 -10  -1    9.19    0.48
   9 -10  -1    9.42    0.68
  10  -9  -1    8.89    0.67
  -9 -10   1    9.55    0.69
 -10  -9   1    8.71    0.66
  -9  10  -1   10.01    0.53
   9  10   1    9.39    0.56
  10   9   1    9.33    0.58
 -10   9  -1    9.44    0.35
  10  -9  -1    9.13    0.52
 -10  -9   1    9.76    0.46
  -9  10  -1    8.86    0.47
  -9 -10   1    9.83    0.40
 -10  -9   3    4.83    0.50
  -9 -10   3    5.23    0.32
   9 -10  -3    4.64    0.37
  10  -9  -3    5.60    0.38
  10  -9  -3    5.37    0.55
  -9  10  -3    5.30    0.37
   9 -10  -3    5.13    0.54
  10  -9  -3    5.48    0.28
   9 -10  -3    5.31    0.25
  -9 -10   3    5.47    0.54
   9  10   3    5.38    0.43
  10   9   3    6.46    0.49
 -10   9  -3    5.18    0.33
  10  -9  -3    5.34    0.40
  -9  10  -3    5.21    0.31
   9 -10  -3    5.19    0.36
  -9  10  -3    4.98    0.35
 -10   9  -3    5.21    0.25
 -10  -9   3    5.34    0.36
  -9 -10   5   10.62    0.54
   9 -10  -5   10.87    0.61
  -9  10  -5   11.91    0.56
  10  -9  -5   10.42    0.58
 -10   9  -5   11.94    0.51
   9 -10  -5   11.28    0.78
  10  -9  -5   11.31    0.78
  -9 -10   5   11.03    0.76
  10  -9  -5   10.89    0.52
   9 -10  -5   10.77    0.49
  10   9   5   12.86    0.79
  10   9   5   11.14    0.68
   9  10   5   10.88    0.73
  10  -9  -5   11.05    0.61
   9 -10  -5   11.12    0.58
  -9  10  -5   11.16    0.50
 -10  -9   5   10.55    0.56
 -10  -9   5   10.13    0.73
 -10  -9   7    5.38    0.55
 -10   9  -7    6.23    0.37
  10  -9  -7    5.77    0.46
   9  10   7    6.35    0.59
  10  -9  -7    6.75    0.63
   9 -10  -7    5.58    0.58
  -9 -10   7    6.09    0.58
  10  -9  -7    5.50    0.41
   9 -10  -7    6.10    0.42
   9 -10  -7    5.85    0.47
   9 -10  -7    6.35    0.45
  10   9   7    5.42    0.54
  -9  10  -7    5.92    0.39
  10  -9  -7    5.89    0.46
   9  10   9    0.27    0.10
   9 -10  -9    0.19    0.20
  10   9   9    0.23    0.12
 -10  -9   9    0.30    0.27
  10  -9  -9    0.08    0.19
   9 -10  -9    0.02    0.22
  10  -9  -9   -0.13    0.28
  -9 -10   9    0.43    0.27
   9  10   9    0.10    0.26
  10   9   9    0.05    0.25
  10  -9  -9   -0.05    0.17
   9 -10  -9    0.50    0.21
  10  -9 -11    4.39    0.48
  10   9  11    3.94    0.32
   9  10  11    4.37    0.51
   9 -10 -11    3.59    0.43
  10  -9 -11    3.93    0.51
  -9 -10  11    3.81    0.48
 -10  -9  11    4.57    0.52
  10   9  11    4.45    0.53
   9 -10 -11    3.59    0.47
  10  -9 -11    4.21    0.44
   9 -10 -11    3.88    0.41
   9  10  13    0.03    0.28
   9 -10 -13    0.19    0.25
   9 -10 -13    0.27    0.24
  10  -9 -13    0.36    0.19
  10  -9 -13    0.22    0.26
  -9 -10  13    0.18    0.23
 -10  -9  13    0.25    0.24
  10   9  13    0.25    0.26
  10  -9 -13    0.22    0.22
   9 -10 -13    0.31    0.23
  10  -9 -15    3.18    0.47
   9  10  15    3.47    0.51
   9 -10 -15    2.53    0.42
  10  -9 -15    2.46    0.43
  10   9  15    2.38    0.44
 -10  -9  15    2.51    0.41
   9 -10 -15    2.38    0.41
  10  -9 -15    2.18    0.39
   9 -10 -15    1.88    0.34
   9 -10 -17    0.31    0.23
  10   9  17    0.17    0.30
   9 -10 -17    0.35    0.27
   9 -10 -17    0.45    0.27
  10  -9 -17    0.34    0.25
   9  10  17    0.41    0.32
  -9  10 -17   -0.05    0.27
  10  -9 -17    0.54    0.25
   9 -10 -19    0.06    0.24
   9 -10 -19    0.10    0.28
   9 -10 -19    0.12    0.24
  10  -9 -19    0.08    0.23
 -10   9 -19    0.03    0.31
  -9  10 -19    0.03    0.25
  10  -9 -19    0.26    0.24
 -10 -10 -18    0.03    0.24
  10 -10  18   -0.20    0.22
  10  10 -18   -0.34    0.25
  10  10 -18    0.33    0.24
  10 -10  16    2.44    0.43
  10  10 -16    1.95    0.45
 -10 -10 -16    2.88    0.43
  10  10 -16    2.33    0.38
  10  10 -16    2.57    0.41
  10 -10  14    3.23    0.47
 -10 -10 -14    4.19    0.47
 -10 -10 -14    3.39    0.37
  10  10 -14    3.62    0.45
  10  10 -14    4.14    0.55
 -10 -10 -14    3.16    0.38
  10  10 -14    3.72    0.46
  10  10 -12    0.10    0.25
 -10 -10 -12    0.31    0.21
 -10 -10 -12    0.31    0.16
 -10 -10 -12    0.14    0.17
  10  10 -12    0.44    0.20
  10 -10  12    0.36    0.21
  10  10 -12    0.40    0.23
 -10  10  12    0.26    0.19
 -10  10  10   16.33    0.82
 -10 -10 -10   13.74    0.78
 -10 -10 -10   15.06    0.67
  10 -10  10   15.57    0.94
 -10 -10 -10   13.68    0.82
  10  10 -10   14.70    0.78
  10  10 -10   15.21    0.94
  10  10 -10   14.38    0.83
  10  10 -10   14.11    0.63
 -10 -10  -8   13.77    0.76
  10  10  -8   14.77    0.64
  10 -10   8   14.68    0.87
 -10 -10  -8   14.09    0.60
 -10 -10  -8   14.83    0.85
  10  10  -8   13.94    0.78
  10  10  -8   14.34    0.88
 -10  10   8   15.88    0.78
  10  10  -6    3.07    0.42
 -10  10   6    2.57    0.34
 -10 -10  -6    2.68    0.33
  10 -10   6    2.26    0.34
  10  10  -6    2.31    0.26
 -10 -10  -6    2.99    0.41
  10  10  -6    2.63    0.34
  10  10  -4   16.07    0.71
  10 -10   4   14.97    0.85
 -10  10   4   16.17    0.80
 -10 -10  -4   14.53    0.86
  10  10  -4   14.22    0.75
  10 -10   4   14.84    0.69
  10 -10   2   19.31    1.00
  10 -10   2   20.17    0.97
  10 -10   2   20.33    0.80
  10  10  -2   19.85    0.90
 -10 -10  -2   20.52    0.65
 -10 -10  -2   18.27    1.00
  10 -10   0   40.98    1.24
 -10 -10   0   43.06    1.63
  10 -10   0   43.36    1.62
  10  10   0   41.96    1.42
  10 -10   0   39.72    1.28
 -10 -10   0   41.69    1.14
  10 -10  -2   19.38    0.78
 -10  10  -2   20.30    0.64
 -10  10  -2   20.36    0.78
 -10 -10   2   20.01    1.05
  10  10   2   19.89    0.90
  10 -10  -2   20.05    0.81
  10 -10  -2   20.52    1.08
 -10 -10   2   19.24    0.71
  10 -10  -4   14.95    0.70
 -10  10  -4   14.82    0.64
  10 -10  -4   13.29    0.87
 -10 -10   4   14.33    0.88
  10  10   4   14.86    0.78
  10 -10  -4   14.21    0.69
 -10  10  -4   14.75    0.54
 -10 -10   4   14.30    0.63
  10 -10  -6    1.95    0.36
 -10 -10   6    2.38    0.40
  10  10   6    2.24    0.39
  10 -10  -6    2.82    0.32
  10 -10  -6    2.79    0.32
  10 -10  -8   13.53    0.78
  10 -10  -8   14.55    0.93
 -10 -10   8   14.29    0.90
  10  10   8   14.39    0.91
  10 -10  -8   14.44    0.75
  10  10   8   14.06    0.60
  10 -10 -10   15.01    0.85
  10 -10 -10   15.02    0.96
 -10 -10  10   13.74    0.91
  10  10  10   13.70    0.92
  10 -10 -10   14.32    0.79
  10 -10 -12    0.33    0.26
  10 -10 -12    0.09    0.24
 -10 -10  12    0.05    0.23
  10  10  12   -0.16    0.28
  10 -10 -12    0.13    0.18
 -10 -10  14    3.16    0.47
  10 -10 -14    4.10    0.53
  10 -10 -14    3.23    0.47
  10  10  14    3.62    0.53
  10 -10 -14    3.54    0.44
  10 -10 -16    2.09    0.41
  10 -10 -16    2.20    0.44
  10  10  16    1.61    0.44
  10 -10 -16    2.32    0.39
  10  10  18    0.63    0.35
  10 -10 -18   -0.22    0.28
  10 -10 -18   -0.21    0.28
 -10  10 -18   -0.05    0.25
  10 -10 -18   -0.07    0.22
   0 -11  -1    8.73    0.54
   0 -11   1    9.37    0.45
   0  11   1    8.94    0.48
   0  11   1    9.03    0.34
  11   0   1    8.72    0.56
  11   0   1    9.11    0.35
  11   0  -1   10.57    0.60
   0  11  -1    9.37    0.44
  11   0  -1    9.74    0.39
   0  11   3    0.92    0.11
   0 -11  -3    0.87    0.22
   0 -11   3    0.85    0.18
   0  11   3    0.92    0.20
  11   0  -3    0.78    0.16
  11   0   3    0.76    0.21
   0 -11  -3    0.75    0.08
  11   0  -3    1.10    0.23
   0  11  -3    0.61    0.14
   0 -11  -5   21.92    0.94
   0 -11   5   19.12    0.83
  11   0   5   19.96    0.82
   0  11  -5   19.18    0.53
   0  11   5   20.30    0.82
   0  11   5   20.96    0.87
   0 -11  -5   20.67    0.65
  11   0   5   18.85    0.88
   0  11  -5   18.69    0.87
   0  11  -5   20.05    0.76
  11   0  -5   20.67    0.92
   0  11   5   20.52    0.64
   0  11   7    8.41    0.42
 -11   0  -7    8.99    0.30
   0  11  -7    9.14    0.38
   0 -11  -7    8.20    0.58
   0  11   7    9.46    0.63
   0  11  -7    8.95    0.52
   0  11   7    9.82    0.51
   0  11   7    8.92    0.57
  11   0   7    9.70    0.57
  11   0   7    9.31    0.61
   0  11  -7   10.00    0.63
  11   0  -7    9.48    0.62
   0  11   9    9.51    0.50
   0 -11  -9   10.26    0.68
 -11   0  -9   10.53    0.41
   0  11   9   10.17    0.69
   0  11   9   10.91    0.68
  11   0   9   10.72    0.64
   0  11   9   10.49    0.50
  11   0   9   10.27    0.64
   0  11  -9   10.46    0.62
   0  11  -9   10.28    0.67
  11   0  -9   10.15    0.69
   0  11 -11    3.01    0.39
 -11   0 -11    2.56    0.24
   0  11 -11    3.14    0.37
  11   0  11    3.36    0.41
 -11   0  11    3.37    0.40
   0 -11 -11    3.13    0.31
   0 -11 -11    2.20    0.38
  11   0  11    2.37    0.34
  11   0 -11    2.88    0.40
   0 -11 -13   -0.22    0.28
  11   0  13    0.21    0.18
 -11   0 -13    0.29    0.16
   0  11 -13    0.45    0.24
 -11   0  13    0.17    0.19
   0  11 -13    0.27    0.23
   0 -11 -13    0.20    0.16
  11   0  13    0.23    0.24
  11   0 -13    0.42    0.27
   0  11 -15    9.95    0.74
  11   0  15   11.74    0.77
   0 -11 -15    9.87    0.79
 -11   0  15   10.01    0.62
  11   0 -15    9.60    0.76
   0 -11 -15   10.64    0.66
  11   0 -15   10.01    0.78
   0  11 -15   11.77    0.83
 -11   0  17    0.25    0.17
   0  11 -17    0.19    0.22
 -11   0 -17    0.01    0.21
   0 -11 -17    0.04    0.27
  11   0 -17    0.24    0.23
   0 -11 -17    0.12    0.19
  11   0  17    0.12    0.20
  11   0 -17   -0.12    0.24
 -11   0 -19    1.64    0.39
  11   0  19    1.67    0.36
   0  11 -19    0.95    0.34
  11   0 -19    1.93    0.45
   0 -11 -19    1.21    0.30
   0 -11 -19    0.46    0.28
  11   0 -19    1.41    0.40
  11   0  21    0.12    0.23
   0 -11 -21    0.62    0.31
 -11   0 -21   -0.27    0.31
   0  11 -21    0.08    0.29
   0 -11 -21   -0.18    0.23
  11   0 -21    0.42    0.33
  11   0 -21    0.01    0.30
   1  11 -22    0.86    0.36
  11  -1  22    1.04    0.34
 -11  -1 -22    0.53    0.28
  -1 -11 -22    0.31    0.30
  11   1 -22   -0.17    0.33
  -1 -11 -22    0.70    0.29
  11   1 -22    1.14    0.38
  11  -1  20    2.17    0.39
   1  11 -20    2.54    0.48
 -11  -1 -20    1.82    0.42
  -1 -11 -20    3.12    0.54
  11   1 -20    2.29    0.47
  -1 -11 -20    2.56    0.42
  11   1 -20    1.51    0.37
  11  -1  18    0.34    0.23
  -1 -11 -18    0.56    0.29
 -11  -1 -18    0.39    0.26
   1  11 -18    0.10    0.22
  11   1 -18    0.50    0.32
  -1 -11 -18    0.13    0.22
  11   1 -18    0.39    0.24
  -1 -11 -16    1.17    0.34
   1  11 -16    0.73    0.26
 -11  -1 -16    0.98    0.24
   1  11 -16    1.12    0.33
 -11   1  16    1.45    0.25
  11  -1  16    1.10    0.28
  11   1 -16    1.49    0.38
  -1 -11 -16    1.04    0.27
  11   1 -16    1.26    0.32
   1  11 -14    7.37    0.62
  -1 -11 -14    7.40    0.66
  11  -1  14    7.05    0.59
 -11  -1 -14    7.24    0.47
  11   1 -14    6.24    0.60
  -1 -11 -14    6.98    0.52
 -11   1  14    7.04    0.51
   1  11 -14    8.06    0.70
  11   1 -14    6.83    0.62
  -1 -11 -12    2.27    0.38
 -11  -1 -12    2.01    0.25
   1  11 -12    2.77    0.38
  11  -1  12    2.50    0.22
  11  -1  12    2.62    0.36
  11  -1  12    2.76    0.37
 -11   1  12    2.70    0.33
   1  11 -12    2.08    0.35
  -1 -11 -12    2.72    0.29
  11   1 -12    3.11    0.44
   1  11 -10   16.29    0.80
   1 -11  10   15.43    0.85
  -1 -11 -10   14.75    0.85
 -11  -1 -10   14.58    0.58
  11  -1  10   15.53    0.81
  -1  11  10   16.94    0.89
  -1  11  10   14.52    0.58
  11  -1  10   16.28    0.80
  -1 -11 -10   14.59    0.63
   1  11 -10   14.51    0.84
  11   1 -10   15.49    0.87
   1 -11   8    2.54    0.34
   1  11  -8    2.46    0.36
 -11  -1  -8    2.51    0.18
  -1 -11  -8    2.33    0.34
  -1  11   8    2.09    0.24
   1  11  -8    2.15    0.28
  -1  11   8    2.52    0.34
  11  -1   8    2.29    0.30
  -1  11   8    2.60    0.25
  11  -1   8    2.45    0.33
  -1  11   8    2.43    0.33
  11   1  -8    2.42    0.37
   1  11  -8    2.37    0.21
 -11  -1  -6    2.61    0.15
   1 -11   6    2.34    0.30
  -1  11   6    2.20    0.21
  -1 -11  -6    2.50    0.32
   1  11  -6    2.49    0.26
  -1  11   6    2.59    0.30
  -1  11   6    2.83    0.28
  11  -1   6    2.80    0.30
  -1 -11  -6    2.28    0.21
  11  -1   6    2.29    0.32
   1  11  -6    2.49    0.18
  11   1  -6    2.24    0.33
  -1  11   6    2.74    0.34
 -11   1   6    2.26    0.23
   1  11  -6    2.66    0.34
   1  11  -4   13.12    0.54
  -1 -11  -4   11.71    0.68
  -1  11   4   14.18    0.65
  11  -1   4   13.91    0.62
  -1  11   4   13.62    0.51
  11  -1   4   13.81    0.70
  -1 -11  -4   14.04    0.47
   1  11  -4   12.56    0.38
  11   1  -4   13.78    0.73
   1 -11   4   12.44    0.63
  11   1  -4   14.01    0.59
  -1 -11  -2    9.39    0.31
  -1 -11  -2    8.85    0.56
   1 -11   2    9.00    0.48
   1  11  -2   10.06    0.59
   1  11  -2    9.88    0.47
  -1  11   2   10.18    0.50
  11  -1   2    9.08    0.56
  -1  11   2    9.34    0.39
  11  -1   2    9.34    0.30
  11   1  -2    9.41    0.58
  11   1  -2   10.31    0.45
   1  11  -2   10.11    0.39
  -1 -11   0   26.59    1.04
   1 -11   0   28.25    1.04
  11   1   0   28.56    0.75
   1 -11   0   28.91    0.90
   1  11   0   28.05    0.85
  11   1   0   28.85    0.84
  11   1   0   29.46    1.11
  11  -1   0   27.92    1.07
   1  11   0   27.76    1.08
  -1  11   0   27.67    0.91
  11  -1   0   28.29    0.74
   1 -11  -2    9.35    0.56
   1 -11  -2    9.63    0.39
   1  11   2    9.77    0.52
  -1  11  -2    9.75    0.48
  11   1   2    8.22    0.29
  11   1   2    9.57    0.59
  11  -1  -2    9.79    0.58
   1  11   2    8.86    0.28
   1  11   4   13.31    0.42
   1 -11  -4   14.06    0.73
   1 -11  -4   13.21    0.42
   1  11   4   12.69    0.65
  11   1   4   13.29    0.71
  11  -1  -4   13.41    0.71
  -1  11  -6    2.19    0.30
   1  11   6    2.23    0.18
   1  11   6    2.27    0.27
   1 -11  -6    2.21    0.32
  11   1   6    2.09    0.29
   1  11   6    2.45    0.33
   1  11   6    1.86    0.28
  11   1   6    2.32    0.33
  11  -1  -6    2.09    0.32
   1  11   8    3.05    0.39
  -1  11  -8    3.13    0.38
 -11   1  -8    2.60    0.15
   1  11   8    2.34    0.21
   1 -11  -8    2.27    0.33
  -1  11  -8    2.33    0.30
  11   1   8    2.62    0.33
   1  11   8    2.29    0.33
  11   1   8    2.75    0.36
   1  11   8    2.48    0.27
  11  -1  -8    2.70    0.36
   1 -11 -10   15.32    0.87
  -1  11 -10   13.57    0.76
   1  11  10   13.30    0.62
  11   1  10   16.22    0.82
  11   1  10   16.05    0.83
 -11  -1  10   15.21    0.80
 -11   1 -10   15.51    0.55
   1  11  10   15.27    0.86
  -1  11 -10   15.37    0.83
  11  -1 -10   16.35    0.88
  11   1  12    2.50    0.35
  -1  11 -12    2.44    0.39
  -1  11 -12    3.17    0.41
  11   1  12    2.10    0.35
 -11  -1  12    2.22    0.33
   1 -11 -12    2.59    0.31
   1 -11 -12    2.67    0.41
  11  -1 -12    2.59    0.42
  -1  11 -14    7.83    0.64
  11   1  14    7.66    0.64
 -11  -1  14    6.74    0.52
   1 -11 -14    7.24    0.53
  11   1  14    7.25    0.58
   1 -11 -14    6.50    0.61
  11  -1 -14    6.86    0.63
  -1  11 -14    6.43    0.61
  -1  11 -16    1.63    0.35
  11   1  16    1.45    0.30
   1 -11 -16    1.97    0.41
 -11  -1  16    1.28    0.27
  11  -1 -16    1.61    0.39
   1 -11 -16    1.64    0.31
  11  -1 -16    1.28    0.33
  11   1  18    0.27    0.21
  -1  11 -18    0.32    0.29
   1 -11 -18    0.41    0.30
 -11  -1  18   -0.08    0.16
 -11   1 -18    0.41    0.31
  11  -1 -18    0.36    0.28
   1 -11 -18    0.11    0.23
  11  -1 -18    0.41    0.26
 -11   1 -20    1.52    0.40
  11   1  20    2.59    0.41
  -1  11 -20    2.44    0.48
  11  -1 -20    2.85    0.50
   1 -11 -20    2.62    0.43
   1 -11 -20    2.34    0.50
  11  -1 -20    1.41    0.37
  11   1  22    0.86    0.30
  -1  11 -22    0.52    0.31
 -11   1 -22    0.14    0.28
   1 -11 -22    1.14    0.41
  11  -1 -22    0.92    0.40
   1 -11 -22    0.67    0.29
  11  -1 -22   -0.19    0.31
 -11  -2 -21    0.47    0.22
   2  11 -21   -0.18    0.29
  11  -2  21   -0.11    0.20
  11   2 -21    0.06    0.29
  -2 -11 -21   -0.07    0.32
  -2 -11 -21    0.32    0.23
  11   2 -21   -0.07    0.21
  11  -2  19    2.28    0.40
 -11  -2 -19    1.72    0.33
 -11  -2 -19    2.21    0.42
  -2 -11 -19    1.12    0.37
  11   2 -19    1.99    0.42
   2  11 -19    1.45    0.37
  -2 -11 -19    1.35    0.32
  11   2 -19    2.21    0.42
 -11  -2 -17    0.33    0.21
  11  -2  17    0.27    0.19
 -11  -2 -17    0.06    0.22
  -2 -11 -17    0.17    0.27
  11   2 -17    0.49    0.27
   2  11 -17    0.91    0.32
  11   2 -17   -0.03    0.27
  -2 -11 -17    0.37    0.19
   2  11 -15    3.16    0.43
 -11   2  15    2.20    0.29
  -2 -11 -15    2.24    0.41
 -11  -2 -15    2.30    0.30
   2  11 -15    2.75    0.44
  11   2 -15    2.69    0.45
  -2 -11 -15    2.61    0.35
  11  -2  15    3.02    0.42
  11   2 -15    2.59    0.43
   2 -11  13    0.95    0.32
   2  11 -13    0.64    0.24
 -11  -2 -13    0.73    0.18
   2  11 -13    1.06    0.31
 -11   2  13    1.04    0.22
  11  -2  13    0.81    0.26
  11   2 -13    1.00    0.31
  -2 -11 -13    0.68    0.19
  11   2 -13    0.69    0.28
  -2 -11 -13    0.52    0.28
   2  11 -11   10.90    0.67
   2 -11  11   10.46    0.73
  -2 -11 -11   11.16    0.75
 -11  -2 -11   10.89    0.53
  11  -2  11   11.42    0.72
  -2 -11 -11   11.01    0.55
  11  -2  11   11.28    0.53
  11  -2  11   11.04    0.66
   2  11 -11   11.90    0.77
  11   2 -11   11.35    0.76
   2  11 -11   11.44    0.58
   2  11  -9    1.06    0.29
  11  -2   9    1.26    0.22
   2 -11   9    1.65    0.31
  -2  11   9    1.40    0.29
 -11  -2  -9    1.53    0.18
   2  11  -9    1.39    0.24
  11  -2   9    1.02    0.26
  11  -2   9    1.39    0.26
  -2  11   9    1.74    0.20
  -2 -11  -9    1.41    0.18
  -2 -11  -9    1.40    0.29
  11   2  -9    1.65    0.31
   2  11  -9    1.11    0.18
   2  11  -7    0.27    0.20
 -11   2   7    0.52    0.14
  -2  11   7    0.78    0.17
  -2  11   7    0.64    0.22
 -11  -2  -7    0.68    0.12
   2 -11   7    0.31    0.18
  -2 -11  -7    0.65    0.24
   2  11  -7    0.45    0.15
  11  -2   7    0.60    0.21
  11   2  -7    0.78    0.24
  -2  11   7    0.58    0.16
  -2 -11  -7    0.62    0.15
  11  -2   7    0.59    0.17
  11  -2   7    0.55    0.24
  11   2  -7    0.75    0.24
   2  11  -7    0.37    0.11
   2  11  -5   24.27    0.82
  -2 -11  -5   22.88    0.99
   2 -11   5   24.19    0.97
  -2  11   5   24.45    0.92
 -11   2   5   23.63    0.65
  11  -2   5   25.70    0.89
  -2  11   5   24.59    0.92
   2  11  -5   23.37    1.02
  11  -2   5   23.85    0.99
  -2 -11  -5   24.08    0.77
 -11   2   5   24.75    0.79
  -2  11   5   23.62    0.81
  11   2  -5   23.45    1.01
   2  11  -5   22.73    0.69
  11   2  -5   24.87    0.91
  11  -2   5   24.28    0.64
  -2  11   5   24.64    1.03
  -2 -11  -3    5.64    0.45
   2  11  -3    5.33    0.29
   2  11  -3    5.37    0.36
  -2  11   3    5.58    0.37
   2  11  -3    5.27    0.43
  11  -2   3    5.33    0.44
   2  11  -3    5.77    0.23
   2 -11   3    5.27    0.38
  -2  11   3    5.63    0.32
  -2 -11  -3    6.00    0.28
  11   2  -3    5.98    0.47
  11   2  -3    5.64    0.36
   2 -11   1   10.04    0.56
  -2 -11  -1   11.56    0.63
  11   2  -1   10.32    0.41
   2 -11   1   10.76    0.51
   2  11  -1   10.96    0.48
  -2  11   1   11.09    0.49
  11  -2   1   11.23    0.61
  11   2  -1   10.96    0.49
  11   2  -1   10.46    0.61
   2  11  -1   10.84    0.62
  -2 -11  -1   11.15    0.35
   2  11  -1   10.07    0.33
   2 -11  -1    9.36    0.55
  11   2   1   10.36    0.61
  11   2   1   10.19    0.38
   2 -11  -1   10.77    0.47
   2  11   1   10.12    0.39
  -2  11  -1   10.68    0.46
  11  -2  -1    9.81    0.58
   2  11   1   10.35    0.60
 -11  -2   3    5.29    0.22
   2  11   3    5.77    0.46
   2 -11  -3    5.66    0.44
  11  -2  -3    5.95    0.45
   2 -11  -3    5.85    0.29
   2  11   3    5.90    0.43
  11   2   3    5.38    0.44
   2 -11  -3    4.95    0.21
   2 -11  -5   23.90    0.99
   2  11   5   22.92    1.01
   2 -11  -5   24.63    0.67
   2  11   5   23.29    0.97
  11   2   5   24.24    0.96
  11   2   5   24.66    1.02
  -2  11  -5   21.85    0.93
  -2  11  -5   22.44    0.58
  11  -2  -5   24.52    1.00
  -2  11  -7    0.44    0.19
   2 -11  -7    0.58    0.22
  11   2   7    0.68    0.23
   2  11   7    0.74    0.24
  11   2   7    0.56    0.21
  -2  11  -7    0.65    0.11
   2 -11  -7    0.56    0.08
   2  11   7    0.57    0.23
  11  -2  -7    0.81    0.25
   2 -11  -9    1.08    0.28
  11   2   9    1.30    0.25
 -11   2  -9    1.47    0.14
   2  11   9    1.36    0.30
  11   2   9    1.87    0.31
  -2  11  -9    1.38    0.26
 -11  -2   9    1.55    0.31
  -2  11  -9    1.66    0.30
  11  -2  -9    1.50    0.30
  -2  11 -11   11.85    0.73
   2 -11 -11   10.50    0.74
  11   2  11   11.03    0.66
   2  11  11   11.74    0.78
  11   2  11   10.94    0.71
 -11  -2  11   12.14    0.71
  -2  11 -11   11.70    0.73
  11  -2 -11   11.85    0.77
  -2  11 -13    0.90    0.27
  11   2  13    1.30    0.33
 -11  -2  13    0.76    0.24
  -2  11 -13    0.60    0.25
  11   2  13    0.52    0.18
   2 -11 -13    0.99    0.24
   2 -11 -13    0.29    0.20
  11  -2 -13    1.02    0.29
  11   2  15    2.52    0.36
   2 -11 -15    2.02    0.39
  -2  11 -15    2.40    0.40
 -11  -2  15    2.78    0.35
   2 -11 -15    2.82    0.36
  11  -2 -15    2.44    0.41
   2 -11 -17    0.04    0.29
  -2  11 -17    0.02    0.24
 -11  -2  17    0.27    0.19
  11   2  17    0.14    0.18
  11  -2 -17    0.64    0.32
   2 -11 -17   -0.08    0.21
  11  -2 -17    0.94    0.33
 -11   2 -19    1.54    0.40
  -2  11 -19    2.00    0.42
   2 -11 -19    2.00    0.41
  11  -2 -19    1.82    0.41
  11   2  19    2.37    0.39
   2 -11 -19    1.71    0.38
  11  -2 -19    2.06    0.43
  11   2  21   -0.40    0.24
   2 -11 -21   -0.67    0.39
  -2  11 -21   -0.30    0.32
 -11   2 -21   -0.12    0.25
  11  -2 -21   -0.21    0.29
   2 -11 -21   -0.14    0.22
  11  -2 -21    0.03    0.26
  11  -3  20    0.30    0.22
   3  11 -20    0.37    0.30
  -3 -11 -20    0.19    0.27
 -11  -3 -20    0.44    0.24
 -11  -3 -20    0.31    0.27
  11   3 -20    0.26    0.28
  -3 -11 -20    0.47    0.20
  11   3 -20    0.24    0.26
   3  11 -18    1.17    0.35
  11  -3  18    1.01    0.30
 -11  -3 -18    1.09    0.32
  -3 -11 -18    0.71    0.28
 -11  -3 -18    0.63    0.23
  11   3 -18    1.30    0.36
  -3 -11 -18    0.58    0.24
  11   3 -18    0.85    0.33
   3  11 -16    0.70    0.28
  -3 -11 -16    0.20    0.21
 -11  -3 -16    0.38    0.18
   3 -11  16    0.84    0.31
   3  11 -16    0.32    0.29
  11  -3  16    0.52    0.25
 -11  -3 -16    0.30    0.25
 -11   3  16    0.18    0.13
  11   3 -16    0.74    0.31
  -3 -11 -16    0.56    0.21
  11   3 -16    0.51    0.24
   3 -11  14    0.90    0.29
   3  11 -14    0.46    0.26
  11  -3  14    0.38    0.23
 -11  -3 -14    0.49    0.17
  -3 -11 -14    0.23    0.22
   3  11 -14    0.30    0.28
 -11   3  14    0.13    0.18
  11   3 -14    0.55    0.26
  -3 -11 -14    0.48    0.18
  11   3 -14    1.08    0.33
   3  11 -12    2.64    0.31
 -11  -3 -12    2.19    0.26
   3 -11  12    2.31    0.38
   3  11 -12    2.61    0.37
  11  -3  12    2.40    0.35
  -3 -11 -12    2.92    0.42
  11  -3  12    2.62    0.24
   3  11 -12    2.18    0.39
  11   3 -12    2.06    0.36
  -3 -11 -12    2.56    0.28
  11   3 -12    2.84    0.42
 -11  -3 -10    6.80    0.40
  -3 -11 -10    6.03    0.55
   3 -11  10    6.88    0.57
  -3  11  10    7.15    0.58
  11  -3  10    6.76    0.44
  -3  11  10    6.73    0.37
  11  -3  10    7.03    0.49
  11  -3  10    6.83    0.56
  -3 -11 -10    7.15    0.39
   3  11 -10    6.54    0.57
  11   3 -10    6.35    0.56
  11  -3  10    6.90    0.42
   3  11 -10    6.52    0.43
   3  11 -10    6.90    0.50
  -3 -11  -8    3.36    0.39
 -11  -3  -8    3.65    0.27
   3  11  -8    4.10    0.45
   3 -11   8    3.44    0.39
  11  -3   8    3.66    0.40
  -3  11   8    4.11    0.43
  11  -3   8    4.13    0.36
  -3  11   8    3.74    0.31
  11   3  -8    3.73    0.39
  11  -3   8    3.73    0.34
  -3 -11  -8    3.91    0.24
 -11   3   8    3.85    0.33
  11  -3   8    4.08    0.26
   3  11  -8    3.63    0.29
  11   3  -8    4.17    0.43
   3  11  -8    4.13    0.36
 -11  -3  -6    8.96    0.39
   3 -11   6    9.07    0.58
  -3 -11  -6    7.88    0.57
  -3  11   6    9.63    0.52
  11  -3   6    9.60    0.50
  11  -3   6    7.93    0.55
  -3 -11  -6    9.09    0.45
   3  11  -6    8.70    0.61
 -11   3   6    8.78    0.44
  11  -3   6    8.93    0.30
  -3  11   6    8.80    0.48
  11   3  -6    9.92    0.63
   3  11  -6    9.12    0.42
  11   3  -6   10.06    0.56
 -11   3   6    9.15    0.36
   3  11  -6    8.56    0.45
  -3  11   6    9.54    0.61
  -3 -11  -4   13.28    0.71
   3 -11   4   13.58    0.68
  -3  11   4   14.03    0.63
  11  -3   4   14.23    0.59
   3  11  -4   14.21    0.70
  11  -3   4   13.47    0.70
 -11   3   4   13.77    0.49
  -3 -11  -4   13.95    0.53
  -3  11   4   13.69    0.59
   3  11  -4   13.78    0.49
  11   3  -4   13.87    0.64
  11   3  -4   12.83    0.72
  -3  11   4   14.17    0.74
   3  11  -4   13.54    0.50
  11   3  -2    8.16    0.40
  -3 -11  -2    7.73    0.52
   3  11  -2    8.08    0.44
   3 -11   2    7.90    0.47
  -3  11   2    8.41    0.42
  11  -3   2    8.86    0.55
   3  11  -2    8.68    0.33
  11   3  -2    8.65    0.46
  -3  11   2    9.81    0.59
  11   3  -2    8.86    0.57
   3  11  -2    8.18    0.53
  -3 -11  -2    8.64    0.36
   3  11  -2    8.41    0.29
   3 -11   0   20.05    0.85
  11   3   0   21.76    0.69
   3  11   0   21.39    0.71
   3 -11   0   21.77    0.78
  11  -3   0   21.04    0.90
 -11  -3   0   21.19    0.73
  -3  11   0   21.13    0.69
  11   3   0   21.33    0.92
   3  11   0   21.13    0.91
  -3 -11   0   22.28    0.63
   3  11   2    7.52    0.53
 -11  -3   2    8.96    0.35
   3 -11  -2    9.09    0.54
  11   3   2    9.03    0.38
   3 -11  -2    8.75    0.42
   3  11   2    8.84    0.32
  -3  11  -2    8.76    0.37
   3  11   2    9.18    0.55
  11   3   2    8.36    0.56
   3 -11  -2    8.02    0.25
  11  -3  -2    9.21    0.57
   3 -11  -4   13.38    0.71
   3  11   4   13.32    0.73
   3  11   4   14.47    0.73
   3 -11  -4   13.88    0.52
  -3  11  -4   13.58    0.67
  11   3   4   14.06    0.74
  11  -3  -4   12.94    0.71
   3 -11  -4   14.51    0.47
   3 -11  -6    9.15    0.60
   3  11   6   10.00    0.65
   3 -11  -6    8.84    0.37
   3 -11  -6    9.05    0.50
   3  11   6    9.54    0.60
  11   3   6    8.62    0.57
  11   3   6    7.90    0.57
  -3  11  -6    8.40    0.33
  -3  11  -6    8.37    0.53
  11  -3  -6    8.48    0.58
   3 -11  -8    3.37    0.40
 -11   3  -8    3.28    0.16
   3  11   8    4.06    0.44
  11   3   8    4.23    0.44
  -3  11  -8    4.20    0.27
 -11  -3   8    4.80    0.47
  -3  11  -8    4.23    0.40
  11  -3  -8    4.29    0.43
   3 -11 -10    6.06    0.56
  11   3  10    6.58    0.50
   3  11  10    7.26    0.61
 -11  -3  10    6.75    0.56
  -3  11 -10    6.17    0.39
  11   3  10    6.99    0.58
  -3  11 -10    6.28    0.52
  11  -3 -10    6.89    0.57
  11   3  12    2.15    0.29
  -3  11 -12    2.07    0.34
   3  11  12    2.85    0.44
  11   3  12    2.92    0.42
  -3  11 -12    3.13    0.41
 -11  -3  12    2.68    0.37
   3 -11 -12    1.81    0.34
  11  -3 -12    2.29    0.37
  11   3  14    0.32    0.16
  -3  11 -14    0.70    0.29
  11   3  14    0.36    0.22
   3 -11 -14    0.94    0.31
 -11  -3  14    0.38    0.22
  -3  11 -14    0.77    0.28
   3 -11 -14    0.45    0.20
  11  -3 -14    0.60    0.29
  11   3  16    0.10    0.15
   3 -11 -16    0.09    0.27
  -3  11 -16    0.66    0.30
 -11  -3  16    0.34    0.19
   3 -11 -16    0.19    0.21
  11  -3 -16    0.14    0.25
  11   3  18    0.47    0.18
   3 -11 -18    0.56    0.33
 -11  -3  18    0.97    0.25
  -3  11 -18    1.09    0.32
 -11   3 -18    1.12    0.37
  11  -3 -18    0.27    0.29
   3 -11 -18    0.44    0.24
  11  -3 -18    0.81    0.31
   3 -11 -20    0.35    0.31
  -3  11 -20    0.48    0.29
 -11   3 -20   -0.24    0.35
  11   3  20    1.02    0.29
  11  -3 -20    0.18    0.26
   3 -11 -20    0.10    0.20
  11  -3 -20   -0.04    0.29
   4  11 -21    0.53    0.31
 -11  -4 -21    0.21    0.22
  -4 -11 -21    0.27    0.26
 -11  -4 -21    0.45    0.27
  11   4 -21   -0.05    0.25
  11  -4  21   -0.06    0.22
  11   4 -21    0.11    0.25
  -4 -11 -19    1.20    0.29
   4  11 -19    1.64    0.39
  11  -4  19    1.26    0.34
 -11  -4 -19    1.25    0.31
 -11  -4 -19    1.26    0.33
  -4 -11 -19    0.93    0.33
  11   4 -19    1.36    0.39
  11   4 -19    0.88    0.30
  -4 -11 -17    1.26    0.28
   4  11 -17    1.45    0.29
   4  11 -17    1.50    0.36
   4 -11  17    1.36    0.33
 -11  -4 -17    1.30    0.30
 -11  -4 -17    1.92    0.32
  11  -4  17    1.18    0.31
   4  11 -17    1.53    0.38
  -4 -11 -17    1.27    0.34
  11   4 -17    1.18    0.35
  11   4 -17    1.35    0.33
  -4 -11 -15    0.25    0.17
   4  11 -15    0.06    0.17
   4  11 -15   -0.06    0.23
 -11  -4 -15    0.05    0.16
   4 -11  15    0.26    0.20
  -4 -11 -15    0.34    0.28
  11  -4  15   -0.07    0.22
   4  11 -15    0.15    0.25
 -11  -4 -15    0.02    0.19
 -11   4  15    0.24    0.15
  11   4 -15    0.53    0.28
  11   4 -15    0.03    0.24
 -11  -4 -13    4.32    0.38
  11  -4  13    4.72    0.49
   4  11 -13    5.07    0.57
  -4 -11 -13    4.65    0.38
  11   4 -13    4.67    0.52
   4 -11  13    4.64    0.52
   4  11 -13    5.07    0.49
  -4 -11 -13    5.49    0.54
   4  11 -13    4.29    0.41
  11   4 -13    4.39    0.49
 -11  -4 -11    5.87    0.40
  11  -4  11    5.89    0.54
   4  11 -11    6.01    0.58
  11  -4  11    5.73    0.39
  -4  11  11    6.36    0.54
  -4 -11 -11    5.26    0.51
   4 -11  11    6.51    0.59
  -4 -11 -11    6.66    0.40
  11  -4  11    6.14    0.41
  11   4 -11    5.34    0.54
   4  11 -11    6.47    0.51
   4  11 -11    6.00    0.44
   4  11  -9    0.06    0.23
   4  11  -9   -0.01    0.15
  11  -4   9   -0.05    0.10
  -4 -11  -9    0.08    0.14
 -11  -4  -9   -0.08    0.12
   4 -11   9    0.11    0.20
  -4 -11  -9    0.25    0.25
  11  -4   9    0.35    0.22
  11  -4   9    0.19    0.15
  11   4  -9    0.00    0.20
  -4  11   9   -0.05    0.12
  -4  11   9    0.31    0.23
  -4 -11  -9   -0.02    0.09
  11   4  -9   -0.37    0.25
   4  11  -9    0.21    0.15
  -4  11   7   19.13    0.89
 -11   4   7   17.68    0.60
 -11  -4  -7   17.17    0.64
  -4 -11  -7   16.81    0.85
  11  -4   7   18.12    0.85
   4 -11   7   16.65    0.84
  11  -4   7   16.89    0.87
  11  -4   7   17.35    0.79
  -4 -11  -7   16.93    0.78
  11  -4   7   17.05    0.69
   4  11  -7   16.33    0.78
  -4 -11  -7   16.03    0.69
  11  -4   7   16.40    0.51
   4  11  -7   17.09    0.89
 -11   4   7   17.28    0.69
  11   4  -7   16.78    0.87
   4  11  -7   17.75    0.68
  11   4  -7   17.82    0.83
   4  11  -7   16.38    0.69
  -4 -11  -5   33.95    1.27
   4 -11   5   34.18    1.24
  11  -4   5   34.20    1.25
  -4 -11  -5   32.81    1.22
  11  -4   5   37.32    1.08
 -11   4   5   35.60    1.01
  11  -4   5   34.68    1.25
   4  11  -5   34.15    1.32
   4  11  -5   34.60    1.22
  -4 -11  -5   33.78    1.06
 -11   4   5   35.30    1.01
  11   4  -5   37.70    1.23
   4  11  -5   33.14    1.01
  11   4  -5   35.34    1.30
   4  11  -5   34.73    1.02
  -4  11   5   37.49    1.32
  -4 -11  -3    7.91    0.53
   4  11  -3    8.11    0.47
   4 -11   3    7.89    0.50
  -4 -11  -3    8.41    0.56
  11  -4   3    8.79    0.41
  11   4  -3    8.27    0.49
 -11   4   3    7.81    0.30
  11  -4   3    8.57    0.54
  -4  11   3    7.85    0.45
   4  11  -3    8.19    0.37
  -4  11   3    8.37    0.55
   4  11  -3    7.70    0.31
   4  11  -3    7.29    0.50
  -4 -11  -3    8.31    0.39
  11   4  -3    8.37    0.57
   4 -11   1   26.02    0.98
  -4 -11  -1   28.17    1.06
  11   4  -1   26.58    0.87
   4  11  -1   27.37    0.91
   4 -11   1   26.84    0.96
 -11  -4  -1   26.90    0.91
  -4 -11  -1   28.38    1.12
  -4  11   1   27.51    0.82
  -4  11   1   27.31    1.08
  11   4  -1   29.13    0.97
   4  11  -1   26.46    0.80
  11   4  -1   25.63    1.05
  -4 -11  -1   28.28    0.82
   4  11  -1   27.19    1.05
  11  -4   1   26.59    1.03
   4  11   1   26.17    1.04
 -11  -4   1   26.04    0.81
   4 -11  -1   26.02    0.99
  11   4   1   27.06    1.07
  11   4   1   25.10    0.82
  11  -4  -1   25.07    0.68
   4  11   1   27.23    0.79
   4 -11  -1   26.66    0.90
  -4 -11   1   24.83    1.08
  -4  11  -1   26.75    0.73
   4 -11  -1   25.55    0.62
  11  -4  -1   27.02    1.02
  -4 -11   1   27.28    0.78
   4 -11  -3    7.79    0.51
   4  11   3    8.21    0.56
  11  -4  -3    7.84    0.37
  11   4   3    7.90    0.38
  -4  11  -3    7.03    0.29
   4  11   3    7.95    0.54
 -11  -4   3    7.84    0.30
  11   4   3    8.35    0.56
   4 -11  -3    7.63    0.40
  11  -4  -3    7.44    0.51
   4 -11  -3    7.91    0.31
   4  11   3    7.32    0.26
  -4  11  -3    6.63    0.22
   4 -11  -5   33.97    1.26
   4  11   5   35.82    1.32
   4  11   5   36.87    1.31
  11   4   5   35.56    1.29
  -4  11  -5   33.71    1.18
  -4  11  -5   33.47    0.88
  11  -4  -5   35.22    1.27
   4 -11  -5   35.00    0.98
  11   4   5   33.45    1.27
   4 -11  -7   19.65    0.91
  11   4   7   17.07    0.87
   4  11   7   16.88    0.87
 -11  -4   7   16.69    0.89
  11   4   7   16.96    0.88
  -4  11  -7   17.60    0.60
  -4  11  -7   18.05    0.82
  11  -4  -7   17.72    0.86
   4 -11  -7   17.98    0.69
  -4  11  -9   -0.05    0.19
   4 -11  -9   -0.19    0.22
  11   4   9    0.07    0.23
 -11  -4   9    0.08    0.23
  -4  11  -9    0.10    0.10
  11   4   9    0.23    0.16
   4  11   9    0.21    0.26
  11  -4  -9    0.15    0.22
   4 -11 -11    6.45    0.58
  11   4  11    6.91    0.50
 -11  -4  11    5.38    0.50
   4  11  11    6.07    0.56
  11   4  11    5.83    0.56
  -4  11 -11    6.45    0.53
  11  -4 -11    6.14    0.57
 -11  -4  13    4.70    0.48
   4  11  13    4.99    0.55
  11   4  13    4.94    0.44
  -4  11 -13    6.01    0.56
  -4  11 -13    5.15    0.50
  11   4  13    4.14    0.50
   4 -11 -13    4.83    0.54
  11  -4 -13    4.84    0.53
   4 -11 -15    0.05    0.24
  11   4  15    0.02    0.26
  -4  11 -15    0.25    0.26
 -11  -4  15    0.15    0.19
  11   4  15   -0.19    0.18
  11  -4 -15   -0.05    0.23
   4 -11 -17    2.01    0.42
  -4  11 -17    1.83    0.40
  11   4  17    1.29    0.28
   4 -11 -17    1.03    0.30
 -11  -4  17    1.70    0.32
  11  -4 -17    1.13    0.35
  11   4  19    1.16    0.27
   4 -11 -19    0.56    0.32
   4 -11 -19    1.32    0.34
  -4  11 -19    1.73    0.41
 -11  -4  19    0.92    0.26
 -11   4 -19    0.82    0.30
  11  -4 -19    0.69    0.32
   4 -11 -21   -0.06    0.35
  -4  11 -21   -0.07    0.27
  11  -4 -21    0.54    0.28
 -11   4 -21    0.50    0.34
  11  -4 -21    0.46    0.38
   4 -11 -21    0.34    0.28
  11  -4 -21    0.82    0.36
   5  11 -20    2.10    0.38
   5  11 -20    1.81    0.41
 -11  -5 -20    1.63    0.33
  11  -5  20    1.89    0.40
  -5 -11 -20    1.87    0.45
 -11  -5 -20    1.62    0.37
  11   5 -20    2.51    0.50
  11   5 -20    1.81    0.41
   5  11 -18    0.03    0.19
  -5 -11 -18    0.25    0.19
   5  11 -18   -0.11    0.26
   5 -11  18    0.38    0.25
  11  -5  18   -0.13    0.24
  -5 -11 -18    0.61    0.28
 -11  -5 -18    0.43    0.23
 -11  -5 -18    0.59    0.24
  11   5 -18    0.26    0.27
  11   5 -18    0.32    0.29
   5  11 -16    2.52    0.35
  -5 -11 -16    2.59    0.34
   5  11 -16    2.46    0.40
  11   5 -16    2.70    0.43
   5 -11  16    2.58    0.44
   5  11 -16    1.66    0.38
  -5 -11 -16    2.77    0.43
 -11  -5 -16    2.25    0.33
 -11  -5 -16    2.27    0.36
  11  -5  16    2.96    0.46
  11   5 -16    1.80    0.39
   5  11 -14    4.87    0.50
   5 -11  14    5.32    0.59
 -11  -5 -14    5.66    0.46
  11  -5  14    6.03    0.58
  -5 -11 -14    5.29    0.55
   5  11 -14    5.34    0.62
 -11  -5 -14    4.94    0.49
  11   5 -14    6.01    0.59
  -5 -11 -14    5.77    0.44
   5  11 -14    5.17    0.47
  11   5 -14    4.73    0.54
  -5 -11 -12    1.78    0.23
  11   5 -12    1.69    0.36
   5  11 -12    1.58    0.28
   5 -11  12    1.33    0.31
  -5 -11 -12    1.44    0.33
  -5 -11 -12    1.76    0.23
  11  -5  12    1.02    0.27
   5  11 -12    1.41    0.31
 -11  -5 -12    1.54    0.24
  11   5 -12    1.47    0.31
  11   5 -12    1.58    0.33
   5  11 -12    1.43    0.27
 -11  -5 -10   11.13    0.58
  -5 -11 -10   10.69    0.71
   5 -11  10   11.62    0.76
  11  -5  10   10.61    0.73
  11  -5  10   11.47    0.60
  -5 -11 -10   10.92    0.59
  -5  11  10   11.21    0.71
   5  11 -10   10.93    0.64
  11  -5  10   10.75    0.50
   5  11 -10   11.38    0.78
  -5 -11 -10   11.87    0.51
  11   5 -10   11.05    0.72
   5  11 -10   10.87    0.60
  11   5 -10   12.89    0.77
 -11  -5  -8   18.22    0.72
  -5  11   8   18.01    0.88
  -5 -11  -8   16.60    0.87
 -11   5   8   17.77    0.66
   5 -11   8   16.68    0.89
  11  -5   8   17.20    0.91
  11  -5   8   17.99    0.81
  -5 -11  -8   17.92    0.82
  11  -5   8   17.24    0.56
   5  11  -8   16.65    0.93
  -5 -11  -8   18.63    0.56
   5  11  -8   17.43    0.80
   5  11  -8   17.89    0.75
  11   5  -8   18.62    0.92
  11   5  -8   18.44    0.89
   5  11  -8   17.71    0.73
 -11   5   8   16.86    0.74
 -11   5   6    2.17    0.21
 -11  -5  -6    2.10    0.22
  -5  11   6    1.65    0.31
  11   5  -6    1.96    0.30
  11  -5   6    1.89    0.32
  -5 -11  -6    1.63    0.28
  11  -5   6    1.70    0.20
  -5 -11  -6    1.84    0.28
 -11   5   6    1.65    0.19
   5 -11   6    2.11    0.30
  11  -5   6    1.91    0.31
   5  11  -6    1.60    0.26
  11  -5   6    1.81    0.29
   5  11  -6    1.47    0.20
  11   5  -6    1.58    0.30
   5  11  -6    1.88    0.21
   5  11  -6    2.17    0.33
  -5 -11  -4   34.95    1.28
   5 -11   4   35.86    1.27
  11  -5   4   34.79    1.31
  -5 -11  -4   35.45    1.31
  11  -5   4   37.63    1.04
 -11   5   4   38.41    1.11
  11  -5   4   34.69    1.26
  11   5  -4   36.77    1.26
   5  11  -4   36.03    0.98
  -5 -11  -4   37.71    1.12
   5  11  -4   35.44    1.07
  11   5  -4   36.54    1.33
   5  11  -4   35.90    1.24
  -5  11   4   38.52    1.34
 -11   5   4   35.64    0.98
  -5 -11  -2   38.69    1.34
   5  11  -2   38.33    1.23
 -11  -5  -2   36.55    1.21
  -5 -11  -2   38.15    1.39
  11  -5   2   35.69    1.39
  11  -5   2   39.24    1.06
  -5  11   2   42.78    1.41
  11   5  -2   39.61    1.29
  11  -5   2   41.30    1.33
   5  11  -2   38.73    1.12
   5 -11   2   36.57    1.26
  11   5  -2   39.34    1.37
  -5 -11  -2   41.21    1.15
   5  11  -2   37.53    1.31
  11  -5   0    1.40    0.10
   5 -11   0    1.45    0.22
  11   5   0    1.18    0.18
   5  11   0    1.44    0.18
  -5 -11   0    1.73    0.30
   5 -11   0    1.32    0.11
   5  11   0    1.26    0.17
 -11  -5   0    1.32    0.18
   5  11   0    1.68    0.28
  11   5   0    1.39    0.27
  11  -5   0    1.52    0.24
   5 -11   0    1.04    0.18
  -5 -11   0    1.45    0.17
   5 -11  -2   37.66    1.29
   5  11   2   38.52    1.36
  11  -5  -2   39.81    1.05
  11   5   2   36.63    1.14
   5 -11  -2   38.30    1.20
  -5 -11   2   36.69    1.42
   5  11   2   39.22    1.05
  11   5   2   38.54    1.37
 -11  -5   2   38.98    1.06
   5 -11  -2   40.31    1.00
  11  -5  -2   39.16    1.31
  -5 -11   2   39.08    1.11
   5  11   4   36.49    1.31
   5 -11  -4   34.95    1.24
   5  11   4   34.57    0.83
  11   5   4   35.14    1.07
  -5 -11   4   37.52    1.40
  11  -5  -4   35.67    1.06
  -5  11  -4   31.24    0.79
 -11  -5   4   35.21    1.36
   5  11   4   36.95    1.33
  11   5   4   35.45    1.30
  -5  11  -4   35.30    1.16
  11  -5  -4   35.04    1.24
  -5  11  -4   34.49    0.89
   5 -11  -4   36.96    0.98
  -5  11  -6    2.05    0.27
   5 -11  -6    1.54    0.29
   5  11   6    2.42    0.35
   5 -11  -6    1.27    0.19
  11   5   6    1.95    0.32
  11   5   6    1.47    0.29
 -11  -5   6    1.92    0.35
  -5  11  -6    1.70    0.16
  11  -5  -6    1.86    0.30
   5 -11  -6    1.80    0.21
 -11   5  -8   18.36    0.53
   5 -11  -8   17.40    0.90
 -11  -5   8   18.26    0.94
   5  11   8   18.07    0.95
  11   5   8   18.47    0.93
  -5  11  -8   16.51    0.64
  -5  11  -8   18.44    0.83
  11  -5  -8   17.41    0.88
   5 -11  -8   17.60    0.73
   5 -11 -10   11.02    0.75
  11   5  10   12.09    0.65
 -11  -5  10    9.83    0.70
   5  11  10   11.79    0.79
  11   5  10   10.29    0.74
  -5  11 -10   10.90    0.66
  11  -5 -10   12.41    0.76
   5 -11 -12    1.68    0.35
  11   5  12    1.37    0.24
  11   5  12    1.84    0.37
  -5  11 -12    1.60    0.32
 -11  -5  12    1.02    0.26
   5  11  12    0.89    0.30
  11  -5 -12    2.20    0.37
  11   5  14    5.53    0.59
  11   5  14    5.33    0.46
   5 -11 -14    4.83    0.57
 -11  -5  14    5.56    0.52
   5  11  14    5.86    0.62
  -5  11 -14    5.30    0.56
  11  -5 -14    5.50    0.57
  11   5  16    2.43    0.34
   5 -11 -16    1.80    0.41
  11   5  16    2.85    0.49
 -11  -5  16    2.71    0.38
  -5  11 -16    2.79    0.44
  11  -5 -16    2.65    0.44
  11   5  18    0.11    0.16
   5 -11 -18   -0.29    0.31
  11  -5 -18   -0.26    0.24
  -5  11 -18    0.04    0.24
 -11  -5  18    0.07    0.18
  11  -5 -18    0.33    0.28
 -11   5 -20    1.35    0.39
   5 -11 -20    0.94    0.34
  11  -5 -20    1.91    0.40
  -5  11 -20    0.93    0.32
   5 -11 -20    1.96    0.41
  11  -5 -20    1.55    0.40
   6  11 -21    0.06    0.20
   6  11 -21    0.07    0.25
  -6 -11 -21    0.18    0.29
  11  -6  21    0.03    0.25
 -11  -6 -21   -0.06    0.22
   6 -11  21    0.19    0.30
 -11  -6 -21    0.00    0.23
  11   6 -21    0.15    0.27
  11   6 -21   -0.37    0.33
   6  11 -19    0.37    0.20
   6  11 -19    1.10    0.36
  -6 -11 -19    1.13    0.36
   6 -11  19    1.39    0.41
  11  -6  19    0.28    0.23
 -11  -6 -19    0.88    0.28
  11   6 -19    1.52    0.40
 -11  -6 -19    1.05    0.32
  11   6 -19    0.80    0.30
 -11  -6 -17    1.50    0.31
   6  11 -17    2.27    0.41
  -6 -11 -17    1.96    0.33
   6 -11  17    1.60    0.40
  11  -6  17    1.44    0.35
  -6 -11 -17    2.36    0.42
 -11  -6 -17    1.49    0.32
   6  11 -17    2.26    0.43
  11   6 -17    1.96    0.38
  11   6 -17    2.00    0.40
   6  11 -17    1.59    0.34
   6  11 -15    0.01    0.20
 -11  -6 -15    0.27    0.21
  -6 -11 -15    0.10    0.16
  -6 -11 -15    0.03    0.20
 -11  -6 -15    0.07    0.16
   6  11 -15   -0.26    0.34
   6 -11  15    0.08    0.19
  11   6 -15   -0.06    0.23
  11   6 -15    0.12    0.24
   6  11 -15   -0.10    0.17
  11  -6  15    0.41    0.24
 -11  -6 -13    3.69    0.39
   6  11 -13    3.66    0.43
   6 -11  13    4.22    0.51
  -6 -11 -13    3.42    0.33
  -6 -11 -13    4.09    0.48
  11  -6  13    3.55    0.46
   6  11 -13    3.62    0.52
  -6 -11 -13    3.40    0.33
  11   6 -13    3.79    0.49
  11   6 -13    3.76    0.45
 -11  -6 -13    3.79    0.40
  11   6 -13    3.87    0.46
   6  11 -13    3.66    0.39
 -11  -6 -11    8.45    0.54
  -6 -11 -11    8.85    0.65
  11  -6  11    8.71    0.67
  -6  11  11    9.41    0.65
  -6 -11 -11    8.93    0.54
   6 -11  11    9.83    0.72
  11   6 -11   10.40    0.68
   6  11 -11    9.22    0.60
   6  11 -11    9.93    0.75
  -6 -11 -11    9.50    0.49
  11   6 -11    9.19    0.69
   6  11 -11    9.00    0.57
  11   6 -11    9.56    0.72
  -6 -11  -9    1.59    0.17
   6  11  -9    1.42    0.35
   6 -11   9    1.66    0.32
  -6  11   9    1.92    0.32
  11  -6   9    1.81    0.33
  11  -6   9    1.91    0.27
  -6 -11  -9    1.97    0.29
   6  11  -9    1.73    0.25
  -6 -11  -9    2.15    0.35
 -11  -6  -9    1.79    0.25
  11   6  -9    2.38    0.37
 -11   6   9    1.93    0.24
  11   6  -9    2.29    0.34
   6  11  -9    2.17    0.28
   6  11  -9    1.89    0.26
 -11  -6  -7    9.53    0.51
  -6 -11  -7    9.69    0.63
  11  -6   7    8.94    0.59
  -6 -11  -7    9.16    0.58
  11  -6   7    9.77    0.66
   6  11  -7    9.27    0.55
   6  11  -7    9.75    0.70
   6 -11   7    9.92    0.66
   6  11  -7    9.30    0.49
  -6 -11  -7    9.03    0.31
  11   6  -7   10.82    0.67
  11   6  -7    8.86    0.62
   6  11  -7    9.79    0.53
 -11   6   7   10.18    0.52
 -11   6   7    9.40    0.48
  -6  11   7    9.74    0.63
 -11  -6  -5   15.04    0.64
  -6 -11  -5   14.70    0.76
  11  -6   5   15.15    0.53
  11  -6   5   14.49    0.77
  -6 -11  -5   15.11    0.79
   6 -11   5   14.58    0.77
  11  -6   5   14.57    0.73
   6  11  -5   14.91    0.84
 -11   6   5   15.58    0.64
   6  11  -5   14.53    0.57
  11   6  -5   15.60    0.78
   6  11  -5   15.24    0.65
  11   6  -5   15.00    0.80
   6  11  -5   13.45    0.69
  -6  11   5   16.41    0.80
  11  -6   5   14.92    0.82
 -11   6   5   15.20    0.57
  11   6  -3    0.57    0.19
  -6 -11  -3    0.74    0.22
 -11   6   3    0.63    0.09
   6  11  -3    0.38    0.17
  11  -6   3    0.98    0.27
  -6 -11  -3    0.87    0.25
  11  -6   3    0.80    0.11
  11  -6   3    0.68    0.21
  -6  11   3    0.83    0.23
   6  11  -3    0.91    0.16
  11   6  -3    0.81    0.23
  -6 -11  -3    0.70    0.16
   6 -11   3    0.73    0.20
   6 -11   1   12.32    0.62
   6  11  -1   13.44    0.69
   6  11  -1   12.43    0.59
  11  -6   1   11.77    0.73
  -6 -11  -1   12.31    0.74
  -6  11   1   13.60    0.73
   6 -11   1   13.76    0.46
   6  11  -1   13.44    0.57
  11  -6   1   13.30    0.67
  11   6  -1   13.07    0.72
   6 -11   1   13.31    0.66
  -6 -11  -1   12.99    0.57
 -11  -6  -1   12.46    0.59
   6 -11  -1   13.20    0.65
  11  -6  -1   12.89    0.46
   6  11   1   12.41    0.69
   6 -11  -1   13.02    0.63
  11  -6  -1   11.76    0.76
  -6 -11   1   13.22    0.77
   6  11   1   13.25    0.58
  11   6   1   13.87    0.73
   6 -11  -1   14.08    0.48
 -11  -6   1   13.03    0.62
  11  -6  -1   12.77    0.66
 -11  -6   1   12.09    0.53
  -6 -11   1   13.37    0.57
   6  11   3    0.21    0.19
  11  -6  -3    0.76    0.15
  -6 -11   3    0.36    0.20
   6  11   3    0.89    0.27
   6 -11  -3    0.55    0.16
 -11  -6   3    0.87    0.28
  11   6   3    0.60    0.22
  11  -6  -3    0.75    0.21
   6 -11  -3    0.56    0.11
  -6  11  -3    0.63    0.16
  -6  11  -3    0.59    0.10
   6 -11  -5   13.18    0.73
   6  11   5   14.24    0.43
  11  -6  -5   15.08    0.65
   6  11   5   16.40    0.85
  -6 -11   5   13.99    0.83
  11   6   5   15.28    0.83
 -11  -6   5   14.36    0.86
   6 -11  -5   14.65    0.60
  11   6   5   15.88    0.82
  -6  11  -5   15.12    0.68
  -6  11  -5   14.61    0.53
  11  -6  -5   14.99    0.75
   6 -11  -5   14.31    0.58
 -11   6  -7   10.61    0.35
   6 -11  -7    9.34    0.63
   6  11   7   10.83    0.71
  -6 -11   7    9.64    0.70
  -6  11  -7    8.65    0.32
 -11  -6   7   10.61    0.71
   6 -11  -7   10.02    0.54
  11   6   7   11.21    0.72
  -6  11  -7    9.26    0.45
  -6  11  -7   10.55    0.58
  11  -6  -7    9.76    0.62
   6 -11  -7    9.15    0.49
   6 -11  -9    1.86    0.34
  -6  11  -9    2.10    0.30
  11   6   9    1.52    0.23
   6  11   9    1.92    0.36
  11   6   9    2.68    0.41
 -11  -6   9    1.11    0.30
  11  -6  -9    1.91    0.34
   6 -11  -9    1.83    0.25
   6 -11 -11    8.79    0.69
  11   6  11    9.30    0.56
 -11  -6  11   10.08    0.71
   6  11  11    9.12    0.72
  11   6  11    9.66    0.74
  11  -6 -11   10.28    0.71
  -6  11 -11   10.18    0.65
   6 -11 -11    8.42    0.56
   6 -11 -13    3.32    0.45
  11   6  13    3.31    0.35
   6  11  13    4.03    0.52
 -11  -6  13    3.83    0.46
  11   6  13    3.94    0.51
  11  -6 -13    3.37    0.44
  11   6  15    0.31    0.17
  11   6  15    0.09    0.26
   6 -11 -15    0.25    0.23
  11  -6 -15    0.40    0.30
   6  11  15    0.38    0.27
 -11  -6  15    0.19    0.20
  -6  11 -15    0.40    0.26
  11  -6 -15    0.02    0.21
  11  -6 -17    2.22    0.42
  11   6  17    1.23    0.25
   6 -11 -17    1.44    0.36
 -11  -6  17    1.61    0.33
  11   6  17    1.25    0.35
  -6  11 -17    2.07    0.43
  11  -6 -17    1.63    0.38
   6 -11 -19    0.70    0.30
  11  -6 -19    1.03    0.31
  -6  11 -19    0.54    0.29
 -11   6 -19    0.99    0.37
  11  -6 -19    0.57    0.30
   6 -11 -21   -0.55    0.35
 -11   6 -21   -0.88    0.40
  11  -6 -21    0.09    0.25
  -6  11 -21    0.45    0.35
  11  -6 -21    0.39    0.35
 -11  -7 -20    0.27    0.24
   7 -11  20    0.37    0.24
  11  -7  20    0.01    0.24
 -11  -7 -20    0.67    0.29
  11   7 -20    0.72    0.29
  -7 -11 -20    0.37    0.26
  11   7 -20    0.03    0.33
   7  11 -20    0.45    0.28
   7  11 -20    0.07    0.22
  11  -7  18    0.10    0.19
  -7 -11 -18    0.46    0.29
 -11  -7 -18    0.56    0.24
   7 -11  18    0.72    0.29
 -11  -7 -18    0.23    0.19
  11   7 -18    0.70    0.30
  11   7 -18    0.63    0.31
   7  11 -18    0.21    0.22
   7  11 -18   -0.09    0.25
 -11  -7 -16    0.22    0.19
   7 -11  16    0.26    0.20
   7  11 -16    0.48    0.34
 -11  -7 -16    0.08    0.20
  -7 -11 -16    0.11    0.22
  11   7 -16    0.32    0.28
  11  -7  16    0.52    0.26
  11   7 -16   -0.03    0.23
   7  11 -16    0.35    0.21
   7  11 -16    0.30    0.25
  -7 -11 -14    1.09    0.22
 -11  -7 -14    0.59    0.21
  -7 -11 -14    0.86    0.27
  11  -7  14    0.22    0.23
   7  11 -14    0.91    0.32
 -11  -7 -14    0.77    0.23
   7 -11  14    0.62    0.26
  11   7 -14    0.77    0.27
  11   7 -14    1.56    0.38
  11   7 -14    1.35    0.33
   7  11 -14    0.53    0.22
   7  11 -14    0.77    0.25
  -7 -11 -12    2.04    0.25
 -11  -7 -12    1.87    0.28
  -7 -11 -12    2.19    0.37
   7 -11  12    2.37    0.39
  11   7 -12    2.32    0.40
   7  11 -12    2.01    0.27
  -7 -11 -12    2.28    0.30
 -11  -7 -12    1.89    0.28
  11  -7  12    2.18    0.40
   7  11 -12    2.62    0.43
  11   7 -12    2.42    0.37
  11   7 -12    2.15    0.37
   7  11 -12    1.95    0.31
   7  11 -12    1.93    0.31
  -7  11  12    2.42    0.36
   7  11 -10    2.54    0.43
  -7 -11 -10    2.23    0.35
   7 -11  10    3.10    0.42
   7  11 -10    2.83    0.31
  11  -7  10    2.59    0.39
 -11   7  10    2.82    0.29
 -11  -7 -10    2.98    0.33
  11   7 -10    3.00    0.43
  -7 -11 -10    2.75    0.34
  -7  11  10    3.50    0.40
  -7 -11 -10    3.09    0.26
  11   7 -10    2.74    0.38
   7  11 -10    2.90    0.33
   7  11 -10    3.30    0.35
   7  11  -8    1.39    0.35
  -7 -11  -8    0.71    0.11
 -11  -7  -8    0.76    0.20
  -7 -11  -8    0.86    0.27
  11   7  -8    1.08    0.32
  11  -7   8    0.92    0.27
  11  -7   8    1.03    0.25
  -7 -11  -8    0.87    0.23
  -7  11   8    0.76    0.25
 -11   7   8    0.95    0.20
   7  11  -8    1.00    0.22
   7 -11   8    0.71    0.22
   7  11  -8    0.74    0.20
  11   7  -8    0.93    0.27
   7  11  -8    0.78    0.19
   7  11  -6    0.22    0.22
 -11   7   6   -0.06    0.13
   7  11  -6    0.18    0.13
 -11  -7  -6    0.10    0.14
  11   7  -6    0.16    0.21
  -7 -11  -6    0.11    0.17
  -7  11   6    0.33    0.21
  11  -7   6    0.02    0.19
  11  -7   6    0.05    0.18
   7 -11   6    0.43    0.22
  -7 -11  -6    0.19    0.21
  11  -7   6    0.38    0.20
   7  11  -6   -0.02    0.12
   7  11  -6    0.08    0.14
  11   7  -6    0.04    0.20
  11   7  -4    1.28    0.27
  -7 -11  -4    0.97    0.24
   7 -11   4    0.84    0.22
  11  -7   4    1.06    0.28
 -11   7   4    0.97    0.19
   7  11  -4    0.92    0.21
  -7 -11  -4    1.03    0.27
  11  -7   4    0.86    0.22
   7  11  -4    0.93    0.18
  11   7  -4    1.18    0.26
  -7  11   4    0.93    0.23
   7 -11   2    1.85    0.27
  11  -7   2    2.38    0.36
  11  -7   2    2.14    0.13
  -7 -11  -2    2.02    0.33
  -7  11   2    3.01    0.36
  11  -7   2    2.42    0.29
   7  11  -2    2.07    0.24
  11   7  -2    2.56    0.33
 -11   7   2    2.28    0.14
   7  11  -2    2.18    0.31
  11   7  -2    3.05    0.34
  11  -7   0    3.36    0.22
   7 -11   0    3.29    0.31
   7 -11   0    3.94    0.36
  11  -7   0    3.15    0.40
  -7 -11   0    3.55    0.42
   7 -11   0    3.95    0.26
   7  11   0    3.78    0.38
   7  11   0    3.84    0.32
 -11  -7   0    3.81    0.45
 -11  -7   0    3.27    0.29
  11   7   0    3.74    0.39
  11  -7   0    3.27    0.33
 -11  -7   0    3.63    0.30
  -7 -11   0    3.54    0.30
   7  11   2    2.17    0.33
  11  -7  -2    2.27    0.20
   7 -11  -2    2.07    0.27
  -7 -11   2    2.61    0.37
  11  -7  -2    2.42    0.39
 -11  -7   2    2.70    0.24
   7  11   2    2.43    0.26
 -11  -7   2    2.07    0.39
  11   7   2    2.35    0.33
   7 -11  -2    2.94    0.23
  11  -7  -2    2.31    0.29
  -7  11  -2    2.27    0.18
 -11  -7   2    2.04    0.25
  -7 -11   2    2.60    0.26
  -7  11  -4    0.53    0.16
  11  -7  -4    0.73    0.17
  11  -7  -4    0.91    0.32
   7  11   4    0.82    0.28
   7 -11  -4    0.76    0.13
 -11  -7   4    0.46    0.25
  -7 -11   4    0.88    0.27
  11   7   4    0.69    0.22
   7 -11  -4    0.73    0.21
  11  -7  -4    0.91    0.23
   7 -11  -4    0.87    0.15
  -7  11  -4    0.57    0.12
  11  -7  -6    0.39    0.18
  -7  11  -6    0.20    0.13
   7 -11  -6    0.30    0.19
 -11   7  -6    0.11    0.07
   7  11   6    0.16    0.05
  11  -7  -6    0.23    0.29
  -7 -11   6    0.19    0.21
   7 -11  -6    0.21    0.13
   7  11   6    0.27    0.27
  -7 -11   6    0.12    0.12
  11   7   6   -0.10    0.22
 -11  -7   6    0.18    0.28
  11   7   6    0.10    0.20
   7 -11  -6   -0.04    0.21
  -7  11  -6    0.10    0.09
  11  -7  -6    0.15    0.17
   7 -11  -6    0.00    0.12
   7  11   8    0.73    0.07
  -7  11  -8    0.69    0.20
  11  -7  -8    0.81    0.23
   7 -11  -8    0.75    0.24
  11  -7  -8    0.91    0.30
  -7 -11   8    0.52    0.25
   7  11   8    1.02    0.29
  11   7   8    0.98    0.31
 -11  -7   8    0.66    0.29
   7 -11  -8    0.54    0.26
  11  -7  -8    0.80    0.24
   7 -11  -8    0.92    0.21
  11   7  10    2.79    0.30
   7 -11 -10    2.41    0.41
  11  -7 -10    3.02    0.46
  -7  11 -10    3.48    0.37
   7  11  10    3.32    0.47
 -11  -7  10    2.46    0.40
  11   7  10    2.73    0.42
   7 -11 -10    2.50    0.38
  11  -7 -10    3.30    0.41
   7 -11 -10    2.53    0.31
   7 -11 -12    2.25    0.33
  11   7  12    2.04    0.27
   7 -11 -12    2.97    0.43
   7 -11 -12    2.36    0.40
  11  -7 -12    2.00    0.40
   7  11  12    1.54    0.35
  11   7  12    2.27    0.39
 -11  -7  12    1.82    0.34
  11  -7 -12    1.25    0.29
   7 -11 -14    0.73    0.25
   7 -11 -14    0.47    0.28
  11  -7 -14    0.51    0.29
   7  11  14    0.86    0.31
  11   7  14    1.03    0.32
 -11  -7  14    0.73    0.27
   7 -11 -14    0.88    0.30
  11   7  14    0.75    0.20
  11  -7 -14    0.71    0.27
   7 -11 -16    0.53    0.25
  -7  11 -16    0.18    0.24
   7 -11 -16   -0.12    0.26
   7 -11 -16    0.35    0.24
 -11  -7  16    0.57    0.28
   7  11  16    0.07    0.28
  11   7  16    0.17    0.27
  11  -7 -16    0.03    0.22
  11  -7 -16    0.18    0.24
   7 -11 -18   -0.19    0.31
  11  -7 -18    0.10    0.22
  -7  11 -18    0.01    0.30
  11  -7 -18    0.39    0.25
   7 -11 -20    0.49    0.32
  11  -7 -20    0.15    0.23
  -7  11 -20    1.11    0.39
 -11   7 -20    0.23    0.33
  11  -7 -20    0.04    0.24
   8 -11  19    0.93    0.34
  11  -8  19    0.19    0.26
  -8 -11 -19    1.09    0.32
 -11  -8 -19    0.11    0.22
 -11  -8 -19    1.12    0.32
  11   8 -19    0.31    0.28
   8  11 -19    0.69    0.30
  11   8 -19    1.03    0.30
   8  11 -19    0.44    0.23
   8 -11  17    0.80    0.33
  11  -8  17    0.46    0.24
 -11  -8 -17    0.65    0.24
  -8 -11 -17    0.56    0.27
 -11  -8 -17    0.34    0.22
   8  11 -17    0.44    0.35
  11   8 -17    0.57    0.27
   8  11 -17    0.45    0.23
  11   8 -17    0.85    0.27
   8  11 -17    0.98    0.31
   8 -11  15    1.87    0.37
 -11  -8 -15    1.45    0.30
  -8 -11 -15    1.62    0.37
   8  11 -15    1.69    0.43
  11  -8  15    1.79    0.39
 -11  -8 -15    1.26    0.27
  11   8 -15    1.79    0.39
  11   8 -15    1.34    0.33
   8  11 -15    1.83    0.34
  11   8 -15    1.49    0.33
   8  11 -15    1.61    0.32
 -11  -8 -13    0.21    0.19
  -8 -11 -13    0.12    0.19
  11   8 -13   -0.15    0.27
  11  -8  13   -0.11    0.19
 -11  -8 -13   -0.23    0.18
   8  11 -13    0.15    0.13
  -8 -11 -13   -0.05    0.17
   8 -11  13   -0.04    0.18
  -8 -11 -13    0.10    0.15
   8  11 -13    0.28    0.24
  11   8 -13   -0.12    0.23
   8  11 -13    0.04    0.18
  11   8 -13    0.30    0.26
   8  11 -13    0.01    0.16
  11   8 -11    1.69    0.36
  -8 -11 -11    1.53    0.30
  -8 -11 -11    1.55    0.22
  -8  11  11    1.41    0.28
   8 -11  11    1.65    0.31
  11  -8  11    1.56    0.34
 -11   8  11    1.95    0.27
   8  11 -11    2.19    0.39
 -11  -8 -11    1.51    0.26
  -8 -11 -11    1.28    0.25
   8  11 -11    1.72    0.25
 -11  -8 -11    1.47    0.26
   8  11 -11    1.39    0.26
  11   8 -11    1.45    0.32
   8  11 -11    1.53    0.29
  11   8 -11    1.27    0.28
  -8  11   9    0.14    0.18
   8  11  -9    0.25    0.28
 -11  -8  -9    0.16    0.16
 -11   8   9    0.32    0.18
  -8 -11  -9   -0.12    0.21
  11  -8   9    0.16    0.21
  -8 -11  -9    0.25    0.11
  11   8  -9    0.30    0.25
  -8 -11  -9    0.15    0.17
   8 -11   9    0.32    0.22
   8  11  -9   -0.03    0.14
  11   8  -9   -0.17    0.22
   8  11  -9    0.27    0.14
   8  11  -9    0.17    0.18
   8  11  -7    3.18    0.44
 -11  -8  -7    1.94    0.27
  -8 -11  -7    2.68    0.35
   8 -11   7    2.33    0.35
  11   8  -7    2.20    0.36
   8  11  -7    2.21    0.28
  11  -8   7    2.43    0.38
  11  -8   7    3.32    0.39
  -8 -11  -7    2.25    0.34
  -8  11   7    3.46    0.38
   8  11  -7    3.17    0.30
   8  11  -7    2.51    0.31
  11   8  -7    3.12    0.38
  -8 -11  -7    2.62    0.18
 -11   8   7    2.83    0.30
  -8  11   5    8.26    0.57
 -11  -8  -5    7.51    0.49
  -8 -11  -5    7.18    0.53
   8 -11   5    7.58    0.57
  11  -8   5    8.25    0.63
  11  -8   5    7.42    0.58
  -8 -11  -5    7.71    0.60
 -11  -8  -5    7.40    0.62
  11  -8   5    8.01    0.52
   8  11  -5    9.57    0.69
  11   8  -5    8.59    0.62
 -11   8   5    7.52    0.48
   8  11  -5    7.44    0.49
  11   8  -5    7.55    0.57
   8  11  -5    8.50    0.52
  -8 -11  -3    7.77    0.55
   8  11  -3    8.38    0.54
   8 -11   3    7.84    0.56
  11  -8   3    7.28    0.59
  -8 -11  -3    9.44    0.67
 -11   8   3    9.43    0.55
  11  -8   3    8.16    0.53
  11   8  -3    7.22    0.57
  -8  11   3    9.34    0.61
 -11  -8  -3    8.43    0.66
   8  11  -3    8.80    0.51
  11   8  -3    8.83    0.59
   8  11  -1    4.29    0.36
   8 -11   1    4.34    0.41
  11  -8   1    4.10    0.46
  -8 -11  -1    4.53    0.47
   8 -11   1    4.72    0.30
  11  -8   1    4.47    0.38
 -11  -8  -1    4.66    0.51
  11   8  -1    4.73    0.43
 -11  -8  -1    4.68    0.33
   8  11  -1    4.20    0.40
   8 -11  -1    4.34    0.36
  11  -8  -1    4.42    0.29
  -8 -11   1    4.35    0.20
   8 -11  -1    4.86    0.42
  11  -8  -1    4.84    0.50
   8  11   1    4.40    0.42
 -11  -8   1    4.23    0.33
   8  11   1    5.35    0.40
  -8 -11   1    4.31    0.46
  11   8   1    4.98    0.45
   8 -11  -1    4.82    0.31
  11  -8  -1    4.83    0.39
 -11  -8   1    4.50    0.33
  -8  11  -1    4.26    0.29
   8 -11  -3    7.83    0.51
  11  -8  -3    8.15    0.44
  -8 -11   3    8.54    0.38
   8 -11  -3    8.94    0.67
  11  -8  -3    8.70    0.68
 -11  -8   3    9.12    0.68
   8  11   3    8.44    0.52
  11   8   3    8.79    0.60
  -8  11  -3    8.88    0.46
   8 -11  -3    8.03    0.43
  11  -8  -3    8.88    0.55
 -11  -8   3    8.46    0.49
  -8  11  -3    7.84    0.41
  -8 -11   3    8.33    0.64
   8 -11  -5    6.71    0.50
  11  -8  -5    7.37    0.46
 -11   8  -5    8.08    0.36
   8 -11  -5    8.33    0.67
  11  -8  -5    6.66    0.62
  -8 -11   5    6.40    0.58
 -11  -8   5    6.90    0.62
   8 -11  -5    7.19    0.38
  -8 -11   5    6.72    0.40
   8  11   5    7.86    0.62
  11   8   5    8.43    0.65
  11   8   5    7.10    0.56
  -8  11  -5    8.07    0.45
  11  -8  -5    7.25    0.51
   8 -11  -5    7.22    0.43
  -8  11  -5    6.32    0.38
   8 -11  -7    2.55    0.35
   8  11   7    3.22    0.44
   8  11   7    2.71    0.18
  -8  11  -7    2.48    0.28
   8 -11  -7    2.45    0.42
  11  -8  -7    2.34    0.42
  -8 -11   7    2.20    0.40
  -8 -11   7    2.19    0.26
  11   8   7    2.63    0.42
 -11  -8   7    2.49    0.40
  11  -8  -7    2.32    0.30
  11  -8  -7    2.29    0.32
   8 -11  -7    2.34    0.27
   8 -11  -9    0.56    0.23
  11   8   9    0.11    0.14
  11  -8  -9   -0.05    0.20
   8 -11  -9    0.43    0.25
  11  -8  -9    0.18    0.25
  -8  11  -9    0.10    0.16
  -8 -11   9   -0.24    0.28
   8  11   9    0.84    0.31
  11   8   9    0.14    0.27
 -11  -8   9   -0.46    0.31
  11  -8  -9    0.16    0.20
   8 -11  -9    0.16    0.17
   8 -11 -11    1.48    0.33
  11   8  11    1.65    0.23
  11  -8 -11    1.33    0.31
 -11  -8  11    1.24    0.31
   8 -11 -11    1.36    0.33
  -8 -11  11    1.50    0.35
   8  11  11    1.90    0.39
  11   8  11    1.22    0.35
  11  -8 -11    1.66    0.38
  11  -8 -11    2.21    0.36
   8 -11 -11    1.59    0.28
 -11  -8  13    0.18    0.19
   8 -11 -13    0.10    0.23
  11   8  13    0.10    0.13
   8 -11 -13    0.31    0.27
  11  -8 -13    0.26    0.30
   8  11  13   -0.10    0.28
  11   8  13    0.12    0.27
  11  -8 -13    0.18    0.22
   8 -11 -13    0.31    0.21
   8 -11 -15    1.42    0.32
  11  -8 -15    1.23    0.35
   8 -11 -15    1.56    0.36
 -11  -8  15    1.42    0.33
   8  11  15    0.76    0.33
  11   8  15    1.52    0.42
   8 -11 -15    1.88    0.42
  11  -8 -15    1.35    0.34
   8 -11 -17    0.83    0.28
  -8  11 -17    0.92    0.32
   8 -11 -17    0.74    0.31
   8 -11 -17    0.45    0.24
  11  -8 -17    1.09    0.35
 -11  -8  17    0.65    0.28
   8  11  17    0.94    0.35
  11   8  17    0.60    0.32
  11  -8 -17    0.81    0.28
   8 -11 -19    0.92    0.31
   8 -11 -19    1.01    0.37
  11  -8 -19    0.98    0.35
  -8  11 -19    0.16    0.27
 -11   8 -19    0.41    0.36
  11  -8 -19    1.21    0.38
  11  -9  18    0.16    0.25
   9 -11  18   -0.29    0.32
 -11  -9 -18   -0.15    0.22
  -9 -11 -18    0.01    0.21
  11   9 -18    0.06    0.22
   9  11 -18    0.18    0.24
  11   9 -18    0.21    0.24
   9  11 -18    0.43    0.24
  -9 -11 -16    0.47    0.24
   9 -11  16    1.04    0.35
 -11  -9 -16    0.49    0.24
  11  -9  16    0.58    0.27
 -11  -9 -16    0.79    0.22
   9  11 -16    1.48    0.44
  11   9 -16    1.41    0.43
  11   9 -16    0.91    0.31
   9  11 -16    0.64    0.27
  11   9 -16    1.23    0.33
   9  11 -16    0.88    0.28
   9 -11  14    2.79    0.46
 -11  -9 -14    1.98    0.33
  -9 -11 -14    2.40    0.39
  11  -9  14    2.22    0.42
   9  11 -14    2.52    0.48
  11   9 -14    2.42    0.48
 -11  -9 -14    2.28    0.32
 -11  -9 -14    2.45    0.37
  11   9 -14    2.39    0.38
   9  11 -14    2.41    0.37
  11   9 -14    2.56    0.40
   9  11 -14    2.22    0.36
  -9  11  12    1.23    0.28
 -11  -9 -12    0.79    0.21
  -9 -11 -12    1.10    0.28
  11  -9  12    1.47    0.35
  11   9 -12    1.18    0.32
 -11  -9 -12    0.79    0.21
  -9 -11 -12    1.03    0.24
   9  11 -12    0.89    0.31
 -11  -9 -12    0.66    0.25
   9 -11  12    0.84    0.27
  11   9 -12    1.47    0.29
   9  11 -12    1.44    0.28
  11   9 -12    0.66    0.24
   9  11 -12    0.97    0.25
  -9 -11 -10    5.79    0.37
  -9 -11 -10    6.07    0.54
  -9  11  10    6.03    0.51
 -11  -9 -10    4.28    0.42
   9  11 -10    5.80    0.60
 -11   9  10    6.88    0.49
   9 -11  10    5.60    0.57
  11  -9  10    6.86    0.62
 -11  -9 -10    5.49    0.41
  -9 -11 -10    5.69    0.51
 -11  -9 -10    5.20    0.52
   9  11 -10    6.28    0.49
  11   9 -10    5.69    0.57
   9  11 -10    5.80    0.42
  11   9 -10    6.54    0.57
   9  11 -10    6.39    0.52
  -9 -11  -8    7.82    0.37
 -11  -9  -8    7.91    0.54
  -9 -11  -8    7.38    0.57
  -9 -11  -8    7.45    0.60
 -11  -9  -8    7.08    0.61
  11   9  -8    8.20    0.41
   9  11  -8    7.64    0.48
   9 -11   8    7.57    0.62
   9  11  -8    7.72    0.65
  11   9  -8    8.23    0.66
   9  11  -8    8.26    0.56
  11   9  -8    7.64    0.60
  11  -9   8    7.40    0.62
   9  11  -8    7.00    0.47
 -11   9   8    7.68    0.51
  -9  11   8    7.52    0.55
   9  11  -6    6.11    0.43
 -11  -9  -6    6.12    0.47
  -9 -11  -6    5.82    0.49
  -9 -11  -6    5.37    0.26
   9 -11   6    6.02    0.54
  11  -9   6    5.50    0.51
  -9 -11  -6    5.38    0.52
 -11  -9  -6    5.47    0.55
  11  -9   6    5.72    0.54
   9  11  -6    6.35    0.58
  11   9  -6    6.22    0.56
   9  11  -6    6.28    0.48
  11   9  -6    5.63    0.50
 -11   9   6    5.65    0.44
  -9  11   6    6.44    0.51
  -9 -11  -4    0.34    0.19
  11  -9   4    0.74    0.26
   9  11  -4    0.84    0.22
  11  -9   4    0.56    0.25
  -9 -11  -4    0.52    0.06
  -9 -11  -4    1.03    0.31
 -11   9   4    0.70    0.20
 -11  -9  -4    0.66    0.30
  11  -9   4    0.85    0.19
  -9  11   4    0.81    0.22
   9 -11   4    0.47    0.22
   9  11  -4    0.64    0.19
  11   9  -4    0.71    0.23
   9  11  -4    0.40    0.24
  11   9  -4    0.81    0.28
   9  11  -2    8.09    0.53
  11  -9   2    7.17    0.60
  -9 -11  -2    7.61    0.62
   9 -11   2    7.47    0.56
 -11  -9  -2    5.96    0.57
  -9  11   2    7.26    0.55
   9 -11   2    7.79    0.43
  11  -9   2    7.44    0.49
   9  11  -2    7.42    0.49
  11   9  -2    7.68    0.57
 -11  -9  -2    7.69    0.41
  11  -9   0   33.13    0.99
   9 -11   0   32.57    1.10
  -9 -11   0   33.46    0.84
   9 -11   0   34.81    1.29
  11  -9   0   33.56    1.40
   9  11   0   29.68    1.18
  -9 -11   0   33.94    1.40
 -11  -9   0   30.94    1.38
 -11   9   0   30.53    0.80
   9  11   0   33.46    1.18
   9 -11   0   32.44    1.03
  11   9   0   33.15    1.25
  11  -9   0   34.15    1.16
 -11  -9   0   34.14    1.04
  -9  11   0   30.82    1.02
   9 -11  -2    7.41    0.48
  11  -9  -2    6.55    0.40
  -9 -11   2    7.41    0.35
   9 -11  -2    7.46    0.64
  11  -9  -2    7.24    0.63
  -9 -11   2    6.42    0.60
  11  -9  -2    6.96    0.29
 -11  -9   2    7.96    0.65
   9  11   2    7.84    0.52
  11   9   2    7.49    0.55
  -9  11  -2    7.55    0.40
   9 -11  -2    7.89    0.44
  11  -9  -2    7.58    0.50
 -11  -9   2    7.18    0.43
  -9  11  -2    6.83    0.40
  -9  11  -4    0.46    0.14
   9  11   4    0.31    0.24
   9 -11  -4    0.71    0.20
  11  -9  -4    0.42    0.15
   9 -11  -4    1.03    0.29
  11  -9  -4    0.95    0.32
  -9 -11   4    0.90    0.31
 -11  -9   4    0.85    0.34
  11   9   4    0.64    0.24
  11  -9  -4    0.65    0.21
   9 -11  -4    0.35    0.15
   9 -11  -6    6.76    0.52
  11  -9  -6    6.02    0.45
   9 -11  -6    5.28    0.59
  11   9   6    5.71    0.57
  11  -9  -6    5.77    0.62
   9  11   6    6.24    0.58
  -9 -11   6    6.49    0.60
 -11  -9   6    5.92    0.59
  11  -9  -6    6.15    0.48
   9 -11  -6    5.70    0.42
  -9  11  -6    6.05    0.39
  11  -9  -8    7.42    0.54
   9 -11  -8    7.75    0.67
  11  -9  -8    7.15    0.68
  -9 -11   8    6.52    0.63
   9  11   8    6.89    0.63
  11   9   8    7.50    0.67
 -11  -9   8    7.87    0.67
   9 -11  -8    7.47    0.58
  11  -9  -8    8.44    0.58
   9 -11  -8    8.43    0.54
  -9  11  -8    8.12    0.48
 -11  -9  10    6.58    0.61
  11   9  10    6.41    0.42
   9 -11 -10    6.12    0.56
  11  -9 -10    5.98    0.54
  11  -9 -10    6.02    0.62
  -9 -11  10    6.33    0.62
   9 -11 -10    5.62    0.60
   9  11  10    6.73    0.66
  11   9  10    5.72    0.59
  11  -9 -10    5.76    0.52
   9 -11 -10    5.79    0.48
   9 -11 -12    0.94    0.30
  11  -9 -12    1.23    0.31
   9 -11 -12    0.90    0.32
  11  -9 -12    1.49    0.39
  -9 -11  12    0.99    0.31
 -11  -9  12    1.19    0.33
   9  11  12    0.92    0.37
  11   9  12    0.81    0.31
  11  -9 -12    0.68    0.26
   9 -11 -12    1.46    0.29
 -11  -9  14    2.49    0.44
   9 -11 -14    2.22    0.40
  11  -9 -14    2.46    0.43
   9 -11 -14    1.70    0.38
  11  -9 -14    2.30    0.44
   9  11  14    2.27    0.46
  11   9  14    1.97    0.44
  11  -9 -14    2.40    0.41
   9 -11 -14    1.94    0.34
  11  -9 -16    0.46    0.30
   9 -11 -16    1.05    0.34
  11  -9 -16    0.66    0.30
 -11  -9  16    0.75    0.28
   9  11  16    1.10    0.42
  11   9  16    1.43    0.41
   9 -11 -16    0.42    0.27
  11  -9 -16    1.10    0.34
   9 -11 -16    0.38    0.24
   9 -11 -18   -0.37    0.25
  -9  11 -18   -0.47    0.31
  11   9  18    0.09    0.28
   9 -11 -18    0.53    0.31
   9 -11 -18    0.48    0.29
  11  -9 -18   -0.27    0.28
  11  -9 -18    0.20    0.22
  10 -11  17    1.93    0.44
 -10 -11 -17    2.23    0.42
  10  11 -17    2.38    0.48
  11 -10  17    2.50    0.46
  11  10 -17    2.65    0.43
  10  11 -17    2.65    0.42
  11  10 -17    2.37    0.41
  10  11 -17    2.23    0.41
 -11 -10 -17    2.28    0.40
 -11 -10 -15    4.40    0.48
 -10 -11 -15    3.41    0.46
  10 -11  15    3.36    0.51
  11 -10  15    4.72    0.59
  10  11 -15    4.32    0.59
  11  10 -15    5.23    0.67
  11  10 -15    4.39    0.51
  10  11 -15    4.12    0.49
  11  10 -15    3.84    0.50
  10  11 -15    3.74    0.47
  11 -10  13    3.00    0.45
 -10 -11 -13    1.34    0.30
 -11 -10 -13    2.17    0.35
  10 -11  13    1.81    0.37
  10  11 -13    1.95    0.42
  11  10 -13    1.45    0.37
 -10 -11 -13    1.64    0.31
 -11 -10 -13    2.15    0.36
  11  10 -13    2.19    0.36
  10  11 -13    2.01    0.33
  11  10 -13    1.69    0.34
  10  11 -13    2.15    0.36
 -11 -10 -11   10.75    0.69
 -10 -11 -11   11.96    0.75
 -11 -10 -11    8.57    0.54
  10 -11  11    9.71    0.78
 -10  11  11   10.92    0.69
 -10 -11 -11   10.37    0.70
 -11 -10 -11    8.48    0.67
  10  11 -11   11.12    0.68
 -11  10  11   11.22    0.67
  10  11 -11   10.16    0.82
  11  10 -11   11.32    0.85
  11  10 -11   11.09    0.75
  10  11 -11   10.75    0.72
  11 -10  11   10.07    0.78
 -11 -10  -9    0.59    0.21
 -10 -11  -9    0.50    0.20
  10  11  -9    0.70    0.29
  11  10  -9    0.60    0.30
  10 -11   9    0.48    0.23
  11 -10   9    0.85    0.30
 -11 -10  -9    0.50    0.15
 -10 -11  -9    0.10    0.19
  10  11  -9    0.22    0.13
 -11 -10  -9    0.50    0.25
  10  11  -9    0.72    0.23
  11  10  -9    0.79    0.25
 -10  11   9    0.84    0.24
 -11  10   9    0.29    0.16
 -11 -10  -7    9.41    0.61
 -10 -11  -7   10.17    0.66
  10  11  -7    9.28    0.54
  10 -11   7    9.52    0.70
  11 -10   7    9.65    0.71
  11  10  -7    9.87    0.51
 -10 -11  -7    9.67    0.72
 -11 -10  -7    9.97    0.73
  10  11  -7   10.58    0.77
  11  10  -7    8.92    0.70
  10  11  -7    9.33    0.62
  11  10  -7    9.54    0.65
 -11  10   7   10.59    0.63
 -10  11   7   10.76    0.66
 -10 -11  -5   31.63    1.25
  10  11  -5   32.00    1.14
  11 -10   5   31.30    1.35
 -10 -11  -5   31.56    0.87
 -10 -11  -5   31.37    1.37
 -11 -10  -5   30.29    1.37
  10  11  -5   35.40    1.44
  11  10  -5   34.15    1.41
 -11  10   5   35.83    1.26
  10  11  -5   32.69    1.23
  10 -11   5   29.78    1.32
 -10  11   5   34.93    1.29
  11  10  -5   33.49    1.28
  11 -10   3    5.29    0.51
  10 -11   3    5.62    0.51
  10  11  -3    5.53    0.44
  11 -10   3    4.88    0.52
 -11  10   3    5.95    0.49
 -10 -11  -3    5.00    0.53
  10 -11   3    5.89    0.40
  11  10  -3    6.77    0.57
 -10  11   3    4.89    0.46
 -11 -10  -3    5.36    0.56
  11 -10   3    5.23    0.41
  10  11  -3    5.75    0.46
  11  10  -3    5.87    0.49
  10 -11   1   24.26    1.09
  10 -11   1   24.61    1.19
  11 -10   1   22.62    1.15
 -10 -11  -1   22.81    1.15
 -11 -10  -1   25.90    1.22
  11 -10   1   23.94    0.93
  10  11  -1   23.38    0.99
  11  10  -1   23.66    1.03
  10 -11   1   24.50    0.89
  10 -11  -1   23.88    0.90
  11 -10  -1   23.70    0.85
  10 -11  -1   22.78    1.17
  11 -10  -1   25.92    1.23
 -10 -11   1   23.12    1.16
 -11 -10   1   21.71    1.15
  10  11   1   24.35    1.01
 -10  11  -1   22.73    0.76
  11  10   1   24.20    1.03
  10 -11  -1   23.48    0.88
  11 -10  -1   23.46    0.93
 -11  10  -1   23.45    0.66
  10 -11  -3    4.72    0.39
  11 -10  -3    5.46    0.39
  10 -11  -3    4.76    0.53
  11 -10  -3    5.54    0.58
 -10 -11   3    4.99    0.54
 -11 -10   3    4.71    0.53
  10  11   3    6.87    0.51
  11  10   3    4.56    0.45
  10 -11  -3    5.36    0.39
  11 -10  -3    5.32    0.42
 -10  11  -3    5.08    0.31
 -11  10  -3    5.17    0.24
  10 -11  -5   30.95    1.18
  11 -10  -5   33.39    1.17
  10 -11  -5   32.46    1.45
  11 -10  -5   32.17    1.46
 -11 -10   5   32.75    1.44
 -10 -11   5   30.26    1.38
  10  11   5   31.72    1.39
  11  10   5   33.03    1.40
  11  10   5   32.04    1.29
  11 -10  -5   31.61    1.17
  10 -11  -5   30.15    1.11
 -10  11  -5   32.10    0.99
  10 -11  -7    8.80    0.61
  11 -10  -7    9.47    0.60
  10  11   7   10.43    0.76
  10 -11  -7    8.74    0.74
  11 -10  -7    8.92    0.75
 -10 -11   7    8.75    0.72
 -11 -10   7    9.90    0.75
  11  10   7   10.13    0.77
  11 -10  -7    8.69    0.58
  10 -11  -7    9.98    0.59
  11  10   9    0.35    0.12
  11 -10  -9    0.58    0.22
 -10 -11   9    0.63    0.29
  11  10   9    0.19    0.27
  10 -11  -9    0.46    0.30
  11 -10  -9    0.60    0.27
  10 -11  -9    0.32    0.19
 -11 -10   9    0.47    0.28
  10  11   9    0.05    0.26
  11 -10  -9    0.41    0.20
  10 -11  -9    0.71    0.22
  10 -11 -11    9.74    0.71
  11 -10 -11    9.84    0.71
  10 -11 -11   11.08    0.84
  11 -10 -11   10.19    0.83
 -10 -11  11   10.35    0.81
  10  11  11    9.58    0.79
  11  10  11   10.83    0.83
  11 -10 -11   10.07    0.69
  10 -11 -11   10.14    0.67
 -11 -10  11    9.67    0.78
  10 -11 -13    1.90    0.38
  11 -10 -13    2.74    0.43
  10 -11 -13    2.04    0.40
  11 -10 -13    2.48    0.44
 -10 -11  13    2.47    0.45
 -11 -10  13    1.52    0.37
  10  11  13    2.54    0.48
  11  10  13    2.07    0.45
  11 -10 -13    1.68    0.34
  10 -11 -13    1.87    0.33
  11 -10 -15    3.51    0.49
  10 -11 -15    4.19    0.55
  11 -10 -15    3.67    0.51
 -11 -10  15    4.29    0.55
  10  11  15    4.13    0.59
  11  10  15    4.06    0.60
  10 -11 -15    3.81    0.53
  11 -10 -15    4.27    0.52
  10 -11 -15    3.76    0.47
  10 -11 -17    2.57    0.48
  11 -10 -17    2.98    0.49
  10 -11 -17    2.14    0.46
  11 -10 -17    3.48    0.51
  10  11  17    2.76    0.54
  11  10  17    3.45    0.57
  11 -10 -17    2.73    0.45
  10 -11 -17    1.80    0.38
 -11 -11 -16    1.30    0.32
  11 -11  16    2.63    0.48
  11  11 -16    1.35    0.41
  11  11 -16    1.88    0.38
  11  11 -16    1.42    0.35
 -11 -11 -14    7.38    0.63
  11 -11  14    8.58    0.77
  11  11 -14    6.96    0.60
  11  11 -14    6.26    0.61
  11  11 -14    8.53    0.80
 -11  11  12    0.90    0.26
 -11 -11 -12    0.68    0.23
  11  11 -12    0.96    0.34
 -11 -11 -12    0.87    0.25
  11 -11  12    0.47    0.24
  11  11 -12    0.60    0.22
  11  11 -12    1.08    0.27
 -11 -11 -10    8.69    0.62
 -11  11  10    8.07    0.59
  11 -11  10    9.11    0.74
 -11 -11 -10    8.30    0.67
  11  11 -10    8.48    0.74
  11  11 -10    8.25    0.64
 -11 -11  -8   12.68    0.74
  11 -11   8   11.73    0.81
 -11 -11  -8   11.29    0.78
  11  11  -8   12.80    0.88
  11  11  -8   11.23    0.72
 -11  11   8   12.60    0.72
 -11 -11  -6    4.74    0.45
  11  11  -6    5.17    0.56
  11 -11   6    5.42    0.54
  11  11  -6    4.71    0.38
 -11 -11  -6    3.75    0.48
  11  11  -6    4.79    0.46
 -11  11   6    4.96    0.46
  11 -11   4   17.28    0.94
 -11 -11  -4   15.12    0.95
  11  11  -4   18.79    1.00
 -11  11   4   17.35    0.87
  11  11  -4   15.87    0.83
  11 -11   2   15.42    0.92
 -11 -11  -2   14.99    0.93
  11 -11   2   16.29    0.90
 -11  11   2   15.32    0.82
  11 -11   2   14.33    0.69
  11  11  -2   14.93    0.79
 -11 -11   0   24.61    1.23
  11 -11   0   26.38    1.28
 -11  11   0   24.06    0.75
  11  11   0   25.51    1.07
  11 -11   0   24.95    0.95
  11 -11  -2   13.77    0.65
  11 -11  -2   13.47    0.91
 -11 -11   2   14.52    0.92
  11  11   2   14.86    0.79
  11 -11  -2   13.05    0.66
  11 -11  -4   16.61    0.77
 -11 -11   4   17.02    1.02
  11 -11  -4   16.18    1.01
  11  11   4   16.73    0.87
  11 -11  -4   16.86    0.78
  11  11   4   16.78    0.98
  11 -11  -6    4.65    0.43
  11 -11  -6    4.18    0.55
 -11 -11   6    4.85    0.56
  11  11   6    4.40    0.53
  11 -11  -6    4.92    0.43
  11 -11  -8   11.33    0.71
  11 -11  -8   11.94    0.87
 -11 -11   8   11.80    0.86
  11  11   8   11.92    0.86
  11 -11  -8   12.18    0.70
  11 -11 -10    7.93    0.63
  11 -11 -10    7.73    0.73
 -11 -11  10    7.91    0.71
  11  11  10    8.01    0.74
  11 -11 -10    7.80    0.59
  11 -11 -12    0.98    0.29
  11 -11 -12    1.05    0.33
 -11 -11  12    0.80    0.34
  11  11  12    0.71    0.31
  11 -11 -12    1.10    0.27
  11 -11 -14    7.51    0.73
 -11 -11  14    6.68    0.71
  11  11  14    7.73    0.77
  11 -11 -14    7.78    0.71
  11 -11 -14    6.87    0.63
  11  11  16    2.09    0.47
  11 -11 -16    1.46    0.38
  11 -11 -16    2.16    0.44
  11 -11 -16    1.33    0.30
   0 -12   0   65.96    1.96
  12   0   0   62.98    1.49
   0  12   0   72.78    1.86
  12   0   0   70.48    2.04
   0  12   0   70.22    2.04
  12   0   0   71.07    1.63
   0 -12  -2    2.30    0.30
   0  12   2    2.10    0.33
   0  12  -2    2.30    0.23
  12   0  -2    2.20    0.21
   0  12   2    2.20    0.26
   0  12  -2    2.02    0.29
  12   0   2    1.92    0.15
   0  12   2    1.80    0.15
  12   0   2    2.25    0.32
  12   0  -2    2.09    0.33
   0 -12  -4    2.27    0.32
   0  12   4    2.04    0.29
   0  12   4    1.75    0.30
   0  12  -4    1.61    0.19
  12   0   4    2.14    0.28
   0 -12  -4    1.92    0.14
  12   0   4    1.81    0.31
  12   0  -4    2.17    0.34
   0  12   4    1.88    0.16
   0 -12  -6   24.42    1.07
   0  12   6   26.60    1.12
   0  12   6   25.16    1.02
  12   0   6   25.97    1.00
   0 -12  -6   25.80    0.80
  12   0   6   25.72    1.09
   0  12  -6   25.55    0.93
   0  12  -6   24.83    1.06
  12   0  -6   25.99    1.10
   0  12  -6   24.33    0.67
   0  12   6   23.66    0.77
   0  12  -8    1.21    0.15
   0  12  -8    0.93    0.26
 -12   0  -8    0.90    0.09
   0  12   8    1.04    0.29
   0 -12  -8    1.83    0.34
  12   0   8    1.06    0.26
   0  12   8    1.02    0.16
   0  12  -8    0.78    0.21
   0  12   8    0.87    0.19
  12   0   8    1.06    0.26
   0  12   8    0.90    0.25
  12   0  -8    1.49    0.31
   0  12 -10    5.74    0.49
 -12   0 -10    5.57    0.29
   0 -12 -10    5.65    0.54
   0  12  10    4.59    0.36
   0  12  10    6.01    0.55
  12   0  10    5.73    0.50
   0  12 -10    5.37    0.52
  12   0  10    4.90    0.46
  12   0 -10    6.26    0.56
   0 -12 -12    0.32    0.25
 -12   0 -12    0.54    0.14
   0  12 -12    0.53    0.23
  12   0  12    0.62    0.15
  12   0  12    0.96    0.28
   0  12 -12    0.83    0.28
  12   0  12    0.61    0.22
   0 -12 -12    0.57    0.17
 -12   0  12    0.89    0.25
  12   0 -12    1.03    0.29
   0 -12 -14    2.88    0.44
   0  12 -14    3.05    0.42
 -12   0 -14    2.64    0.28
   0  12 -14    2.63    0.41
 -12   0  14    2.44    0.33
  12   0  14    2.83    0.38
   0 -12 -14    2.31    0.31
  12   0 -14    3.35    0.49
  12   0  16    0.15    0.19
   0  12 -16    0.55    0.29
   0 -12 -16    0.29    0.30
   0  12 -16    0.70    0.34
 -12   0  16    0.30    0.17
   0 -12 -16    0.62    0.22
  12   0 -16    0.46    0.29
  12   0  18    0.16    0.20
   0  12 -18    0.37    0.25
   0 -12 -18    0.55    0.36
 -12   0 -18    0.69    0.28
  12   0 -18    0.28    0.26
   0 -12 -18   -0.04    0.21
  12   0 -18    0.04    0.29
   0 -12 -20    1.38    0.39
 -12   0 -20    1.25    0.37
  12   0  20    1.70    0.37
   0  12 -20    0.53    0.28
  12   0 -20    1.85    0.47
   0 -12 -20    1.52    0.34
  12   0 -20    1.66    0.40
   1  12 -21    0.28    0.27
  -1 -12 -21   -0.30    0.30
 -12  -1 -21   -0.54    0.31
  12   1 -21   -0.36    0.33
  12  -1  21    0.23    0.23
  12   1 -21   -0.13    0.23
  12  -1  19    3.14    0.46
   1  12 -19    2.24    0.41
  -1 -12 -19    4.13    0.58
 -12  -1 -19    3.59    0.52
  12   1 -19    3.28    0.52
  -1 -12 -19    3.72    0.46
  12   1 -19    2.70    0.50
  -1 -12 -17    0.92    0.33
  12  -1  17    0.58    0.24
   1  12 -17    0.57    0.27
   1  12 -17    1.31    0.41
 -12  -1 -17    0.70    0.30
  12   1 -17    0.89    0.35
  -1 -12 -17    0.79    0.25
  12   1 -17    0.84    0.30
  12  -1  15    3.76    0.45
  -1 -12 -15    4.00    0.51
 -12  -1 -15    3.14    0.33
   1  12 -15    3.94    0.49
 -12   1  15    3.53    0.38
   1  12 -15    3.32    0.48
  -1 -12 -15    3.65    0.38
  12   1 -15    3.04    0.48
   1  12 -13    2.37    0.40
   1  12 -13    1.86    0.33
  12  -1  13    2.13    0.35
 -12  -1 -13    1.99    0.25
  -1 -12 -13    1.89    0.37
 -12   1  13    2.14    0.31
  -1 -12 -13    1.72    0.26
  12   1 -13    1.57    0.33
  -1 -12 -11   10.72    0.75
   1  12 -11   11.86    0.71
 -12  -1 -11   12.21    0.51
  12  -1  11   10.96    0.72
  12  -1  11   11.86    0.57
  12  -1  11   11.89    0.71
  -1 -12 -11   11.00    0.55
   1  12 -11   10.80    0.75
  12   1 -11   11.96    0.80
 -12  -1  -9    2.91    0.20
   1  12  -9    2.22    0.37
   1 -12   9    2.33    0.35
  -1 -12  -9    2.71    0.39
  12  -1   9    2.74    0.36
  -1  12   9    2.18    0.26
   1  12  -9    2.50    0.32
  -1  12   9    2.21    0.36
  12  -1   9    2.15    0.31
  -1  12   9    2.42    0.26
   1  12  -9    2.76    0.24
  12   1  -9    2.05    0.37
 -12  -1  -7    2.26    0.14
   1  12  -7    2.24    0.35
  -1 -12  -7    2.12    0.34
  -1  12   7    2.34    0.23
   1  12  -7    2.53    0.29
  -1  12   7    2.24    0.33
   1 -12   7    2.48    0.33
  12  -1   7    2.28    0.29
  -1  12   7    2.10    0.26
  12  -1   7    2.57    0.35
  -1 -12  -7    2.26    0.22
   1  12  -7    2.32    0.18
  -1  12   7    2.66    0.37
  12   1  -7    2.00    0.36
 -12   1   7    2.30    0.25
  -1 -12  -5   34.40    1.26
   1 -12   5   32.03    1.17
   1  12  -5   32.11    1.03
  -1  12   5   33.82    1.17
  12  -1   5   32.56    1.12
   1  12  -5   33.78    1.26
  12  -1   5   33.42    1.25
  -1 -12  -5   31.68    0.90
   1  12  -5   30.07    0.78
  12   1  -5   31.71    1.25
 -12   1   5   30.06    0.74
  -1  12   5   31.47    0.95
  12   1  -5   34.71    1.10
  -1  12   5   33.81    1.27
  -1 -12  -3    9.32    0.59
   1 -12   3    8.93    0.52
   1  12  -3    8.80    0.40
  -1  12   3    9.26    0.52
   1  12  -3    9.35    0.59
  12  -1   3    8.68    0.59
   1  12  -3    8.73    0.48
  12  -1   3    8.92    0.29
  -1 -12  -3    9.00    0.32
  -1  12   3    8.91    0.39
  12   1  -3    7.87    0.57
  12   1  -3    9.62    0.47
  -1  12   3   10.14    0.64
  -1 -12  -1   23.08    0.98
  12   1  -1   24.38    0.70
   1  12  -1   24.69    0.82
   1  12  -1   23.56    0.69
  -1  12   1   23.81    0.86
  12  -1   1   24.41    1.02
   1 -12   1   24.31    0.86
   1  12  -1   25.54    1.04
  12   1  -1   26.08    1.05
  -1  12   1   23.95    1.03
  12   1  -1   24.20    0.78
  12  -1   1   24.09    0.63
   1 -12  -1   25.12    1.00
   1 -12  -1   24.99    0.79
  12   1   1   22.72    0.63
   1  12   1   26.01    0.94
  -1  12  -1   25.33    0.86
  12   1   1   23.24    0.74
  12   1   1   25.36    1.03
  12  -1  -1   24.72    1.02
   1  12   1   23.65    0.61
   1  12   1   26.22    1.06
  -1  12  -1   25.90    1.05
   1 -12  -3    9.25    0.59
   1  12   3    9.33    0.54
  12   1   3   10.02    0.62
   1 -12  -3    7.91    0.24
   1 -12  -3    8.18    0.34
  12  -1  -3    8.56    0.58
   1 -12  -3    7.60    0.24
   1  12   3    8.34    0.58
   1  12   3    7.80    0.27
   1  12   5   31.83    1.25
   1 -12  -5   32.62    1.23
   1  12   5   30.39    0.81
   1 -12  -5   29.03    0.74
   1  12   5   32.18    1.17
  12   1   5   32.60    1.17
  12   1   5   32.83    1.24
  -1  12  -5   31.22    1.19
  12  -1  -5   31.46    1.22
  -1  12  -7    2.95    0.36
   1 -12  -7    2.35    0.35
   1  12   7    1.70    0.30
  -1  12  -7    2.23    0.29
   1  12   7    2.50    0.20
  12   1   7    2.62    0.34
  12   1   7    2.11    0.31
  12  -1  -7    2.74    0.38
   1  12   7    2.06    0.34
  -1  12  -7    2.14    0.16
 -12   1  -9    2.38    0.15
  -1  12  -9    2.38    0.35
   1  12   9    3.10    0.42
   1 -12  -9    2.12    0.35
  12   1   9    2.44    0.33
   1  12   9    2.36    0.23
   1  12   9    3.16    0.41
  -1  12  -9    2.61    0.33
  12   1   9    2.60    0.37
  12  -1  -9    2.32    0.35
   1 -12 -11   11.28    0.77
 -12   1 -11   10.67    0.45
  -1  12 -11   11.88    0.72
  12   1  11   10.68    0.68
   1  12  11    9.78    0.72
  12   1  11   11.61    0.74
 -12  -1  11   10.79    0.70
  -1  12 -11   10.46    0.71
  12  -1 -11   10.70    0.75
 -12   1 -13    2.07    0.23
  -1  12 -13    1.84    0.36
  -1  12 -13    2.16    0.37
  12   1  13    1.85    0.34
   1 -12 -13    1.78    0.38
 -12  -1  13    1.78    0.30
  12   1  13    2.14    0.34
   1 -12 -13    2.04    0.28
  12  -1 -13    2.50    0.40
   1 -12 -15    2.83    0.47
  -1  12 -15    3.53    0.47
  -1  12 -15    3.64    0.49
  12   1  15    3.76    0.45
 -12  -1  15    4.18    0.44
   1 -12 -15    3.95    0.41
  12  -1 -15    4.01    0.55
   1 -12 -17    1.05    0.35
  -1  12 -17    1.18    0.34
 -12  -1  17    1.02    0.24
   1 -12 -17    0.58    0.23
  12   1  17    0.98    0.27
  12  -1 -17    0.80    0.27
  12   1  19    2.44    0.40
   1 -12 -19    2.28    0.46
  -1  12 -19    3.53    0.53
 -12   1 -19    2.94    0.48
  12  -1 -19    3.23    0.54
   1 -12 -19    3.40    0.45
  12  -1 -19    3.05    0.52
   1 -12 -21    0.31    0.28
  -1  12 -21   -0.42    0.36
 -12   1 -21    0.27    0.30
  12   1  21    0.27    0.21
  12  -1 -21   -0.08    0.28
   1 -12 -21    0.06    0.22
  12  -1 -21   -0.07    0.24
 -12  -2 -20    1.24    0.33
  12  -2  20    1.87    0.39
   2  12 -20    1.13    0.38
  12   2 -20    1.55    0.42
  -2 -12 -20    0.20    0.28
  12   2 -20    2.46    0.47
  12  -2  18    1.08    0.30
   2  12 -18    0.77    0.30
  -2 -12 -18    1.36    0.37
 -12  -2 -18    0.95    0.34
  12   2 -18    1.09    0.35
  -2 -12 -18    0.80    0.25
  12   2 -18    1.15    0.36
  -2 -12 -16   -0.15    0.24
   2  12 -16    0.55    0.24
  12  -2  16    0.20    0.21
   2  12 -16    0.71    0.33
 -12  -2 -16    0.49    0.20
 -12   2  16    0.45    0.19
  12   2 -16   -0.25    0.28
  -2 -12 -16    0.52    0.19
  12   2 -16    0.12    0.25
   2  12 -14    2.64    0.39
  -2 -12 -14    2.68    0.42
 -12  -2 -14    2.42    0.28
 -12   2  14    2.41    0.32
  12  -2  14    2.00    0.36
   2  12 -14    2.76    0.46
  -2 -12 -14    1.89    0.27
  12   2 -14    2.15    0.40
   2 -12  12    4.97    0.52
 -12  -2 -12    4.61    0.34
  12  -2  12    5.05    0.51
   2  12 -12    4.77    0.52
  -2 -12 -12    4.64    0.52
  12  -2  12    4.58    0.33
  -2 -12 -12    4.43    0.36
   2  12 -12    4.57    0.38
  12   2 -12    5.12    0.55
   2  12 -12    5.49    0.49
   2  12 -10    4.97    0.44
 -12  -2 -10    5.02    0.31
   2 -12  10    4.54    0.49
  -2 -12 -10    4.24    0.47
  12  -2  10    5.24    0.49
  -2  12  10    5.15    0.51
  12  -2  10    4.77    0.45
  12  -2  10    5.45    0.39
  -2 -12 -10    4.77    0.32
   2  12 -10    5.78    0.53
   2  12 -10    5.01    0.35
  12  -2  10    4.46    0.35
  12   2 -10    3.87    0.45
   2  12  -8    3.70    0.36
 -12  -2  -8    3.83    0.24
   2  12  -8    3.47    0.43
   2 -12   8    3.64    0.40
  -2 -12  -8    3.76    0.44
  12  -2   8    3.84    0.42
  -2  12   8    3.23    0.31
  -2 -12  -8    3.71    0.31
  -2  12   8    4.00    0.45
  12  -2   8    3.67    0.36
   2  12  -8    3.80    0.27
  12   2  -8    3.86    0.44
  12  -2   8    3.95    0.27
  -2  12   6   34.44    1.32
   2  12  -6   32.24    1.07
 -12   2   6   32.01    0.83
  -2 -12  -6   32.31    1.29
   2 -12   6   34.00    1.26
  -2  12   6   33.99    1.20
  12  -2   6   35.25    1.16
  12  -2   6   34.87    1.31
  -2 -12  -6   33.99    1.02
 -12   2   6   34.69    1.06
   2  12  -6   33.70    1.32
  12   2  -6   32.71    1.30
   2  12  -6   34.27    0.93
  -2  12   6   32.25    1.05
  12   2  -6   36.51    1.20
  12  -2   6   34.63    0.88
  -2 -12  -4    0.28    0.20
   2 -12   4    0.07    0.13
  -2  12   4    0.05    0.22
   2  12  -4    0.33    0.11
  12   2  -4    0.10    0.13
   2  12  -4    0.35    0.19
  12  -2   4    0.16    0.15
  12  -2   4    0.33    0.18
  -2  12   4    0.29    0.16
   2  12  -4    0.20    0.06
  -2 -12  -4    0.25    0.09
  12   2  -4    0.29    0.22
  -2  12   4    0.21    0.11
   2  12  -2    9.76    0.36
  12   2  -2    9.66    0.44
  -2 -12  -2    9.34    0.60
   2 -12   2   10.95    0.56
   2  12  -2    9.89    0.50
  -2  12   2   11.39    0.53
  12  -2   2   10.20    0.62
  -2  12   2   10.65    0.46
   2  12  -2   10.45    0.64
  12   2  -2   10.44    0.64
  12   2  -2   10.94    0.51
  -2  12   2   11.08    0.67
  -2 -12  -2   10.76    0.36
   2 -12   0   80.52    2.24
   2 -12   0   81.21    2.06
  -2  12   0   82.92    2.04
  -2  12   0   84.45    2.35
  12   2   0   85.72    2.03
  12   2   0   85.95    2.35
  12  -2   0   82.67    2.31
   2  12   0   80.71    2.31
   2  12   0   82.69    1.97
   2 -12  -2   10.91    0.63
   2 -12  -2   11.07    0.46
  12   2   2   10.16    0.38
 -12  -2   2   10.52    0.40
   2  12   2   10.21    0.59
  -2  12  -2   10.63    0.66
  12   2   2   10.71    0.65
  12  -2  -2   11.48    0.66
   2  12   2   10.45    0.65
   2 -12  -4    0.29    0.20
   2  12   4    0.35    0.19
   2 -12  -4    0.20    0.08
  12   2   4    0.39    0.20
  12  -2  -4    0.28    0.17
   2 -12  -4    0.28    0.07
   2  12   4    0.07    0.20
   2 -12  -6   34.68    1.31
   2 -12  -6   34.08    0.85
   2  12   6   34.89    1.33
   2  12   6   33.19    1.26
  12   2   6   33.53    1.30
  -2  12  -6   30.81    0.79
  -2  12  -6   32.00    1.23
  12   2   6   34.44    1.25
  12  -2  -6   34.62    1.30
  -2  12  -6   32.69    0.81
  -2  12  -8    4.26    0.42
   2 -12  -8    3.47    0.16
   2  12   8    3.30    0.40
  12   2   8    4.34    0.44
   2  12   8    2.50    0.38
  -2  12  -8    3.45    0.23
   2 -12  -8    2.98    0.40
  12  -2  -8    3.78    0.43
   2 -12 -10    4.53    0.19
  12   2  10    4.65    0.49
 -12   2 -10    4.76    0.24
   2 -12 -10    4.90    0.52
  12   2  10    5.05    0.46
 -12  -2  10    5.31    0.50
   2  12  10    4.37    0.49
  -2  12 -10    5.02    0.47
  -2  12 -10    5.02    0.49
  12  -2 -10    4.92    0.50
   2 -12 -12    4.41    0.49
  -2  12 -12    4.87    0.50
  -2  12 -12    4.43    0.47
   2  12  12    4.49    0.52
  12   2  12    4.12    0.48
 -12  -2  12    4.92    0.48
 -12   2 -12    4.90    0.30
  12   2  12    4.00    0.42
  12  -2 -12    4.80    0.53
  12   2  14    1.85    0.32
   2 -12 -14    2.15    0.38
  -2  12 -14    1.57    0.37
  -2  12 -14    2.83    0.43
  12   2  14    2.05    0.37
 -12  -2  14    2.34    0.36
  12  -2 -14    2.68    0.43
   2 -12 -16    0.49    0.30
  -2  12 -16    0.08    0.24
  12   2  16    0.21    0.18
 -12  -2  16    0.34    0.20
   2 -12 -16    0.90    0.25
  12  -2 -16    0.28    0.23
  12   2  18    1.77    0.34
  -2  12 -18    0.78    0.33
 -12  -2  18    1.23    0.27
   2 -12 -18    1.86    0.35
   2 -12 -18    1.09    0.40
  12  -2 -18    0.44    0.28
   2 -12 -20    1.72    0.43
  12   2  20    1.55    0.33
  -2  12 -20    1.18    0.35
 -12   2 -20    1.73    0.41
   2 -12 -20    1.30    0.33
  12  -2 -20    0.73    0.34
   3  12 -21    0.32    0.25
  -3 -12 -21    0.39    0.34
  12  -3  21    0.10    0.21
 -12  -3 -21    0.42    0.27
  12   3 -21   -0.15    0.32
  12   3 -21    0.32    0.29
   3  12 -19    1.29    0.35
  12  -3  19    2.26    0.42
  -3 -12 -19    1.99    0.40
 -12  -3 -19    1.93    0.37
  12   3 -19    1.77    0.41
  12   3 -19    1.51    0.38
   3  12 -17   -0.27    0.23
  12  -3  17    0.22    0.24
 -12  -3 -17    0.14    0.16
   3  12 -17   -0.17    0.28
 -12  -3 -17    0.39    0.26
  -3 -12 -17   -0.16    0.25
  12   3 -17    0.00    0.24
  -3 -12 -17    0.20    0.17
  12   3 -17   -0.22    0.27
   3  12 -15    0.15    0.16
  12  -3  15    0.20    0.20
   3 -12  15    0.02    0.20
   3  12 -15    0.18    0.20
 -12  -3 -15    0.13    0.14
   3  12 -15    0.25    0.26
  -3 -12 -15    0.10    0.23
 -12   3  15    0.37    0.19
  12   3 -15    0.08    0.22
  -3 -12 -15    0.24    0.17
  12   3 -15    0.70    0.32
   3  12 -13    1.46    0.25
  12  -3  13    1.78    0.34
   3 -12  13    1.84    0.36
  -3 -12 -13    2.42    0.41
   3  12 -13    1.79    0.38
 -12  -3 -13    1.88    0.25
   3  12 -13    2.28    0.35
  -3 -12 -13    1.48    0.24
  12   3 -13    1.17    0.33
 -12  -3 -11    5.92    0.39
  -3 -12 -11    5.58    0.55
   3 -12  11    5.78    0.56
  12  -3  11    5.79    0.53
  12  -3  11    6.16    0.41
  -3  12  11    6.58    0.58
  -3 -12 -11    5.73    0.36
   3  12 -11    6.41    0.59
  12   3 -11    5.41    0.54
   3  12 -11    5.38    0.40
   3  12 -11    5.90    0.48
 -12  -3  -9    2.83    0.25
   3  12  -9    2.78    0.40
   3  12  -9    2.70    0.31
  -3 -12  -9    2.59    0.39
  12  -3   9    3.78    0.35
  12   3  -9    3.02    0.38
  -3  12   9    2.69    0.27
  12  -3   9    3.38    0.41
   3 -12   9    3.08    0.41
  -3  12   9    3.45    0.43
  12  -3   9    2.55    0.30
  12  -3   9    2.66    0.23
   3  12  -9    3.06    0.27
  12   3  -9    3.08    0.41
   3  12  -7    4.07    0.45
 -12  -3  -7    4.88    0.28
 -12   3   7    4.34    0.23
   3 -12   7    4.88    0.45
  -3 -12  -7    4.11    0.45
  12  -3   7    4.81    0.46
  12  -3   7    4.48    0.37
  12  -3   7    4.46    0.45
  -3 -12  -7    3.90    0.31
 -12   3   7    4.53    0.33
  12  -3   7    4.38    0.22
   3  12  -7    3.87    0.28
  12   3  -7    4.84    0.43
  12   3  -7    4.26    0.46
  -3  12   7    4.16    0.44
   3  12  -7    4.52    0.35
  -3 -12  -5   25.22    1.08
   3 -12   5   24.39    1.01
  12  -3   5   26.38    0.92
   3  12  -5   24.86    1.04
   3  12  -5   24.52    1.10
  12  -3   5   26.50    1.08
 -12   3   5   25.65    0.80
 -12   3   5   25.37    0.74
  -3 -12  -5   24.56    0.82
  -3  12   5   24.03    0.88
   3  12  -5   25.41    0.76
  12   3  -5   25.14    1.10
  12   3  -5   27.42    0.99
  -3  12   5   26.84    1.11
   3  12  -5   24.40    0.81
  -3 -12  -3   35.70    1.31
   3 -12   3   34.96    1.22
   3  12  -3   35.45    1.17
  -3  12   3   38.35    1.15
  12  -3   3   36.78    1.13
  12  -3   3   36.18    1.30
   3  12  -3   35.50    0.94
  -3  12   3   34.53    1.10
   3  12  -3   36.77    1.31
  12   3  -3   36.22    1.35
  12   3  -3   37.11    1.18
  -3 -12  -3   37.08    1.00
  -3  12   3   37.34    1.37
   3  12  -3   35.05    0.93
  -3 -12  -1   16.86    0.83
  12   3  -1   17.65    0.63
   3 -12   1   17.96    0.74
   3  12  -1   17.70    0.67
  -3  12   1   17.77    0.66
  -3  12   1   18.77    0.90
  12   3  -1   18.96    0.73
  12  -3   1   17.85    0.84
  12   3  -1   18.96    0.89
   3  12  -1   18.09    0.86
  -3 -12  -1   18.10    0.56
   3 -12  -1   16.84    0.79
  12   3   1   17.94    0.60
  12  -3  -1   16.89    0.46
   3 -12  -1   16.53    0.66
 -12  -3   1   17.31    0.61
   3  12   1   17.74    0.58
  -3  12  -1   18.21    0.88
  -3  12  -1   17.78    0.62
  12   3   1   17.65    0.86
  12  -3  -1   17.57    0.83
   3  12   1   17.41    0.84
   3 -12  -3   33.92    1.25
   3  12   3   33.64    1.29
   3 -12  -3   34.93    1.01
  12   3   3   32.79    0.94
   3  12   3   35.81    1.27
  12   3   3   33.19    1.28
  12  -3  -3   35.24    1.27
   3 -12  -3   33.95    0.81
 -12  -3   3   33.60    0.85
  12   3   5   24.36    1.04
   3 -12  -5   27.11    1.11
   3  12   5   24.50    1.10
   3 -12  -5   26.56    0.79
   3  12   5   26.70    1.10
  12   3   5   26.34    1.12
  -3  12  -5   24.38    1.01
  12  -3  -5   26.02    1.09
   3 -12  -5   25.76    0.76
  -3  12  -7    3.85    0.39
   3  12   7    3.97    0.44
   3 -12  -7    3.82    0.43
  12   3   7    4.86    0.45
  12   3   7    3.95    0.43
  -3  12  -7    3.95    0.22
   3  12   7    4.98    0.49
   3 -12  -7    4.59    0.25
  12  -3  -7    4.32    0.45
 -12   3  -9    2.48    0.12
 -12   3  -9    2.60    0.12
  -3  12  -9    2.78    0.36
   3 -12  -9    3.09    0.40
  12   3   9    2.80    0.33
   3  12   9    2.51    0.40
  12   3   9    2.49    0.36
 -12  -3   9    2.46    0.39
  12  -3  -9    2.69    0.39
   3 -12 -11    5.49    0.56
  12   3  11    5.18    0.47
  -3  12 -11    5.21    0.51
 -12  -3  11    6.38    0.55
   3  12  11    5.07    0.54
  12   3  11    4.96    0.52
  -3  12 -11    5.33    0.50
  12  -3 -11    5.33    0.54
  12   3  13    1.59    0.28
  -3  12 -13    1.58    0.32
   3  12  13    1.93    0.39
  -3  12 -13    1.96    0.36
  12   3  13    1.27    0.34
 -12  -3  13    1.51    0.30
   3 -12 -13    1.97    0.40
  12  -3 -13    2.03    0.39
  12   3  15    0.12    0.17
  -3  12 -15    0.16    0.24
  12   3  15   -0.23    0.26
 -12  -3  15    0.43    0.22
   3 -12 -15    0.09    0.24
  12  -3 -15    0.58    0.27
   3 -12 -17   -0.27    0.28
  12   3  17    0.36    0.20
  -3  12 -17   -0.14    0.25
 -12  -3  17    0.10    0.16
   3 -12 -17    0.14    0.20
  12  -3 -17    0.03    0.24
  12   3  19    1.90    0.33
   3 -12 -19    0.99    0.35
  -3  12 -19    2.70    0.50
 -12   3 -19    2.87    0.50
   3 -12 -19    2.44    0.42
  12  -3 -19    2.39    0.44
  12   3  21    0.04    0.22
   3 -12 -21    0.31    0.28
  -3  12 -21    0.12    0.27
 -12   3 -21    0.51    0.35
   3 -12 -21    0.11    0.25
  12  -3 -21   -0.35    0.37
   4  12 -20    0.95    0.30
   4  12 -20    0.90    0.34
  12  -4  20    0.51    0.26
 -12  -4 -20    0.89    0.33
  12   4 -20    1.07    0.37
  -4 -12 -20    0.53    0.29
  12   4 -20    1.18    0.36
   4  12 -18    1.18    0.28
  -4 -12 -18    1.48    0.39
   4  12 -18    0.83    0.31
 -12  -4 -18    0.72    0.22
  12  -4  18    0.98    0.29
  12   4 -18    0.92    0.30
 -12  -4 -18    1.43    0.34
  12   4 -18    0.95    0.32
   4  12 -16    1.24    0.27
   4  12 -16    1.67    0.35
   4 -12  16    1.24    0.36
  -4 -12 -16    1.54    0.37
 -12  -4 -16    0.77    0.21
  12  -4  16    1.11    0.31
   4  12 -16    1.07    0.34
 -12  -4 -16    0.80    0.28
  12   4 -16    0.73    0.28
  -4 -12 -16    1.21    0.26
  12   4 -16    0.99    0.33
  -4 -12 -14    0.97    0.30
   4  12 -14    0.85    0.27
  12  -4  14    0.77    0.26
   4 -12  14    1.13    0.32
 -12  -4 -14    1.25    0.23
   4  12 -14    1.18    0.32
  12   4 -14    0.54    0.24
  -4 -12 -14    1.04    0.23
  12   4 -14    1.06    0.29
   4  12 -14    0.84    0.22
   4  12 -12    0.70    0.23
   4 -12  12    0.93    0.27
 -12  -4 -12    0.73    0.17
   4  12 -12    1.04    0.32
  -4 -12 -12    1.08    0.31
  12  -4  12    0.50    0.14
  12  -4  12    0.82    0.27
  -4  12  12    0.80    0.29
  -4 -12 -12    0.50    0.15
  12   4 -12    0.66    0.27
   4  12 -12    0.48    0.17
  -4  12  10    0.13    0.23
   4  12 -10    0.46    0.18
   4  12 -10    0.51    0.26
 -12  -4 -10    0.27    0.14
   4 -12  10    0.59    0.25
  -4 -12 -10    0.53    0.25
  12  -4  10    0.63    0.25
  12  -4  10    0.35    0.16
  12   4 -10    0.20    0.25
  -4 -12 -10    0.55    0.13
  12   4 -10    0.81    0.30
   4  12 -10    0.29    0.14
 -12  -4  -8    6.17    0.36
  -4 -12  -8    6.49    0.54
  -4  12   8    7.19    0.57
 -12   4   8    6.15    0.32
  12  -4   8    5.76    0.45
  -4  12   8    6.01    0.42
  12  -4   8    5.89    0.42
  12  -4   8    6.04    0.28
   4  12  -8    6.43    0.58
  12  -4   8    6.40    0.55
 -12   4   8    5.48    0.39
   4 -12   8    5.97    0.52
  12   4  -8    6.06    0.54
   4  12  -8    5.84    0.38
   4  12  -8    5.90    0.41
  12   4  -8    6.71    0.53
  -4 -12  -6   16.56    0.86
   4 -12   6   15.44    0.80
  12  -4   6   17.35    0.83
  12  -4   6   15.64    0.66
  12  -4   6   16.70    0.84
   4  12  -6   17.11    0.81
   4  12  -6   14.65    0.85
  -4 -12  -6   15.33    0.65
 -12   4   6   16.35    0.62
   4  12  -6   15.10    0.60
  12   4  -6   14.24    0.82
  12   4  -6   16.04    0.78
 -12   4   6   15.80    0.56
   4  12  -6   15.44    0.63
  -4  12   6   16.03    0.84
  -4 -12  -4   12.54    0.72
   4 -12   4   13.64    0.70
  12  -4   4   12.89    0.56
 -12   4   4   13.19    0.46
  12  -4   4   12.92    0.71
   4  12  -4   12.83    0.50
   4  12  -4   12.87    0.70
  -4 -12  -4   13.53    0.55
  12   4  -4   13.60    0.67
  12   4  -4   13.81    0.76
   4  12  -4   13.26    0.48
  -4  12   4   15.30    0.81
  -4 -12  -2   18.31    0.86
  12   4  -2   16.01    0.66
   4  12  -2   17.08    0.71
 -12  -4  -2   16.33    0.71
   4  12  -2   17.13    0.58
  12  -4   2   18.88    0.84
  12   4  -2   18.24    0.76
  -4  12   2   18.00    0.87
  12   4  -2   17.36    0.87
  -4 -12  -2   18.80    0.62
   4  12  -2   17.21    0.83
   4 -12   2   17.32    0.76
   4 -12   0   34.73    1.24
  12   4   0   35.34    1.06
 -12  -4   0   36.07    1.09
   4  12   0   36.16    1.06
   4 -12   0   35.62    1.16
  -4  12   0   38.32    1.38
  -4  12   0   36.10    1.01
  12   4   0   38.25    1.36
  12  -4   0   35.67    1.28
  -4 -12   0   37.30    0.99
   4  12   0   34.19    1.30
   4 -12  -2   16.36    0.79
   4  12   2   18.41    0.88
  12   4   2   16.92    0.62
   4  12   2   17.04    0.83
   4 -12  -2   16.99    0.67
  -4  12  -2   17.77    0.56
   4  12   2   17.58    0.54
  12   4   2   16.92    0.86
   4 -12  -2   17.00    0.44
  12  -4  -2   16.56    0.81
 -12  -4   2   16.76    0.57
  12  -4  -2   17.16    0.54
   4 -12  -4   11.78    0.69
   4 -12  -4   13.51    0.55
   4  12   4   13.36    0.74
  -4  12  -4   12.06    0.65
  12   4   4   12.66    0.74
   4  12   4   13.78    0.78
  12  -4  -4   13.31    0.72
   4 -12  -4   12.85    0.45
   4 -12  -6   14.64    0.80
   4 -12  -6   16.07    0.59
   4  12   6   13.85    0.82
   4  12   6   15.63    0.84
  12   4   6   14.74    0.81
  12   4   6   15.83    0.84
  -4  12  -6   14.72    0.75
  -4  12  -6   13.92    0.46
  12  -4  -6   14.87    0.80
   4 -12  -6   14.95    0.57
   4 -12  -8    6.63    0.57
   4  12   8    7.15    0.59
 -12  -4   8    6.13    0.58
  12   4   8    6.95    0.58
  -4  12  -8    7.08    0.52
  12  -4  -8    6.04    0.54
   4 -12  -8    6.41    0.41
  12   4  10    0.52    0.19
   4 -12 -10    0.23    0.20
   4  12  10    0.71    0.30
  12   4  10    0.55    0.26
 -12  -4  10    0.71    0.28
  -4  12 -10    0.35    0.22
  12  -4 -10    0.50    0.26
  -4  12 -12    0.42    0.24
   4 -12 -12    0.71    0.26
   4  12  12    0.30    0.24
  -4  12 -12    0.93    0.27
 -12  -4  12    0.41    0.22
  12   4  12    0.83    0.28
  12   4  12    0.57    0.20
  12  -4 -12    1.11    0.33
  12   4  14    1.15    0.26
   4 -12 -14    1.31    0.34
   4  12  14    1.69    0.41
  12   4  14    1.51    0.35
  -4  12 -14    1.19    0.30
 -12  -4  14    0.77    0.24
  -4  12 -14    1.43    0.31
  12  -4 -14    0.84    0.26
   4 -12 -16    1.17    0.36
  -4  12 -16    1.26    0.34
  12   4  16    1.01    0.31
  12   4  16    0.99    0.26
 -12  -4  16    1.34    0.30
  12  -4 -16    1.10    0.32
  12   4  18    0.99    0.27
   4 -12 -18    1.01    0.35
  -4  12 -18    1.16    0.36
 -12  -4  18    1.06    0.28
  12  -4 -18    0.72    0.27
 -12   4 -20    1.47    0.37
  12   4  20    0.74    0.25
   4 -12 -20    1.18    0.40
  -4  12 -20    0.67    0.32
   4 -12 -20    1.25    0.31
  12  -4 -20    0.82    0.35
   5  12 -19    0.60    0.25
   5  12 -19    1.05    0.33
   5 -12  19    1.01    0.36
  12  -5  19    1.21    0.35
  -5 -12 -19    0.66    0.34
 -12  -5 -19    0.80    0.30
  12   5 -19    0.48    0.29
  12   5 -19    0.62    0.29
   5  12 -17    1.51    0.36
   5 -12  17    1.81    0.42
  12  -5  17    1.15    0.33
  -5 -12 -17    1.20    0.36
 -12  -5 -17    1.33    0.28
   5  12 -17    1.54    0.40
 -12  -5 -17    1.54    0.34
  12   5 -17    1.97    0.42
  12   5 -17    1.63    0.39
   5  12 -17    1.41    0.27
   5  12 -15    0.23    0.24
  12  -5  15    0.28    0.21
   5 -12  15    0.38    0.27
 -12  -5 -15    0.55    0.20
  -5 -12 -15    0.74    0.26
   5  12 -15    0.16    0.22
 -12  -5 -15    0.36    0.22
  12   5 -15    0.37    0.26
  12   5 -15    0.50    0.28
   5  12 -15    0.31    0.18
   5  12 -13    1.68    0.32
   5 -12  13    2.19    0.41
   5  12 -13    1.33    0.34
  12  -5  13    1.69    0.33
  -5 -12 -13    1.88    0.36
 -12  -5 -13    1.69    0.26
  12   5 -13    1.50    0.34
  -5 -12 -13    1.90    0.25
   5  12 -13    1.78    0.28
 -12  -5 -11    4.78    0.38
   5  12 -11    5.39    0.57
   5 -12  11    4.73    0.51
  -5 -12 -11    4.36    0.49
  12  -5  11    4.77    0.50
  -5  12  11    6.09    0.55
  12  -5  11    4.98    0.39
  -5 -12 -11    4.44    0.38
  -5 -12 -11    4.94    0.33
   5  12 -11    5.21    0.45
   5  12 -11    5.04    0.41
  12   5 -11    6.16    0.56
  12   5 -11    5.26    0.54
   5  12  -9    0.78    0.19
   5  12  -9    0.76    0.27
 -12  -5  -9    0.49    0.16
  -5 -12  -9    0.54    0.23
   5 -12   9    0.43    0.22
  12  -5   9    0.57    0.25
  -5  12   9    0.58    0.26
  12   5  -9    1.77    0.34
  12  -5   9    0.72    0.21
   5  12  -9    0.62    0.20
  -5 -12  -9    0.98    0.23
 -12   5   9    0.67    0.15
  -5 -12  -9    0.56    0.10
  12   5  -9    0.82    0.27
   5  12  -9    0.69    0.18
 -12  -5  -7    7.05    0.41
  -5 -12  -7    7.26    0.58
   5 -12   7    6.92    0.55
  12  -5   7    7.33    0.59
  12  -5   7    6.34    0.51
  -5 -12  -7    7.33    0.53
  12  -5   7    6.95    0.41
  12  -5   7    7.02    0.54
   5  12  -7    6.17    0.49
   5  12  -7    6.99    0.60
   5  12  -7    6.92    0.42
  12   5  -7    6.41    0.56
   5  12  -7    6.87    0.42
 -12   5   7    6.30    0.40
  12   5  -7    7.33    0.54
 -12   5   7    6.59    0.36
  -5  12   7    7.03    0.56
  -5 -12  -5   14.16    0.78
   5 -12   5   13.22    0.74
  12  -5   5   14.66    0.79
  -5 -12  -5   13.44    0.75
  12  -5   5   14.80    0.59
  12  -5   5   15.05    0.77
   5  12  -5   14.16    0.83
 -12   5   5   13.86    0.58
  -5 -12  -5   13.59    0.61
   5  12  -5   14.63    0.74
   5  12  -5   14.78    0.55
 -12   5   5   14.92    0.54
   5  12  -5   14.68    0.59
  12   5  -5   14.78    0.75
  12   5  -5   13.87    0.79
  -5  12   5   16.25    0.83
  12   5  -3    2.41    0.30
  -5 -12  -3    3.21    0.37
   5 -12   3    2.30    0.28
  12  -5   3    2.30    0.35
  12  -5   3    2.75    0.23
  -5 -12  -3    3.05    0.38
   5  12  -3    2.64    0.23
  12  -5   3    3.30    0.36
  -5 -12  -3    3.03    0.26
  12   5  -3    2.51    0.34
   5  12  -3    3.89    0.38
  -5  12   3    3.00    0.36
  12   5  -1   11.95    0.56
 -12  -5  -1   12.87    0.59
   5  12  -1   12.59    0.57
   5 -12   1   11.70    0.62
  -5 -12  -1   12.04    0.74
  -5  12   1   14.38    0.77
  12   5  -1   13.81    0.67
   5  12  -1   12.71    0.52
  12  -5   1   13.00    0.70
  12   5  -1   12.43    0.72
  -5 -12  -1   13.11    0.53
   5  12  -1   12.15    0.69
   5 -12  -1   13.12    0.67
  12  -5  -1   11.58    0.39
   5  12   1   12.35    0.71
  12   5   1   11.70    0.53
   5  12   1   12.42    0.50
   5 -12  -1   11.86    0.59
  -5 -12   1   13.55    0.78
   5 -12  -1   11.96    0.36
  12   5   1   11.86    0.71
  12  -5  -1   12.25    0.68
 -12  -5   1   12.67    0.52
  -5 -12   1   11.76    0.49
   5 -12  -3    3.37    0.36
   5  12   3    2.84    0.17
  12  -5  -3    2.97    0.23
   5 -12  -3    2.72    0.26
  12   5   3    2.87    0.25
  -5  12  -3    2.70    0.13
 -12  -5   3    3.17    0.20
   5  12   3    3.14    0.38
  12   5   3    3.37    0.38
   5  12   3    3.81    0.40
   5 -12  -3    3.01    0.19
  12  -5  -3    2.57    0.32
   5 -12  -5   14.20    0.77
  12  -5  -5   15.35    0.64
   5 -12  -5   15.00    0.62
   5  12   5   14.37    0.81
 -12  -5   5   15.15    0.88
   5  12   5   15.41    0.84
  -5  12  -5   14.19    0.42
  12   5   5   15.77    0.84
  12   5   5   17.33    0.88
  -5  12  -5   14.71    0.71
  12  -5  -5   13.72    0.76
  -5  12  -5   13.70    0.46
   5 -12  -5   14.63    0.55
   5 -12  -7    6.01    0.53
 -12  -5   7    6.48    0.59
   5  12   7    7.19    0.60
  12   5   7    7.91    0.61
  -5  12  -7    6.70    0.49
  12  -5  -7    6.84    0.55
   5 -12  -7    6.89    0.40
  12   5   7    7.92    0.60
   5 -12  -9    0.90    0.19
  -5  12  -9    0.73    0.24
  12   5   9    0.75    0.19
   5  12   9    0.88    0.31
  12   5   9    1.29    0.33
   5 -12  -9    0.87    0.27
 -12  -5   9    0.11    0.24
  12  -5  -9   -0.06    0.25
  12   5  11    5.42    0.56
  12   5  11    5.34    0.45
   5 -12 -11    4.34    0.51
   5  12  11    5.24    0.55
 -12  -5  11    4.67    0.50
  -5  12 -11    5.12    0.48
  12  -5 -11    5.06    0.51
  12   5  13    1.40    0.26
  -5  12 -13    2.02    0.34
   5  12  13    1.12    0.33
  12   5  13    2.09    0.42
  -5  12 -13    2.12    0.37
   5 -12 -13    1.92    0.40
 -12  -5  13    2.00    0.34
  12  -5 -13    1.93    0.36
   5  12  15    0.32    0.27
  12   5  15    0.44    0.17
  -5  12 -15    1.17    0.31
 -12  -5  15    0.12    0.21
  12   5  15    0.19    0.26
   5 -12 -15    0.14    0.26
  12  -5 -15    0.66    0.30
  12   5  17    0.87    0.23
  -5  12 -17    1.98    0.41
  12   5  17    1.31    0.39
 -12  -5  17    1.15    0.29
   5 -12 -17    1.09    0.34
  12  -5 -17    1.89    0.41
   5 -12 -19    0.49    0.28
  12  -5 -19    0.62    0.31
  -5  12 -19    0.52    0.29
 -12  -5  19    0.74    0.25
 -12   5 -19    0.90    0.38
   6  12 -20    0.08    0.26
  12  -6  20    0.63    0.28
  -6 -12 -20    0.63    0.30
 -12  -6 -20    0.82    0.31
   6 -12  20   -0.08    0.32
  12   6 -20    0.20    0.27
  12   6 -20    1.30    0.37
   6  12 -20    0.30    0.25
   6  12 -18    0.63    0.29
   6 -12  18    0.14    0.24
  -6 -12 -18    0.49    0.26
 -12  -6 -18    0.61    0.27
   6  12 -18   -0.02    0.32
 -12  -6 -18    0.46    0.24
  12   6 -18    0.12    0.27
  12  -6  18    0.26    0.25
  12   6 -18    1.07    0.36
   6  12 -18    0.26    0.22
   6  12 -16    0.44    0.26
   6 -12  16   -0.03    0.24
  12  -6  16    0.39    0.27
 -12  -6 -16    0.67    0.22
  -6 -12 -16    0.34    0.25
   6  12 -16   -0.01    0.24
 -12  -6 -16    0.32    0.24
  12   6 -16   -0.35    0.29
  12   6 -16   -0.05    0.24
   6  12 -16   -0.03    0.18
   6  12 -14    2.76    0.39
  12  -6  14    2.88    0.45
  -6 -12 -14    2.34    0.40
   6  12 -14    2.47    0.48
 -12  -6 -14    3.09    0.35
 -12  -6 -14    2.91    0.39
   6 -12  14    3.07    0.47
  12   6 -14    3.60    0.47
  12   6 -14    2.42    0.41
   6  12 -14    3.02    0.37
   6  12 -12    4.18    0.43
   6 -12  12    4.53    0.52
  -6 -12 -12    4.26    0.49
   6  12 -12    4.50    0.54
  -6 -12 -12    4.18    0.38
  12   6 -12    5.23    0.58
  12  -6  12    4.79    0.53
  -6  12  12    3.71    0.45
   6  12 -12    4.28    0.41
  12   6 -12    4.01    0.47
 -12  -6 -12    3.41    0.35
 -12  -6 -10    4.37    0.37
  -6 -12 -10    4.69    0.49
  -6  12  10    5.31    0.52
  12  -6  10    4.20    0.47
  12  -6  10    5.27    0.43
 -12   6  10    5.20    0.35
  -6 -12 -10    4.53    0.41
   6  12 -10    5.09    0.44
  -6 -12 -10    4.44    0.28
   6  12 -10    5.24    0.55
   6  12 -10    4.49    0.40
   6 -12  10    5.14    0.54
   6  12 -10    4.77    0.40
  12   6 -10    5.81    0.55
  12   6 -10    4.74    0.50
   6  12  -8    2.45    0.38
 -12  -6  -8    2.68    0.28
   6 -12   8    2.39    0.36
  -6 -12  -8    2.57    0.37
  12   6  -8    2.86    0.39
  12  -6   8    3.33    0.36
  -6 -12  -8    2.53    0.32
   6  12  -8    2.43    0.32
  12  -6   8    2.15    0.35
  -6 -12  -8    2.18    0.13
  -6  12   8    3.30    0.41
  12   6  -8    2.89    0.40
   6  12  -8    2.25    0.27
 -12   6   8    2.32    0.24
   6  12  -8    2.68    0.28
 -12   6   6    1.10    0.19
  12  -6   6    1.76    0.33
 -12  -6  -6    1.48    0.20
  -6 -12  -6    1.48    0.31
  12   6  -6    0.80    0.25
  12  -6   6    1.59    0.31
  -6 -12  -6    0.99    0.25
 -12   6   6    1.29    0.19
  12  -6   6    1.45    0.27
  -6  12   6    1.19    0.28
   6 -12   6    1.19    0.26
   6  12  -6    1.28    0.20
  12   6  -6    1.22    0.30
   6  12  -6    1.39    0.18
   6  12  -6    1.14    0.24
   6  12  -6    0.71    0.28
  12   6  -4    3.92    0.39
  -6 -12  -4    2.08    0.33
   6  12  -4    3.42    0.35
  12  -6   4    3.42    0.41
  12  -6   4    3.38    0.23
  -6 -12  -4    3.27    0.39
 -12   6   4    3.23    0.29
   6 -12   4    2.59    0.33
  12  -6   4    3.13    0.36
   6  12  -4    3.32    0.28
 -12   6   4    3.03    0.20
  12   6  -4    3.25    0.39
  -6 -12  -4    2.70    0.26
  -6  12   4    3.11    0.37
  -6 -12  -2    5.32    0.45
   6 -12   2    5.01    0.42
  12  -6   2    4.09    0.46
  12  -6   2    5.10    0.28
  -6 -12  -2    4.96    0.48
  -6  12   2    5.22    0.47
  12   6  -2    5.12    0.43
  12  -6   2    5.11    0.43
   6  12  -2    4.70    0.32
  12   6  -2    5.35    0.47
  -6 -12  -2    5.03    0.35
   6  12  -2    4.89    0.44
   6  12   0    0.97    0.25
   6 -12   0    0.57    0.18
   6  12   0    0.54    0.13
 -12  -6   0    0.72    0.15
   6 -12   0    0.97    0.20
  -6  12   0    0.89    0.26
  12  -6   0    0.74    0.26
  -6 -12   0    1.08    0.31
   6 -12   0    0.68    0.10
   6  12   0    0.79    0.17
  12   6   0    0.69    0.23
  12  -6   0    0.85    0.22
  -6 -12   0    0.76    0.16
   6 -12  -2    5.28    0.42
  12  -6  -2    5.68    0.29
   6  12   2    5.31    0.47
   6 -12  -2    5.73    0.40
  -6 -12   2    5.31    0.52
 -12  -6   2    5.11    0.30
  12   6   2    5.44    0.49
   6 -12  -2    5.26    0.27
  12  -6  -2    4.74    0.42
   6  12   2    5.26    0.31
  -6 -12   2    5.35    0.34
   6  12   4    2.78    0.17
   6  12   4    2.51    0.36
  12  -6  -4    2.67    0.24
   6 -12  -4    2.72    0.28
  -6 -12   4    2.43    0.38
   6  12   4    2.29    0.37
 -12  -6   4    2.88    0.42
  12   6   4    3.01    0.38
   6 -12  -4    2.53    0.33
   6 -12  -4    2.73    0.22
  12  -6  -4    3.09    0.36
  -6  12  -4    2.60    0.18
  -6  12  -4    2.38    0.29
  -6  12  -6    1.26    0.23
   6 -12  -6    1.25    0.29
  12  -6  -6    1.12    0.22
   6  12   6    0.91    0.28
  12   6   6    1.56    0.35
   6 -12  -6    1.26    0.21
 -12  -6   6    1.31    0.34
  12   6   6    1.52    0.30
  12  -6  -6    0.93    0.25
   6 -12  -6    1.09    0.18
  -6  12  -8    2.78    0.33
   6 -12  -8    2.46    0.37
   6  12   8    2.97    0.43
  12   6   8    2.35    0.39
 -12  -6   8    2.68    0.42
  12  -6  -8    3.32    0.41
   6 -12  -8    2.99    0.29
  12   6  10    5.18    0.43
   6 -12 -10    4.21    0.47
   6  12  10    4.37    0.52
  12   6  10    5.81    0.57
 -12  -6  10    4.41    0.49
  -6  12 -10    4.76    0.44
   6 -12 -10    5.35    0.42
  12  -6 -10    4.77    0.49
   6 -12 -12    3.17    0.36
  12   6  12    4.54    0.41
   6 -12 -12    3.66    0.48
  -6  12 -12    4.52    0.45
   6  12  12    4.63    0.55
  12   6  12    4.74    0.55
 -12  -6  12    3.47    0.45
  12  -6 -12    4.26    0.50
   6 -12 -14    2.42    0.45
   6  12  14    2.52    0.46
  12   6  14    2.56    0.44
 -12  -6  14    2.44    0.40
  -6  12 -14    2.58    0.42
  12   6  14    3.03    0.36
  12  -6 -14    2.92    0.45
  12   6  16    0.27    0.16
   6 -12 -16    0.03    0.22
  12  -6 -16    0.30    0.31
   6  12  16    0.48    0.29
  12   6  16    0.15    0.27
 -12  -6  16    0.26    0.22
  -6  12 -16   -0.42    0.34
  12  -6 -16    0.06    0.23
   6 -12 -18    0.28    0.26
  12  -6 -18    0.45    0.29
 -12  -6  18   -0.31    0.24
  -6  12 -18    0.01    0.27
  12  -6 -18    0.47    0.28
   6 -12 -20    0.47    0.32
  12  -6 -20    0.57    0.33
  -6  12 -20    0.31    0.30
 -12   6 -20    0.65    0.31
  12  -6 -20    0.25    0.26
   7 -12  19    1.14    0.39
  12  -7  19    0.56    0.26
  -7 -12 -19    0.66    0.27
 -12  -7 -19    1.02    0.27
 -12  -7 -19    0.97    0.31
  12   7 -19    0.57    0.35
  12   7 -19    1.03    0.32
   7  12 -19    0.80    0.27
   7  12 -19    0.67    0.32
   7 -12  17    1.30    0.39
  -7 -12 -17    0.75    0.30
   7  12 -17    1.33    0.38
 -12  -7 -17    0.73    0.25
 -12  -7 -17    1.18    0.28
  12   7 -17    1.29    0.36
  12  -7  17    0.51    0.24
  12   7 -17    0.49    0.25
   7  12 -17    1.40    0.30
   7  12 -17    0.79    0.27
   7 -12  15    1.02    0.30
 -12  -7 -15    1.12    0.26
  -7 -12 -15    1.36    0.34
  12  -7  15    1.46    0.34
   7  12 -15    1.41    0.39
 -12  -7 -15    1.01    0.27
  12   7 -15    1.48    0.34
  12   7 -15    1.41    0.34
   7  12 -15    1.08    0.26
   7  12 -15    0.98    0.25
 -12  -7 -13    0.06    0.16
   7 -12  13    0.45    0.24
  -7 -12 -13    0.21    0.27
   7  12 -13   -0.16    0.25
  12  -7  13    0.14    0.23
   7  12 -13    0.10    0.14
  12   7 -13    0.77    0.34
  -7 -12 -13   -0.14    0.15
 -12  -7 -13    0.38    0.20
  12   7 -13   -0.16    0.24
   7  12 -13    0.25    0.19
   7  12 -13    0.20    0.19
   7 -12  11    0.79    0.26
 -12  -7 -11    1.04    0.23
  -7 -12 -11    1.01    0.25
   7  12 -11    1.27    0.31
  -7  12  11    0.82    0.26
  12   7 -11    0.87    0.26
  12  -7  11    0.80    0.25
  -7 -12 -11    0.69    0.20
   7  12 -11    1.09    0.22
  12   7 -11    0.68    0.25
   7  12 -11    1.13    0.23
   7  12 -11    1.14    0.25
  -7  12   9    2.52    0.36
   7  12  -9    2.26    0.40
 -12  -7  -9    2.43    0.29
   7 -12   9    2.09    0.35
  12   7  -9    2.23    0.37
  12  -7   9    2.21    0.39
  12  -7   9    2.65    0.33
 -12   7   9    2.80    0.28
  -7 -12  -9    2.24    0.32
   7  12  -9    1.97    0.28
  -7 -12  -9    2.22    0.37
  12   7  -9    2.48    0.37
   7  12  -9    2.34    0.28
   7  12  -9    1.80    0.27
   7  12  -7    4.11    0.48
 -12  -7  -7    4.05    0.34
  -7 -12  -7    3.29    0.42
  12   7  -7    3.83    0.44
   7 -12   7    4.35    0.46
  12  -7   7    4.36    0.48
  12  -7   7    3.41    0.39
  -7  12   7    3.55    0.42
   7  12  -7    4.03    0.32
   7  12  -7    3.51    0.34
   7  12  -7    3.76    0.37
  12   7  -7    4.43    0.45
 -12   7   7    4.18    0.34
  -7 -12  -7    4.03    0.43
  -7  12   5    3.51    0.41
  12   7  -5    3.58    0.40
  -7 -12  -5    3.75    0.41
   7  12  -5    2.92    0.35
  12  -7   5    3.20    0.43
  12  -7   5    3.35    0.40
   7 -12   5    3.39    0.40
  -7 -12  -5    3.34    0.40
  12  -7   5    3.05    0.35
 -12   7   5    3.82    0.32
   7  12  -5    3.23    0.30
  12   7  -5    4.05    0.43
   7  12  -5    4.59    0.50
  12   7  -3    1.82    0.31
  -7 -12  -3    1.03    0.25
   7 -12   3    0.89    0.23
  12  -7   3    1.34    0.30
  12  -7   3    1.02    0.11
  -7 -12  -3    1.20    0.30
   7  12  -3    1.08    0.25
  12  -7   3    1.03    0.23
  -7  12   3    0.84    0.25
   7  12  -3    1.35    0.21
 -12   7   3    1.09    0.10
  12   7  -3    0.87    0.26
   7  12  -1    0.80    0.24
   7 -12   1    0.93    0.22
  12  -7   1    0.69    0.27
  -7  12   1    1.09    0.27
  -7 -12  -1    0.73    0.26
  12  -7   1    1.16    0.12
   7  12  -1    1.03    0.19
  12  -7   1    1.42    0.26
  12   7  -1    0.83    0.25
  -7 -12  -1    1.16    0.20
   7 -12  -1    1.09    0.23
  12  -7  -1    0.97    0.13
   7 -12  -1    1.34    0.24
  12  -7  -1    1.32    0.34
  -7 -12   1    0.73    0.28
   7  12   1    1.06    0.19
 -12  -7   1    1.04    0.32
   7 -12  -1    1.20    0.14
  12   7   1    1.01    0.25
 -12  -7   1    1.01    0.17
  12  -7  -1    0.79    0.23
  -7 -12   1    0.91    0.18
   7  12   1    1.04    0.27
   7 -12  -3    1.65    0.26
  12  -7  -3    1.31    0.18
  12  -7  -3    0.68    0.25
   7 -12  -3    1.03    0.20
  -7 -12   3    1.29    0.30
   7  12   3    1.08    0.30
 -12  -7   3    0.85    0.29
  12   7   3    0.78    0.24
   7  12   3    1.06    0.29
   7 -12  -3    1.58    0.18
  12  -7  -3    0.91    0.22
  -7  12  -3    1.27    0.22
  -7  12  -3    1.10    0.13
  -7  12  -5    2.96    0.30
  12  -7  -5    3.71    0.32
   7 -12  -5    3.04    0.36
  12  -7  -5    3.18    0.47
  -7 -12   5    3.33    0.45
   7  12   5    3.68    0.44
  12   7   5    2.58    0.38
 -12  -7   5    4.08    0.49
  12   7   5    3.56    0.42
   7 -12  -5    3.48    0.28
  12  -7  -5    3.09    0.37
   7 -12  -7    4.46    0.45
  -7  12  -7    3.49    0.34
  12  -7  -7    3.88    0.37
  12  -7  -7    3.50    0.49
  -7 -12   7    3.53    0.45
   7  12   7    4.42    0.50
  12   7   7    3.46    0.47
 -12  -7   7    4.31    0.50
   7 -12  -7    4.09    0.33
  12  -7  -7    3.59    0.41
   7 -12  -9    2.61    0.38
  12   7   9    2.26    0.28
  -7  12  -9    2.37    0.31
  12  -7  -9    1.83    0.30
  12  -7  -9    2.46    0.44
   7  12   9    2.63    0.42
  12   7   9    1.84    0.34
 -12  -7   9    1.91    0.35
  12  -7  -9    2.43    0.34
   7 -12  -9    2.48    0.29
   7 -12 -11    0.95    0.29
  12   7  11    0.55    0.16
  12  -7 -11    0.29    0.26
  -7  12 -11    1.28    0.26
   7  12  11    0.95    0.36
  12   7  11    1.02    0.30
 -12  -7  11    0.64    0.28
  12  -7 -11    1.29    0.31
   7 -12 -11    0.89    0.21
   7 -12 -13   -0.03    0.20
   7 -12 -13    0.10    0.23
  12  -7 -13    0.35    0.30
   7  12  13   -0.09    0.30
  12   7  13    0.16    0.27
 -12  -7  13    0.20    0.20
  12   7  13    0.18    0.14
  12  -7 -13   -0.19    0.25
   7 -12 -15    1.25    0.31
  12  -7 -15    0.78    0.31
   7  12  15    0.65    0.34
  12   7  15    1.30    0.39
 -12  -7  15    0.81    0.30
   7 -12 -15    0.76    0.29
  -7  12 -15    0.94    0.30
  12  -7 -15    1.29    0.32
   7 -12 -17    0.73    0.28
  -7  12 -17    0.78    0.35
   7 -12 -17    1.29    0.36
  12  -7 -17    0.16    0.24
 -12  -7  17    0.71    0.28
  12   7  17    0.66    0.33
  12  -7 -17    0.71    0.29
   7 -12 -19    0.94    0.33
   7 -12 -19    0.79    0.36
  12  -7 -19    1.21    0.37
  -7  12 -19   -0.02    0.30
  12  -7 -19    0.26    0.29
   8 -12  18    0.47    0.29
  12  -8  18    0.55    0.26
 -12  -8 -18    0.79    0.27
 -12  -8 -18    0.21    0.21
   8  12 -18    0.16    0.27
  12   8 -18    0.73    0.30
  -8 -12 -18    0.48    0.30
   8  12 -18    0.57    0.28
  12   8 -18   -0.13    0.30
   8  12 -18    0.27    0.19
 -12  -8 -16   -0.04    0.19
  -8 -12 -16    0.03    0.21
  12  -8  16    0.48    0.28
   8  12 -16    0.04    0.28
 -12  -8 -16   -0.07    0.17
   8 -12  16   -0.18    0.29
  12   8 -16    0.06    0.25
   8  12 -16   -0.09    0.22
  12   8 -16    0.14    0.21
   8  12 -16    0.33    0.22
   8  12 -14    0.62    0.31
 -12  -8 -14    1.53    0.28
  -8 -12 -14    1.25    0.30
   8 -12  14    0.98    0.30
  12  -8  14    1.04    0.32
  12   8 -14    1.38    0.39
  12   8 -14    1.73    0.35
 -12  -8 -14    0.98    0.24
   8  12 -14    1.36    0.30
  12   8 -14    1.96    0.38
   8  12 -14    1.23    0.28
  -8  12  12    1.24    0.31
 -12  -8 -12    0.54    0.20
  -8 -12 -12    0.65    0.26
   8 -12  12    1.02    0.30
   8  12 -12    0.81    0.31
  12   8 -12    0.68    0.33
  -8 -12 -12    0.81    0.23
  12  -8  12    0.90    0.30
 -12  -8 -12    0.95    0.22
   8  12 -12    1.22    0.22
   8  12 -12    1.08    0.24
  12   8 -12    0.91    0.28
   8  12 -12    0.71    0.22
 -12  -8 -10    2.17    0.29
   8  12 -10    3.07    0.47
  -8 -12 -10    2.19    0.35
  12   8 -10    2.77    0.42
  -8  12  10    2.98    0.40
   8 -12  10    2.92    0.42
  -8 -12 -10    2.14    0.31
  12  -8  10    2.34    0.39
   8  12 -10    2.51    0.30
   8  12 -10    3.22    0.34
  12   8 -10    3.09    0.42
   8  12 -10    2.23    0.32
 -12   8  10    2.67    0.31
   8  12  -8    0.76    0.29
   8  12  -8    1.05    0.23
 -12  -8  -8    0.71    0.18
  -8 -12  -8    0.73    0.24
  12   8  -8    1.71    0.33
   8 -12   8    0.84    0.25
  12  -8   8    0.97    0.25
  -8 -12  -8    1.27    0.27
 -12   8   8    1.22    0.23
  -8  12   8    0.89    0.23
  12  -8   8    0.81    0.24
   8  12  -8    0.46    0.14
   8  12  -8    0.97    0.22
  12   8  -8    0.79    0.24
   8  12  -6    0.35    0.24
 -12  -8  -6    0.52    0.19
  12   8  -6    0.51    0.27
  -8 -12  -6    0.31    0.19
  -8  12   6    0.46    0.23
   8 -12   6    0.35    0.20
  12  -8   6    0.06    0.19
   8  12  -6    0.18    0.18
  12  -8   6    0.18    0.19
  -8 -12  -6    0.11    0.20
   8  12  -6    0.17    0.15
  12   8  -6    0.20    0.18
 -12   8   6    0.45    0.17
  -8 -12  -4    7.69    0.57
   8  12  -4    7.56    0.53
   8 -12   4    7.64    0.57
  12  -8   4    7.90    0.63
  12  -8   4    7.49    0.61
  -8 -12  -4    8.19    0.64
 -12   8   4    7.55    0.50
  12  -8   4    7.26    0.52
  12   8  -4    8.61    0.61
   8  12  -4    7.77    0.50
  -8  12   4    8.37    0.60
  12   8  -4    8.13    0.60
   8  12  -2    1.88    0.30
  12  -8   2    1.71    0.35
   8 -12   2    1.85    0.29
  -8 -12  -2    1.70    0.34
  -8  12   2    2.26    0.35
 -12  -8  -2    2.36    0.41
  12  -8   2    1.81    0.28
   8  12  -2    1.80    0.24
 -12  -8  -2    1.73    0.23
  12   8  -2    1.94    0.32
  12   8  -2    1.96    0.32
   8 -12   0    2.54    0.30
   8 -12   0    2.93    0.34
  12  -8   0    2.94    0.41
  12  -8   0    2.46    0.15
   8  12   0    2.72    0.35
  -8 -12   0    3.10    0.42
   8 -12   0    3.15    0.24
 -12  -8   0    2.69    0.43
   8  12   0    2.86    0.29
  12   8   0    2.43    0.34
  12  -8   0    3.16    0.34
 -12  -8   0    2.85    0.29
   8 -12  -2    1.80    0.27
  12  -8  -2    1.64    0.19
   8 -12  -2    2.04    0.29
  12  -8  -2    1.69    0.36
  -8 -12   2    2.34    0.40
   8  12   2    1.97    0.26
 -12  -8   2    1.76    0.39
   8  12   2    1.61    0.32
  12   8   2    1.57    0.29
   8 -12  -2    1.62    0.19
  12  -8  -2    2.13    0.30
  -8  12  -2    1.65    0.22
   8 -12  -4    6.97    0.52
  12  -8  -4    7.50    0.44
  12  -8  -4    7.22    0.66
 -12  -8   4    6.97    0.64
   8  12   4    8.60    0.67
  -8 -12   4    7.21    0.63
  12   8   4    8.27    0.61
  -8  12  -4    7.83    0.46
  12  -8  -4    7.23    0.53
   8 -12  -4    7.53    0.43
   8 -12  -6    0.51    0.21
  12  -8  -6    0.61    0.20
  12  -8  -6    0.03    0.27
  -8 -12   6    0.39    0.25
   8  12   6    0.41    0.23
  12   8   6    0.99    0.32
 -12  -8   6   -0.23    0.27
  12   8   6    0.61    0.25
  12  -8  -6    0.52    0.22
   8 -12  -6    0.62    0.15
  -8  12  -6    0.47    0.17
   8 -12  -8    0.97    0.27
  12  -8  -8    0.65    0.21
  -8  12  -8    0.95    0.21
   8 -12  -8    0.77    0.28
  12  -8  -8    0.38    0.26
  -8 -12   8    0.74    0.29
   8  12   8    1.43    0.34
  12   8   8    0.81    0.30
 -12  -8   8    0.70    0.26
  12  -8  -8    0.75    0.24
   8 -12  -8    1.24    0.22
   8 -12 -10    2.78    0.41
  12   8  10    2.90    0.32
  12  -8 -10    2.79    0.38
   8 -12 -10    2.77    0.43
  12  -8 -10    2.71    0.45
  -8  12 -10    2.92    0.36
   8  12  10    2.39    0.42
  12   8  10    2.65    0.44
 -12  -8  10    2.38    0.42
  12  -8 -10    2.68    0.39
   8 -12 -10    3.22    0.35
  12   8  12    1.00    0.21
   8 -12 -12    1.10    0.30
  12  -8 -12    0.98    0.29
   8 -12 -12    1.35    0.35
  12  -8 -12    0.83    0.33
   8  12  12    0.90    0.32
  12   8  12    1.04    0.31
 -12  -8  12    0.90    0.30
  12  -8 -12    1.33    0.32
   8 -12 -12    0.68    0.22
   8 -12 -14    0.96    0.33
   8 -12 -14    1.61    0.38
  12  -8 -14    0.82    0.34
   8  12  14    1.73    0.42
 -12  -8  14    1.64    0.37
  12   8  14    1.44    0.37
  12  -8 -14    1.09    0.32
   8 -12 -14    1.14    0.29
   8 -12 -16    0.84    0.29
   8 -12 -16    0.25    0.23
  12  -8 -16    0.09    0.25
 -12  -8  16   -0.06    0.23
   8  12  16    0.56    0.34
  12   8  16    0.45    0.34
  -8  12 -16    0.20    0.22
  12  -8 -16    0.00    0.25
   8 -12 -18    0.30    0.28
   8 -12 -18    0.11    0.29
  12  -8 -18    0.86    0.33
  12   8  18    0.72    0.34
  -8  12 -18    0.78    0.33
  12  -8 -18    0.37    0.23
 -12  -9 -17   -0.02    0.19
  -9 -12 -17   -0.28    0.27
   9  12 -17   -0.22    0.30
  12  -9  17    0.09    0.23
   9 -12  17   -0.32    0.32
  12   9 -17    0.10    0.23
   9  12 -17    0.22    0.25
  12   9 -17    0.85    0.32
   9  12 -17    0.11    0.19
 -12  -9 -15    1.12    0.29
  -9 -12 -15    1.98    0.39
   9 -12  15    1.77    0.39
   9  12 -15    1.52    0.39
  12   9 -15    2.42    0.49
 -12  -9 -15    1.96    0.33
  12  -9  15    1.24    0.31
  12   9 -15    0.99    0.29
   9  12 -15    1.26    0.30
  12   9 -15    2.02    0.40
   9  12 -15    2.29    0.39
   9  12 -13    0.53    0.33
 -12  -9 -13    0.22    0.17
  -9  12  13    0.42    0.23
  12  -9  13    0.43    0.24
  12   9 -13    0.34    0.24
 -12  -9 -13    0.26    0.19
  -9 -12 -13   -0.05    0.17
 -12  -9 -13   -0.05    0.20
   9 -12  13   -0.29    0.26
  -9 -12 -13    0.09    0.19
   9  12 -13    0.09    0.16
  12   9 -13    0.17    0.23
   9  12 -13    0.54    0.23
 -12  -9 -11    3.20    0.37
  -9 -12 -11    2.77    0.39
   9  12 -11    2.99    0.46
   9 -12  11    3.52    0.46
  12   9 -11    4.12    0.53
 -12  -9 -11    2.81    0.33
  -9 -12 -11    3.42    0.40
 -12  -9 -11    2.11    0.36
 -12   9  11    2.94    0.34
  12  -9  11    4.08    0.50
   9  12 -11    3.36    0.37
  12   9 -11    3.26    0.43
   9  12 -11    3.77    0.41
  -9  12  11    2.73    0.38
   9  12 -11    2.83    0.32
 -12   9   9    1.30    0.25
 -12  -9  -9    1.40    0.26
   9  12  -9    0.74    0.29
  -9 -12  -9    1.31    0.29
  12   9  -9    1.65    0.37
   9  12  -9    1.46    0.24
  12  -9   9    0.79    0.29
  -9 -12  -9    1.40    0.30
   9 -12   9    1.43    0.31
 -12  -9  -9    0.89    0.26
   9  12  -9    1.23    0.22
   9  12  -9    1.33    0.27
  12   9  -9    1.54    0.33
  -9  12   9    1.21    0.30
   9  12  -7    1.63    0.34
 -12  -9  -7    1.05    0.24
  -9 -12  -7    1.09    0.27
  12   9  -7    1.42    0.34
   9 -12   7    1.72    0.32
  12  -9   7    1.43    0.31
  -9  12   7    1.44    0.30
   9  12  -7    1.27    0.24
  -9 -12  -7    1.84    0.35
 -12   9   7    1.22    0.25
 -12  -9  -7    1.30    0.30
   9  12  -7    1.16    0.24
  12   9  -7    1.61    0.31
  -9 -12  -5   10.50    0.68
   9  12  -5   11.70    0.65
   9 -12   5   10.31    0.71
  12  -9   5   10.36    0.73
  -9 -12  -5   11.92    0.79
 -12  -9  -5   10.89    0.79
  12  -9   5   13.22    0.83
  12  -9   5   12.32    0.68
   9  12  -5   10.95    0.78
  12   9  -5   13.40    0.81
 -12   9   5   11.61    0.64
   9  12  -5   10.80    0.62
  12   9  -5   11.27    0.71
  -9  12   5   12.15    0.73
   9 -12   3    3.45    0.41
  12  -9   3    3.23    0.42
  12  -9   3    2.36    0.38
 -12   9   3    4.03    0.39
  -9 -12  -3    2.71    0.38
   9  12  -3    3.21    0.37
  12  -9   3    3.41    0.37
  -9  12   3    4.48    0.46
 -12  -9  -3    2.63    0.43
   9  12  -3    2.51    0.31
  12   9  -3    2.90    0.37
  12   9  -3    2.88    0.40
  12  -9   1    3.93    0.48
   9 -12   1    2.66    0.35
  -9  12   1    3.41    0.40
  -9 -12  -1    3.42    0.45
   9 -12   1    3.07    0.27
 -12  -9  -1    3.00    0.45
   9  12  -1    3.41    0.34
   9  12  -1    3.66    0.39
  12  -9   1    3.04    0.33
  12   9  -1    3.57    0.40
  12  -9  -1    3.24    0.26
   9 -12  -1    2.97    0.32
   9 -12  -1    3.18    0.37
  12  -9  -1    2.00    0.40
  -9 -12   1    2.57    0.40
 -12  -9   1    3.29    0.47
   9 -12  -1    3.02    0.26
   9  12   1    3.12    0.33
  12   9   1    3.48    0.40
  12  -9  -1    3.24    0.35
  12  -9  -3    2.99    0.28
   9 -12  -3    3.48    0.35
  12  -9  -3    2.90    0.43
  -9 -12   3    2.57    0.44
 -12  -9   3    3.26    0.47
   9  12   3    3.36    0.35
  12   9   3    3.50    0.41
  -9  12  -3    3.21    0.28
   9 -12  -3    3.42    0.29
  12  -9  -3    3.45    0.37
   9 -12  -5   11.26    0.67
  12  -9  -5   10.91    0.59
  -9 -12   5   11.18    0.81
   9 -12  -5   11.79    0.86
  12  -9  -5   10.75    0.81
 -12  -9   5   11.34    0.82
   9  12   5   10.76    0.77
  12   9   5   11.27    0.79
  12   9   5   11.51    0.75
  12  -9  -5   11.73    0.67
   9 -12  -5   11.41    0.57
  -9  12  -5   10.77    0.54
  12  -9  -7    1.07    0.35
   9 -12  -7    1.54    0.29
  12  -9  -7    1.13    0.23
  -9  12  -7    1.28    0.21
   9 -12  -7    1.67    0.36
  -9 -12   7    1.15    0.34
   9  12   7    1.44    0.37
  12   9   7    2.00    0.39
 -12  -9   7    0.98    0.33
  12  -9  -7    1.37    0.27
   9 -12  -7    1.26    0.23
   9 -12  -9    0.99    0.25
  12  -9  -9    0.78    0.24
  12   9   9    0.91    0.20
   9 -12  -9    1.68    0.36
  12  -9  -9    1.53    0.40
  -9 -12   9    1.06    0.34
  -9  12  -9    1.04    0.23
   9  12   9    0.95    0.31
  12   9   9    1.62    0.37
 -12  -9   9    1.58    0.34
  12  -9  -9    1.46    0.30
   9 -12  -9    1.25    0.25
   9 -12 -11    2.76    0.40
  12  -9 -11    3.49    0.43
   9 -12 -11    3.15    0.48
  12  -9 -11    3.84    0.54
  -9 -12  11    1.84    0.40
   9  12  11    2.82    0.47
 -12  -9  11    3.63    0.51
  12   9  11    2.97    0.47
  12  -9 -11    2.97    0.41
   9 -12 -11    3.23    0.38
   9 -12 -13    0.29    0.24
  12  -9 -13   -0.06    0.24
   9 -12 -13   -0.13    0.22
  12  -9 -13    0.12    0.25
 -12  -9  13   -0.25    0.28
   9  12  13    0.01    0.23
  12   9  13   -0.20    0.28
  12  -9 -13   -0.03    0.19
   9 -12 -13   -0.27    0.21
   9 -12 -15    1.07    0.32
  12  -9 -15    2.26    0.42
   9 -12 -15    1.63    0.38
  12  -9 -15    2.55    0.47
 -12  -9  15    1.66    0.37
   9  12  15    1.89    0.46
  12   9  15    2.06    0.45
  12  -9 -15    1.71    0.37
   9 -12 -15    1.92    0.36
   9 -12 -17    0.73    0.33
  12  -9 -17    0.81    0.34
   9 -12 -17    0.01    0.23
  12  -9 -17    0.46    0.29
 -12  -9  17   -0.29    0.29
   9  12  17    0.67    0.37
  12   9  17    0.46    0.29
  -9  12 -17    0.34    0.28
  12  -9 -17    0.15    0.23
   9 -12 -17    0.50    0.28
 -12 -10 -16    0.94    0.28
 -10 -12 -16    0.81    0.30
  10 -12  16    1.07    0.35
  12 -10  16    1.20    0.34
  10  12 -16    0.68    0.36
  12  10 -16    0.79    0.36
  12  10 -16    0.99    0.31
  10  12 -16    1.12    0.30
  12  10 -16    0.80    0.31
  10  12 -16    0.57    0.24
 -12 -10 -14    2.29    0.38
 -10 -12 -14    1.94    0.36
  10 -12  14    2.41    0.45
  12 -10  14    2.32    0.42
  10  12 -14    2.86    0.52
  12  10 -14    3.24    0.51
 -12 -10 -14    2.72    0.39
  12  10 -14    2.33    0.38
  10  12 -14    2.79    0.39
  12  10 -14    2.97    0.45
  10  12 -14    2.35    0.38
 -12  10  12    0.19    0.19
 -12 -10 -12    0.30    0.18
 -10 -12 -12    0.13    0.21
  10  12 -12    0.31    0.26
  12 -10  12   -0.14    0.20
  12  10 -12    0.14    0.24
 -10 -12 -12    0.09    0.18
 -12 -10 -12   -0.35    0.26
  10  12 -12    0.09    0.16
 -10  12  12    0.13    0.20
  10 -12  12    0.11    0.18
  12  10 -12    0.21    0.20
  10  12 -12    0.04    0.17
 -12 -10 -10    7.81    0.58
 -10 -12 -10    7.51    0.62
 -10  12  10    8.49    0.63
 -12  10  10    8.58    0.58
  10 -12  10    7.04    0.67
  12 -10  10    9.42    0.76
 -10 -12 -10    8.87    0.67
 -12 -10 -10    7.90    0.67
  10  12 -10    8.75    0.75
  10  12 -10    8.71    0.63
  12  10 -10    9.11    0.69
  12  10 -10    8.77    0.74
 -12 -10  -8    4.43    0.42
  10  12  -8    4.27    0.38
  10  12  -8    5.46    0.57
 -10 -12  -8    3.79    0.43
  12  10  -8    4.11    0.52
  12 -10   8    4.72    0.52
 -12  10   8    3.48    0.37
 -10 -12  -8    3.91    0.47
 -10  12   8    3.39    0.40
 -12 -10  -8    3.48    0.48
  10  12  -8    3.83    0.41
  12  10  -8    3.95    0.46
  10 -12   8    3.76    0.47
  10  12  -6    2.02    0.41
 -12  10   6    2.03    0.29
  12  10  -6    2.41    0.40
 -10 -12  -6    2.33    0.35
 -10  12   6    1.76    0.30
  10 -12   6    2.22    0.35
  10  12  -6    1.94    0.28
  12 -10   6    2.48    0.40
 -10 -12  -6    2.12    0.37
 -12 -10  -6    2.00    0.39
  10  12  -6    2.30    0.32
  12  10  -6    1.88    0.33
  10  12  -4    8.47    0.56
  10 -12   4    9.66    0.69
  12 -10   4    9.81    0.71
  12 -10   4    8.91    0.69
 -10 -12  -4    7.90    0.67
 -12 -10  -4    7.74    0.67
  12 -10   4    8.85    0.56
  10  12  -4    9.54    0.73
 -12  10   4    9.78    0.61
  12  10  -4   10.00    0.71
 -10  12   4    9.09    0.64
  10  12  -4    8.91    0.58
  12  10  -4    9.15    0.64
  10 -12   2    6.26    0.54
  12 -10   2    6.89    0.59
  12 -10   2    5.91    0.59
  10  12  -2    6.22    0.50
 -10 -12  -2    5.19    0.55
 -10  12   2    5.93    0.52
  10 -12   2    5.75    0.39
  12 -10   2    5.78    0.44
 -12 -10  -2    4.80    0.54
  10  12  -2    5.88    0.47
  12  10  -2    5.97    0.51
  10 -12   0    7.99    0.49
  10 -12   0    8.35    0.61
  12 -10   0    7.92    0.69
 -10 -12   0    8.21    0.68
 -12 -10   0    6.99    0.66
  10  12   0    8.01    0.55
  10 -12   0    8.54    0.47
  12  10   0    8.91    0.61
  12 -10   0    8.57    0.54
  10 -12  -2    6.26    0.45
  12 -10  -2    5.79    0.38
  10 -12  -2    6.40    0.62
  12 -10  -2    5.56    0.60
 -10 -12   2    5.38    0.57
 -12 -10   2    4.96    0.55
  10  12   2    5.95    0.48
  12  10   2    5.90    0.52
 -10  12  -2    5.62    0.35
  10 -12  -2    5.79    0.39
  12 -10  -2    6.08    0.46
  10 -12  -4   10.24    0.60
  12 -10  -4    8.28    0.50
  10 -12  -4    8.99    0.74
  12 -10  -4    8.91    0.75
 -10 -12   4    8.16    0.70
 -12 -10   4    9.19    0.76
  10  12   4    9.35    0.73
  12  10   4    8.91    0.64
  10 -12  -4    9.10    0.52
  12 -10  -4    8.22    0.55
 -10  12  -4    9.29    0.47
  10 -12  -6    1.83    0.29
  12 -10  -6    2.07    0.28
  10 -12  -6    1.87    0.41
  12 -10  -6    2.03    0.43
 -10 -12   6    1.79    0.39
 -12 -10   6    2.04    0.40
  10  12   6    2.12    0.39
  12  10   6    2.14    0.40
  12 -10  -6    1.69    0.29
  10 -12  -6    2.02    0.26
  10 -12  -8    3.36    0.41
  12 -10  -8    3.72    0.40
  10 -12  -8    4.23    0.53
  12 -10  -8    4.00    0.53
 -10 -12   8    3.99    0.50
 -12 -10   8    3.80    0.51
  10  12   8    4.03    0.53
  12  10   8    4.67    0.55
  10 -12  -8    3.81    0.38
  12 -10  -8    3.62    0.40
  10 -12 -10    7.48    0.62
 -12 -10  10    8.51    0.74
  12 -10 -10    8.68    0.64
  10 -12 -10    7.74    0.74
  12 -10 -10    7.25    0.72
 -10 -12  10    7.96    0.72
  10  12  10    7.35    0.71
  12  10  10    8.42    0.75
  12 -10 -10    7.48    0.60
  10 -12 -10    7.95    0.57
  10 -12 -12    0.01    0.21
  12 -10 -12    0.36    0.21
  10 -12 -12    0.88    0.34
  12 -10 -12    0.03    0.26
 -12 -10  12    0.28    0.23
  10  12  12    0.43    0.29
  12  10  12    0.29    0.28
 -10 -12  12    0.11    0.26
  12 -10 -12    0.71    0.26
  10 -12 -12    0.19    0.20
  12 -10 -14    2.96    0.46
  10 -12 -14    2.78    0.48
  12 -10 -14    2.57    0.46
 -12 -10  14    2.15    0.40
  10  12  14    2.73    0.48
  12  10  14    3.05    0.50
  10 -12 -14    1.69    0.38
  12 -10 -14    2.32    0.40
  10 -12 -14    2.96    0.42
  10 -12 -16    0.57    0.25
  12 -10 -16    0.84    0.32
  10 -12 -16    1.36    0.37
  12 -10 -16    1.61    0.40
 -12 -10  16    1.02    0.35
  10  12  16    0.68    0.33
  12  10  16    1.20    0.39
  12 -10 -16    1.43    0.36
  10 -12 -16    0.83    0.28
 -12 -11 -15    3.64    0.47
 -11 -12 -15    3.52    0.47
  11 -12  15    4.33    0.59
  12 -11  15    3.28    0.52
  11  12 -15    4.12    0.58
  12  11 -15    3.62    0.58
  12  11 -15    2.73    0.41
  11  12 -15    4.00    0.49
  12  11 -15    3.76    0.52
  11  12 -15    4.10    0.50
 -12 -11 -13    0.98    0.25
 -11 -12 -13    1.00    0.31
  12 -11  13    1.34    0.36
  11  12 -13    0.71    0.34
  12  11 -13    0.72    0.32
 -11 -12 -13    1.07    0.28
 -12 -11 -13    1.24    0.30
 -11  12  13    0.68    0.24
  11  12 -13    0.58    0.22
  11 -12  13    1.23    0.36
  12  11 -13    0.90    0.30
  11  12 -13    1.29    0.31
 -12  11  11    2.07    0.33
 -12 -11 -11    2.37    0.35
 -11 -12 -11    2.40    0.38
  11  12 -11    2.45    0.45
  11 -12  11    2.15    0.41
  12 -11  11    2.70    0.45
 -11 -12 -11    2.03    0.36
 -12 -11 -11    1.96    0.36
 -11  12  11    2.24    0.36
  12  11 -11    2.46    0.44
  11  12 -11    2.70    0.38
  12  11 -11    2.60    0.39
 -12 -11  -9    5.39    0.50
 -11 -12  -9    5.97    0.54
 -11  12   9    5.47    0.51
 -12  11   9    5.90    0.50
  11 -12   9    6.93    0.64
  12 -11   9    5.39    0.58
 -11 -12  -9    5.63    0.56
 -12 -11  -9    5.11    0.55
  11  12  -9    7.07    0.68
  12  11  -9    6.05    0.62
  11  12  -9    5.70    0.51
  12  11  -9    5.56    0.54
 -12 -11  -7    5.04    0.47
 -11 -12  -7    5.27    0.49
  11  12  -7    5.05    0.56
  12  11  -7    5.24    0.56
  11  12  -7    5.20    0.41
  12 -11   7    5.71    0.57
  11 -12   7    5.32    0.55
 -11 -12  -7    4.91    0.52
 -12 -11  -7    4.28    0.51
  11  12  -7    4.95    0.47
  12  11  -7    4.93    0.48
 -12  11   7    5.51    0.48
 -11  12   7    5.68    0.51
  11 -12   5   16.03    0.94
 -11 -12  -5   15.44    0.97
 -12 -11  -5   15.48    0.98
  11  12  -5   15.92    0.78
  11  12  -5   16.80    1.00
  12  11  -5   16.68    0.98
  11  12  -5   17.18    0.87
  12  11  -5   15.98    0.87
 -12  11   5   15.64    0.83
 -11  12   5   17.14    0.90
  12 -11   5   16.72    0.97
  12 -11   3    0.94    0.30
  12 -11   3    0.90    0.26
 -12  11   3    0.89    0.24
 -11 -12  -3    0.91    0.29
 -12 -11  -3    0.80    0.30
 -11  12   3    0.80    0.25
  11 -12   3    0.73    0.17
  12 -11   3    0.69    0.18
  11  12  -3    0.98    0.22
  12  11  -3    0.95    0.25
  11 -12   3    0.78    0.25
  11  12  -3    1.19    0.31
  12  11  -3    0.47    0.26
  11 -12   1    9.92    0.70
  12 -11   1    9.09    0.68
  12 -11   1    9.69    0.75
 -11 -12  -1    7.77    0.69
 -12 -11  -1    8.14    0.72
  11 -12   1    9.86    0.54
  12 -11   1    9.99    0.58
  11  12  -1    9.52    0.62
  12  11  -1    8.84    0.63
  12 -11  -1    8.72    0.48
  11 -12  -1    8.73    0.52
  11 -12  -1    9.33    0.76
  12 -11  -1    9.45    0.75
 -11 -12   1    8.80    0.73
 -12 -11   1    9.80    0.77
  11  12   1    9.59    0.63
  12  11   1    8.74    0.62
  11 -12  -1    9.37    0.53
  12 -11  -1    8.97    0.55
  11 -12  -3    0.84    0.19
  12 -11  -3    0.64    0.17
  11 -12  -3    0.60    0.26
  12 -11  -3    1.32    0.34
 -11 -12   3    1.06    0.35
 -12 -11   3    0.91    0.30
  11  12   3    1.34    0.26
  12  11   3    0.80    0.24
  11 -12  -3    0.75    0.19
  12 -11  -3    0.88    0.22
  11 -12  -5   16.35    0.81
  12 -11  -5   16.47    0.78
  11 -12  -5   16.13    1.04
  12 -11  -5   15.21    1.02
 -11 -12   5   15.75    1.01
 -12 -11   5   14.81    0.99
  11  12   5   16.06    1.00
  12  11   5   16.50    0.99
  11 -12  -5   16.64    0.77
  12 -11  -5   14.77    0.77
  11 -12  -7    5.68    0.50
  12 -11  -7    5.50    0.47
  11 -12  -7    5.91    0.63
  12 -11  -7    5.00    0.61
  11  12   7    5.75    0.61
 -11 -12   7    5.58    0.61
 -12 -11   7    5.87    0.63
  12  11   7    6.43    0.64
  12 -11  -7    5.18    0.46
  11 -12  -7    5.07    0.44
  11 -12  -9    4.89    0.50
  12 -11  -9    6.44    0.55
  11 -12  -9    6.02    0.65
  12 -11  -9    6.45    0.67
 -11 -12   9    5.74    0.63
 -12 -11   9    5.74    0.64
  11  12   9    5.18    0.59
  12  11   9    4.98    0.59
  12 -11  -9    5.67    0.50
  11 -12  -9    5.63    0.49
  11 -12 -11    2.28    0.38
  12 -11 -11    2.08    0.35
  11 -12 -11    1.88    0.42
  12 -11 -11    1.93    0.46
 -11 -12  11    1.81    0.39
 -12 -11  11    1.96    0.42
  11  12  11    1.86    0.41
  12  11  11    2.76    0.49
  12 -11 -11    2.39    0.37
  11 -12 -11    2.30    0.34
  11 -12 -13    1.09    0.32
  11 -12 -13    1.21    0.37
 -11 -12  13    1.05    0.34
  12 -11 -13    0.93    0.29
 -12 -11  13    1.31    0.37
  11  12  13    0.57    0.33
  12  11  13    0.74    0.38
  12 -11 -13    1.08    0.36
  12 -11 -13    0.69    0.27
  11 -12 -13    0.61    0.24
  12 -11 -15    3.89    0.52
  11 -12 -15    3.20    0.50
  11 -12 -15    4.03    0.56
  12 -11 -15    3.20    0.51
 -12 -11  15    3.49    0.52
  11  12  15    3.56    0.58
  12  11  15    3.76    0.58
  12 -11 -15    3.80    0.49
  11 -12 -15    3.15    0.45
 -12 -12 -14    2.03    0.37
  12 -12  14    2.66    0.47
  12  12 -14    2.43    0.40
 -12 -12 -12    3.54    0.45
  12  12 -12    4.17    0.59
 -12 -12 -12    3.39    0.45
  12 -12  12    2.71    0.44
 -12  12  12    3.09    0.40
  12  12 -12    2.93    0.43
 -12 -12 -10   11.84    0.77
 -12  12  10   12.77    0.78
  12 -12  10   12.05    0.89
 -12 -12 -10   10.58    0.80
  12  12 -10   11.57    0.79
  12  12 -10   13.36    0.94
 -12 -12  -8    1.67    0.30
  12  12  -8    2.08    0.41
 -12  12   8    2.09    0.32
 -12 -12  -8    2.85    0.45
  12 -12   8    1.85    0.38
  12  12  -8    2.11    0.34
  12  12  -6    0.48    0.27
 -12  12   6    0.97    0.26
  12 -12   6    1.17    0.30
 -12 -12  -6    0.97    0.32
  12  12  -6    0.66    0.22
  12 -12   4   21.16    1.11
 -12 -12  -4   20.89    1.16
  12  12  -4   19.92    1.11
 -12  12   4   21.15    1.02
  12  12  -4   20.45    1.00
  12 -12   2    4.77    0.51
 -12  12   2    5.09    0.49
 -12 -12  -2    4.81    0.57
  12 -12   2    4.34    0.39
  12  12  -2    4.43    0.44
  12 -12   0    0.32    0.21
  12 -12   0    0.21    0.23
 -12 -12   0    0.34    0.22
  12  12   0    0.64    0.22
  12 -12   0    0.43    0.15
  12 -12  -2    4.00    0.35
  12 -12  -2    3.94    0.53
 -12 -12   2    4.36    0.54
  12  12   2    4.22    0.44
  12 -12  -2    4.27    0.38
  12 -12  -4   19.87    0.88
  12 -12  -4   20.46    1.20
 -12 -12   4   19.60    1.16
  12  12   4   22.33    1.19
  12  12   4   20.05    1.02
  12 -12  -4   20.28    0.89
  12 -12  -6    0.81    0.21
  12 -12  -6    0.71    0.31
 -12 -12   6    0.81    0.29
  12  12   6    0.88    0.33
  12 -12  -6    0.98    0.23
  12 -12  -8    1.71    0.31
  12 -12  -8    1.22    0.38
 -12 -12   8    2.61    0.47
  12  12   8    2.29    0.42
  12 -12  -8    2.16    0.31
  12 -12 -10   11.79    0.78
  12 -12 -10   10.69    0.88
 -12 -12  10    9.72    0.84
  12  12  10   11.62    0.90
  12 -12 -10   11.25    0.73
  12 -12 -12    3.56    0.47
  12 -12 -12    2.57    0.48
 -12 -12  12    3.82    0.54
  12  12  12    2.73    0.52
  12 -12 -12    2.92    0.40
  12 -12 -14    1.92    0.38
 -12 -12  14    3.05    0.53
  12  12  14    2.65    0.52
  12 -12 -14    1.50    0.38
  12 -12 -14    3.34    0.46
   0 -13  -1    7.31    0.54
  13   0  -1    7.22    0.28
   0  13   1    7.81    0.49
  13   0   1    8.25    0.59
   0  13  -1    7.92    0.57
   0  13   1    7.50    0.32
  13   0  -1    6.90    0.55
  13   0   1    7.70    0.33
   0  13   1    7.48    0.56
  13   0  -1    8.15    0.37
   0 -13  -3    2.27    0.32
   0  13   3    2.59    0.36
   0  13  -3    2.44    0.33
   0  13   3    2.34    0.30
   0  13  -3    2.00    0.21
  13   0   3    2.55    0.17
  13   0   3    2.52    0.35
   0  13   3    2.16    0.16
  13   0  -3    2.24    0.35
   0  13   5   20.93    1.00
   0 -13  -5   20.23    0.97
   0  13  -5   19.30    0.77
   0  13   5   19.87    0.89
  13   0   5   20.53    0.88
   0  13  -5   20.50    0.97
  13   0   5   19.44    0.97
   0 -13  -5   20.33    0.62
  13   0  -5   19.54    0.98
   0  13   5   18.90    0.63
   0  13  -7    1.53    0.30
   0  13   7    1.69    0.31
   0 -13  -7    1.34    0.29
   0  13   7    1.17    0.15
   0  13  -7    1.36    0.22
   0  13   7    1.03    0.29
  13   0   7    1.41    0.29
   0 -13  -7    1.26    0.17
  13   0   7    1.42    0.30
  13   0  -7    1.45    0.33
   0  13  -7    1.10    0.11
 -13   0  -9    1.33    0.10
   0  13  -9    1.42    0.31
   0 -13  -9    1.84    0.37
  13   0   9    1.35    0.26
   0  13  -9    2.04    0.30
   0  13   9    1.85    0.31
  13   0   9    1.21    0.27
   0  13   9    2.40    0.42
  13   0  -9    1.41    0.33
   0  13  -9    1.70    0.18
   0  13 -11    1.56    0.32
   0 -13 -11    1.53    0.35
  13   0  11    1.69    0.31
   0  13 -11    2.12    0.33
  13   0  11    2.11    0.35
  13   0 -11    1.81    0.39
   0 -13 -13    0.83    0.30
  13   0  13    0.37    0.22
   0  13 -13    0.82    0.31
   0  13 -13    0.65    0.26
  13   0  13    0.89    0.30
 -13   0  13    0.84    0.26
  13   0 -13    0.50    0.25
   0  13 -15    1.29    0.33
   0  13 -15    0.57    0.29
 -13   0  15    0.50    0.20
   0 -13 -15    0.53    0.30
   0 -13 -15    0.39    0.16
  13   0 -15    0.27    0.22
  13   0  15    0.58    0.22
  13   0  17    0.26    0.22
   0 -13 -17   -0.05    0.26
   0  13 -17   -0.02    0.24
   0  13 -17   -0.10    0.27
 -13   0  17   -0.03    0.18
   0 -13 -17   -0.42    0.23
  13   0 -17    0.01    0.29
  13   0  19    2.61    0.42
   0  13 -19    2.96    0.50
   0 -13 -19    2.70    0.51
 -13   0 -19    2.36    0.47
  13   0 -19    1.72    0.45
   1  13 -20    1.21    0.38
  13  -1  20    1.08    0.35
 -13  -1 -20    1.34    0.37
  -1 -13 -20    1.64    0.44
  13   1 -20    1.77    0.44
   1  13 -18    0.89    0.34
  13  -1  18    0.63    0.25
 -13  -1 -18    0.55    0.27
  -1 -13 -18    1.30    0.39
  13   1 -18    0.67    0.28
  13  -1  16    0.81    0.27
   1  13 -16    0.83    0.30
  -1 -13 -16    1.33    0.36
   1  13 -16    0.98    0.35
 -13   1  16    0.79    0.24
  -1 -13 -16    0.42    0.19
  13   1 -16    0.90    0.29
   1  13 -14    3.66    0.45
  -1 -13 -14    4.14    0.53
   1  13 -14    4.37    0.54
  13  -1  14    3.19    0.44
 -13   1  14    4.06    0.43
  -1 -13 -14    3.99    0.38
  13   1 -14    3.93    0.52
   1  13 -12    0.83    0.18
  -1 -13 -12    0.91    0.29
  13  -1  12    0.92    0.27
   1  13 -12    0.98    0.26
  13  -1  12    0.75    0.17
  13  -1  12    1.61    0.32
   1  13 -12    0.79    0.29
 -13  -1 -12    1.22    0.17
  13   1 -12    0.93    0.28
 -13  -1 -10    5.29    0.28
   1  13 -10    4.50    0.44
   1  13 -10    5.49    0.55
  -1  13  10    4.91    0.52
  -1 -13 -10    4.99    0.52
  13  -1  10    4.95    0.51
  13  -1  10    4.99    0.47
   1  13 -10    4.68    0.33
  13   1 -10    4.70    0.52
  -1 -13  -8    6.05    0.56
   1  13  -8    6.44    0.47
   1 -13   8    6.33    0.53
  13  -1   8    6.34    0.55
  -1  13   8    5.92    0.51
  13  -1   8    7.17    0.52
  -1  13   8    6.53    0.60
  13  -1   8    6.57    0.56
  -1 -13  -8    6.02    0.39
   1  13  -8    6.36    0.55
  13   1  -8    5.85    0.56
   1  13  -8    6.43    0.32
  -1  13   6   13.65    0.80
  -1 -13  -6   13.78    0.79
   1  13  -6   12.84    0.60
   1 -13   6   13.25    0.73
  -1  13   6   12.40    0.70
  13  -1   6   12.94    0.68
  13  -1   6   12.67    0.76
  -1 -13  -6   13.13    0.52
   1  13  -6   12.46    0.76
   1  13  -6   12.22    0.40
  13   1  -6   14.42    0.82
  -1  13   6   11.76    0.52
  -1  13   4    1.48    0.17
  -1 -13  -4    1.45    0.28
   1 -13   4    1.44    0.24
   1  13  -4    1.49    0.19
  13   1  -4    2.08    0.25
  -1  13   4    1.63    0.32
   1  13  -4    1.91    0.31
  -1  13   4    1.62    0.26
  13  -1   4    1.41    0.24
  13  -1   4    1.49    0.11
  13  -1   4    2.38    0.35
  -1 -13  -4    1.47    0.13
  13   1  -4    1.58    0.30
  -1 -13  -2    6.44    0.51
   1 -13   2    5.54    0.39
   1  13  -2    5.73    0.30
   1  13  -2    5.70    0.37
  -1  13   2    5.96    0.41
  13  -1   2    5.83    0.49
   1  13  -2    5.87    0.50
  -1  13   2    5.65    0.30
  13   1  -2    5.46    0.49
  -1  13   2    5.11    0.48
  13   1  -2    5.82    0.35
   1 -13   0   22.52    0.98
  13   1   0   21.94    0.63
   1 -13   0   21.88    0.79
   1  13   0   21.52    0.61
   1  13   0   22.95    0.76
  -1  13   0   23.97    0.86
   1  13   0   23.42    0.92
   1  13   0   22.50    0.60
  13   1   0   25.14    1.06
  13  -1   0   24.12    1.03
  -1  13   0   23.92    1.05
  13   1   0   23.93    0.76
   1  13   0   22.72    1.02
   1 -13  -2    5.58    0.48
   1 -13  -2    5.75    0.31
   1  13   2    5.67    0.44
  -1  13  -2    6.15    0.51
  13   1   2    5.52    0.31
  13   1   2    5.31    0.49
  13  -1  -2    5.55    0.49
   1  13   2    5.21    0.49
   1  13   4    1.59    0.11
   1 -13  -4    1.61    0.31
   1  13   4    2.29    0.32
   1 -13  -4    1.48    0.11
  13   1   4    1.97    0.32
   1  13   4    1.54    0.31
  13  -1  -4    1.88    0.34
   1 -13  -4    1.54    0.11
   1 -13  -6   12.91    0.76
   1  13   6   12.97    0.79
   1  13   6   11.88    0.43
  -1  13  -6   13.00    0.64
   1  13   6   12.99    0.74
  13   1   6   12.87    0.72
   1 -13  -6   12.49    0.49
  13   1   6   13.20    0.78
  -1  13  -6   14.13    0.78
  13  -1  -6   13.59    0.79
   1 -13  -8    6.46    0.58
  -1  13  -8    5.68    0.46
   1  13   8    7.21    0.57
  13   1   8    6.17    0.52
  13   1   8    7.19    0.60
  -1  13  -8    5.47    0.51
  13  -1  -8    5.51    0.53
  -1  13  -8    5.97    0.29
   1  13   8    6.34    0.57
   1 -13 -10    5.14    0.54
  13   1  10    4.15    0.45
  13   1  10    5.09    0.49
  -1  13 -10    4.51    0.44
   1  13  10    4.58    0.50
  -1  13 -10    5.21    0.51
  13  -1 -10    4.60    0.51
  -1  13 -12    1.06    0.29
  -1  13 -12    1.00    0.27
  13   1  12    1.26    0.28
  13   1  12    1.12    0.28
 -13  -1  12    0.94    0.25
   1 -13 -12    1.00    0.30
  13  -1 -12    0.68    0.28
 -13  -1  14    4.96    0.48
   1 -13 -14    3.91    0.52
  13   1  14    3.42    0.44
  -1  13 -14    3.96    0.51
  -1  13 -14    4.23    0.49
  13   1  14    3.99    0.49
  13  -1 -14    3.33    0.48
   1 -13 -16    0.72    0.30
  13   1  16    0.43    0.24
  -1  13 -16    1.05    0.35
 -13  -1  16    0.71    0.24
  -1  13 -16    0.60    0.27
   1 -13 -16    0.64    0.25
  13  -1 -16    1.35    0.35
  13   1  18    1.51    0.33
   1 -13 -18    1.36    0.36
  -1  13 -18    1.40    0.37
   1 -13 -18    0.78    0.27
  13  -1 -18    1.28    0.36
  13   1  20    0.97    0.28
   1 -13 -20    2.00    0.45
  -1  13 -20    1.28    0.40
 -13   1 -20    0.90    0.31
  13  -1 -20    1.00    0.37
   2  13 -19    3.30    0.52
  13  -2  19    3.96    0.53
  -2 -13 -19    3.55    0.55
  13   2 -19    3.95    0.58
 -13  -2 -19    3.62    0.52
  13   2 -19    3.56    0.56
   2  13 -17    0.42    0.29
  13  -2  17    0.54    0.24
   2  13 -17    0.23    0.23
 -13  -2 -17    0.32    0.26
  -2 -13 -17    0.26    0.25
  13   2 -17    0.75    0.31
   2  13 -15    0.00    0.16
   2  13 -15    0.53    0.28
  13  -2  15    0.20    0.19
   2  13 -15    0.48    0.31
  -2 -13 -15    0.30    0.23
 -13   2  15    0.00    0.17
  -2 -13 -15    0.34    0.16
  13   2 -15    0.59    0.28
   2  13 -13    2.15    0.28
 -13  -2 -13    2.79    0.28
  -2 -13 -13    2.31    0.41
   2  13 -13    2.40    0.37
  13  -2  13    2.27    0.38
  -2 -13 -13    2.25    0.26
  13   2 -13    3.58    0.51
   2  13 -13    1.92    0.39
  13  -2  11    7.55    0.62
 -13  -2 -11    7.98    0.41
  -2 -13 -11    7.58    0.66
   2 -13  11    7.76    0.64
  13  -2  11    8.34    0.50
  -2  13  11    8.16    0.66
  13  -2  11    8.35    0.60
   2  13 -11    8.05    0.67
  13   2 -11    9.07    0.69
   2  13 -11    7.34    0.45
   2  13 -11    7.71    0.57
   2  13  -9    1.61    0.34
 -13  -2  -9    1.53    0.16
   2 -13   9    1.46    0.29
  -2 -13  -9    1.48    0.32
   2  13  -9    1.65    0.27
  13  -2   9    1.14    0.26
  13  -2   9    1.58    0.32
  13   2  -9    2.00    0.34
  -2  13   9    1.51    0.34
   2  13  -9    1.20    0.17
   2  13  -7    4.48    0.36
  -2 -13  -7    5.41    0.50
  -2  13   7    6.19    0.55
  13  -2   7    5.09    0.43
  13  -2   7    5.46    0.51
 -13   2   7    4.51    0.34
  -2 -13  -7    4.95    0.33
   2 -13   7    5.41    0.48
   2  13  -7    4.85    0.50
  13   2  -7    5.83    0.54
   2  13  -7    4.74    0.27
  -2  13   7    4.44    0.34
  13  -2   7    4.78    0.25
  13   2  -7    5.77    0.46
   2  13  -5   22.98    0.80
  -2 -13  -5   22.13    1.04
   2 -13   5   21.90    0.97
  -2  13   5   24.71    0.97
  13  -2   5   25.18    0.93
   2  13  -5   25.25    1.07
   2  13  -5   23.61    1.08
  13  -2   5   24.51    1.07
  -2 -13  -5   24.21    0.75
   2  13  -5   22.39    0.64
 -13   2   5   23.57    0.65
  13   2  -5   24.58    1.10
  -2  13   5   22.74    0.81
  13   2  -5   24.49    0.93
  -2  13   5   25.07    1.11
   2  13  -3   21.60    0.68
  -2 -13  -3   22.83    1.02
   2 -13   3   22.03    0.91
  -2  13   3   22.87    0.88
  13  -2   3   23.17    1.03
   2  13  -3   22.84    1.02
  -2  13   3   21.14    0.76
  13   2  -3   22.78    1.04
  -2 -13  -3   23.16    0.65
  13   2  -3   23.36    0.85
  -2  13   3   24.39    1.06
  -2 -13  -1   19.93    0.92
  13   2  -1   19.33    0.62
   2 -13   1   19.79    0.78
   2  13  -1   20.14    0.72
  13  -2   1   21.59    0.96
  13   2  -1   21.32    0.98
  -2  13   1   22.14    0.99
  13   2  -1   19.54    0.72
   2  13  -1   19.91    0.94
  -2  13   1   19.66    0.75
   2  13  -1   17.42    0.48
   2 -13  -1   20.20    0.88
   2 -13  -1   19.07    0.69
  13   2   1   18.85    0.55
  13  -2  -1   16.35    0.43
   2  13   1   19.42    0.60
  -2  13  -1   19.25    0.70
   2  13   1   19.17    0.83
  -2  13  -1   18.59    0.91
  13   2   1   18.84    0.67
  13   2   1   19.30    0.92
  13  -2  -1   19.66    0.91
   2  13   1   18.74    0.90
 -13  -2   3   21.51    0.60
   2  13   3   22.93    1.03
   2 -13  -3   22.27    0.98
   2  13   3   22.87    0.97
  13   2   3   21.57    1.01
   2 -13  -3   22.17    0.71
  13  -2  -3   22.01    1.00
   2 -13  -5   24.32    1.09
   2  13   5   24.81    1.12
   2 -13  -5   24.76    0.71
   2  13   5   24.70    1.06
  13   2   5   25.16    1.05
  13   2   5   26.55    1.14
  -2  13  -5   23.97    1.05
  13  -2  -5   24.79    1.10
   2 -13  -5   25.62    0.72
   2 -13  -7    5.72    0.53
   2 -13  -7    4.69    0.19
   2  13   7    4.65    0.50
   2  13   7    5.38    0.51
  13   2   7    5.12    0.48
  13   2   7    5.33    0.52
  -2  13  -7    4.72    0.46
  13  -2  -7    4.85    0.49
  -2  13  -7    4.48    0.21
  -2  13  -9    1.67    0.32
   2 -13  -9    1.04    0.29
  13   2   9    0.99    0.26
   2  13   9    1.18    0.30
  13   2   9    1.13    0.27
  -2  13  -9    1.44    0.28
   2  13   9    1.31    0.34
  13  -2  -9    1.66    0.34
   2 -13 -11    6.82    0.62
  13   2  11    8.37    0.61
  -2  13 -11    8.05    0.62
   2  13  11    7.65    0.65
  13   2  11    8.58    0.65
 -13  -2  11    7.78    0.63
  -2  13 -11    7.15    0.60
  13  -2 -11    8.86    0.68
   2 -13 -13    2.38    0.43
  13   2  13    2.55    0.37
  -2  13 -13    2.50    0.40
  -2  13 -13    2.46    0.39
  13   2  13    2.51    0.40
 -13  -2  13    2.24    0.35
  13  -2 -13    2.34    0.43
  13   2  15    0.27    0.15
   2 -13 -15    0.59    0.31
  -2  13 -15    0.18    0.24
  -2  13 -15    0.14    0.21
  13   2  15    0.47    0.28
 -13  -2  15    0.30    0.18
  13  -2 -15    0.39    0.27
   2 -13 -17    0.37    0.26
  -2  13 -17    0.59    0.27
 -13  -2  17    0.23    0.17
  13   2  17    0.52    0.23
  13  -2 -17    1.12    0.37
  13   2  19    3.85    0.50
   2 -13 -19    4.05    0.60
  -2  13 -19    3.94    0.57
 -13   2 -19    4.14    0.57
   2 -13 -19    4.11    0.50
  13  -2 -19    4.07    0.58
   3  13 -20   -0.18    0.31
  13  -3  20    0.54    0.29
  -3 -13 -20    0.95    0.39
 -13  -3 -20    0.70    0.32
  13   3 -20   -0.01    0.28
  13   3 -20    0.36    0.27
   3  13 -18    1.17    0.26
   3  13 -18    0.69    0.31
  13  -3  18    0.71    0.27
   3  13 -18    0.33    0.29
  -3 -13 -18    1.53    0.39
 -13  -3 -18    1.07    0.32
  13   3 -18    1.41    0.39
  13   3 -18    0.75    0.34
   3  13 -16    0.82    0.22
   3  13 -16    0.97    0.30
  -3 -13 -16    1.16    0.36
  13  -3  16    1.14    0.27
   3  13 -16    0.96    0.34
  13   3 -16    0.66    0.30
   3 -13  14    0.89    0.30
   3  13 -14    1.08    0.29
  -3 -13 -14    1.54    0.36
  13  -3  14    0.89    0.28
   3  13 -14    0.66    0.27
 -13   3  14    0.80    0.22
  13   3 -14    1.19    0.35
   3  13 -14    0.87    0.21
 -13  -3 -12    5.85    0.38
   3 -13  12    5.32    0.56
   3  13 -12    5.23    0.56
  -3 -13 -12    4.64    0.52
  13  -3  12    5.25    0.55
  13  -3  12    5.59    0.40
  -3 -13 -12    4.97    0.35
   3  13 -12    5.99    0.43
  13   3 -12    4.69    0.54
   3  13 -12    5.83    0.51
 -13  -3 -10    2.43    0.23
   3  13 -10    2.10    0.40
   3  13 -10    1.83    0.28
  -3 -13 -10    2.02    0.37
  -3  13  10    2.17    0.37
  13  -3  10    2.51    0.37
  13  -3  10    2.61    0.31
  13  -3  10    2.18    0.31
   3 -13  10    2.00    0.34
  13   3 -10    2.25    0.37
   3  13 -10    1.67    0.22
 -13  -3  -8    8.43    0.39
  -3 -13  -8    7.86    0.62
  -3  13   8    8.03    0.64
   3 -13   8    8.18    0.62
  13  -3   8    8.40    0.64
  13  -3   8    8.11    0.56
  13  -3   8    7.74    0.52
   3  13  -8    7.64    0.64
  13   3  -8    7.57    0.62
   3  13  -8    7.37    0.40
  13   3  -8    8.74    0.59
   3  13  -8    7.44    0.48
  -3 -13  -6   38.53    1.43
   3 -13   6   35.12    1.34
  13  -3   6   37.24    1.21
   3  13  -6   33.71    1.33
  13  -3   6   35.45    1.37
 -13   3   6   34.10    1.06
   3  13  -6   37.84    1.45
  -3 -13  -6   36.44    1.09
   3  13  -6   35.74    0.99
  13   3  -6   35.43    1.42
  13   3  -6   36.52    1.27
 -13   3   6   34.65    0.94
   3  13  -6   33.76    1.08
  -3  13   6   38.38    1.44
  -3 -13  -4    3.75    0.42
  -3  13   4    3.00    0.39
   3 -13   4    2.70    0.32
  13   3  -4    3.45    0.34
  -3  13   4    3.22    0.30
  13  -3   4    3.15    0.29
   3  13  -4    2.95    0.18
  13  -3   4    3.31    0.39
  -3  13   4    3.04    0.28
   3  13  -4    3.45    0.38
  -3 -13  -4    3.15    0.23
  13   3  -4    2.66    0.37
   3  13  -4    2.94    0.21
  -3 -13  -2   17.06    0.84
  13   3  -2   13.81    0.58
   3 -13   2   15.72    0.72
   3  13  -2   16.49    0.67
  -3  13   2   16.42    0.66
  13  -3   2   16.81    0.83
  -3  13   2   14.87    0.62
  13   3  -2   15.96    0.85
  13   3  -2   16.25    0.68
  -3  13   2   17.45    0.88
   3  13  -2   16.07    0.82
  -3 -13  -2   16.65    0.51
   3 -13   0   78.56    2.26
  13   3   0   76.00    1.91
   3 -13   0   77.70    2.08
   3  13   0   78.23    1.95
 -13  -3   0   76.13    1.99
  -3  13   0   80.70    2.00
  -3  13   0   86.91    2.41
  13   3   0   83.04    2.08
  13   3   0   79.06    2.34
  13  -3   0   79.55    2.31
   3  13   0   78.48    2.32
   3  13   2   16.11    0.86
 -13  -3   2   15.19    0.53
   3 -13  -2   16.48    0.82
   3 -13  -2   16.18    0.64
  13   3   2   15.66    0.55
  13  -3  -2   15.84    0.50
   3  13   2   16.25    0.50
  -3  13  -2   16.88    0.61
   3  13   2   16.10    0.81
  -3  13  -2   15.86    0.85
  13   3   2   16.89    0.87
  13  -3  -2   17.63    0.86
   3 -13  -4    3.08    0.37
   3  13   4    2.86    0.40
   3 -13  -4    3.16    0.24
   3  13   4    2.52    0.34
  13   3   4    2.44    0.35
   3 -13  -4    2.36    0.15
  13  -3  -4    2.05    0.34
   3 -13  -6   36.40    1.40
   3 -13  -6   35.61    0.98
   3  13   6   35.12    1.37
  13   3   6   35.72    1.36
  13   3   6   35.05    1.40
   3  13   6   34.49    1.41
  -3  13  -6   36.35    1.34
  13  -3  -6   37.25    1.41
   3 -13  -6   36.35    1.01
   3 -13  -8    7.89    0.62
   3 -13  -8    8.16    0.33
   3  13   8    8.64    0.68
   3  13   8    8.11    0.64
  13   3   8    7.57    0.60
 -13  -3   8    7.32    0.62
  -3  13  -8    7.76    0.59
  13  -3  -8    8.08    0.63
  -3  13 -10    2.07    0.34
   3 -13 -10    2.02    0.36
  13   3  10    1.91    0.31
   3  13  10    2.28    0.38
  13   3  10    2.14    0.38
  -3  13 -10    2.32    0.33
 -13  -3  10    2.14    0.36
  13  -3 -10    1.97    0.34
  13   3  12    5.71    0.50
   3 -13 -12    4.51    0.53
  -3  13 -12    5.75    0.54
 -13  -3  12    5.95    0.55
  13   3  12    5.82    0.57
   3  13  12    5.44    0.58
  -3  13 -12    5.56    0.53
  13  -3 -12    5.09    0.56
  -3  13 -14    0.78    0.28
  -3  13 -14    0.84    0.28
  13   3  14    1.07    0.34
  13   3  14    1.10    0.26
 -13  -3  14    1.83    0.36
   3 -13 -14    0.80    0.30
  13  -3 -14    0.95    0.31
  13   3  16    1.13    0.28
   3 -13 -16    0.86    0.31
  -3  13 -16    1.38    0.36
  13   3  16    1.22    0.37
 -13  -3  16    0.79    0.26
  13  -3 -16    1.05    0.33
  13   3  18    1.25    0.30
  -3  13 -18    1.31    0.38
 -13  -3  18    0.96    0.26
   3 -13 -18    1.37    0.40
  13  -3 -18    2.00    0.43
  13   3  20    0.23    0.21
  -3  13 -20    0.95    0.35
 -13   3 -20   -0.17    0.28
   3 -13 -20   -0.09    0.28
  13  -3 -20    0.95    0.40
   4  13 -19    1.38    0.37
  -4 -13 -19    0.98    0.37
 -13  -4 -19    1.21    0.33
  13  -4  19    1.28    0.34
  13   4 -19    1.04    0.38
  13   4 -19    1.71    0.43
   4  13 -17    0.33    0.25
  13  -4  17    0.34    0.24
  -4 -13 -17    0.17    0.23
   4  13 -17    0.19    0.30
 -13  -4 -17    0.43    0.23
  13   4 -17    0.73    0.31
   4  13 -17    0.01    0.17
   4  13 -15    0.24    0.20
   4 -13  15    0.56    0.31
  13  -4  15    0.56    0.27
   4  13 -15    0.00    0.22
  -4 -13 -15   -0.05    0.25
 -13   4  15    0.60    0.22
  13   4 -15   -0.02    0.29
   4  13 -15    0.17    0.17
 -13  -4 -13    0.58    0.17
   4  13 -13    0.43    0.22
   4 -13  13    0.50    0.23
   4  13 -13    0.58    0.28
  13  -4  13    0.66    0.22
  -4 -13 -13    0.73    0.26
  13   4 -13    1.14    0.34
   4  13 -13    0.31    0.16
   4  13 -11    1.20    0.25
 -13  -4 -11    1.38    0.20
   4  13 -11    1.27    0.33
   4 -13  11    1.54    0.34
  13  -4  11    1.26    0.28
  13  -4  11    1.23    0.22
  -4 -13 -11    1.61    0.33
  -4  13  11    1.44    0.34
  13   4 -11    1.36    0.29
   4  13 -11    1.74    0.23
 -13  -4  -9    5.90    0.36
  -4 -13  -9    5.95    0.55
   4 -13   9    5.84    0.55
  -4  13   9    6.38    0.58
  13  -4   9    6.38    0.58
  13  -4   9    5.99    0.48
  13  -4   9    7.40    0.49
   4  13  -9    6.25    0.59
  13   4  -9    6.26    0.56
   4  13  -9    6.33    0.41
   4  13  -9    6.30    0.45
  13   4  -9    7.21    0.57
   4  13  -7    1.12    0.29
   4  13  -7    0.73    0.17
  -4 -13  -7    0.77    0.24
   4 -13   7    1.05    0.27
  13  -4   7    1.19    0.30
  13   4  -7    1.14    0.27
  13  -4   7    0.82    0.25
  13  -4   7    0.65    0.20
   4  13  -7    0.69    0.21
  13  -4   7    0.64    0.23
  -4  13   7    0.88    0.29
 -13   4   7    0.83    0.13
   4  13  -7    0.52    0.13
  13   4  -7    0.69    0.24
  -4 -13  -5   15.24    0.83
   4 -13   5   14.18    0.77
  13  -4   5   16.13    0.67
 -13   4   5   15.68    0.55
   4  13  -5   14.74    0.87
  13  -4   5   14.42    0.80
 -13   4   5   14.93    0.57
   4  13  -5   14.80    0.79
   4  13  -5   15.12    0.56
  -4 -13  -5   15.22    0.62
  13   4  -5   15.30    0.85
   4  13  -5   15.57    0.57
  13   4  -5   15.99    0.76
  -4  13   5   15.93    0.86
  -4 -13  -3   30.67    1.25
  13  -4   3   33.71    1.06
   4 -13   3   33.00    1.20
   4  13  -3   33.00    0.92
  13  -4   3   33.68    1.28
   4  13  -3   31.37    0.81
  13   4  -3   35.56    1.18
  13   4  -3   35.78    1.35
  -4  13   3   35.40    1.35
   4  13  -3   35.06    1.30
  -4 -13  -3   33.56    0.98
  13   4  -1   13.39    0.56
   4 -13   1   13.93    0.67
   4  13  -1   12.96    0.58
 -13  -4  -1   13.00    0.61
  -4  13   1   13.61    0.56
  -4  13   1   14.23    0.81
  13   4  -1   13.62    0.65
  13  -4   1   13.05    0.74
  13   4  -1   13.26    0.78
  -4 -13  -1   13.92    0.51
   4  13  -1   14.50    0.78
   4  13   1   13.18    0.76
 -13  -4   1   12.93    0.52
   4 -13  -1   13.57    0.71
  13   4   1   12.81    0.52
   4 -13  -1   13.30    0.60
   4  13   1   13.23    0.49
  -4  13  -1   13.38    0.49
  -4  13  -1   14.54    0.80
  13   4   1   14.34    0.79
  13  -4  -1   14.36    0.76
  13  -4  -3   32.80    0.92
   4 -13  -3   33.48    1.25
   4  13   3   33.04    1.31
   4 -13  -3   32.53    1.03
  13   4   3   30.02    0.95
  -4  13  -3   33.05    0.90
   4  13   3   34.96    1.30
  13   4   3   32.73    1.31
 -13  -4   3   31.28    0.84
   4 -13  -3   31.83    0.77
  13  -4  -3   33.15    1.27
   4 -13  -5   14.32    0.82
   4  13   5   16.86    0.91
   4 -13  -5   15.53    0.60
   4  13   5   15.87    0.86
  13   4   5   15.49    0.85
  13   4   5   17.10    0.90
  -4  13  -5   15.09    0.78
  13  -4  -5   15.46    0.84
   4 -13  -5   15.99    0.54
  -4  13  -7    0.64    0.21
   4 -13  -7    1.36    0.31
   4 -13  -7    1.06    0.15
   4  13   7    0.89    0.32
   4  13   7    0.87    0.29
  13   4   7    0.63    0.27
  13   4   7    1.58    0.35
 -13  -4   7    1.21    0.35
  13  -4  -7    0.48    0.25
   4 -13  -7    0.82    0.16
   4 -13  -9    6.87    0.60
  13   4   9    6.82    0.54
   4  13   9    5.82    0.58
 -13  -4   9    6.74    0.60
  13   4   9    6.86    0.59
  -4  13  -9    6.09    0.53
  13  -4  -9    6.68    0.58
   4 -13  -9    7.06    0.44
   4 -13 -11    1.45    0.35
  -4  13 -11    1.76    0.32
  13   4  11    1.53    0.28
   4  13  11    1.50    0.36
  13   4  11    1.46    0.34
  -4  13 -11    1.68    0.33
 -13  -4  11    1.51    0.33
  13  -4 -11    1.43    0.31
   4 -13 -13    0.49    0.24
  13   4  13    0.56    0.21
  -4  13 -13    0.42    0.23
   4  13  13    0.86    0.32
  13   4  13    0.31    0.23
  -4  13 -13    0.54    0.24
 -13  -4  13    0.44    0.24
  13  -4 -13    1.08    0.32
  13   4  15    0.33    0.18
   4 -13 -15    0.06    0.21
  -4  13 -15    0.04    0.23
  13   4  15    0.12    0.25
 -13  -4  15    0.06    0.21
  13  -4 -15    0.48    0.29
  13   4  17    0.18    0.16
  -4  13 -17    0.06    0.24
 -13  -4  17    0.09    0.20
   4 -13 -17    0.28    0.26
  13  -4 -17    0.39    0.24
  13   4  19    0.98    0.27
   4 -13 -19    0.86    0.32
  -4  13 -19    1.18    0.39
  13  -4 -19    0.80    0.33
   5  13 -18   -0.15    0.26
  -5 -13 -18    0.61    0.32
   5 -13  18    0.60    0.31
  13  -5  18    0.13    0.23
   5  13 -18    0.45    0.30
 -13  -5 -18    0.10    0.23
  13   5 -18    0.21    0.27
  13   5 -18    0.14    0.27
   5  13 -18   -0.18    0.20
   5  13 -16    0.16    0.22
   5 -13  16    0.08    0.23
  -5 -13 -16    0.02    0.21
   5  13 -16    0.21    0.35
 -13  -5 -16    0.64    0.27
  13  -5  16    0.00    0.24
  13   5 -16    0.30    0.22
   5  13 -16   -0.08    0.17
   5  13 -14    0.74    0.25
   5 -13  14    0.93    0.31
 -13  -5 -14    1.16    0.23
  13  -5  14    0.91    0.31
   5  13 -14    1.54    0.40
  -5 -13 -14    1.72    0.36
  13   5 -14    0.86    0.30
   5  13 -14    0.66    0.22
   5  13 -12    0.28    0.18
 -13  -5 -12    0.18    0.13
   5 -13  12    0.20    0.20
  -5 -13 -12    0.12    0.19
   5  13 -12    0.57    0.27
  13  -5  12    0.08    0.20
  -5  13  12    0.37    0.23
  13   5 -12    0.65    0.25
   5  13 -12    0.33    0.17
   5  13 -10    0.84    0.19
 -13  -5 -10    0.63    0.16
   5  13 -10    0.95    0.28
  -5 -13 -10    0.70    0.26
   5 -13  10    0.65    0.22
  13  -5  10    0.80    0.26
  13  -5  10    0.77    0.21
  13   5 -10    0.93    0.30
   5  13 -10    1.13    0.25
  -5  13  10    1.28    0.32
  13   5 -10    1.02    0.30
   5  13 -10    1.06    0.20
 -13  -5  -8    7.30    0.42
  -5  13   8    7.57    0.60
  -5 -13  -8    6.47    0.57
 -13   5   8    7.22    0.38
   5 -13   8    7.73    0.60
  13  -5   8    8.23    0.65
  13  -5   8    7.20    0.54
  13  -5   8    7.91    0.47
   5  13  -8    7.29    0.54
   5  13  -8    7.57    0.64
   5  13  -8    7.91    0.46
  13   5  -8    8.22    0.65
   5  13  -8    7.21    0.44
  13   5  -8    8.03    0.60
  -5 -13  -6    2.08    0.35
  13   5  -6    2.24    0.31
   5 -13   6    2.29    0.34
  13  -5   6    2.68    0.38
  13  -5   6    2.52    0.36
  -5  13   6    2.94    0.39
  -5 -13  -6    2.57    0.34
  13  -5   6    2.11    0.23
  13  -5   6    1.80    0.31
   5  13  -6    1.88    0.30
 -13   5   6    2.73    0.24
   5  13  -6    2.41    0.23
  13   5  -6    2.34    0.37
   5  13  -6    2.19    0.22
   5  13  -6    2.17    0.37
   5  13  -4    0.17    0.19
  -5  13   4    0.33    0.25
  -5 -13  -4    0.39    0.22
   5 -13   4   -0.02    0.15
  13   5  -4    0.22    0.20
  13  -5   4    0.24    0.22
 -13   5   4    0.30    0.13
  -5 -13  -4    0.29    0.22
  13  -5   4    0.34    0.13
  13  -5   4    0.22    0.20
   5  13  -4    0.19    0.11
   5  13  -4    0.04    0.06
  13   5  -4    0.05    0.20
  -5 -13  -4    0.23    0.12
  -5 -13  -2    8.52    0.60
   5 -13   2    9.20    0.56
  -5 -13  -2    9.69    0.68
  13  -5   2    9.44    0.45
   5  13  -2    9.00    0.42
  13  -5   2    8.39    0.59
  13   5  -2    9.83    0.58
  -5  13   2    9.84    0.66
  13   5  -2    8.68    0.63
  -5 -13  -2    8.96    0.44
   5  13  -2    9.82    0.63
 -13  -5   0   22.87    0.83
   5  13   0   21.67    1.02
   5 -13   0   23.71    0.99
  13   5   0   22.55    0.82
   5 -13   0   24.83    0.94
  -5  13   0   26.55    1.13
  13   5   0   24.98    1.09
  13  -5   0   23.06    1.01
   5  13   0   22.98    0.81
  -5 -13   0   24.37    0.77
   5 -13  -2    8.46    0.57
  13  -5  -2    8.88    0.35
   5  13   2    8.43    0.62
  13   5   2    7.86    0.43
   5  13   2    9.08    0.37
   5 -13  -2    8.53    0.48
   5  13   2    8.96    0.62
   5 -13  -2    8.17    0.28
  13   5   2    8.96    0.64
  13  -5  -2    9.02    0.60
 -13  -5   2    8.61    0.39
   5  13   4    0.38    0.26
   5 -13  -4    0.21    0.18
   5 -13  -4    0.16    0.12
  13  -5  -4    0.13    0.12
  13   5   4    0.11    0.12
  -5  13  -4    0.14    0.05
   5  13   4   -0.26    0.26
  13   5   4   -0.01    0.21
  13  -5  -4    0.51    0.22
   5 -13  -4    0.28    0.08
  -5  13  -4    0.11    0.15
  -5  13  -6    2.36    0.32
   5 -13  -6    2.18    0.35
   5 -13  -6    2.10    0.22
   5  13   6    2.10    0.36
   5  13   6    3.10    0.41
  13   5   6    2.53    0.38
  13   5   6    2.08    0.35
 -13  -5   6    2.70    0.41
  13  -5  -6    2.47    0.37
   5 -13  -6    2.06    0.20
   5 -13  -8    7.71    0.62
 -13  -5   8    6.95    0.62
   5  13   8    7.82    0.65
  13   5   8    7.72    0.63
  -5  13  -8    6.86    0.53
  13  -5  -8    8.09    0.62
   5 -13  -8    7.70    0.44
   5 -13 -10    0.90    0.20
   5 -13 -10    0.76    0.26
  13   5  10    0.98    0.22
   5  13  10    1.24    0.34
  13   5  10    1.24    0.31
 -13  -5  10    0.34    0.26
  -5  13 -10    1.15    0.27
  13  -5 -10    0.84    0.27
   5 -13 -12    0.58    0.27
  13   5  12    0.44    0.20
  -5  13 -12    0.33    0.20
   5  13  12    0.01    0.25
  13   5  12    0.52    0.27
 -13  -5  12    0.43    0.25
  13  -5 -12   -0.10    0.22
   5 -13 -14    0.27    0.21
  13   5  14    0.46    0.21
   5  13  14    1.64    0.37
  -5  13 -14    1.00    0.31
  13   5  14    0.86    0.34
  -5  13 -14    0.55    0.26
 -13  -5  14    1.20    0.30
  13  -5 -14    0.76    0.32
  13   5  16    0.38    0.20
   5 -13 -16   -0.03    0.27
  13   5  16    0.19    0.23
  -5  13 -16   -0.12    0.25
 -13  -5  16    0.04    0.20
  13  -5 -16   -0.15    0.28
   5 -13 -18    0.00    0.28
  -5  13 -18   -0.05    0.28
 -13  -5  18    0.55    0.24
  13  -5 -18    0.39    0.28
   6  13 -19    0.38    0.28
   6 -13  19    0.60    0.30
  13  -6  19   -0.05    0.29
  -6 -13 -19    0.89    0.34
 -13  -6 -19    0.15    0.23
  13   6 -19    0.09    0.24
  13   6 -19    0.03    0.23
   6  13 -17    1.02    0.31
  -6 -13 -17    0.99    0.33
   6 -13  17    1.53    0.40
  13  -6  17    0.80    0.31
   6  13 -17    0.99    0.40
 -13  -6 -17    0.97    0.28
  13   6 -17    1.10    0.35
  13   6 -17    0.86    0.33
   6  13 -17    1.14    0.28
   6  13 -15    1.13    0.30
  -6 -13 -15    1.24    0.34
   6 -13  15    2.54    0.46
 -13  -6 -15    1.83    0.29
  13  -6  15    2.36    0.43
   6  13 -15    2.53    0.49
 -13  -6 -15    2.50    0.37
  13   6 -15    1.63    0.38
   6  13 -15    1.97    0.32
   6  13 -13    0.28    0.20
  13  -6  13    0.55    0.27
   6 -13  13    0.32    0.23
  -6 -13 -13    1.18    0.32
   6  13 -13    0.59    0.30
 -13  -6 -13    0.37    0.16
  13   6 -13    0.82    0.31
   6  13 -13    0.67    0.21
 -13  -6 -11    0.21    0.14
   6  13 -11   -0.10    0.25
  -6 -13 -11    0.17    0.21
   6 -13  11    0.43    0.25
  13  -6  11   -0.06    0.22
  -6  13  11    0.24    0.23
  13   6 -11    0.10    0.22
  -6 -13 -11    0.10    0.13
   6  13 -11    0.22    0.16
  13   6 -11    0.47    0.28
   6  13 -11    0.01    0.13
   6  13 -11    0.37    0.18
   6  13  -9    0.24    0.24
 -13  -6  -9    0.25    0.13
  -6  13   9    0.32    0.21
  -6 -13  -9   -0.15    0.20
  13  -6   9    0.44    0.20
   6 -13   9   -0.07    0.18
  13  -6   9   -0.05    0.19
  13   6  -9   -0.11    0.24
  -6 -13  -9    0.25    0.19
   6  13  -9   -0.18    0.17
 -13   6   9    0.16    0.13
  13   6  -9    0.27    0.24
   6  13  -9    0.18    0.13
   6  13  -9    0.15    0.13
 -13  -6  -7    3.95    0.32
   6  13  -7    3.84    0.50
  -6 -13  -7    3.31    0.43
  13   6  -7    4.63    0.46
   6 -13   7    3.54    0.42
  13  -6   7    4.46    0.49
  13  -6   7    4.12    0.43
  -6 -13  -7    3.96    0.42
  -6  13   7    3.68    0.42
   6  13  -7    4.19    0.41
   6  13  -7    3.71    0.30
   6  13  -7    4.11    0.33
  13   6  -7    3.47    0.42
 -13   6   7    4.29    0.32
   6  13  -5    3.75    0.40
  -6 -13  -5    3.54    0.42
  13   6  -5    3.98    0.41
  -6  13   5    3.80    0.44
   6 -13   5    3.94    0.42
  13  -6   5    3.38    0.42
  13  -6   5    3.89    0.27
  -6 -13  -5    4.23    0.44
  13  -6   5    3.42    0.40
 -13   6   5    4.06    0.31
   6  13  -5    3.91    0.25
   6  13  -5    3.51    0.29
  13   6  -5    4.09    0.44
   6  13  -5    4.16    0.47
  -6 -13  -3    4.15    0.44
   6 -13   3    4.29    0.41
   6  13  -3    3.93    0.42
  13  -6   3    3.80    0.47
  13  -6   3    4.42    0.28
  -6 -13  -3    3.93    0.45
  13  -6   3    4.71    0.43
   6  13  -3    4.42    0.32
  13   6  -3    5.10    0.45
  -6  13   3    4.94    0.48
  13   6  -3    5.02    0.48
  -6 -13  -3    4.65    0.34
   6  13  -1    1.44    0.21
   6 -13   1    1.82    0.27
  13  -6   1    2.19    0.38
  -6 -13  -1    1.92    0.37
  -6  13   1    1.42    0.31
   6  13  -1    1.92    0.21
  13  -6   1    1.79    0.30
  13   6  -1    1.87    0.32
   6  13  -1    2.41    0.34
  13   6  -1    2.33    0.31
  -6 -13  -1    1.63    0.20
  13  -6  -1    1.56    0.13
   6 -13  -1    1.06    0.23
   6 -13  -1    1.27    0.23
   6  13   1    1.49    0.31
  13  -6  -1    2.30    0.39
  -6 -13   1    1.84    0.35
   6 -13  -1    1.71    0.12
  13   6   1    1.83    0.33
  13  -6  -1    2.09    0.32
 -13  -6   1    1.34    0.18
  -6 -13   1    1.54    0.20
  13  -6  -3    4.80    0.29
   6 -13  -3    4.19    0.41
   6  13   3    5.23    0.51
  -6 -13   3    3.76    0.46
   6  13   3    5.36    0.51
  13   6   3    5.01    0.49
 -13  -6   3    3.57    0.48
   6 -13  -3    4.84    0.37
   6 -13  -3    4.69    0.25
  13  -6  -3    4.81    0.45
  -6  13  -5    3.58    0.35
  13  -6  -5    4.15    0.32
   6 -13  -5    3.29    0.31
   6 -13  -5    4.06    0.41
   6  13   5    3.69    0.45
  13   6   5    4.38    0.46
   6  13   5    3.87    0.46
 -13  -6   5    3.38    0.46
  13   6   5    3.78    0.44
   6 -13  -5    4.05    0.28
  13  -6  -5    3.37    0.40
   6 -13  -7    5.07    0.50
  -6  13  -7    3.85    0.38
  13  -6  -7    3.52    0.36
   6  13   7    3.36    0.43
  13   6   7    3.69    0.48
  13   6   7    3.56    0.45
 -13  -6   7    4.17    0.52
   6 -13  -7    3.39    0.29
  13  -6  -7    3.59    0.42
   6 -13  -9    0.30    0.21
  -6  13  -9   -0.30    0.21
  13   6   9    0.06    0.14
   6  13   9    0.33    0.26
  13   6   9    0.04    0.23
 -13  -6   9    0.30    0.28
  13  -6  -9    0.21    0.21
   6 -13  -9    0.20    0.15
   6 -13 -11    0.02    0.20
  13   6  11    0.36    0.16
  -6  13 -11    0.12    0.18
   6  13  11    0.20    0.25
  13   6  11    0.22    0.22
 -13  -6  11    0.07    0.22
  13  -6 -11    0.16    0.23
   6 -13 -11    0.08    0.14
   6 -13 -13    0.59    0.23
   6 -13 -13    0.53    0.27
  13   6  13    0.36    0.17
  -6  13 -13    0.88    0.26
   6  13  13    0.40    0.30
  13   6  13    0.57    0.31
 -13  -6  13    0.99    0.30
  13  -6 -13    0.76    0.30
   6 -13 -15    2.00    0.35
  13   6  15    2.11    0.33
   6 -13 -15    2.21    0.45
   6  13  15    1.97    0.44
  13   6  15    1.60    0.38
 -13  -6  15    1.42    0.33
  -6  13 -15    1.98    0.41
  13  -6 -15    1.61    0.38
   6 -13 -17    1.75    0.43
  13  -6 -17    1.20    0.37
  13   6  17    0.79    0.36
  -6  13 -17    1.15    0.37
 -13  -6  17    0.97    0.31
  13  -6 -17    0.67    0.31
   6 -13 -19    0.26    0.33
  13  -6 -19   -0.17    0.31
  -6  13 -19   -0.19    0.25
 -13  -6  19   -0.29    0.26
  13  -6 -19    0.67    0.35
   7 -13  18    0.94    0.34
  13  -7  18    1.44    0.40
  -7 -13 -18    1.14    0.33
 -13  -7 -18    0.65    0.26
   7  13 -18    0.69    0.40
  13   7 -18    0.69    0.31
  13   7 -18    0.80    0.33
   7  13 -18    1.03    0.28
   7  13 -18    1.07    0.31
   7 -13  16    0.40    0.26
  -7 -13 -16    0.35    0.25
  13  -7  16    0.08    0.24
   7  13 -16   -0.08    0.35
 -13  -7 -16    0.67    0.26
  13   7 -16    0.48    0.24
   7  13 -16    0.08    0.18
   7  13 -16    0.50    0.24
 -13  -7 -14    1.11    0.25
  13  -7  14    1.26    0.35
   7  13 -14    1.00    0.34
  -7 -13 -14    1.14    0.32
 -13  -7 -14    1.85    0.31
   7 -13  14    1.25    0.35
   7  13 -14    1.28    0.26
  13   7 -14    1.22    0.34
   7  13 -14    1.94    0.34
   7  13 -14    1.08    0.26
  -7  13  12    1.84    0.36
 -13  -7 -12    1.72    0.27
  -7 -13 -12    2.36    0.39
   7 -13  12    1.25    0.35
   7  13 -12    1.68    0.40
  13  -7  12    2.01    0.39
  13   7 -12    1.78    0.38
  -7 -13 -12    1.63    0.26
   7  13 -12    1.51    0.27
  13   7 -12    1.83    0.38
   7  13 -12    1.82    0.29
   7  13 -12    1.20    0.26
 -13  -7 -10    2.65    0.31
   7  13 -10    2.87    0.44
   7 -13  10    2.89    0.43
 -13   7  10    3.34    0.31
  13  -7  10    3.14    0.44
  13   7 -10    2.84    0.43
  -7  13  10    3.49    0.43
  -7 -13 -10    2.54    0.35
  -7 -13 -10    3.04    0.43
   7  13 -10    2.81    0.34
  13   7 -10    3.04    0.41
   7  13 -10    3.01    0.34
   7  13 -10    2.91    0.32
 -13   7   8    5.47    0.38
  -7  13   8    4.86    0.50
 -13  -7  -8    4.26    0.37
   7  13  -8    5.68    0.60
  -7 -13  -8    4.00    0.45
   7 -13   8    4.34    0.49
  13  -7   8    4.60    0.52
  13  -7   8    4.74    0.47
  -7 -13  -8    4.78    0.46
   7  13  -8    4.60    0.35
   7  13  -8    5.27    0.45
   7  13  -8    4.59    0.39
  13   7  -8    5.74    0.54
  13   7  -8    4.45    0.50
  -7 -13  -6    0.39    0.22
   7  13  -6    0.65    0.21
  13   7  -6    0.76    0.26
   7 -13   6    0.55    0.20
  -7  13   6    1.12    0.31
  13  -7   6    0.67    0.25
  13  -7   6    0.42    0.23
  -7 -13  -6    0.86    0.25
  13  -7   6    1.40    0.30
   7  13  -6    0.84    0.14
   7  13  -6    0.69    0.17
  13   7  -6    0.92    0.27
 -13   7   6    0.87    0.18
   7  13  -6    0.77    0.28
  -7 -13  -4   16.50    0.88
   7 -13   4   16.23    0.86
  13  -7   4   17.28    0.94
  -7 -13  -4   15.56    0.90
  13  -7   4   16.87    0.55
 -13   7   4   18.81    0.77
  13  -7   4   17.13    0.86
   7  13  -4   17.28    0.72
  13   7  -4   17.35    0.88
  13   7  -4   18.23    0.94
  -7  13   4   18.19    0.94
   7  13  -4   17.49    0.86
   7  13  -2   10.95    0.67
   7 -13   2    9.46    0.62
  13  -7   2    9.11    0.69
  -7 -13  -2   10.01    0.72
  13  -7   2   10.36    0.40
   7  13  -2   10.76    0.54
  13  -7   2    8.93    0.60
  13   7  -2   11.91    0.69
  -7  13   2   11.54    0.74
  13   7  -2   10.85    0.72
   7 -13   0    7.70    0.53
   7 -13   0    7.35    0.51
  13  -7   0    6.36    0.61
  -7 -13   0    7.85    0.64
   7  13   0    8.74    0.61
  -7  13   0    8.65    0.63
   7 -13   0    8.01    0.33
   7  13   0    7.77    0.46
  13   7   0    7.17    0.58
  13  -7   0    7.64    0.55
 -13  -7   0    7.42    0.44
  -7 -13   0    7.79    0.45
   7 -13  -2   10.93    0.65
  13  -7  -2   10.84    0.44
   7 -13  -2   10.36    0.59
   7  13   2   10.59    0.69
  13  -7  -2   10.02    0.77
  -7 -13   2    9.41    0.72
 -13  -7   2    9.09    0.73
 -13  -7   2    9.44    0.46
  13   7   2   10.80    0.71
   7 -13  -2   10.31    0.42
  13  -7  -2   11.03    0.67
  -7 -13   2   10.13    0.52
   7 -13  -4   16.66    0.84
  13  -7  -4   17.92    0.68
   7 -13  -4   16.33    0.76
  13  -7  -4   13.84    0.95
  -7 -13   4   16.20    0.97
   7  13   4   16.51    0.91
 -13  -7   4   16.61    0.98
   7  13   4   15.86    0.92
  13   7   4   17.38    0.93
  -7  13  -4   16.10    0.75
   7 -13  -4   17.61    0.63
  13  -7  -4   16.53    0.86
  -7  13  -6    0.87    0.20
   7 -13  -6    1.16    0.28
  13  -7  -6    0.91    0.19
  13  -7  -6    0.65    0.31
  -7 -13   6    0.60    0.29
   7  13   6    0.53    0.28
  13   7   6    0.76    0.29
 -13  -7   6    0.78    0.32
  13   7   6    0.91    0.28
  13  -7  -6    0.65    0.23
   7 -13  -6    0.79    0.15
   7 -13  -8    5.44    0.53
  13  -7  -8    5.09    0.43
  13  -7  -8    4.70    0.57
   7  13   8    5.21    0.55
  13   7   8    5.04    0.55
 -13  -7   8    4.69    0.53
  13  -7  -8    5.45    0.51
  -7  13  -8    4.79    0.43
   7 -13  -8    4.51    0.36
   7 -13 -10    3.12    0.44
  13   7  10    3.17    0.35
  13  -7 -10    3.55    0.42
  -7  13 -10    2.49    0.33
  13  -7 -10    2.86    0.49
   7  13  10    2.76    0.45
  13   7  10    2.95    0.45
 -13  -7  10    2.66    0.44
  13  -7 -10    2.99    0.41
   7 -13 -10    3.05    0.33
   7 -13 -12    1.15    0.32
  13   7  12    1.87    0.28
  13  -7 -12    1.01    0.34
  -7  13 -12    1.64    0.32
   7  13  12    1.26    0.35
  13   7  12    1.04    0.33
 -13  -7  12    1.00    0.29
  13  -7 -12    1.05    0.29
   7 -13 -12    1.75    0.31
   7 -13 -14    1.47    0.29
   7 -13 -14    1.33    0.35
  13   7  14    1.46    0.25
  13  -7 -14    1.41    0.41
   7  13  14    1.04    0.39
  13   7  14    1.43    0.37
 -13  -7  14    1.38    0.34
  13  -7 -14    1.39    0.37
   7 -13 -16    0.83    0.30
  13  -7 -16   -0.28    0.30
   7  13  16   -0.21    0.30
  13   7  16    0.54    0.32
 -13  -7  16    0.56    0.27
  -7  13 -16    0.57    0.32
   7 -13 -16    0.66    0.27
  13  -7 -16    0.35    0.29
   7 -13 -18    1.12    0.34
   7 -13 -18    1.62    0.42
  13  -7 -18    0.97    0.38
 -13  -7  18    0.95    0.30
  13   7  18    1.81    0.44
  -7  13 -18    1.11    0.38
  13  -7 -18    1.56    0.40
  13  -8  17    0.71    0.31
   8 -13  17    0.79    0.35
  -8 -13 -17    1.47    0.40
   8  13 -17    1.34    0.43
  13   8 -17    1.80    0.40
   8  13 -17    1.23    0.32
  13   8 -17    0.62    0.32
   8  13 -17    2.24    0.38
 -13  -8 -15    0.86    0.26
  -8 -13 -15    1.04    0.31
   8 -13  15    0.74    0.27
  13  -8  15    0.50    0.24
   8  13 -15    0.26    0.31
 -13  -8 -15    0.33    0.19
   8  13 -15    0.56    0.23
  13   8 -15    0.36    0.24
   8  13 -15    0.84    0.24
  -8  13  13    1.43    0.33
 -13  -8 -13    1.35    0.27
  -8 -13 -13    1.34    0.32
   8 -13  13    1.69    0.38
   8  13 -13    1.64    0.39
  13  -8  13    1.30    0.36
  13   8 -13    1.69    0.40
 -13  -8 -13    1.36    0.27
   8  13 -13    1.17    0.26
  13   8 -13    1.36    0.33
   8  13 -13    1.44    0.28
 -13  -8 -11    0.78    0.21
  -8 -13 -11    0.82    0.28
   8  13 -11    1.26    0.35
   8 -13  11    0.55    0.24
  13  -8  11    0.47    0.21
  13   8 -11    0.49    0.28
  -8 -13 -11    0.71    0.23
   8  13 -11    0.42    0.16
   8  13 -11    0.83    0.22
  13   8 -11    1.05    0.30
   8  13 -11    0.79    0.22
  -8  13  11    0.52    0.24
   8  13  -9    0.25    0.15
 -13  -8  -9    0.28    0.15
   8  13  -9   -0.16    0.24
  -8 -13  -9   -0.12    0.20
 -13   8   9    0.22    0.15
   8 -13   9    0.09    0.18
  13   8  -9    0.33    0.25
  13  -8   9    0.12    0.19
  -8 -13  -9    0.27    0.21
   8  13  -9    0.28    0.15
   8  13  -9    0.01    0.15
  13   8  -9    0.32    0.24
  -8  13   9    0.06    0.21
  -8 -13  -7    7.85    0.61
   8 -13   7    7.13    0.60
  13  -8   7    7.63    0.66
  13  -8   7    6.85    0.59
  -8 -13  -7    7.88    0.62
   8  13  -7    8.19    0.70
   8  13  -7    7.73    0.51
  13   8  -7    8.13    0.64
  13   8  -7    7.59    0.62
   8  13  -7    7.62    0.55
 -13   8   7    7.70    0.49
  -8  13   7    8.16    0.62
  -8 -13  -5   14.75    0.84
   8 -13   5   15.48    0.87
  13  -8   5   17.30    0.98
  13  -8   5   16.41    0.92
  13  -8   5   17.11    0.86
   8  13  -5   17.14    0.99
  -8 -13  -5   15.83    0.90
 -13   8   5   17.28    0.76
  13   8  -5   16.21    0.90
   8  13  -5   15.77    0.73
  13   8  -5   14.88    0.86
  -8  13   5   15.47    0.87
   8  13  -5   16.65    0.83
   8  13  -3    5.47    0.48
  13  -8   3    6.06    0.57
  -8 -13  -3    6.16    0.58
 -13   8   3    6.28    0.46
   8 -13   3    6.10    0.51
  13  -8   3    5.70    0.48
  13   8  -3    6.33    0.55
   8  13  -3    5.65    0.40
 -13  -8  -3    4.60    0.54
  -8  13   3    6.26    0.54
  13   8  -3    5.57    0.52
   8  13  -1   14.28    0.80
   8 -13   1   13.71    0.75
  13  -8   1   12.35    0.84
  -8 -13  -1   12.28    0.83
 -13  -8  -1   12.43    0.86
  -8  13   1   15.28    0.86
   8  13  -1   14.94    0.68
  13  -8   1   13.39    0.74
  13   8  -1   13.26    0.80
  13  -8  -1   13.61    0.51
   8 -13  -1   13.77    0.71
   8 -13  -1   13.47    0.73
   8  13   1   14.21    0.80
  13  -8  -1   11.65    0.84
  -8 -13   1   12.26    0.83
 -13  -8   1   15.08    0.93
   8  13   1   12.77    0.65
   8 -13  -1   14.60    0.54
  13   8   1   14.27    0.83
  13  -8  -1   13.04    0.73
   8 -13  -3    5.58    0.46
  13  -8  -3    5.56    0.34
   8 -13  -3    5.78    0.46
  -8 -13   3    5.35    0.56
  13  -8  -3    4.40    0.56
   8  13   3    5.87    0.56
  13   8   3    5.55    0.53
 -13  -8   3    5.01    0.56
  -8  13  -3    5.17    0.39
   8 -13  -3    5.85    0.34
  13  -8  -3    5.42    0.47
   8 -13  -5   14.91    0.81
  13  -8  -5   15.23    0.69
  13  -8  -5   14.05    0.95
  -8 -13   5   15.09    0.95
 -13  -8   5   14.56    0.94
   8  13   5   16.57    0.97
  13   8   5   15.91    0.94
  13   8   5   15.92    0.90
  -8  13  -5   15.88    0.73
  13  -8  -5   15.55    0.83
   8 -13  -5   16.45    0.66
   8 -13  -7    7.34    0.57
  13  -8  -7    7.19    0.50
  13  -8  -7    7.44    0.70
  -8 -13   7    6.50    0.64
 -13  -8   7    7.03    0.66
   8  13   7    8.16    0.68
  13   8   7    8.64    0.70
  13  -8  -7    7.37    0.58
  -8  13  -7    7.36    0.50
   8 -13  -7    6.93    0.45
   8 -13  -9    0.08    0.19
  13  -8  -9    0.05    0.17
  13   8   9    0.18    0.15
  -8  13  -9    0.18    0.19
  13  -8  -9   -0.05    0.24
   8  13   9   -0.01    0.22
  13   8   9    0.59    0.28
 -13  -8   9    0.13    0.26
  13  -8  -9    0.24    0.22
   8 -13  -9    0.09    0.13
   8 -13 -11    0.40    0.25
  13   8  11    0.85    0.22
  13  -8 -11    0.42    0.24
  13  -8 -11    0.51    0.31
  -8  13 -11    0.39    0.18
   8  13  11    0.49    0.28
  13   8  11    0.98    0.32
 -13  -8  11    0.51    0.31
  13  -8 -11    0.54    0.26
   8 -13 -11    0.55    0.18
   8 -13 -13    0.90    0.28
  13  -8 -13    1.35    0.33
  13  -8 -13    1.27    0.37
   8  13  13    1.11    0.39
  13   8  13    1.16    0.36
 -13  -8  13    1.17    0.34
  13  -8 -13    0.74    0.28
   8 -13 -13    1.24    0.28
   8 -13 -15    0.76    0.31
  13  -8 -15    0.16    0.28
   8  13  15    0.88    0.35
 -13  -8  15    0.80    0.30
  13   8  15    0.67    0.33
  13  -8 -15    0.53    0.28
   8 -13 -15    0.92    0.29
   8 -13 -17    1.24    0.32
   8 -13 -17    0.79    0.31
  13  -8 -17    1.67    0.42
 -13  -8  17    1.27    0.33
   8  13  17    1.17    0.43
  13   8  17    1.79    0.42
  -8  13 -17    0.82    0.34
  13  -8 -17    1.38    0.36
 -13  -9 -16   -0.08    0.18
  -9 -13 -16   -0.04    0.22
   9 -13  16    0.02    0.27
  13  -9  16   -0.17    0.24
   9  13 -16    0.04    0.33
   9  13 -16   -0.01    0.22
  13   9 -16   -0.13    0.24
   9  13 -16   -0.20    0.23
 -13  -9 -14    0.75    0.24
  -9 -13 -14    0.46    0.24
   9 -13  14    0.15    0.23
  13  -9  14    0.33    0.25
   9  13 -14    0.25    0.30
  13   9 -14    0.79    0.31
 -13  -9 -14    0.45    0.27
   9  13 -14    0.26    0.18
  13   9 -14    0.46    0.22
   9  13 -14    0.47    0.20
 -13  -9 -12    0.50    0.19
  -9 -13 -12    0.25    0.18
   9  13 -12    0.13    0.26
   9 -13  12    0.34    0.25
  13  -9  12    0.20    0.20
  13   9 -12    0.03    0.23
  -9 -13 -12    0.32    0.19
 -13  -9 -12    0.34    0.17
  -9  13  12    0.46    0.24
 -13  -9 -12    0.67    0.26
   9  13 -12    0.15    0.17
  13   9 -12    0.32    0.24
   9  13 -12    0.17    0.19
 -13  -9 -10    0.77    0.22
  -9 -13 -10    1.43    0.31
   9  13 -10    1.18    0.35
   9  13 -10    0.73    0.20
   9 -13  10    1.45    0.34
  13   9 -10    1.44    0.37
  13  -9  10    0.92    0.29
  -9  13  10    1.58    0.33
  -9 -13 -10    1.14    0.29
 -13   9  10    1.41    0.25
 -13  -9 -10    1.48    0.35
   9  13 -10    0.95    0.24
  13   9 -10    1.11    0.28
 -13  -9  -8    1.72    0.28
   9  13  -8    1.67    0.37
  -9 -13  -8    2.04    0.34
  13   9  -8    2.22    0.40
   9 -13   8    1.80    0.34
  13  -9   8    1.98    0.37
   9  13  -8    1.93    0.28
  -9 -13  -8    2.06    0.35
 -13   9   8    1.95    0.28
  -9  13   8    2.65    0.38
 -13  -9  -8    2.11    0.39
   9  13  -8    1.67    0.27
  13   9  -8    2.13    0.36
   9  13  -6    8.75    0.59
  -9 -13  -6    8.28    0.62
  13  -9   6    8.73    0.70
  13  -9   6    8.93    0.68
  -9 -13  -6    8.56    0.67
   9 -13   6    9.30    0.69
 -13  -9  -6    7.85    0.70
   9  13  -6    8.20    0.71
  13   9  -6    9.29    0.69
   9  13  -6    8.53    0.55
  13   9  -6    9.18    0.67
 -13   9   6    9.52    0.58
  -9  13   6    8.76    0.66
  13   9  -4    4.51    0.49
   9  13  -4    3.68    0.40
   9 -13   4    3.66    0.42
  13  -9   4    3.72    0.47
  13  -9   4    4.17    0.50
  -9 -13  -4    4.51    0.50
 -13   9   4    4.20    0.39
  13  -9   4    3.56    0.38
 -13  -9  -4    2.58    0.42
   9  13  -4    4.07    0.37
  13   9  -4    4.18    0.46
  -9  13   4    3.91    0.43
   9  13  -4    4.30    0.51
   9  13  -2    5.03    0.46
   9 -13   2    5.37    0.49
  13  -9   2    5.27    0.57
  -9 -13  -2    4.95    0.54
  -9  13   2    5.99    0.54
  13  -9   2    4.29    0.42
   9  13  -2    5.53    0.42
 -13  -9  -2    3.76    0.50
  13   9  -2    4.45    0.46
  13   9  -2    4.99    0.49
   9 -13   0   15.81    0.83
   9  13   0   16.68    0.86
  13  -9   0   15.12    0.96
  -9 -13   0   13.42    0.89
 -13  -9   0   14.65    0.95
   9 -13   0   15.30    0.60
   9  13   0   15.25    0.74
  13   9   0   14.53    0.84
  13  -9   0   15.59    0.80
   9 -13  -2    4.34    0.41
  13  -9  -2    4.64    0.31
   9 -13  -2    5.55    0.47
  13  -9  -2    5.18    0.57
  -9 -13   2    4.84    0.53
   9  13   2    5.62    0.44
  13   9   2    5.72    0.53
 -13  -9   2    5.25    0.57
  -9  13  -2    5.54    0.38
   9 -13  -2    4.84    0.33
  13  -9  -2    4.70    0.44
   9 -13  -4    4.35    0.42
  13  -9  -4    3.19    0.29
  13  -9  -4    4.40    0.55
  -9 -13   4    3.57    0.49
   9  13   4    3.43    0.49
 -13  -9   4    3.38    0.48
  13   9   4    3.86    0.45
  -9  13  -4    3.85    0.33
   9 -13  -4    3.71    0.30
  13  -9  -4    3.49    0.39
   9 -13  -6    8.39    0.61
  13  -9  -6    9.16    0.54
  13  -9  -6    8.43    0.75
  -9 -13   6    8.10    0.73
 -13  -9   6    8.46    0.73
   9  13   6    8.85    0.73
  13   9   6    9.45    0.74
  13   9   6    8.17    0.65
  13  -9  -6    8.99    0.62
   9 -13  -6    9.06    0.52
  -9  13  -6    8.26    0.50
   9 -13  -8    2.59    0.37
  13  -9  -8    1.43    0.25
  -9  13  -8    1.59    0.26
  13  -9  -8    1.02    0.36
  -9 -13   8    2.15    0.41
   9  13   8    1.57    0.37
  13   9   8    1.51    0.36
 -13  -9   8    2.09    0.39
  13  -9  -8    1.81    0.32
   9 -13  -8    1.95    0.26
   9 -13 -10    0.86    0.29
  13  -9 -10    1.39    0.30
  13   9  10    1.03    0.21
  13  -9 -10    1.74    0.44
   9  13  10    1.18    0.34
  13   9  10    1.44    0.36
 -13  -9  10    0.91    0.32
  13  -9 -10    1.29    0.30
   9 -13 -10    1.45    0.26
   9 -13 -12    0.57    0.28
  13  -9 -12    0.30    0.20
  13  -9 -12    0.19    0.23
   9  13  12   -0.07    0.26
  13   9  12    0.31    0.31
 -13  -9  12    0.05    0.22
  13  -9 -12    0.21    0.23
   9 -13 -12    0.15    0.17
   9 -13 -14    0.52    0.26
  13  -9 -14    0.75    0.29
  13  -9 -14    0.62    0.29
 -13  -9  14    0.27    0.25
   9  13  14    0.52    0.29
  13   9  14    1.20    0.42
  13  -9 -14    0.78    0.32
   9 -13 -14    0.25    0.20
   9 -13 -16   -0.09    0.29
  13  -9 -16    0.27    0.29
  13  -9 -16    0.18    0.28
 -13  -9  16   -0.13    0.28
   9  13  16    0.72    0.39
  13   9  16    0.14    0.26
  13  -9 -16    0.19    0.24
   9 -13 -16   -0.20    0.25
 -13 -10 -15    0.12    0.19
 -10 -13 -15    0.50    0.25
  10 -13  15    0.62    0.33
  13 -10  15    0.56    0.30
  10  13 -15    0.31    0.27
  13  10 -15    0.56    0.36
  13  10 -15    0.63    0.31
  10  13 -15    0.91    0.28
 -13 -10 -13    0.10    0.18
 -10 -13 -13    0.03    0.18
  10 -13  13    0.32    0.28
  13 -10  13   -0.10    0.21
 -10  13  13   -0.03    0.22
  13  10 -13    0.56    0.31
 -13 -10 -13    0.30    0.23
  10  13 -13   -0.23    0.31
  13  10 -13    0.15    0.20
  10  13 -13    0.27    0.22
 -13 -10 -11   -0.08    0.19
 -10 -13 -11    0.40    0.23
  10  13 -11    0.96    0.34
  10 -13  11    0.75    0.28
  13 -10  11    0.93    0.32
  13  10 -11    1.49    0.37
 -10 -13 -11    0.40    0.22
 -13 -10 -11    0.58    0.26
 -10  13  11    0.71    0.26
  10  13 -11    0.90    0.26
  13  10 -11    0.57    0.24
 -13 -10  -9    0.49    0.20
 -10 -13  -9    0.82    0.27
  10  13  -9    1.36    0.40
  13  10  -9    0.93    0.31
  10 -13   9    1.01    0.29
  13 -10   9    0.43    0.22
 -10 -13  -9    0.59    0.24
 -13 -10  -9    0.33    0.24
  10  13  -9    0.60    0.20
  13  10  -9    1.07    0.27
 -10  13   9    0.56    0.24
 -13  10   9    0.65    0.21
  10  13  -7    0.20    0.17
  10  13  -7    0.68    0.30
 -10 -13  -7    0.15    0.18
  13  10  -7    0.65    0.28
 -13  10   7   -0.05    0.15
  10 -13   7    0.32    0.20
  13 -10   7    0.29    0.19
 -10  13   7    0.20    0.21
 -10 -13  -7    0.37    0.24
 -13 -10  -7    0.39    0.25
  10  13  -7    0.24    0.17
  13  10  -7    0.27    0.23
  10  13  -5    7.30    0.53
  10 -13   5    7.30    0.62
  13 -10   5    7.51    0.66
  13 -10   5    7.13    0.63
 -10 -13  -5    7.38    0.66
 -13 -10  -5    6.45    0.65
  13 -10   5    8.01    0.56
  10  13  -5    7.86    0.68
  13  10  -5    8.77    0.69
  10  13  -5    7.81    0.55
 -13  10   5    7.17    0.53
  13  10  -5    7.72    0.62
 -10  13   5    7.40    0.60
  10 -13   3    1.67    0.31
  13 -10   3    1.78    0.34
  13 -10   3    2.08    0.40
  10  13  -3    1.40    0.26
 -13  10   3    2.07    0.31
 -10 -13  -3    1.63    0.36
 -13 -10  -3    2.50    0.45
  13 -10   3    1.99    0.30
 -10  13   3    2.14    0.34
  10  13  -3    1.89    0.27
  13  10  -3    2.04    0.34
  13  10  -3    1.95    0.35
  10 -13   1    3.20    0.39
  13 -10   1    2.97    0.45
 -10  13   1    2.83    0.38
 -10 -13  -1    3.37    0.47
  10 -13   1    2.88    0.27
 -13 -10  -1    2.60    0.43
  10  13  -1    3.19    0.39
  10  13  -1    3.58    0.36
  13 -10   1    3.06    0.35
  13  10  -1    2.97    0.39
  13 -10  -1    2.89    0.25
  10 -13  -1    3.20    0.33
  10 -13  -1    3.11    0.38
  13 -10  -1    3.00    0.47
 -10 -13   1    2.82    0.44
 -10  13  -1    2.63    0.26
 -13 -10   1    2.66    0.44
  10 -13  -1    3.04    0.27
  10  13   1    2.71    0.34
  13  10   1    2.97    0.39
  13 -10  -1    3.78    0.38
  10 -13  -3    1.84    0.29
  13 -10  -3    1.90    0.23
  13 -10  -3    1.19    0.36
 -10 -13   3    1.45    0.39
 -13 -10   3    1.70    0.38
  13  10   3    2.02    0.36
  10 -13  -3    1.80    0.23
  13 -10  -3    1.78    0.29
  10 -13  -5    7.54    0.56
  13 -10  -5    6.92    0.47
  13 -10  -5    6.20    0.65
 -10 -13   5    7.73    0.69
 -13 -10   5    8.57    0.73
  10  13   5    6.98    0.65
  13  10   5    7.67    0.68
  13  10   5    8.34    0.64
  10 -13  -5    7.39    0.47
  13 -10  -5    7.27    0.55
  10 -13  -7    0.36    0.20
  13 -10  -7    0.26    0.17
  10 -13  -7    0.43    0.25
  13 -10  -7    0.16    0.24
 -10 -13   7    0.18    0.27
  10  13   7    0.07    0.26
  13  10   7    0.61    0.29
 -13 -10   7    0.56    0.29
  13 -10  -7    0.21    0.18
  10 -13  -7    0.32    0.16
  10 -13  -9    0.98    0.27
  13 -10  -9    1.27    0.38
  13 -10  -9    1.06    0.25
  10 -13  -9    0.34    0.28
 -10 -13   9    0.61    0.29
  10  13   9    0.25    0.28
 -13 -10   9    0.36    0.26
  13  10   9    0.18    0.24
  13 -10  -9    0.87    0.25
  10 -13  -9    0.66    0.23
  10 -13 -11    0.56    0.25
  13 -10 -11    0.33    0.20
  10 -13 -11    0.62    0.32
  13 -10 -11    0.33    0.25
 -10 -13  11    0.96    0.36
 -13 -10  11    0.05    0.26
  10  13  11    0.47    0.31
  13  10  11    0.77    0.34
  13 -10 -11    0.41    0.22
  10 -13 -11    0.43    0.20
  13 -10 -13   -0.01    0.21
  13 -10 -13    0.29    0.29
  10 -13 -13   -0.16    0.22
 -13 -10  13    0.60    0.33
  10  13  13   -0.24    0.32
  13  10  13   -0.26    0.30
  10 -13 -13    0.52    0.31
  13 -10 -13    0.21    0.21
  10 -13 -13    0.03    0.18
  10 -13 -15   -0.03    0.23
  10 -13 -15    0.36    0.27
  13 -10 -15   -0.08    0.30
  13 -10 -15    0.98    0.30
 -13 -10  15    0.05    0.23
  10  13  15    0.02    0.26
  13  10  15    1.21    0.41
  13 -10 -15    1.06    0.31
  10 -13 -15    1.15    0.31
 -13 -11 -14    1.80    0.34
 -11 -13 -14    1.84    0.36
  11 -13  14    1.48    0.37
  13 -11  14    1.55    0.38
  11  13 -14    1.58    0.39
  13  11 -14    1.96    0.46
  13  11 -14    1.18    0.34
  11  13 -14    1.71    0.34
 -13 -11 -12    0.58    0.22
 -11 -13 -12    0.33    0.22
  11  13 -12    1.04    0.38
  11 -13  12    0.16    0.21
  13 -11  12    0.40    0.26
  13  11 -12    0.50    0.26
 -11  13  12    0.64    0.26
 -11 -13 -12    0.62    0.23
 -13 -11 -12    0.52    0.24
  11  13 -12    0.79    0.26
  13  11 -12    0.71    0.26
 -13 -11 -10    3.02    0.39
 -11 -13 -10    3.04    0.42
  11  13 -10    3.92    0.53
 -11  13  10    3.76    0.45
  13  11 -10    3.79    0.53
 -13  11  10    3.43    0.39
 -11 -13 -10    3.49    0.45
 -13 -11 -10    3.42    0.47
  13 -11  10    3.71    0.52
  11 -13  10    3.93    0.50
  11  13 -10    3.99    0.44
  13  11 -10    3.54    0.46
 -13 -11  -8    0.49    0.20
 -11 -13  -8    0.64    0.23
  11  13  -8    0.57    0.28
  13  11  -8    0.12    0.25
  11 -13   8    0.79    0.26
  13 -11   8    0.30    0.23
 -13  11   8    0.62    0.21
 -11 -13  -8    0.89    0.29
 -11  13   8    0.31    0.22
 -13 -11  -8    0.65    0.26
  11  13  -8    0.89    0.24
  13  11  -8    0.61    0.21
  11  13  -6    0.45    0.26
 -13  11   6    0.38    0.18
 -11 -13  -6    0.77    0.26
  13  11  -6    0.23    0.24
  11  13  -6    0.71    0.21
 -11  13   6    0.40    0.21
  11 -13   6    0.75    0.26
  13 -11   6   -0.21    0.23
 -11 -13  -6    0.43    0.25
 -13 -11  -6    0.09    0.23
  11  13  -6    0.55    0.20
  13  11  -6    0.84    0.26
  13  11  -4    5.38    0.57
  11 -13   4    4.64    0.50
  13 -11   4    4.14    0.48
  11  13  -4    4.58    0.44
  13 -11   4    4.63    0.54
 -11 -13  -4    4.14    0.53
  13 -11   4    4.42    0.41
 -13 -11  -4    5.04    0.57
 -13  11   4    5.13    0.48
  11  13  -4    4.36    0.43
  13  11  -4    4.82    0.48
 -11  13   4    4.74    0.49
  11  13  -4    4.60    0.54
  11 -13   2    0.31    0.20
  13 -11   2    0.34    0.23
  13 -11   2    0.65    0.28
 -13  11   2    0.33    0.18
 -11 -13  -2    0.29    0.24
 -11  13   2    0.41    0.21
 -13 -11  -2    0.38    0.28
  11 -13   2    0.21    0.11
  13 -11   2    0.40    0.18
  11  13  -2    0.23    0.15
  13  11  -2    0.57    0.24
  13  11  -2    0.46    0.24
  11 -13   0    1.63    0.31
  13 -11   0    2.30    0.40
 -11 -13   0    2.36    0.41
 -13 -11   0    1.73    0.38
  11 -13   0    2.30    0.26
  11  13   0    2.35    0.32
  13  11   0    2.17    0.35
  13 -11   0    2.41    0.31
  13 -11  -2    0.19    0.12
  11 -13  -2    0.32    0.16
  11 -13  -2    0.25    0.18
  13 -11  -2    0.27    0.25
 -11 -13   2   -0.04    0.22
 -13 -11   2    0.23    0.26
  11  13   2    0.37    0.19
  13  11   2    0.01    0.17
  11 -13  -2    0.33    0.14
  13 -11  -2    0.28    0.15
  11 -13  -4    4.88    0.59
  11 -13  -4    4.48    0.41
  13 -11  -4    4.70    0.39
  13 -11  -4    4.20    0.54
 -11 -13   4    4.84    0.58
 -13 -11   4    4.59    0.57
  11  13   4    4.18    0.53
  13  11   4    4.56    0.57
  13  11   4    4.31    0.48
  11 -13  -4    4.72    0.38
  13 -11  -4    4.93    0.45
  13 -11  -6    0.55    0.19
  11 -13  -6    0.47    0.30
  13 -11  -6    0.16    0.27
 -11 -13   6    0.00    0.26
 -13 -11   6    0.64    0.28
  11  13   6    0.49    0.30
  13  11   6    0.56    0.30
  11 -13  -6    0.56    0.19
  13 -11  -6    0.24    0.17
  11 -13  -6    0.20    0.16
  11 -13  -8    0.56    0.22
  11 -13  -8    0.44    0.27
  13 -11  -8    0.95    0.32
 -11 -13   8    0.97    0.37
 -13 -11   8    0.56    0.29
  11  13   8    0.04    0.25
  13  11   8    0.38    0.26
  13 -11  -8    0.95    0.25
  11 -13  -8    0.86    0.22
  13 -11  -8    0.66    0.21
  11 -13 -10    3.26    0.42
  13 -11 -10    3.16    0.40
  11 -13 -10    3.20    0.51
  13 -11 -10    2.85    0.48
 -11 -13  10    3.26    0.51
 -13 -11  10    2.59    0.47
  11  13  10    2.97    0.49
  13  11  10    4.47    0.61
  13 -11 -10    3.92    0.46
  11 -13 -10    3.57    0.41
  11 -13 -12    0.62    0.27
  13 -11 -12    0.72    0.25
  11 -13 -12    0.59    0.31
  13 -11 -12    0.55    0.31
 -11 -13  12    0.80    0.30
 -13 -11  12    0.59    0.27
  11  13  12    0.94    0.37
  13  11  12    1.48    0.45
  13 -11 -12    0.53    0.26
  11 -13 -12    0.83    0.23
  13 -11 -14    1.46    0.36
  11 -13 -14    1.83    0.39
  11 -13 -14    1.81    0.44
  13 -11 -14    1.54    0.40
 -13 -11  14    1.13    0.35
  11  13  14    1.26    0.39
  13  11  14    1.26    0.39
  13 -11 -14    1.14    0.30
  11 -13 -14    1.68    0.34
 -13 -12 -13    0.42    0.26
 -12 -13 -13    0.57    0.25
  12 -13  13   -0.16    0.28
  13 -12  13    0.36    0.24
  13  12 -13    0.49    0.31
 -13 -12 -13    0.17    0.23
  12  13 -13   -0.44    0.39
  12  13 -13    0.41    0.22
  13  12 -13    0.76    0.27
 -13 -12 -11    1.23    0.27
 -12 -13 -11    1.04    0.28
  12  13 -11    1.68    0.38
  13  12 -11    0.97    0.35
  12 -13  11    1.37    0.36
  13 -12  11    0.83    0.30
 -12 -13 -11    0.98    0.31
 -13 -12 -11    1.12    0.31
 -12  13  11    1.26    0.29
  12  13 -11    1.04    0.26
  13  12 -11    1.08    0.31
 -13 -12  -9    8.59    0.65
 -12 -13  -9    7.88    0.64
 -12  13   9   11.13    0.74
 -13  12   9    9.54    0.66
  12 -13   9    8.28    0.75
  13 -12   9    9.29    0.79
 -12 -13  -9    8.68    0.73
 -13 -12  -9    9.89    0.78
  12  13  -9    8.95    0.67
  12  13  -9    8.91    0.80
  13  12  -9    8.68    0.69
  13  12  -9    8.89    0.79
  12  13  -7    0.56    0.26
  13  12  -7    1.02    0.34
  12 -13   7    0.63    0.26
  13 -12   7    0.74    0.28
 -13  12   7    0.75    0.25
 -12  13   7    0.12    0.20
 -12 -13  -7    0.91    0.30
 -13 -12  -7    0.43    0.28
  12  13  -7    1.15    0.26
  13  12  -7    0.64    0.23
  12  13  -5    0.81    0.29
  13  12  -5    0.53    0.29
  12 -13   5    0.77    0.26
  13 -12   5    0.61    0.24
 -12 -13  -5    0.79    0.30
 -13 -12  -5    0.85    0.28
  12  13  -5    0.61    0.22
  13  12  -5    0.66    0.23
 -13  12   5    1.19    0.27
 -12  13   5    0.67    0.25
  12 -13   3    6.78    0.61
  13 -12   3    6.18    0.60
 -12 -13  -3    7.40    0.69
 -13 -12  -3    6.40    0.68
  13 -12   3    5.49    0.46
  12  13  -3    7.15    0.67
 -13  12   3    7.55    0.59
  13  12  -3    7.65    0.68
 -12  13   3    6.91    0.59
  12  13  -3    6.42    0.53
  13  12  -3    6.77    0.57
  12 -13   1    0.07    0.17
  13 -12   1   -0.06    0.21
  13 -12   1   -0.03    0.23
 -12  13   1    0.00    0.18
 -12 -13  -1    0.27    0.25
 -13 -12  -1    0.14    0.24
  12 -13   1    0.27    0.16
  13 -12   1    0.09    0.15
  12  13  -1    0.19    0.19
  13  12  -1    0.21    0.20
  12 -13  -1   -0.02    0.18
  13 -12  -1    0.35    0.27
 -12 -13   1    0.40    0.24
 -13 -12   1   -0.17    0.25
  12  13   1   -0.05    0.17
  13  12   1   -0.04    0.20
  12 -13  -1   -0.15    0.15
  13 -12  -1   -0.10    0.13
  12 -13  -3    6.74    0.49
  12 -13  -3    7.33    0.73
 -12 -13   3    7.99    0.73
 -13 -12   3    6.42    0.67
  13 -12  -3    5.72    0.64
  12  13   3    7.28    0.58
  13  12   3    7.52    0.61
  12 -13  -3    7.97    0.52
  13 -12  -3    7.11    0.53
  12 -13  -5    0.73    0.21
  13 -12  -5    0.88    0.21
  12 -13  -5    0.55    0.31
  13 -12  -5    0.30    0.26
 -12 -13   5    0.62    0.29
 -13 -12   5    0.34    0.25
  12  13   5    0.89    0.32
  13  12   5    0.35    0.25
  12 -13  -5    1.00    0.21
  13 -12  -5    0.94    0.23
  12 -13  -7    0.92    0.24
  13 -12  -7    0.70    0.21
  12 -13  -7    0.32    0.26
  13 -12  -7    0.95    0.34
 -12 -13   7    0.73    0.32
 -13 -12   7    0.73    0.29
  12  13   7    0.95    0.33
  13  12   7    1.13    0.34
  13 -12  -7    0.81    0.23
  12 -13  -7    0.99    0.23
  12 -13  -9    9.51    0.69
  13 -12  -9   10.09    0.69
  12 -13  -9    8.54    0.81
  13 -12  -9    8.74    0.81
 -12 -13   9    9.43    0.85
 -13 -12   9   10.01    0.87
  12  13   9    9.00    0.80
  13  12   9    9.28    0.83
  13 -12  -9    8.90    0.65
  12 -13  -9    9.11    0.63
  12 -13 -11    1.06    0.28
  13 -12 -11    1.26    0.28
  12 -13 -11    1.49    0.38
  13 -12 -11    1.09    0.38
 -12 -13  11    0.80    0.31
 -13 -12  11    1.55    0.41
  12  13  11    1.48    0.45
  13  12  11    1.29    0.43
  13 -12 -11    1.38    0.30
  12 -13 -11    1.08    0.28
  12 -13 -13    0.51    0.24
  13 -12 -13    0.67    0.26
  12 -13 -13    0.74    0.35
  13 -12 -13    0.26    0.29
 -12 -13  13    0.20    0.24
 -13 -12  13    0.51    0.33
  12  13  13   -0.04    0.30
  13  12  13    0.41    0.30
  13 -12 -13    0.48    0.24
  12 -13 -13    0.55    0.26
 -13 -13 -12    2.89    0.43
  13 -13  12    3.48    0.53
  13  13 -12    3.18    0.55
 -13 -13 -12    3.69    0.49
  13  13 -12    4.26    0.51
 -13 -13 -10    5.21    0.54
 -13  13  10    5.67    0.54
  13  13 -10    6.53    0.71
  13 -13  10    5.79    0.66
 -13 -13 -10    5.27    0.58
  13  13 -10    4.66    0.52
  13  13  -8    4.22    0.56
  13 -13   8    2.96    0.45
 -13  13   8    2.80    0.39
 -13 -13  -8    2.73    0.45
  13  13  -8    2.40    0.38
  13  13  -6    2.81    0.45
 -13  13   6    2.57    0.37
  13 -13   6    2.96    0.46
 -13 -13  -6    2.06    0.41
  13  13  -6    3.05    0.41
  13 -13   4    5.32    0.57
 -13 -13  -4    4.82    0.60
  13  13  -4    4.95    0.50
 -13  13   4    6.40    0.57
  13  13  -4    5.86    0.61
  13 -13   2    2.73    0.43
 -13  13   2    2.83    0.40
 -13 -13  -2    3.60    0.53
  13  13  -2    2.51    0.36
  13  13  -2    3.25    0.47
  13 -13   0    0.35    0.22
 -13 -13   0    0.72    0.30
  13  13   0    0.51    0.21
  13 -13   0    0.38    0.16
  13 -13  -2    2.86    0.49
 -13 -13   2    2.73    0.49
  13  13   2    3.59    0.43
  13 -13  -2    2.81    0.33
  13 -13  -4    4.78    0.61
 -13 -13   4    5.33    0.63
  13  13   4    5.96    0.65
  13 -13  -4    5.36    0.45
  13 -13  -6    2.40    0.32
  13 -13  -6    2.94    0.51
 -13 -13   6    2.91    0.49
  13  13   6    3.09    0.51
  13 -13  -6    2.32    0.33
  13 -13  -8    2.58    0.36
  13 -13  -8    3.86    0.56
 -13 -13   8    2.88    0.49
  13  13   8    3.12    0.52
  13 -13  -8    2.53    0.36
  13 -13 -10    5.49    0.53
  13 -13 -10    5.33    0.67
 -13 -13  10    4.90    0.62
  13  13  10    4.26    0.61
  13 -13 -10    5.00    0.50
  13 -13 -12    3.54    0.47
  13 -13 -12    3.25    0.53
 -13 -13  12    3.57    0.57
  13  13  12    4.33    0.62
  13 -13 -12    3.54    0.46
  14   0   0   -0.03    0.09
   0  14   0    0.24    0.18
  14   0   0   -0.11    0.22
   0  14   0    0.17    0.20
  14   0  -2    0.06    0.06
   0 -14  -2    0.04    0.17
  14   0   2    0.01    0.07
   0  14   2    0.00    0.18
   0  14   2   -0.07    0.16
   0  14  -2   -0.10    0.10
   0  14  -2    0.08    0.20
  14   0   2    0.09    0.20
  14   0  -2   -0.11    0.20
   0  14   2    0.10    0.06
   0 -14  -4    7.98    0.61
   0  14  -4    8.58    0.45
   0  14   4    8.87    0.58
  14   0   4    8.86    0.56
   0  14  -4    8.95    0.64
  14   0   4    9.24    0.36
  14   0   4    8.53    0.64
   0 -14  -4    7.90    0.27
  14   0  -4    8.10    0.62
   0  14   4    9.25    0.67
   0  14   6   -0.14    0.23
   0  14  -6    0.11    0.15
   0  14   6    0.10    0.20
  14   0   6   -0.35    0.21
  14   0   6   -0.02    0.21
  14   0  -6   -0.35    0.23
   0 -14  -6    0.11    0.21
   0  14  -6   -0.03    0.20
   0  14  -8    1.33    0.29
   0 -14  -8    1.56    0.33
   0  14  -8    1.33    0.24
   0  14   8    0.91    0.24
  14   0   8    1.00    0.27
  14   0   8    0.80    0.25
  14   0  -8    0.86    0.27
   0  14   8    1.72    0.36
   0 -14 -10    9.73    0.76
   0  14 -10   10.23    0.66
  14   0  10   11.34    0.75
   0  14  10   11.16    0.79
  14   0  10    9.96    0.68
   0  14 -10    9.95    0.74
  14   0 -10   10.41    0.78
   0 -14 -12    2.07    0.39
   0  14 -12    1.39    0.35
  14   0  12    1.99    0.34
   0  14 -12    1.77    0.33
  14   0  12    1.53    0.31
 -14   0  12    1.25    0.31
  14   0 -12    2.33    0.40
   0 -14 -14    0.95    0.33
  14   0  14    0.69    0.24
   0  14 -14    1.08    0.37
   0  14 -14    1.03    0.30
  14   0  14    1.00    0.32
 -14   0  14    1.28    0.30
  14   0 -14    0.91    0.31
  14   0  16    0.46    0.25
   0 -14 -16    0.56    0.32
   0  14 -16    1.00    0.30
   0  14 -16    0.94    0.37
 -14   0  16    0.41    0.22
  14   0 -16    0.37    0.27
  14   0  18    0.05    0.19
   0 -14 -18   -0.03    0.27
   0  14 -18   -0.21    0.27
  14   0 -18    0.25    0.25
   1  14 -19    0.44    0.27
  14  -1  19    0.56    0.26
  -1 -14 -19    0.38    0.28
 -14  -1 -19    1.38    0.36
  14   1 -19    1.01    0.38
   1  14 -17    0.60    0.28
  14  -1  17    0.65    0.26
  -1 -14 -17    0.77    0.34
   1  14 -17    1.46    0.40
  14   1 -17    1.08    0.37
  -1 -14 -15    2.63    0.47
  14  -1  15    2.31    0.39
   1  14 -15    2.56    0.46
 -14   1  15    2.23    0.34
   1  14 -15    2.39    0.39
  14   1 -15    2.12    0.42
  -1 -14 -13    0.28    0.27
   1  14 -13    0.94    0.32
  14  -1  13    0.44    0.21
   1  14 -13    0.64    0.25
  14  -1  13    0.76    0.27
 -14   1  13    0.73    0.25
  14   1 -13    0.53    0.29
   1  14 -11    2.55    0.42
  -1 -14 -11    3.58    0.47
  14  -1  11    3.15    0.43
   1  14 -11    3.72    0.41
  -1  14  11    3.08    0.45
  14  -1  11    3.30    0.35
  14  -1  11    3.75    0.43
  14   1 -11    3.03    0.45
   1  14  -9    9.50    0.59
  -1 -14  -9    9.06    0.70
  -1  14   9   10.95    0.76
  14  -1   9   11.00    0.74
  14  -1   9   10.08    0.66
   1  14  -9    8.41    0.69
  14   1  -9    8.81    0.71
   1  14  -7    1.99    0.33
  -1  14   7    1.53    0.34
   1  14  -7    2.03    0.26
  -1  14   7    1.61    0.30
  14  -1   7    1.84    0.29
  14  -1   7    1.50    0.32
  -1 -14  -7    1.56    0.33
  14   1  -7    2.05    0.36
  -1  14   5    7.94    0.63
  -1 -14  -5    6.62    0.56
   1  14  -5    6.29    0.39
   1 -14   5    6.03    0.48
  -1  14   5    7.32    0.52
  14  -1   5    7.14    0.51
   1  14  -5    5.71    0.52
  14  -1   5    6.01    0.24
   1  14  -5    6.08    0.54
  14  -1   5    6.60    0.56
  14   1  -5    5.73    0.53
  -1 -14  -3    2.82    0.38
   1  14  -3    2.64    0.22
   1 -14   3    3.14    0.32
  -1  14   3    3.54    0.43
  -1  14   3    3.24    0.34
   1  14  -3    3.02    0.39
  14  -1   3    3.55    0.42
  14   1  -3    3.17    0.41
  14   1  -3    3.63    0.31
  14   1  -1    4.59    0.24
  -1 -14  -1    4.48    0.45
   1 -14   1    4.78    0.35
   1  14  -1    4.81    0.24
   1  14  -1    4.83    0.33
  -1  14   1    4.69    0.37
  14  -1   1    5.41    0.50
  -1  14   1    4.75    0.28
  14   1  -1    4.51    0.47
  14   1  -1    5.49    0.33
   1  14  -1    4.44    0.46
  -1  14   1    4.88    0.48
   1 -14  -1    5.51    0.49
  14  -1  -1    4.39    0.17
   1 -14  -1    4.70    0.31
   1  14   1    4.75    0.47
   1  14   1    4.30    0.17
   1  14   1    5.01    0.43
  -1  14  -1    5.67    0.39
  -1  14  -1    5.29    0.51
  14   1   1    5.73    0.50
  14  -1  -1    5.29    0.50
  14   1   1    5.33    0.30
   1 -14  -3    3.46    0.40
 -14  -1   3    2.81    0.18
  -1  14  -3    3.22    0.41
   1  14   3    3.17    0.40
   1  14   3    3.50    0.38
  14   1   3    2.92    0.22
  14   1   3    3.11    0.41
  14  -1  -3    3.59    0.42
   1 -14  -5    6.89    0.56
   1  14   5    6.98    0.59
  -1  14  -5    6.68    0.44
   1  14   5    5.60    0.49
  14   1   5    6.29    0.51
  -1  14  -5    6.21    0.53
  14   1   5    7.05    0.58
  14  -1  -5    6.00    0.55
   1 -14  -5    6.41    0.27
  -1  14  -7    1.44    0.29
   1 -14  -7    1.40    0.31
   1  14   7    1.53    0.31
  -1  14  -7    1.73    0.26
  14   1   7    1.88    0.32
  14   1   7    1.54    0.31
   1  14   7    1.34    0.31
  14  -1  -7    1.76    0.35
   1 -14  -9    9.89    0.73
  -1  14  -9    9.80    0.63
  14   1   9   10.46    0.71
   1  14   9   10.48    0.76
   1  14   9   10.26    0.72
  14   1   9   11.06    0.72
  -1  14  -9    9.94    0.72
  14  -1  -9   10.01    0.73
  -1  14 -11    3.12    0.41
   1 -14 -11    3.09    0.44
  14   1  11    2.81    0.39
  -1  14 -11    2.68    0.37
   1  14  11    2.68    0.41
  14   1  11    3.23    0.41
 -14  -1  11    3.24    0.43
  14  -1 -11    2.84    0.45
   1 -14 -13    0.33    0.25
  14   1  13    0.47    0.20
  -1  14 -13    1.02    0.32
  -1  14 -13    0.42    0.24
  14   1  13    0.54    0.28
 -14  -1  13    0.63    0.26
  14  -1 -13    0.90    0.32
   1 -14 -15    2.56    0.45
  14   1  15    1.96    0.35
  -1  14 -15    2.23    0.39
  -1  14 -15    2.68    0.46
  14   1  15    2.21    0.42
 -14  -1  15    2.12    0.36
  14  -1 -15    2.38    0.47
  14   1  17    0.33    0.22
  -1  14 -17    0.80    0.29
  -1  14 -17    1.14    0.37
 -14  -1  17    0.91    0.27
   1 -14 -17    1.72    0.42
  14  -1 -17    0.91    0.31
  14   1  19    0.95    0.32
   1 -14 -19    0.13    0.26
  -1  14 -19    0.10    0.29
 -14   1 -19    0.60    0.30
  14  -1 -19    0.89    0.35
   2  14 -18    0.00    0.24
  -2 -14 -18    0.19    0.25
  14  -2  18    0.11    0.20
   2  14 -18    0.26    0.33
 -14  -2 -18    0.51    0.25
  14   2 -18   -0.28    0.25
   2  14 -16   -0.06    0.22
  -2 -14 -16    0.92    0.35
  14  -2  16    0.94    0.31
   2  14 -16    0.81    0.37
  14   2 -16    0.50    0.29
   2  14 -14    2.94    0.41
  -2 -14 -14    3.09    0.48
  14  -2  14    2.55    0.41
   2  14 -14    2.79    0.47
 -14   2  14    2.39    0.36
  14   2 -14    3.40    0.51
   2  14 -12    0.91    0.31
  -2 -14 -12    1.56    0.37
   2  14 -12    1.56    0.30
  14  -2  12    1.76    0.35
  14  -2  12    1.88    0.34
  14   2 -12    1.66    0.39
   2  14 -10    4.36    0.50
   2 -14  10    4.27    0.48
  -2 -14 -10    4.48    0.51
  14  -2  10    4.34    0.50
  14  -2  10    4.77    0.42
  14  -2  10    5.03    0.46
  -2  14  10    4.38    0.51
  14   2 -10    4.40    0.51
   2  14 -10    4.54    0.43
   2  14  -8    5.89    0.43
  -2 -14  -8    5.61    0.54
  -2  14   8    6.53    0.60
   2 -14   8    6.36    0.55
  14  -2   8    5.77    0.54
  14  -2   8    6.55    0.50
  14  -2   8    6.35    0.57
   2  14  -8    6.52    0.59
  14   2  -8    5.22    0.54
   2  14  -8    5.28    0.30
   2  14  -6    6.99    0.42
  -2  14   6    7.87    0.63
  -2 -14  -6    7.64    0.62
 -14   2   6    6.60    0.24
   2 -14   6    6.82    0.53
  -2  14   6    7.77    0.54
  14  -2   6    7.94    0.52
   2  14  -6    7.29    0.58
  14  -2   6    8.40    0.62
   2  14  -6    7.92    0.62
   2  14  -6    7.11    0.28
  14   2  -6    7.51    0.61
  14   2  -6    7.86    0.52
  -2 -14  -4    1.32    0.28
   2 -14   4    1.04    0.23
   2  14  -4    1.30    0.16
  -2  14   4    1.18    0.28
  14   2  -4    1.03    0.21
  -2  14   4    1.44    0.26
  14  -2   4    1.66    0.26
   2  14  -4    1.55    0.31
  14  -2   4    1.45    0.30
  14   2  -4    1.22    0.31
  -2 -14  -2    7.56    0.57
  14   2  -2    5.80    0.33
   2 -14   2    7.21    0.47
   2  14  -2    6.58    0.41
  -2  14   2    6.88    0.45
  14  -2   2    6.86    0.56
  -2  14   2    6.88    0.38
  14   2  -2    7.63    0.59
   2  14  -2    7.97    0.60
  -2  14   2    7.40    0.59
  14   2  -2    7.80    0.44
  -2 -14  -2    6.38    0.22
   2  14  -2    6.22    0.26
   2 -14   0   13.34    0.75
  14   2   0   13.50    0.48
   2 -14   0   13.86    0.62
   2  14   0   13.46    0.55
  -2  14   0   14.95    0.65
   2  14   0   14.08    0.73
  14   2   0   16.55    0.87
  -2  14   0   15.14    0.84
  14  -2   0   16.98    0.86
  14   2   0   14.46    0.60
   2  14   0   13.90    0.81
   2 -14  -2    6.88    0.55
   2 -14  -2    7.61    0.39
 -14  -2   2    6.84    0.33
   2  14   2    7.00    0.52
  -2  14  -2    7.49    0.43
  -2  14  -2    6.29    0.56
  14   2   2    7.70    0.41
  14   2   2    7.81    0.60
  14  -2  -2    7.62    0.58
   2  14   2    7.21    0.58
   2 -14  -4    1.15    0.29
   2 -14  -4    1.50    0.15
   2  14   4    1.25    0.28
  14   2   4    1.64    0.33
  14  -2  -4    1.17    0.27
   2  14   4    1.71    0.34
   2 -14  -6    6.73    0.59
   2 -14  -6    6.92    0.26
   2  14   6    7.11    0.62
   2  14   6    7.09    0.57
  14   2   6    7.89    0.59
  14   2   6    8.03    0.64
  -2  14  -6    6.73    0.54
  14  -2  -6    7.07    0.60
   2 -14  -6    7.27    0.33
  -2  14  -8    4.89    0.49
   2 -14  -8    6.08    0.57
  -2  14  -8    6.55    0.49
   2  14   8    5.85    0.56
  14   2   8    5.89    0.53
  14   2   8    5.85    0.56
   2  14   8    6.18    0.58
  14  -2  -8    5.62    0.56
  -2  14 -10    4.80    0.50
   2 -14 -10    5.20    0.55
  14   2  10    4.20    0.46
  -2  14 -10    4.73    0.46
   2  14  10    4.65    0.51
  14   2  10    4.81    0.50
 -14  -2  10    4.29    0.49
  14  -2 -10    4.35    0.50
   2 -14 -12    1.57    0.35
  -2  14 -12    1.41    0.33
  14   2  12    1.08    0.27
  -2  14 -12    1.60    0.34
   2  14  12    0.64    0.29
  14   2  12    1.80    0.36
 -14  -2  12    1.01    0.27
  14  -2 -12    1.95    0.40
   2 -14 -14    3.90    0.52
  14   2  14    2.22    0.36
  -2  14 -14    2.95    0.42
  -2  14 -14    3.21    0.44
  14   2  14    3.42    0.48
 -14  -2  14    3.57    0.46
  14  -2 -14    3.29    0.49
  14   2  16    0.61    0.22
   2 -14 -16    1.33    0.38
  -2  14 -16    0.10    0.25
  -2  14 -16    0.73    0.32
  14   2  16    1.08    0.33
 -14  -2  16    0.85    0.29
  14  -2 -16    1.58    0.41
  14   2  18   -0.26    0.20
   2 -14 -18    0.23    0.25
  -2  14 -18    0.07    0.26
  14  -2 -18   -0.07    0.29
   3  14 -19    0.94    0.32
  14  -3  19    0.84    0.28
  -3 -14 -19    0.57    0.32
 -14  -3 -19    0.80    0.29
  14   3 -19    0.46    0.30
   3  14 -17    0.85    0.30
  14  -3  17    0.73    0.27
  -3 -14 -17    1.28    0.40
   3  14 -17    1.38    0.36
 -14  -3 -17    1.38    0.36
  14   3 -17    1.16    0.32
   3  14 -15    0.52    0.25
  -3 -14 -15    0.60    0.28
  14  -3  15    0.31    0.22
   3  14 -15    0.04    0.29
 -14   3  15    0.65    0.24
  14   3 -15    0.36    0.27
  14  -3  13    0.32    0.23
   3 -14  13   -0.20    0.24
  -3 -14 -13    0.53    0.28
   3  14 -13    0.40    0.29
   3  14 -13   -0.12    0.20
  14   3 -13    0.34    0.27
   3 -14  11    5.88    0.59
   3  14 -11    5.41    0.59
  -3 -14 -11    4.69    0.54
  14  -3  11    5.78    0.57
  -3  14  11    6.34    0.62
  14  -3  11    5.35    0.43
  14  -3  11    5.25    0.48
  14   3 -11    5.72    0.59
   3  14 -11    5.35    0.46
   3  14  -9    0.63    0.29
   3 -14   9    0.85    0.28
   3  14  -9    1.19    0.22
  -3 -14  -9    0.98    0.30
  14  -3   9    1.04    0.27
  14  -3   9    0.65    0.21
  14  -3   9    0.68    0.21
  -3  14   9    0.91    0.28
  14   3  -9    1.20    0.32
   3  14  -9    0.94    0.16
   3  14  -7    0.92    0.28
  -3 -14  -7    1.35    0.31
   3  14  -7    1.12    0.19
   3 -14   7    0.75    0.24
  14   3  -7    1.25    0.27
   3  14  -7    1.08    0.27
  14  -3   7    1.37    0.25
  14  -3   7    1.60    0.32
   3  14  -7    1.43    0.16
  14   3  -7    1.45    0.31
  -3  14   7    1.30    0.32
  -3 -14  -5   15.94    0.88
   3 -14   5   15.82    0.82
  14  -3   5   16.54    0.74
   3  14  -5   15.59    0.90
  14  -3   5   14.61    0.84
   3  14  -5   15.54    0.85
   3  14  -5   15.25    0.49
 -14   3   5   15.25    0.53
  14   3  -5   16.18    0.91
  14   3  -5   16.32    0.76
   3  14  -5   15.59    0.59
  -3  14   5   17.79    0.94
  14   3  -3   12.07    0.55
  -3 -14  -3   12.89    0.77
   3 -14   3   13.35    0.70
  -3  14   3   13.74    0.64
  14  -3   3   12.86    0.62
  14  -3   3   13.48    0.79
  -3  14   3   12.58    0.58
  14   3  -3   12.77    0.78
   3  14  -3   12.72    0.77
   3  14  -3   12.54    0.41
  14   3  -3   12.60    0.63
  -3  14   3   14.48    0.83
  14   3  -1    6.84    0.36
   3 -14   1    7.81    0.49
   3  14  -1    6.47    0.39
  -3  14   1    7.60    0.44
  14  -3   1    7.65    0.58
  14   3  -1    8.68    0.64
  -3  14   1    8.63    0.64
  14   3  -1    8.49    0.47
   3  14  -1    7.47    0.59
  -3 -14  -1    7.58    0.28
   3 -14  -1    7.54    0.55
 -14  -3   1    6.81    0.37
   3 -14  -1    7.77    0.45
  -3  14  -1    7.94    0.42
   3  14   1    7.65    0.55
  -3  14  -1    7.47    0.60
  14   3   1    8.18    0.45
  14   3   1    7.55    0.60
  14  -3  -1    7.81    0.59
   3  14   1    6.70    0.56
   3 -14  -3   12.57    0.74
   3  14   3   11.55    0.76
   3 -14  -3   13.18    0.54
  14  -3  -3   13.36    0.47
   3  14   3   12.69    0.74
  -3  14  -3   12.84    0.54
  -3  14  -3   12.99    0.80
  14   3   3   13.72    0.81
  14  -3  -3   12.17    0.75
 -14  -3   3   11.78    0.40
   3 -14  -5   17.49    0.91
   3  14   5   15.72    0.90
   3 -14  -5   15.42    0.56
   3  14   5   15.85    0.86
  14   3   5   16.09    0.86
  14   3   5   15.83    0.90
  -3  14  -5   15.55    0.83
  14  -3  -5   16.50    0.89
   3 -14  -5   15.37    0.49
  -3  14  -7    1.04    0.27
   3 -14  -7    1.35    0.29
   3 -14  -7    1.26    0.12
   3  14   7    1.55    0.31
  14   3   7    1.35    0.29
  14   3   7    2.03    0.35
   3  14   7    1.33    0.34
  14  -3  -7    1.45    0.31
   3 -14  -7    1.39    0.17
  -3  14  -9    0.50    0.19
   3 -14  -9    0.95    0.26
  14   3   9    1.09    0.24
   3  14   9    0.80    0.26
  14   3   9    0.71    0.28
  -3  14  -9    0.75    0.23
 -14  -3   9    0.71    0.29
  14  -3  -9    1.24    0.32
   3 -14 -11    5.42    0.58
  -3  14 -11    5.22    0.52
  14   3  11    5.68    0.52
  -3  14 -11    5.65    0.53
   3  14  11    5.37    0.57
  14   3  11    4.32    0.52
 -14  -3  11    5.62    0.57
  14  -3 -11    6.03    0.61
   3 -14 -13    0.12    0.23
  -3  14 -13   -0.01    0.20
  -3  14 -13    0.28    0.22
   3  14  13   -0.26    0.28
  14   3  13   -0.18    0.26
 -14  -3  13    0.15    0.20
  14   3  13    0.04    0.15
  14  -3 -13    0.52    0.30
   3 -14 -15    0.09    0.28
  14   3  15    0.40    0.20
  -3  14 -15    0.66    0.27
  -3  14 -15    0.66    0.29
  14   3  15    0.86    0.34
 -14  -3  15    0.71    0.28
  14  -3 -15    0.10    0.24
  14   3  17    0.74    0.26
   3 -14 -17    0.89    0.32
  -3  14 -17    0.64    0.26
 -14  -3  17    0.59    0.24
  14  -3 -17    0.84    0.35
  14   3  19    0.30    0.21
  -3  14 -19    0.96    0.37
   3 -14 -19    0.32    0.31
  14  -3 -19    0.32    0.29
   4  14 -18    0.00    0.23
  14  -4  18    0.43    0.28
  -4 -14 -18    0.12    0.31
   4  14 -18    0.30    0.31
 -14  -4 -18   -0.09    0.25
  14   4 -18    0.10    0.23
   4  14 -16    0.41    0.23
   4 -14  16    0.40    0.27
  -4 -14 -16    0.99    0.34
  14  -4  16    0.76    0.29
   4  14 -16    0.05    0.23
  14   4 -16    0.12    0.24
   4  14 -14    1.44    0.31
   4 -14  14    1.59    0.36
  -4 -14 -14    0.94    0.32
  14  -4  14    0.83    0.25
   4  14 -14    0.91    0.33
  14   4 -14    1.16    0.36
   4  14 -12    0.73    0.21
  -4  14  12    1.36    0.30
   4 -14  12    1.16    0.31
  -4 -14 -12    1.18    0.31
   4  14 -12    0.82    0.30
  14  -4  12    0.92    0.28
  14   4 -12    0.90    0.29
 -14  -4 -10    1.96    0.22
   4  14 -10    2.28    0.31
   4  14 -10    1.42    0.34
  -4 -14 -10    1.89    0.36
   4 -14  10    1.55    0.34
  14  -4  10    1.68    0.33
  14  -4  10    2.20    0.31
   4  14 -10    1.78    0.32
  14  -4  10    1.48    0.26
  14   4 -10    2.10    0.37
   4  14 -10    1.80    0.23
  -4  14  10    2.33    0.40
   4  14  -8    5.75    0.58
  -4 -14  -8    5.84    0.56
  -4  14   8    5.84    0.56
   4 -14   8    4.93    0.50
  14  -4   8    6.59    0.59
  14  -4   8    6.98    0.54
  14  -4   8    5.37    0.43
   4  14  -8    5.40    0.50
   4  14  -8    5.91    0.36
  14   4  -8    5.73    0.56
   4  14  -8    5.72    0.40
  14   4  -8    5.40    0.49
   4  14  -6    1.23    0.17
  -4 -14  -6    1.24    0.28
 -14   4   6    1.17    0.15
   4 -14   6    1.27    0.28
  14  -4   6    1.26    0.28
  -4  14   6    1.29    0.31
  14  -4   6    1.40    0.23
  14   4  -6    1.51    0.28
  14  -4   6    1.67    0.32
   4  14  -6    1.54    0.30
   4  14  -6    1.26    0.16
  14   4  -6    1.34    0.32
   4  14  -6    1.26    0.31
  -4 -14  -4    0.76    0.27
  -4  14   4    0.22    0.20
  14   4  -4    0.56    0.19
   4 -14   4    0.69    0.22
 -14   4   4    0.56    0.13
  14  -4   4    0.66    0.17
  14  -4   4    0.86    0.26
   4  14  -4    0.63    0.10
  14   4  -4    0.40    0.21
   4  14  -4    0.46    0.22
   4  14  -4    0.70    0.10
  -4 -14  -2    4.82    0.47
   4 -14   2    4.34    0.39
  14  -4   2    5.43    0.50
  14   4  -2    4.85    0.49
  14   4  -2    5.16    0.40
  -4  14   2    4.91    0.50
   4  14  -2    5.17    0.48
   4 -14   0   17.51    0.87
 -14  -4   0   17.21    0.69
   4 -14   0   18.10    0.78
  -4  14   0   18.35    0.67
  -4  14   0   20.43    1.01
  14   4   0   20.15    0.81
  14   4   0   18.15    0.95
  14  -4   0   19.42    0.93
   4  14   0   18.17    0.94
   4 -14  -2    5.92    0.49
  14  -4  -2    4.52    0.21
   4 -14  -2    3.96    0.32
  -4  14  -2    5.05    0.29
   4  14   2    5.53    0.49
  -4  14  -2    5.45    0.53
  14  -4  -2    5.56    0.50
  14   4   2    4.60    0.48
 -14  -4   2    4.34    0.26
   4  14   2    4.45    0.47
   4 -14  -4    0.37    0.21
   4 -14  -4    0.69    0.15
  14  -4  -4    0.62    0.14
   4  14   4    0.64    0.27
   4  14   4    0.40    0.22
  -4  14  -4    0.63    0.12
  14   4   4    0.80    0.27
   4 -14  -4    0.69    0.08
  14  -4  -4    0.65    0.26
  -4  14  -4    0.58    0.22
  -4  14  -6    1.21    0.26
   4 -14  -6    0.90    0.25
   4 -14  -6    1.01    0.14
   4  14   6    1.18    0.30
  14   4   6    1.44    0.31
  14   4   6    1.47    0.31
   4  14   6    1.19    0.30
  14  -4  -6    1.34    0.32
   4 -14  -6    0.86    0.13
   4 -14  -8    4.92    0.52
   4  14   8    5.82    0.57
  14   4   8    5.12    0.52
  14   4   8    6.66    0.60
 -14  -4   8    5.72    0.58
  -4  14  -8    5.22    0.49
  14  -4  -8    5.92    0.56
   4 -14  -8    5.85    0.37
   4 -14 -10    1.66    0.23
  -4  14 -10    2.16    0.35
   4 -14 -10    1.77    0.36
  14   4  10    2.14    0.32
   4  14  10    1.95    0.38
  14   4  10    2.41    0.40
 -14  -4  10    2.09    0.38
  14  -4 -10    2.06    0.38
  14   4  12    0.93    0.25
  -4  14 -12    1.05    0.30
   4 -14 -12    0.99    0.29
   4  14  12    1.50    0.40
  14   4  12    1.13    0.34
  -4  14 -12    1.19    0.29
 -14  -4  12    0.97    0.29
  14  -4 -12    1.12    0.32
   4 -14 -14    1.08    0.37
  14   4  14    0.59    0.22
  -4  14 -14    1.17    0.33
   4  14  14    1.48    0.41
  -4  14 -14    0.76    0.29
  14   4  14    1.49    0.35
 -14  -4  14    1.26    0.32
  14  -4 -14    0.35    0.26
  14   4  16    0.25    0.19
   4 -14 -16    0.25    0.28
  -4  14 -16    0.11    0.22
  14   4  16    0.10    0.28
  14  -4 -16    0.36    0.26
  14   4  18    0.44    0.22
   4 -14 -18    0.62    0.34
  -4  14 -18    0.49    0.30
 -14  -4  18    0.02    0.21
   5  14 -17    1.60    0.36
   5 -14  17    2.52    0.47
  -5 -14 -17    1.85    0.41
  14  -5  17    1.96    0.39
   5  14 -17    1.76    0.44
 -14  -5 -17    1.32    0.35
  14   5 -17    1.74    0.41
   5  14 -15    4.30    0.49
   5 -14  15    3.33    0.52
  -5 -14 -15    4.20    0.55
  14  -5  15    3.83    0.51
   5  14 -15    3.84    0.58
  14   5 -15    3.60    0.50
   5  14 -13    1.14    0.27
   5 -14  13    0.57    0.24
  -5 -14 -13    1.14    0.32
   5  14 -13    1.16    0.36
  14  -5  13    0.82    0.27
  14   5 -13    0.92    0.31
   5  14 -11    0.32    0.16
   5  14 -11    1.22    0.34
  -5 -14 -11    1.08    0.32
   5 -14  11    0.87    0.28
  14  -5  11    0.83    0.27
  -5  14  11    0.75    0.26
  14  -5  11    0.62    0.19
   5  14 -11    0.85    0.23
  14   5 -11    1.11    0.32
  14   5 -11    0.69    0.30
   5  14 -11    1.08    0.21
   5  14  -9    0.80    0.19
 -14  -5  -9    0.71    0.16
   5  14  -9    0.68    0.27
   5 -14   9    0.54    0.24
  14  -5   9    0.52    0.22
  14  -5   9    0.82    0.22
  14   5  -9    0.51    0.25
  -5  14   9    0.77    0.26
   5  14  -9    0.67    0.22
  -5 -14  -9    0.74    0.25
   5  14  -9    1.05    0.19
  14   5  -9    1.11    0.33
  -5  14   7    9.77    0.71
  -5 -14  -7   12.29    0.77
   5 -14   7   10.51    0.72
  14  -5   7   11.19    0.79
  14  -5   7   10.74    0.71
  14  -5   7   12.56    0.60
  14  -5   7   10.68    0.72
   5  14  -7   11.68    0.82
   5  14  -7   10.62    0.69
   5  14  -7   11.27    0.52
   5  14  -7   10.16    0.51
  14   5  -7   12.05    0.80
  14   5  -7   12.24    0.72
 -14   5   7   10.99    0.48
  -5 -14  -5    4.55    0.47
   5 -14   5    3.83    0.41
  14  -5   5    4.65    0.49
  14  -5   5    5.23    0.36
  14  -5   5    4.41    0.46
 -14   5   5    4.84    0.33
   5  14  -5    4.70    0.30
   5  14  -5    4.62    0.46
  14   5  -5    5.08    0.45
  14   5  -5    4.59    0.48
  -5  14   5    5.11    0.51
   5  14  -5    5.28    0.54
  -5 -14  -3    2.91    0.39
  14   5  -3    2.42    0.31
   5  14  -3    2.80    0.37
   5 -14   3    2.82    0.33
  14  -5   3    2.69    0.41
  14  -5   3    2.78    0.26
   5  14  -3    3.00    0.23
  14  -5   3    3.46    0.40
  14   5  -3    2.98    0.40
  -5  14   3    3.12    0.40
  14   5  -1    1.64    0.25
 -14  -5  -1    1.46    0.21
   5 -14   1    1.69    0.25
   5  14  -1    1.48    0.30
  -5  14   1    1.34    0.31
  14  -5   1    1.77    0.31
  14   5  -1    1.70    0.32
   5 -14  -1    1.19    0.24
 -14  -5   1    1.16    0.16
   5 -14  -1    1.23    0.21
  -5  14  -1    1.29    0.30
  14   5   1    1.51    0.32
  14  -5  -1    1.24    0.28
   5  14   1    1.18    0.29
   5 -14  -3    2.49    0.33
  14  -5  -3    2.51    0.19
   5 -14  -3    2.90    0.28
   5  14   3    3.55    0.42
   5  14   3    3.15    0.40
  14   5   3    3.38    0.43
  14  -5  -3    2.73    0.37
  -5  14  -5    4.09    0.40
   5 -14  -5    3.93    0.45
  14  -5  -5    4.78    0.33
   5 -14  -5    4.40    0.32
   5  14   5    4.18    0.47
  14   5   5    4.48    0.47
  14   5   5    4.91    0.50
   5  14   5    5.26    0.53
   5 -14  -5    4.43    0.25
  14  -5  -5    5.05    0.49
   5 -14  -7   11.35    0.76
   5 -14  -7   11.75    0.52
   5  14   7   10.57    0.76
 -14  -5   7   10.65    0.79
  14   5   7   11.27    0.76
  14   5   7   11.71    0.79
  -5  14  -7   11.63    0.70
  14  -5  -7   11.94    0.77
   5 -14  -7   10.95    0.50
  -5  14  -9    1.24    0.28
   5 -14  -9    1.34    0.32
   5  14   9    1.61    0.37
  14   5   9    0.67    0.28
 -14  -5   9    1.30    0.35
  14  -5  -9    0.77    0.27
   5 -14  -9    0.83    0.18
   5 -14 -11    1.13    0.21
   5 -14 -11    0.76    0.29
  14   5  11    0.91    0.23
  -5  14 -11    1.03    0.27
   5  14  11    1.39    0.38
  14   5  11    0.41    0.28
 -14  -5  11    1.00    0.32
  14  -5 -11    1.20    0.31
   5 -14 -13    0.96    0.24
   5 -14 -13    0.43    0.25
  14   5  13    1.11    0.27
  -5  14 -13    0.83    0.29
   5  14  13    0.93    0.30
  14   5  13    0.85    0.30
  -5  14 -13    1.39    0.34
 -14  -5  13    1.54    0.36
  14  -5 -13    1.53    0.34
  14   5  15    3.95    0.45
   5 -14 -15    3.14    0.51
   5  14  15    4.71    0.61
  14   5  15    4.71    0.58
  -5  14 -15    2.46    0.42
 -14  -5  15    3.42    0.47
  14  -5 -15    4.36    0.58
   5 -14 -17    1.08    0.32
  -5  14 -17    1.79    0.43
  14   5  17    2.47    0.51
 -14  -5  17    1.71    0.36
  14   5  17    2.40    0.38
  14  -5 -17    1.83    0.41
   6  14 -18    1.80    0.37
   6 -14  18    1.75    0.41
  -6 -14 -18    1.73    0.40
  14  -6  18    2.51    0.46
   6  14 -18    1.83    0.48
 -14  -6 -18    1.53    0.34
  14   6 -18    1.58    0.42
   6  14 -16    0.62    0.25
   6 -14  16    0.19    0.23
  -6 -14 -16    0.20    0.27
  14  -6  16    0.57    0.27
   6  14 -16    0.56    0.33
 -14  -6 -16    0.27    0.22
  14   6 -16    0.26    0.25
   6  14 -14    1.93    0.33
   6 -14  14    2.32    0.45
  -6 -14 -14    2.38    0.43
   6  14 -14    2.03    0.43
  14  -6  14    2.04    0.38
  14   6 -14    1.90    0.37
  -6 -14 -12    6.26    0.62
   6 -14  12    7.12    0.67
   6  14 -12    5.76    0.65
  14  -6  12    5.31    0.59
  -6  14  12    7.59    0.66
   6  14 -12    7.18    0.57
   6  14 -12    6.09    0.51
  14   6 -12    7.36    0.68
   6  14 -12    5.82    0.47
  14   6 -12    7.43    0.68
 -14  -6 -10    5.87    0.42
   6 -14  10    6.97    0.64
  -6 -14 -10    5.42    0.56
  14  -6  10    6.47    0.62
  14  -6  10    6.27    0.52
  -6  14  10    6.23    0.58
   6  14 -10    5.87    0.51
   6  14 -10    6.42    0.65
   6  14 -10    5.70    0.44
   6  14 -10    6.13    0.44
  14   6 -10    6.19    0.61
  14   6 -10    6.42    0.60
   6  14  -8    4.43    0.54
  -6 -14  -8    5.01    0.52
 -14   6   8    4.68    0.33
   6 -14   8    4.56    0.50
  14   6  -8    5.04    0.49
  14  -6   8    5.23    0.55
  14  -6   8    5.29    0.49
  -6 -14  -8    4.77    0.47
   6  14  -8    4.40    0.35
   6  14  -8    4.02    0.42
  -6  14   8    5.43    0.54
  14   6  -8    4.75    0.52
  -6 -14  -6    5.68    0.53
   6 -14   6    5.46    0.51
  14  -6   6    5.56    0.56
  14  -6   6    6.01    0.55
  -6 -14  -6    5.44    0.52
  14  -6   6    6.25    0.38
  14  -6   6    4.81    0.48
   6  14  -6    5.63    0.57
   6  14  -6    6.51    0.40
  14   6  -6    5.80    0.55
  14   6  -6    5.83    0.51
   6  14  -6    5.07    0.48
 -14   6   6    5.69    0.37
  -6  14   6    6.54    0.59
  -6 -14  -4   11.97    0.75
   6 -14   4   10.92    0.69
  14  -6   4   11.74    0.78
  -6 -14  -4   10.73    0.74
  14  -6   4   12.71    0.53
 -14   6   4   12.11    0.58
  14  -6   4   10.52    0.69
   6  14  -4   11.22    0.52
  14   6  -4   11.05    0.75
  14   6  -4   11.04    0.68
  -6  14   4   11.22    0.77
   6  14  -4   11.06    0.71
   6 -14   2    7.15    0.52
  -6 -14  -2    7.25    0.62
  14  -6   2    6.29    0.61
  14  -6   2    8.02    0.40
   6  14  -2    8.10    0.42
  14  -6   2    8.56    0.61
  14   6  -2    8.05    0.56
  -6  14   2    8.57    0.65
  14   6  -2    8.53    0.65
   6  14  -2    7.51    0.59
   6  14   0   -0.13    0.18
   6 -14   0    0.10    0.16
   6 -14   0    0.08    0.14
  14  -6   0   -0.20    0.24
  -6 -14   0   -0.18    0.23
  -6  14   0    0.09    0.20
  14   6   0    0.30    0.22
  14  -6   0   -0.08    0.18
  14   6   0   -0.06    0.16
   6 -14  -2    8.24    0.57
   6  14   2    8.06    0.63
   6 -14  -2    7.27    0.48
   6  14   2    7.41    0.60
  14   6   2    7.50    0.62
  14  -6  -2    6.90    0.56
   6 -14  -4   11.54    0.71
  14  -6  -4   11.09    0.49
   6 -14  -4   11.09    0.57
   6  14   4   11.95    0.78
 -14  -6   4   10.80    0.81
   6  14   4    9.70    0.71
  14   6   4   11.79    0.76
  -6  14  -4    9.98    0.61
   6 -14  -4   11.12    0.42
  14  -6  -4   10.12    0.68
   6 -14  -6    5.96    0.54
  14  -6  -6    5.90    0.40
   6 -14  -6    5.47    0.38
 -14  -6   6    5.84    0.62
   6  14   6    6.35    0.58
  14   6   6    6.64    0.60
  14   6   6    6.81    0.60
  -6  14  -6    5.30    0.46
  14  -6  -6    6.46    0.56
   6 -14  -6    5.16    0.32
   6 -14  -8    5.16    0.54
  14  -6  -8    4.80    0.42
   6 -14  -8    4.31    0.34
   6  14   8    5.18    0.56
  14   6   8    4.31    0.52
 -14  -6   8    4.35    0.53
  -6  14  -8    4.77    0.45
  14  -6  -8    5.34    0.53
   6 -14  -8    5.07    0.36
   6 -14 -10    5.94    0.60
  14   6  10    7.21    0.55
   6  14  10    7.26    0.68
  14   6  10    6.60    0.64
 -14  -6  10    5.38    0.57
  -6  14 -10    5.98    0.53
   6 -14 -10    6.00    0.44
  14  -6 -10    5.28    0.54
   6 -14 -12    6.04    0.62
  14   6  12    6.79    0.55
 -14  -6  12    6.34    0.64
   6  14  12    7.25    0.71
  14   6  12    7.16    0.69
  14  -6 -12    6.67    0.64
  -6  14 -12    6.23    0.57
   6 -14 -12    5.34    0.46
   6 -14 -14    2.19    0.35
   6 -14 -14    2.42    0.44
  14   6  14    2.20    0.34
   6  14  14    1.86    0.42
  14   6  14    2.55    0.47
 -14  -6  14    2.06    0.40
  -6  14 -14    2.57    0.45
  14  -6 -14    2.14    0.40
   6 -14 -16    0.47    0.24
   6 -14 -16    0.51    0.28
  14  -6 -16    1.32    0.40
   6  14  16    0.71    0.40
  14   6  16    0.23    0.25
  -6  14 -16    0.22    0.25
 -14  -6  16    1.27    0.34
  14  -6 -16    0.76    0.31
   6 -14 -18    2.14    0.40
   6 -14 -18    1.76    0.40
  14  -6 -18    2.02    0.47
  -6  14 -18    2.29    0.48
  14   6  18    2.18    0.47
 -14  -6  18    1.59    0.36
  14  -6 -18    2.37    0.48
   7 -14  17    2.54    0.49
  -7 -14 -17    1.91    0.41
  14  -7  17    2.51    0.46
   7  14 -17    2.11    0.51
 -14  -7 -17    2.64    0.41
  14   7 -17    2.26    0.44
  -7 -14 -15    2.36    0.42
  14  -7  15    2.65    0.45
   7  14 -15    2.28    0.51
 -14  -7 -15    2.72    0.40
  14   7 -15    2.46    0.43
   7 -14  15    3.22    0.52
  -7 -14 -13    4.24    0.53
   7 -14  13    3.68    0.51
   7  14 -13    4.23    0.59
  14  -7  13    3.40    0.51
  14   7 -13    4.09    0.54
   7  14 -13    3.68    0.41
  14   7 -13    3.41    0.50
  -7  14  13    3.48    0.47
  -7  14  11    2.99    0.44
 -14  -7 -11    2.95    0.33
  -7 -14 -11    2.93    0.44
   7  14 -11    3.30    0.50
   7 -14  11    4.05    0.52
  14  -7  11    3.59    0.48
  14   7 -11    3.72    0.50
  -7 -14 -11    2.98    0.37
   7  14 -11    3.18    0.38
  14   7 -11    3.10    0.45
   7  14 -11    3.50    0.37
 -14  -7  -9    2.84    0.31
  -7  14   9    2.36    0.39
   7  14  -9    2.52    0.45
  -7 -14  -9    1.92    0.37
   7 -14   9    3.34    0.44
  14  -7   9    2.45    0.41
  14   7  -9    2.16    0.36
  14  -7   9    2.29    0.32
  -7 -14  -9    2.47    0.35
   7  14  -9    2.27    0.28
  14   7  -9    2.47    0.40
   7  14  -9    2.10    0.32
  -7 -14  -7   15.43    0.91
   7 -14   7   15.47    0.91
  14  -7   7   17.60    1.03
  14  -7   7   16.81    0.93
  -7 -14  -7   16.71    0.92
   7  14  -7   19.25    1.09
   7  14  -7   16.17    0.73
  14   7  -7   16.29    0.96
  14   7  -7   15.93    0.90
   7  14  -7   15.46    0.84
 -14   7   7   17.76    0.73
  -7  14   7   19.10    1.00
  -7 -14  -5   14.33    0.85
   7 -14   5   13.81    0.81
  14  -7   5   15.38    0.93
  14  -7   5   14.34    0.88
  -7 -14  -5   14.01    0.85
  14  -7   5   14.37    0.82
   7  14  -5   13.94    0.91
 -14   7   5   14.22    0.66
   7  14  -5   14.15    0.65
  14   7  -5   13.18    0.84
  14   7  -5   14.45    0.82
  -7  14   5   15.27    0.89
   7  14  -5   14.06    0.79
  14   7  -3    0.53    0.21
   7 -14   3    0.21    0.16
  14  -7   3   -0.14    0.23
  -7 -14  -3    0.29    0.26
   7  14  -3    0.45    0.21
  14  -7   3    0.06    0.18
   7  14  -3    0.00    0.10
  14   7  -3    0.19    0.21
  -7  14   3   -0.09    0.22
  -7 -14  -1   20.68    1.11
   7  14  -1   20.55    1.02
   7 -14   1   19.13    0.92
  14  -7   1   20.34    1.12
  14  -7   1   21.87    0.69
   7  14  -1   20.50    0.79
  -7  14   1   22.37    1.09
  14   7  -1   22.21    0.99
  14  -7   1   21.14    0.99
  14   7  -1   19.15    1.01
   7 -14  -1   19.00    0.91
   7  14   1   20.55    1.02
   7 -14  -1   19.47    0.88
  14  -7  -1   18.94    1.10
  -7 -14   1   20.76    1.10
 -14  -7   1   19.05    1.10
  -7  14  -1   23.68    1.12
  14   7   1   20.77    1.04
  14  -7  -1   19.56    0.95
   7  14   3    0.55    0.25
   7 -14  -3    0.03    0.16
  14  -7  -3    0.21    0.09
   7 -14  -3    0.10    0.12
  14  -7  -3    0.24    0.20
  -7 -14   3    0.23    0.24
   7  14   3    0.41    0.22
 -14  -7   3    0.05    0.22
  14   7   3    0.23    0.19
  14  -7  -3    0.10    0.18
  -7  14  -3    0.33    0.17
   7 -14  -5   13.77    0.81
  14  -7  -5   14.23    0.62
   7 -14  -5   13.61    0.67
  14  -7  -5   11.03    0.86
 -14  -7   5   13.04    0.90
   7  14   5   15.09    0.92
  14   7   5   12.84    0.86
  14   7   5   13.87    0.86
  -7  14  -5   13.31    0.71
  14  -7  -5   13.29    0.79
   7 -14  -5   13.75    0.55
   7 -14  -7   16.00    0.90
  14  -7  -7   13.92    0.71
  14  -7  -7   15.94    1.05
 -14  -7   7   16.30    1.02
   7  14   7   17.32    1.00
  14   7   7   17.07    0.99
  14   7   7   16.74    0.97
  -7  14  -7   16.64    0.82
  14  -7  -7   15.65    0.89
   7 -14  -7   15.70    0.66
   7 -14  -9    2.47    0.39
  -7  14  -9    2.54    0.33
  14   7   9    2.75    0.34
  14  -7  -9    2.29    0.33
  14  -7  -9    2.10    0.43
   7  14   9    2.42    0.44
  14   7   9    1.63    0.37
 -14  -7   9    2.17    0.40
  14  -7  -9    2.24    0.37
   7 -14  -9    2.31    0.27
   7 -14 -11    2.98    0.44
  14   7  11    3.53    0.38
  -7  14 -11    2.65    0.37
  14  -7 -11    4.47    0.62
   7  14  11    2.36    0.45
  14   7  11    3.50    0.51
 -14  -7  11    3.08    0.46
  14  -7 -11    3.42    0.47
   7 -14 -11    3.20    0.34
   7 -14 -13    2.92    0.46
  14   7  13    3.50    0.39
  14  -7 -13    3.39    0.56
   7  14  13    3.92    0.57
  14   7  13    3.46    0.53
 -14  -7  13    3.76    0.51
  14  -7 -13    3.76    0.51
   7 -14 -13    3.49    0.40
   7 -14 -15    2.08    0.43
  14  -7 -15    2.33    0.48
   7  14  15    2.41    0.49
  14   7  15    2.85    0.52
 -14  -7  15    2.40    0.42
  -7  14 -15    2.26    0.41
  14  -7 -15    3.10    0.49
   7 -14 -15    3.03    0.41
   7 -14 -17    2.50    0.40
   7 -14 -17    2.45    0.49
  14  -7 -17    2.18    0.48
  14   7  17    2.54    0.50
 -14  -7  17    2.70    0.45
  -7  14 -17    1.92    0.43
  14  -7 -17    2.68    0.48
  -8 -14 -16    0.28    0.26
   8 -14  16    0.59    0.32
  14  -8  16    0.51    0.29
   8  14 -16    0.52    0.32
  14   8 -16    0.68    0.29
  -8 -14 -14    2.63    0.43
   8 -14  14    2.57    0.45
  14  -8  14    2.48    0.46
   8  14 -14    2.45    0.49
  14   8 -14    3.15    0.51
 -14  -8 -14    1.76    0.31
  14   8 -14    2.64    0.46
 -14  -8 -12    1.34    0.25
  -8 -14 -12    1.94    0.39
   8 -14  12    1.22    0.33
  14  -8  12    0.88    0.28
  14   8 -12    1.66    0.38
   8  14 -12    1.16    0.38
  -8  14  12    1.01    0.29
  14   8 -12    1.80    0.37
   8  14 -12    1.47    0.27
 -14  -8 -10    5.77    0.45
  -8 -14 -10    5.77    0.58
   8 -14  10    4.53    0.53
  14  -8  10    6.03    0.62
  14   8 -10    5.53    0.58
  -8 -14 -10    5.04    0.49
  -8  14  10    4.92    0.53
   8  14 -10    6.72    0.67
   8  14 -10    5.66    0.46
   8  14 -10    4.88    0.46
  14   8 -10    5.34    0.57
 -14   8   8   11.44    0.60
  -8  14   8   11.45    0.78
  -8 -14  -8   10.15    0.74
   8 -14   8    9.74    0.74
  14  -8   8   11.52    0.83
  14  -8   8   10.38    0.72
  -8 -14  -8   11.17    0.75
   8  14  -8   11.81    0.88
   8  14  -8   10.99    0.62
  14   8  -8   10.59    0.78
  14   8  -8   11.39    0.78
   8  14  -8   11.56    0.70
 -14   8   6    0.14    0.16
  -8 -14  -6    0.01    0.21
  14   8  -6    0.03    0.19
   8 -14   6    0.05    0.18
  -8  14   6    0.01    0.20
  14  -8   6   -0.04    0.20
  14  -8   6    0.19    0.19
   8  14  -6   -0.04    0.16
  -8 -14  -6    0.11    0.22
  14  -8   6    0.36    0.19
   8  14  -6   -0.02    0.13
  14   8  -6   -0.11    0.22
   8  14  -6    0.37    0.27
  -8 -14  -4   20.46    1.02
   8  14  -4   20.66    0.99
   8 -14   4   20.16    1.00
  14  -8   4   19.43    1.08
  -8 -14  -4   19.34    1.06
 -14   8   4   20.86    0.88
  14  -8   4   19.00    0.95
   8  14  -4   19.48    0.82
  14   8  -4   22.19    1.06
  14   8  -4   19.09    1.02
  -8  14   4   20.70    1.05
   8  14  -2   22.50    1.05
   8 -14   2   21.70    1.02
  14  -8   2   21.55    1.16
  -8 -14  -2   22.66    1.16
 -14  -8  -2   20.95    1.18
   8  14  -2   22.38    0.88
  14  -8   2   23.17    1.03
  14   8  -2   25.29    1.10
  -8  14   2   23.97    1.13
  14   8  -2   20.52    1.06
   8 -14   0    1.86    0.29
  14  -8   0    1.58    0.35
  -8  14   0    1.96    0.34
  -8 -14   0    1.30    0.33
   8  14   0    1.87    0.24
 -14  -8   0    1.38    0.35
  14   8   0    1.49    0.31
  14  -8   0    2.18    0.33
   8  14   0    1.97    0.34
   8 -14  -2   20.39    0.95
   8 -14  -2   20.97    0.94
   8  14   2   22.72    1.09
  14  -8  -2   21.87    1.20
  -8 -14   2   21.19    1.15
 -14  -8   2   21.31    1.18
  -8  14  -2   20.82    0.88
  14   8   2   22.48    1.09
  14  -8  -2   22.09    1.01
   8 -14  -4   19.28    0.94
  14  -8  -4   18.30    0.71
   8 -14  -4   19.33    0.87
  14  -8  -4   15.61    1.03
  -8 -14   4   17.67    1.07
 -14  -8   4   17.00    1.05
   8  14   4   18.23    1.04
  14   8   4   20.82    1.05
  -8  14  -4   18.77    0.83
  14  -8  -4   18.48    0.94
  -8  14  -6    0.08    0.14
   8 -14  -6    0.19    0.21
  14  -8  -6   -0.07    0.12
  14  -8  -6   -0.08    0.24
  -8 -14   6    0.25    0.31
   8  14   6    0.32    0.24
  14   8   6    0.27    0.24
 -14  -8   6   -0.08    0.25
  14   8   6   -0.12    0.21
  14  -8  -6    0.04    0.20
   8 -14  -6   -0.06    0.12
   8 -14  -8    9.72    0.72
  14  -8  -8    9.66    0.60
  14  -8  -8   10.78    0.88
 -14  -8   8   11.68    0.85
   8  14   8    9.79    0.81
  14   8   8   11.74    0.85
  14  -8  -8   11.57    0.76
   8 -14  -8   10.04    0.56
  -8  14  -8   11.99    0.68
   8 -14 -10    4.40    0.51
  14   8  10    5.19    0.45
  14  -8 -10    4.62    0.46
  14  -8 -10    4.39    0.60
   8  14  10    4.87    0.58
  14   8  10    4.85    0.58
 -14  -8  10    5.64    0.62
   8 -14 -10    5.37    0.43
  -8  14 -10    5.48    0.48
  14  -8 -10    4.12    0.49
   8 -14 -12    1.52    0.35
  14  -8 -12    0.85    0.26
  14  -8 -12    1.56    0.41
   8  14  12    1.43    0.39
  14   8  12    1.31    0.37
 -14  -8  12    0.87    0.30
  14  -8 -12    1.32    0.33
   8 -14 -12    1.47    0.28
   8 -14 -14    1.69    0.38
  14  -8 -14    2.50    0.42
  14  -8 -14    2.88    0.51
   8  14  14    2.89    0.51
  14   8  14    2.71    0.50
 -14  -8  14    1.73    0.39
  14  -8 -14    2.13    0.41
   8 -14 -14    1.55    0.29
   8 -14 -16    0.35    0.26
  14  -8 -16    0.66    0.32
   8  14  16    0.42    0.31
 -14  -8  16    0.45    0.30
  14   8  16    0.09    0.28
  -8  14 -16    1.18    0.34
  14  -8 -16    0.42    0.27
  -9 -14 -15    0.22    0.20
   9 -14  15    0.60    0.29
  14  -9  15   -0.13    0.23
   9  14 -15   -0.11    0.35
  14   9 -15    0.41    0.31
  14   9 -15    0.12    0.24
  -9 -14 -13    0.49    0.26
   9 -14  13    0.80    0.28
   9  14 -13    0.96    0.40
  14  -9  13    0.58    0.29
  14   9 -13    0.76    0.32
 -14  -9 -13    0.12    0.23
  14   9 -13    0.77    0.27
   9  14 -13    0.50    0.20
  -9  14  13    0.99    0.34
 -14  -9 -11    2.01    0.30
  -9 -14 -11    1.66    0.32
   9  14 -11    2.53    0.44
   9 -14  11    1.49    0.34
  14  -9  11    2.24    0.41
  14   9 -11    1.61    0.35
  -9 -14 -11    1.87    0.34
  -9  14  11    2.62    0.41
   9  14 -11    2.12    0.32
  14   9 -11    1.68    0.36
 -14  -9  -9    0.11    0.17
   9  14  -9    0.23    0.24
  -9 -14  -9    0.10    0.18
  14   9  -9    0.08    0.25
   9 -14   9    0.09    0.19
  14  -9   9    0.08    0.21
   9  14  -9    0.08    0.15
  -9 -14  -9   -0.07    0.20
 -14  -9  -9    0.54    0.29
   9  14  -9   -0.06    0.14
  14   9  -9    0.36    0.25
  -9  14   9    0.14    0.20
  -9 -14  -7    5.53    0.55
   9 -14   7    6.45    0.60
  14  -9   7    6.11    0.62
  14  -9   7    6.36    0.59
  -9 -14  -7    6.45    0.59
 -14  -9  -7    5.75    0.62
   9  14  -7    6.77    0.66
   9  14  -7    5.67    0.46
  14   9  -7    6.88    0.61
  14   9  -7    6.43    0.60
 -14   9   7    6.48    0.47
  -9  14   7    6.55    0.59
   9  14  -7    6.26    0.52
  -9 -14  -5   12.50    0.79
   9  14  -5   12.30    0.74
   9 -14   5   11.84    0.80
  14  -9   5   12.85    0.88
  14  -9   5   13.26    0.86
  -9 -14  -5   13.46    0.87
 -14  -9  -5    9.73    0.82
  14  -9   5   12.30    0.75
   9  14  -5   13.22    0.92
   9  14  -5   12.14    0.66
 -14   9   5   13.04    0.70
  14   9  -5   13.86    0.85
  14   9  -5   12.16    0.81
  -9  14   5   13.56    0.84
   9  14  -3    5.93    0.53
   9 -14   3    5.61    0.51
  14  -9   3    3.77    0.49
  -9 -14  -3    4.95    0.55
 -14   9   3    5.32    0.45
  14  -9   3    4.39    0.44
   9  14  -3    5.04    0.41
 -14  -9  -3    5.19    0.60
  14   9  -3    5.42    0.52
  14   9  -3    5.15    0.53
  -9  14   3    6.45    0.57
   9 -14   1   13.61    0.79
   9  14  -1   13.45    0.80
  14  -9   1   12.97    0.90
  -9 -14  -1   13.19    0.90
 -14  -9  -1   12.69    0.92
  -9  14   1   14.87    0.88
  14   9  -1   13.75    0.83
   9  14  -1   12.86    0.67
  14  -9   1   13.18    0.76
  14   9  -1   12.60    0.80
   9 -14  -1   13.41    0.73
   9 -14  -1   12.89    0.75
  14  -9  -1   12.37    0.90
   9  14   1   13.55    0.83
  -9 -14   1   13.85    0.92
 -14  -9   1   11.80    0.87
   9  14   1   13.76    0.71
  14   9   1   12.88    0.82
  14  -9  -1   14.13    0.77
   9 -14  -3    4.51    0.44
   9 -14  -3    5.76    0.49
  14  -9  -3    4.63    0.56
  -9 -14   3    4.83    0.55
   9  14   3    4.64    0.52
  14   9   3    5.51    0.54
 -14  -9   3    5.00    0.58
  -9  14  -3    5.06    0.39
  14  -9  -3    4.29    0.44
   9 -14  -5   13.06    0.77
  14  -9  -5   11.60    0.60
   9 -14  -5   12.70    0.72
  14  -9  -5   10.73    0.88
  -9 -14   5   11.32    0.86
 -14  -9   5   12.49    0.90
   9  14   5   11.60    0.85
  14   9   5   12.21    0.87
  14   9   5   13.84    0.87
  14  -9  -5   12.30    0.75
  -9  14  -5   12.84    0.65
   9 -14  -7    5.36    0.52
  14  -9  -7    5.62    0.44
  -9 -14   7    6.29    0.65
  14  -9  -7    4.69    0.59
   9  14   7    7.32    0.70
  14   9   7    6.84    0.67
 -14  -9   7    5.22    0.61
  14  -9  -7    5.99    0.54
   9 -14  -7    6.29    0.43
  14  -9  -9   -0.10    0.15
   9 -14  -9    0.02    0.19
  14   9   9    0.01    0.14
  14  -9  -9   -0.13    0.31
   9  14   9    0.20    0.32
  14   9   9    0.00    0.25
 -14  -9   9    0.36    0.30
  14  -9  -9    0.03    0.20
   9 -14  -9   -0.07    0.16
   9 -14 -11    1.92    0.36
  14  -9 -11    1.50    0.31
  14  -9 -11    1.91    0.43
   9  14  11    1.39    0.37
  14   9  11    2.21    0.45
 -14  -9  11    2.10    0.41
  14  -9 -11    1.33    0.32
   9 -14 -11    1.60    0.27
   9 -14 -13    0.82    0.30
  14  -9 -13    0.73    0.25
  14  -9 -13    0.88    0.37
   9  14  13    1.04    0.40
  14   9  13    1.31    0.40
 -14  -9  13    0.85    0.29
  14  -9 -13    1.03    0.34
   9 -14 -15    0.70    0.32
  14  -9 -15    0.42    0.30
  14  -9 -15   -0.17    0.34
   9  14  15    0.31    0.29
 -14  -9  15   -0.07    0.22
  14   9  15    0.46    0.33
  14  -9 -15    0.14    0.22
 -10 -14 -14    0.14    0.23
  10 -14  14    0.65    0.33
  14 -10  14    0.77    0.30
  10  14 -14    0.73    0.32
  14  10 -14   -0.06    0.29
 -14 -10 -14    0.31    0.24
  14  10 -14    0.68    0.32
 -14 -10 -12   -0.31    0.20
 -10 -14 -12    0.50    0.27
  10  14 -12   -0.12    0.30
  10 -14  12    0.27    0.26
  14 -10  12    0.06    0.20
  14  10 -12   -0.24    0.32
 -10  14  12   -0.01    0.22
 -14 -10 -12    0.13    0.25
  10  14 -12   -0.15    0.17
  14  10 -12    0.11    0.25
 -14 -10 -10    1.34    0.26
 -10 -14 -10    1.80    0.36
  10  14 -10    1.79    0.41
  10 -14  10    1.83    0.38
 -10  14  10    1.32    0.31
  14  10 -10    2.24    0.42
  14 -10  10    1.69    0.37
 -10 -14 -10    1.95    0.36
 -14 -10 -10    1.11    0.33
  10  14 -10    1.89    0.31
  14  10 -10    1.44    0.33
  10  14  -8    1.08    0.34
 -10 -14  -8    1.71    0.34
  14  10  -8    1.58    0.34
  10 -14   8    1.52    0.34
  14 -10   8    0.94    0.27
 -10 -14  -8    1.69    0.36
 -14  10   8    1.72    0.27
 -10  14   8    1.61    0.33
 -14 -10  -8    1.10    0.33
  10  14  -8    1.22    0.24
  10  14  -8    1.39    0.26
  14  10  -8    1.46    0.32
  10  14  -6    4.15    0.54
 -10 -14  -6    4.75    0.50
  14  10  -6    3.71    0.47
  10  14  -6    4.79    0.45
 -10  14   6    4.66    0.49
  10 -14   6    4.57    0.50
  14 -10   6    4.50    0.53
  14 -10   6    3.77    0.48
 -10 -14  -6    4.18    0.49
 -14 -10  -6    4.17    0.54
  10  14  -6    4.50    0.42
  14  10  -6    4.07    0.48
 -14  10   6    4.35    0.41
  14  10  -4    2.92    0.42
  10 -14   4    2.09    0.35
  14 -10   4    2.76    0.42
  14 -10   4    2.31    0.40
 -10 -14  -4    1.94    0.40
 -14 -10  -4    2.20    0.46
  14 -10   4    1.72    0.28
 -14  10   4    2.65    0.33
  10  14  -4    2.31    0.30
  14  10  -4    2.52    0.38
  10  14  -4    2.28    0.34
 -10  14   4    1.90    0.35
  10  14  -4    2.98    0.47
  10 -14   2    4.17    0.46
  14 -10   2    3.80    0.50
 -10 -14  -2    3.02    0.47
 -10  14   2    3.77    0.45
 -14 -10  -2    3.19    0.50
  14 -10   2    3.72    0.40
  10  14  -2    3.43    0.36
  14  10  -2    3.29    0.43
  10  14  -2    3.98    0.43
  14  10  -2    3.79    0.46
  10 -14   0    4.67    0.47
 -10 -14   0    5.47    0.59
  14 -10   0    5.28    0.59
 -10  14   0    4.89    0.52
  10  14   0    4.88    0.43
 -14 -10   0    5.26    0.60
  14  10   0    5.61    0.54
  14 -10   0    4.98    0.47
  10 -14  -2    3.40    0.36
  10 -14  -2    3.57    0.41
  14 -10  -2    3.79    0.53
 -10 -14   2    3.64    0.52
  10  14   2    4.00    0.39
 -14 -10   2    2.63    0.46
  14 -10  -2    4.38    0.42
  14  10   2    3.56    0.45
  10 -14  -4    2.22    0.31
  10 -14  -4    2.01    0.31
  14 -10  -4    1.79    0.39
 -10 -14   4    2.18    0.43
  10  14   4    2.68    0.43
  14  10   4    2.61    0.44
 -14 -10   4    1.60    0.39
  14  10   4    3.08    0.41
  14 -10  -4    2.33    0.34
  10 -14  -6    3.98    0.43
  14 -10  -6    3.71    0.54
 -10 -14   6    3.60    0.52
  10  14   6    5.31    0.60
  14  10   6    3.81    0.52
 -14 -10   6    4.46    0.57
  14 -10  -6    4.27    0.44
  10 -14  -8    1.03    0.27
  14 -10  -8    0.98    0.24
  14 -10  -8    0.75    0.29
 -10 -14   8    1.40    0.35
  10  14   8    1.23    0.34
  14  10   8    0.92    0.32
 -14 -10   8    1.14    0.32
  14 -10  -8    0.96    0.24
  10 -14 -10    1.70    0.35
  14 -10 -10    1.10    0.26
  14 -10 -10    0.90    0.35
  10  14  10    1.25    0.37
  14  10  10    1.26    0.38
 -14 -10  10    2.01    0.42
  14 -10 -10    1.21    0.27
  10 -14 -12   -0.14    0.19
  14 -10 -12    0.09    0.19
  14 -10 -12   -0.10    0.30
  10  14  12    0.03    0.27
 -14 -10  12    0.30    0.26
  14  10  12    0.29    0.29
  14 -10 -12   -0.36    0.28
  10 -14 -14    0.29    0.24
  14 -10 -14    0.32    0.29
  14 -10 -14    0.24    0.26
 -14 -10  14    0.46    0.28
  10  14  14    0.23    0.25
  14  10  14    0.11    0.31
  14 -10 -14    0.21    0.21
 -14 -11 -13    0.46    0.21
 -11 -14 -13    0.64    0.29
  11 -14  13    0.29    0.27
  14 -11  13    0.19    0.24
  11  14 -13   -0.10    0.32
  14  11 -13   -0.16    0.33
 -14 -11 -13    0.09    0.21
 -11  14  13    1.06    0.32
  11  14 -13   -0.37    0.24
  14  11 -13    0.49    0.27
 -14 -11 -11    0.22    0.17
 -11 -14 -11    0.71    0.27
  11  14 -11    0.39    0.29
  11 -14  11    1.17    0.31
  14 -11  11    0.49    0.26
  14  11 -11    1.16    0.37
 -11 -14 -11    0.25    0.21
 -14 -11 -11    0.61    0.27
 -11  14  11    0.97    0.30
  11  14 -11    0.75    0.24
  14  11 -11    1.03    0.28
 -14 -11  -9    2.81    0.37
 -11 -14  -9    1.96    0.36
  11  14  -9    2.18    0.44
  14  11  -9    2.14    0.41
  11 -14   9    2.18    0.41
  14 -11   9    2.52    0.43
 -11 -14  -9    1.91    0.38
 -14 -11  -9    1.31    0.36
  11  14  -9    1.80    0.31
  14  11  -9    1.82    0.35
 -11  14   9    2.83    0.40
  11  14  -7    0.43    0.24
 -11 -14  -7    0.74    0.27
  14  11  -7    0.90    0.30
  11 -14   7    0.97    0.29
 -14  11   7    0.80    0.22
  14 -11   7    0.69    0.30
 -11  14   7    0.71    0.28
 -11 -14  -7    0.69    0.27
 -14 -11  -7    0.66    0.30
  11  14  -7    0.53    0.20
  14  11  -7    0.69    0.26
 -11  14   5    2.40    0.40
  14  11  -5    2.57    0.42
  11 -14   5    2.74    0.41
  14 -11   5    2.37    0.40
  14 -11   5    1.55    0.38
  11  14  -5    2.51    0.34
 -11 -14  -5    2.23    0.41
 -14 -11  -5    2.30    0.43
  11  14  -5    2.19    0.32
  14  11  -5    2.53    0.37
 -14  11   5    3.03    0.38
  11  14  -5    1.91    0.42
  11  14  -3    0.14    0.18
  11 -14   3    0.36    0.17
  14 -11   3    0.05    0.22
  14 -11   3   -0.05    0.24
 -11 -14  -3   -0.24    0.29
 -14  11   3    0.01    0.17
 -14 -11  -3    0.09    0.23
  14 -11   3    0.35    0.21
  11  14  -3    0.42    0.17
 -11  14   3    0.19    0.19
  14  11  -3    0.01    0.18
  11  14  -3   -0.24    0.23
  14  11  -3    0.48    0.25
  11 -14   1    0.55    0.23
  14 -11   1    0.53    0.28
 -11  14   1    0.30    0.19
 -11 -14  -1    0.66    0.28
 -14 -11  -1    0.85    0.31
  11  14  -1    0.82    0.23
  14 -11   1    0.60    0.19
  14  11  -1    0.38    0.24
  11 -14  -1    0.37    0.17
  14 -11  -1    0.86    0.33
 -11 -14   1    0.26    0.25
 -14 -11   1    0.53    0.26
  11  14   1    0.90    0.24
  14  11   1    0.36    0.21
  14 -11  -1    0.95    0.23
  11 -14  -3    0.15    0.16
  11 -14  -3   -0.03    0.17
  14 -11  -3    0.15    0.26
 -11 -14   3    0.15    0.28
  11  14   3   -0.11    0.21
 -14 -11   3    0.22    0.24
  14  11   3   -0.14    0.20
  14 -11  -3    0.10    0.19
  11 -14  -5    2.33    0.33
  14 -11  -5    1.96    0.44
 -11 -14   5    2.50    0.47
  11  14   5    2.73    0.46
 -14 -11   5    2.38    0.45
  14  11   5    3.20    0.50
  14  11   5    1.99    0.35
  14 -11  -5    2.19    0.33
  11 -14  -7    1.07    0.26
  14 -11  -7    0.94    0.35
 -11 -14   7    0.68    0.29
 -14 -11   7    0.20    0.29
  11  14   7    0.70    0.35
  14  11   7    0.96    0.36
  14 -11  -7    1.02    0.26
  11 -14  -9    2.11    0.34
  14 -11  -9    2.20    0.33
  14 -11  -9    2.40    0.47
 -11 -14   9    2.53    0.48
 -14 -11   9    1.99    0.41
  11  14   9    1.83    0.43
  14  11   9    1.48    0.36
  14 -11  -9    2.01    0.36
  11 -14 -11    0.75    0.26
  14 -11 -11    0.48    0.22
  14 -11 -11    0.20    0.25
 -11 -14  11    0.56    0.34
 -14 -11  11    0.42    0.26
  11  14  11    1.22    0.39
  14  11  11    0.67    0.34
  14 -11 -11    0.61    0.25
  11 -14 -13    0.27    0.26
  14 -11 -13   -0.27    0.25
  14 -11 -13   -0.03    0.29
 -14 -11  13   -0.17    0.28
  11  14  13    0.39    0.29
  14  11  13    0.13    0.28
  14 -11 -13   -0.05    0.24
 -14 -12 -12    1.38    0.32
 -12 -14 -12    0.83    0.26
  12  14 -12    1.71    0.44
  12 -14  12    0.78    0.27
  14 -12  12    1.12    0.34
  14  12 -12    1.13    0.39
 -12  14  12    1.76    0.36
 -14 -12 -12    1.21    0.33
  12  14 -12    1.38    0.32
  14  12 -12    1.33    0.34
 -14 -12 -10    5.15    0.51
 -12 -14 -10    4.52    0.52
  12  14 -10    4.36    0.60
 -12  14  10    5.54    0.56
  14  12 -10    6.27    0.70
  12 -14  10    5.14    0.60
  14 -12  10    4.71    0.59
 -12 -14 -10    5.00    0.56
 -14 -12 -10    4.65    0.58
  12  14 -10    5.43    0.54
  14  12 -10    5.12    0.56
 -12 -14  -8    0.79    0.28
  12  14  -8    1.96    0.44
  14  12  -8    1.13    0.36
  12 -14   8    0.45    0.25
  14 -12   8    0.72    0.28
 -14  12   8    0.58    0.21
 -12 -14  -8    0.67    0.29
 -12  14   8    0.54    0.23
 -14 -12  -8    0.81    0.29
  12  14  -8    0.69    0.22
  14  12  -8    0.78    0.27
  12  14  -6   -0.08    0.22
  14  12  -6    0.79    0.35
 -14  12   6    0.31    0.20
 -12  14   6   -0.10    0.20
  12 -14   6   -0.20    0.22
  14 -12   6    0.01    0.22
 -12 -14  -6   -0.12    0.23
 -14 -12  -6    0.64    0.30
  12  14  -6   -0.07    0.17
  14  12  -6   -0.03    0.20
  14  12  -4    3.57    0.50
  12 -14   4    3.80    0.48
  14 -12   4    3.38    0.47
 -12 -14  -4    3.16    0.49
 -14 -12  -4    3.52    0.53
  12  14  -4    3.42    0.40
  14  12  -4    3.33    0.44
 -14  12   4    2.94    0.40
 -12  14   4    4.01    0.47
  12  14  -4    3.28    0.49
  12 -14   2    1.43    0.32
  14 -12   2    0.71    0.26
  14 -12   2    1.61    0.37
 -14  12   2    1.27    0.27
 -12 -14  -2    0.99    0.35
 -14 -12  -2    0.82    0.31
 -12  14   2    1.29    0.34
  14 -12   2    1.45    0.26
  12  14  -2    0.97    0.23
  14  12  -2    0.97    0.26
  14  12  -2    1.86    0.38
  12 -14   0    0.12    0.21
  14 -12   0    0.29    0.21
 -12  14   0   -0.15    0.19
 -12 -14   0   -0.02    0.24
 -14 -12   0   -0.04    0.23
  12  14   0   -0.05    0.17
  14  12   0    0.22    0.22
  14 -12   0    0.03    0.16
  12 -14  -2    0.87    0.20
  12 -14  -2    1.06    0.28
  14 -12  -2    1.35    0.37
 -12 -14   2    1.13    0.35
 -14 -12   2    0.63    0.29
  12  14   2    1.52    0.29
  14  12   2    1.69    0.32
  14 -12  -2    1.04    0.24
  12 -14  -4    3.44    0.37
  14 -12  -4    3.57    0.55
 -12 -14   4    3.64    0.53
 -14 -12   4    2.91    0.49
  12  14   4    3.43    0.51
  14  12   4    3.24    0.49
  14  12   4    3.49    0.45
  14 -12  -4    3.72    0.41
  12 -14  -6    0.02    0.16
  12 -14  -6    0.05    0.28
  14 -12  -6    0.32    0.28
 -12 -14   6    0.34    0.27
 -14 -12   6    0.56    0.29
  12  14   6    0.46    0.31
  14  12   6   -0.47    0.36
  14 -12  -6    0.20    0.16
  12 -14  -8    0.37    0.21
  12 -14  -8    1.40    0.41
  14 -12  -8    0.91    0.34
 -12 -14   8    0.91    0.39
 -14 -12   8    0.80    0.34
  12  14   8    0.53    0.34
  14  12   8    0.97    0.35
  14 -12  -8    0.69    0.24
  12 -14 -10    4.35    0.50
  12 -14 -10    5.45    0.66
  14 -12 -10    4.51    0.61
 -12 -14  10    4.20    0.60
 -14 -12  10    3.99    0.57
  12  14  10    4.13    0.61
  14  12  10    5.62    0.68
  14 -12 -10    5.19    0.54
  12 -14 -12    1.63    0.34
  14 -12 -12    1.19    0.30
  12 -14 -12    1.43    0.41
  14 -12 -12    0.92    0.37
 -12 -14  12    1.65    0.45
 -14 -12  12    0.92    0.35
  12  14  12    1.32    0.41
  14  12  12    0.51    0.32
  14 -12 -12    1.12    0.33
 -14 -13 -11    2.00    0.37
 -13 -14 -11    2.58    0.42
  13  14 -11    3.48    0.57
  14  13 -11    3.95    0.60
  13 -14  11    3.00    0.48
  14 -13  11    2.63    0.47
 -13 -14 -11    2.21    0.42
 -14 -13 -11    3.67    0.53
  13  14 -11    1.97    0.35
  14  13 -11    2.59    0.43
 -13 -14  -9    3.41    0.44
  13  14  -9    5.31    0.65
  14  13  -9    4.57    0.61
  13 -14   9    3.92    0.56
  14 -13   9    3.52    0.54
 -13 -14  -9    3.22    0.49
 -14 -13  -9    3.72    0.53
  13  14  -9    4.10    0.48
  14  13  -9    3.81    0.48
 -13  14   9    4.49    0.51
  13  14  -7    3.08    0.51
  14  13  -7    3.27    0.51
  13 -14   7    2.94    0.48
  14 -13   7    3.12    0.49
 -14  13   7    2.41    0.34
 -13  14   7    3.02    0.42
 -13 -14  -7    2.30    0.41
 -14 -13  -7    2.64    0.47
  13  14  -7    3.02    0.41
  14  13  -7    3.84    0.47
 -13  14   5    4.66    0.50
  13  14  -5    3.74    0.54
  14  13  -5    5.09    0.59
  13 -14   5    3.71    0.50
  14 -13   5    4.44    0.55
 -13 -14  -5    3.34    0.50
 -14 -13  -5    2.82    0.47
  13  14  -5    3.38    0.42
  14  13  -5    3.33    0.44
 -14  13   5    4.04    0.46
  14 -13   3    0.71    0.27
 -13 -14  -3    1.36    0.38
 -14 -13  -3    1.55    0.38
  13 -14   3    0.95    0.29
 -14  13   3    0.80    0.26
  13  14  -3    0.95    0.24
  14  13  -3    1.12    0.28
 -13  14   3    1.32    0.29
  13  14  -3    1.19    0.34
  14  13  -3    1.34    0.35
  13 -14   1    2.32    0.39
  14 -13   1    2.48    0.42
 -14  13   1    1.91    0.36
 -13  14   1    2.57    0.41
 -13 -14  -1    1.87    0.44
 -14 -13  -1    1.76    0.40
  13  14  -1    2.33    0.34
  14  13  -1    1.93    0.35
  13 -14  -1    2.84    0.41
  14 -13  -1    1.97    0.36
  14 -13  -1    1.95    0.43
 -13 -14   1    1.65    0.40
 -14 -13   1    1.78    0.44
  13  14   1    1.92    0.32
  14  13   1    2.25    0.36
  13 -14  -3    1.23    0.29
  14 -13  -3    0.93    0.36
 -13 -14   3    0.44    0.24
 -14 -13   3    1.17    0.36
  13  14   3    0.71    0.28
  13  14   3    0.91    0.23
  14  13   3    1.02    0.29
  13 -14  -5    3.26    0.54
  14 -13  -5    3.58    0.55
 -13 -14   5    3.26    0.54
 -14 -13   5    2.96    0.50
  13  14   5    3.61    0.55
  14  13   5    3.60    0.55
  14 -13  -5    3.70    0.40
  13 -14  -7    3.71    0.55
  14 -13  -7    3.39    0.55
 -13 -14   7    2.32    0.48
 -14 -13   7    3.77    0.56
  13  14   7    4.23    0.57
  14  13   7    3.47    0.54
  14 -13  -7    2.31    0.37
  13 -14  -9    3.08    0.41
  13 -14  -9    4.09    0.63
  14 -13  -9    4.24    0.61
 -13 -14   9    3.62    0.57
 -14 -13   9    4.69    0.61
  13  14   9    4.19    0.58
  14  13   9    4.38    0.62
  14 -13  -9    3.72    0.44
  13 -14 -11    3.65    0.47
  13 -14 -11    2.70    0.53
  14 -13 -11    2.65    0.52
 -13 -14  11    2.62    0.49
 -14 -13  11    3.06    0.54
  13  14  11    3.26    0.57
  14  13  11    3.14    0.57
  14  14 -10    3.19    0.55
  14 -14  10    2.42    0.46
 -14 -14 -10    3.46    0.50
  14  14 -10    2.84    0.44
  14  14  -8    3.11    0.52
  14 -14   8    2.68    0.48
 -14 -14  -8    1.79    0.42
 -14  14   8    3.04    0.43
  14  14  -8    2.74    0.41
  14  14  -6   -0.13    0.23
 -14  14   6    0.13    0.21
  14 -14   6   -0.18    0.24
 -14 -14  -6   -0.04    0.23
  14  14  -6   -0.40    0.23
  14  14  -4    3.02    0.48
  14 -14   4    3.30    0.49
 -14 -14  -4    2.03    0.43
  14  14  -4    3.32    0.43
 -14  14   4    3.33    0.44
  14 -14   2    1.81    0.36
 -14 -14  -2    2.38    0.47
 -14  14   2    2.27    0.40
  14  14  -2    2.22    0.35
  14  14  -2    2.93    0.48
  14 -14   0    3.89    0.50
 -14  14   0    3.83    0.49
 -14 -14   0    3.16    0.54
  14  14   0    4.10    0.46
  14 -14  -2    2.67    0.42
 -14 -14   2    1.62    0.43
  14  14   2    3.04    0.41
  14 -14  -4    2.92    0.54
 -14 -14   4    3.62    0.55
  14  14   4    2.26    0.47
  14 -14  -6    0.35    0.29
 -14 -14   6    0.06    0.30
  14  14   6    0.32    0.32
  14 -14  -8    2.81    0.55
 -14 -14   8    2.15    0.48
  14  14   8    2.25    0.49
  14 -14 -10    2.31    0.48
 -14 -14  10    2.73    0.52
  14  14  10    2.83    0.53
   0 -15  -1    5.63    0.52
   0  15  -1    5.75    0.31
   0  15   1    6.29    0.47
   0  15  -1    6.03    0.45
  15   0   1    5.79    0.53
  15   0  -1    6.34    0.55
   0  15  -1    5.89    0.54
   0  15   1    5.75    0.54
  15   0   1    6.08    0.29
   0 -15  -3   17.78    0.95
   0  15  -3   18.04    0.68
   0  15   3   19.87    0.90
  15   0   3   18.77    0.99
   0  15  -3   18.47    0.98
  15   0  -3   19.38    1.00
  15   0   3   17.63    0.56
   0  15   3   18.09    0.98
   0 -15  -5    0.37    0.24
   0  15  -5    0.07    0.12
   0  15  -5   -0.07    0.20
   0  15   5    0.02    0.18
  15   0   5    0.28    0.19
  15   0   5   -0.07    0.20
  15   0  -5    0.32    0.23
   0  15   5   -0.27    0.27
   0  15  -5   -0.26    0.22
   0  15  -7    3.05    0.42
   0 -15  -7    2.18    0.38
   0  15  -7    2.83    0.31
   0  15   7    2.55    0.41
   0  15   7    3.14    0.41
  15   0   7    3.03    0.38
  15   0   7    3.44    0.44
  15   0  -7    2.98    0.42
   0 -15  -9   23.49    1.19
   0  15  -9   23.07    1.01
   0  15   9   24.33    1.22
  15   0   9   23.30    1.16
   0  15   9   23.63    1.15
  15   0   9   22.82    1.08
   0  15  -9   21.32    1.13
  15   0  -9   24.84    1.23
   0  15 -11    1.35    0.34
   0 -15 -11    1.11    0.32
  15   0  11    1.27    0.32
   0  15 -11    0.84    0.24
  15   0  11    1.25    0.31
  15   0 -11    0.96    0.31
   0 -15 -13    2.65    0.44
   0  15 -13    3.21    0.48
  15   0  13    2.93    0.43
   0  15 -13    3.07    0.43
  15   0  13    3.18    0.45
 -15   0  13    3.29    0.44
  15   0 -13    3.60    0.53
   0 -15 -15    4.86    0.61
  15   0  15    4.80    0.55
   0  15 -15    4.68    0.54
   0  15 -15    4.05    0.57
 -15   0  15    4.60    0.50
  15   0 -15    4.63    0.62
   0 -15 -17    0.29    0.28
  15   0  17    0.55    0.25
   0  15 -17    0.32    0.25
   0  15 -17    0.58    0.36
  15   0 -17    0.95    0.38
   1  15 -18    1.22    0.37
  15  -1  18    0.97    0.30
  -1 -15 -18    0.55    0.31
   1  15 -18    0.95    0.39
  15   1 -18    0.77    0.33
  -1 -15 -16    0.51    0.32
   1  15 -16    0.95    0.32
  15  -1  16    0.92    0.31
   1  15 -16    0.49    0.33
 -15   1  16    1.03    0.27
  15   1 -16    1.73    0.45
  -1 -15 -14    1.90    0.43
   1  15 -14    1.98    0.37
  15  -1  14    1.46    0.33
   1  15 -14    1.65    0.40
 -15   1  14    1.67    0.34
  15   1 -14    1.94    0.42
   1  15 -12    9.16    0.66
  -1 -15 -12    9.58    0.78
  15  -1  12    9.42    0.75
  15  -1  12    8.45    0.67
   1  15 -12    8.64    0.75
  15   1 -12    8.16    0.74
   1  15 -10    8.97    0.61
  -1 -15 -10    8.18    0.70
  15  -1  10   10.05    0.75
  -1  15  10   10.17    0.77
  15  -1  10    8.48    0.63
   1  15 -10    8.30    0.70
  15   1 -10    8.27    0.71
   1  15  -8    6.22    0.46
  -1 -15  -8    5.20    0.55
  15  -1   8    5.88    0.50
  -1  15   8    5.09    0.50
  -1  15   8    5.72    0.57
  15  -1   8    5.51    0.56
   1  15  -8    5.97    0.57
  15   1  -8    5.63    0.57
  -1 -15  -6    7.71    0.64
  -1  15   6    7.74    0.66
   1  15  -6    8.62    0.49
  -1  15   6    8.91    0.62
  15  -1   6    8.87    0.59
   1  15  -6    9.00    0.68
  15  -1   6    7.81    0.65
   1  15  -6    7.59    0.64
  15   1  -6    7.34    0.64
  -1 -15  -4   13.42    0.81
   1  15  -4   11.90    0.53
  -1  15   4   13.22    0.72
  15  -1   4   12.04    0.69
  15  -1   4   12.55    0.80
   1  15  -4   13.67    0.82
  15   1  -4   12.00    0.80
  -1  15   4   13.45    0.84
  -1 -15  -2    3.92    0.45
   1  15  -2    4.09    0.24
  -1  15   2    4.41    0.48
  -1  15   2    5.46    0.43
  15  -1   2    4.74    0.48
  15   1  -2    5.34    0.53
   1  15  -2    4.52    0.49
  15   1  -2    4.23    0.32
  -1  15   0   12.51    0.63
   1  15   0   11.89    0.66
  15   1   0   10.34    0.73
  15  -1   0   12.35    0.77
  -1  15   0   11.78    0.78
  15   1   0   12.37    0.51
   1  15   0   12.68    0.80
   1 -15  -2    4.44    0.46
   1  15   2    5.02    0.45
  -1  15  -2    4.30    0.36
  -1  15  -2    5.16    0.52
  15   1   2    4.72    0.28
  15   1   2    4.71    0.50
  15  -1  -2    4.84    0.49
   1  15   2    5.07    0.51
   1  15   4   11.92    0.80
   1 -15  -4   11.12    0.74
  -1  15  -4   12.24    0.60
   1  15   4   13.58    0.76
  15   1   4   13.05    0.74
  -1  15  -4   13.20    0.82
  15   1   4   14.62    0.87
  15  -1  -4   12.98    0.82
   1 -15  -6    8.26    0.66
   1  15   6    7.76    0.67
  -1  15  -6    7.84    0.50
   1  15   6    8.34    0.62
  15   1   6    8.06    0.59
  15   1   6    7.67    0.64
  -1  15  -6    8.12    0.64
  15  -1  -6    7.46    0.63
   1 -15  -8    5.96    0.57
  -1  15  -8    5.93    0.47
   1  15   8    5.93    0.60
   1  15   8    6.19    0.56
  15   1   8    5.30    0.51
  15   1   8    7.00    0.63
  -1  15  -8    5.56    0.54
  15  -1  -8    5.36    0.56
   1 -15 -10    7.63    0.69
  -1  15 -10    7.33    0.58
  15   1  10    9.57    0.70
   1  15  10    8.74    0.72
   1  15  10    8.86    0.71
  15   1  10    9.50    0.70
  -1  15 -10    7.71    0.66
  15  -1 -10    8.59    0.72
   1 -15 -12    9.70    0.79
  -1  15 -12    8.01    0.65
  15   1  12    8.36    0.67
  15   1  12   11.30    0.79
 -15  -1  12   10.01    0.74
  -1  15 -12    9.56    0.76
  15  -1 -12   10.28    0.82
   1 -15 -14    1.38    0.34
  15   1  14    1.68    0.35
  -1  15 -14    1.43    0.35
  -1  15 -14    1.32    0.33
  15   1  14    1.85    0.39
 -15  -1  14    1.73    0.35
  15  -1 -14    2.05    0.43
   1 -15 -16    0.59    0.33
  15   1  16    0.87    0.28
  -1  15 -16    0.31    0.24
  -1  15 -16    0.77    0.31
 -15  -1  16    0.49    0.23
  15  -1 -16    0.51    0.33
  15   1  18    1.09    0.33
   1 -15 -18    1.08    0.34
  -1  15 -18    0.97    0.33
  15  -1 -18    1.05    0.37
   2  15 -17    1.25    0.33
  -2 -15 -17    0.64    0.31
  15  -2  17    1.12    0.31
   2  15 -17    1.86    0.47
  15   2 -17    1.11    0.37
   2  15 -15    1.75    0.34
  -2 -15 -15    1.67    0.40
  15  -2  15    1.76    0.39
   2  15 -15    2.14    0.42
 -15   2  15    1.51    0.31
  15   2 -15    1.82    0.41
  -2 -15 -13    1.07    0.34
   2  15 -13    0.88    0.25
   2  15 -13    1.25    0.37
  15  -2  13    1.02    0.29
  15   2 -13    1.99    0.41
   2  15 -11    1.04    0.30
  -2 -15 -11    0.33    0.25
   2  15 -11    0.86    0.23
  15  -2  11    0.37    0.22
  -2  15  11    1.82    0.40
  15  -2  11    0.81    0.20
  15  -2  11    1.02    0.27
  15   2 -11    1.22    0.33
   2  15  -9    3.34    0.47
   2 -15   9    3.21    0.42
  -2 -15  -9    3.99    0.47
   2  15  -9    3.00    0.33
  15  -2   9    2.96    0.42
  15  -2   9    2.99    0.37
  -2  15   9    3.15    0.47
  15   2  -9    3.69    0.49
   2  15  -7    2.00    0.38
  -2  15   7    2.26    0.40
  -2 -15  -7    2.28    0.37
   2 -15   7    1.71    0.30
   2  15  -7    1.54    0.22
   2  15  -7    1.87    0.33
  15  -2   7    2.42    0.32
  15  -2   7    2.47    0.37
  15   2  -7    2.25    0.38
  -2 -15  -5    2.38    0.36
   2 -15   5    3.03    0.36
  15   2  -5    2.56    0.31
  -2  15   5    2.95    0.35
  15  -2   5    2.99    0.34
  -2  15   5    2.74    0.39
   2  15  -5    2.46    0.37
  15  -2   5    1.73    0.32
  15   2  -5    2.83    0.42
   2  15  -5    3.00    0.42
   2  15  -5    2.47    0.23
  -2 -15  -3    0.27    0.20
   2 -15   3    0.32    0.15
  -2  15   3    0.24    0.18
  15   2  -3   -0.03    0.14
  -2  15   3    0.39    0.16
  15  -2   3    0.16    0.22
  15   2  -3    0.08    0.21
   2  15  -3    0.22    0.20
   2  15  -1    1.46    0.31
   2 -15   1    1.10    0.20
  15   2  -1    0.88    0.16
  -2  15   1    1.26    0.22
  15  -2   1    1.14    0.27
  15   2  -1    1.24    0.33
  -2  15   1    0.81    0.25
  15   2   1    0.78    0.15
   2 -15  -1    1.28    0.28
   2 -15  -1    0.91    0.16
   2  15   1    0.88    0.28
  -2  15  -1    0.97    0.18
   2  15   1    1.06    0.25
  -2  15  -1    1.20    0.29
  15   2   1    0.96    0.28
  15  -2  -1    1.31    0.31
   2 -15  -3   -0.01    0.18
   2 -15  -3    0.27    0.09
  -2  15  -3    0.24    0.20
   2  15   3    0.18    0.19
  -2  15  -3    0.29    0.14
  15   2   3   -0.05    0.20
   2  15   3   -0.07    0.18
  15  -2  -3    0.30    0.24
  15   2   3    0.28    0.13
   2 -15  -5    2.16    0.37
   2  15   5    3.27    0.44
   2  15   5    2.86    0.38
  15   2   5    2.79    0.37
  15   2   5    3.25    0.42
  15  -2  -5    2.61    0.38
  -2  15  -5    2.80    0.39
  -2  15  -7    2.19    0.35
   2  15   7    1.92    0.38
   2 -15  -7    1.98    0.37
   2  15   7    1.84    0.35
  15   2   7    1.72    0.33
  -2  15  -7    1.79    0.28
  15   2   7    2.26    0.38
  15  -2  -7    2.72    0.42
  -2  15  -9    2.77    0.41
   2 -15  -9    2.97    0.45
   2  15   9    2.86    0.43
  15   2   9    3.33    0.41
   2  15   9    3.04    0.42
  -2  15  -9    3.57    0.41
  15   2   9    2.92    0.40
  15  -2  -9    3.06    0.43
  -2  15 -11    0.85    0.27
   2 -15 -11    0.68    0.28
  15   2  11    0.93    0.27
  -2  15 -11    0.78    0.24
   2  15  11    0.87    0.31
  15   2  11    0.76    0.28
 -15  -2  11    1.08    0.35
  15  -2 -11    0.82    0.29
   2 -15 -13    1.04    0.34
  15   2  13    1.77    0.34
  -2  15 -13    0.97    0.31
  -2  15 -13    1.21    0.30
  15   2  13    1.35    0.36
 -15  -2  13    0.83    0.29
  15  -2 -13    0.78    0.28
   2 -15 -15    1.80    0.41
  15   2  15    2.48    0.41
  -2  15 -15    1.36    0.34
  -2  15 -15    1.64    0.39
  15   2  15    1.94    0.43
 -15  -2  15    1.94    0.36
  15  -2 -15    1.90    0.41
  15   2  17    1.11    0.31
   2 -15 -17    1.18    0.38
  -2  15 -17    1.31    0.35
  -2  15 -17    0.96    0.36
 -15  -2  17    1.13    0.31
  15  -2 -17    1.39    0.37
   3  15 -18    1.21    0.35
  -3 -15 -18    0.15    0.25
  15  -3  18    0.79    0.29
   3  15 -18    0.64    0.37
 -15  -3 -18    0.60    0.29
  15   3 -18    0.50    0.33
   3  15 -16    0.07    0.20
  -3 -15 -16    0.37    0.26
  15  -3  16   -0.10    0.23
   3  15 -16    0.62    0.34
  15   3 -16   -0.11    0.27
   3  15 -14    0.29    0.21
  -3 -15 -14    0.76    0.32
  15  -3  14    0.54    0.24
   3  15 -14    0.60    0.30
  15   3 -14    0.57    0.28
   3  15 -12    1.55    0.28
   3 -15  12    2.11    0.37
  -3 -15 -12    2.36    0.41
   3  15 -12    1.32    0.34
  15  -3  12    2.37    0.39
  15   3 -12    1.62    0.38
  -3  15  12    1.95    0.41
   3  15 -10    2.75    0.44
  -3  15  10    3.03    0.46
   3  15 -10    2.59    0.31
   3 -15  10    2.67    0.42
  -3 -15 -10    2.84    0.44
  15  -3  10    2.62    0.41
  15  -3  10    2.97    0.36
  15  -3  10    3.07    0.37
  15   3 -10    3.36    0.46
   3  15  -8    2.54    0.41
   3  15  -8    2.19    0.26
  -3 -15  -8    2.59    0.42
   3 -15   8    2.04    0.32
  -3  15   8    2.19    0.39
  15  -3   8    2.41    0.40
  15  -3   8    2.85    0.39
   3  15  -8    2.28    0.36
  15  -3   8    2.62    0.32
  15  -3   8    2.09    0.37
  15   3  -8    2.55    0.40
  -3 -15  -6   -0.10    0.21
   3 -15   6   -0.10    0.16
  15   3  -6    0.13    0.19
  15  -3   6    0.28    0.18
  15  -3   6    0.02    0.21
   3  15  -6    0.12    0.15
  -3  15   6    0.01    0.19
  15   3  -6    0.22    0.21
   3  15  -6    0.00    0.21
  -3 -15  -4    3.78    0.44
   3 -15   4    3.12    0.35
  -3  15   4    3.75    0.46
  15   3  -4    2.95    0.32
  -3  15   4    3.45    0.34
 -15   3   4    3.83    0.25
  15  -3   4    3.23    0.33
  15  -3   4    3.04    0.39
  15   3  -4    3.04    0.43
   3  15  -4    3.84    0.44
  -3  15   2    4.07    0.49
  -3 -15  -2    3.28    0.40
   3  15  -2    3.51    0.42
   3 -15   2    3.12    0.33
  -3  15   2    3.19    0.31
  15  -3   2    3.84    0.43
  15   3  -2    3.71    0.34
  15   3  -2    3.61    0.44
   3 -15   0    4.95    0.38
  -3  15   0    5.93    0.38
  15   3   0    6.29    0.57
  15  -3   0    5.25    0.52
  -3  15   0    6.34    0.57
  15   3   0    6.11    0.40
   3  15   0    5.46    0.53
   3 -15  -2    3.49    0.41
   3 -15  -2    3.26    0.28
  -3  15  -2    3.05    0.26
  -3  15  -2    2.62    0.38
   3  15   2    3.48    0.40
  15   3   2    3.05    0.28
  15   3   2    2.71    0.41
   3  15   2    3.03    0.40
  15  -3  -2    3.11    0.40
   3 -15  -4    3.60    0.43
   3  15   4    3.69    0.46
  -3  15  -4    2.92    0.25
   3  15   4    3.84    0.42
  15   3   4    2.51    0.38
   3 -15  -4    3.42    0.25
  15  -3  -4    2.84    0.39
  -3  15  -4    2.51    0.36
  -3  15  -6   -0.27    0.20
   3  15   6    0.00    0.22
   3 -15  -6   -0.10    0.18
   3  15   6    0.07    0.20
  15   3   6   -0.12    0.21
  15   3   6   -0.37    0.24
  15  -3  -6    0.13    0.21
  -3  15  -8    1.97    0.33
   3 -15  -8    2.35    0.38
   3  15   8    1.69    0.34
  15   3   8    2.80    0.39
  15   3   8    2.71    0.40
   3  15   8    2.45    0.41
  15  -3  -8    2.56    0.39
  -3  15 -10    2.56    0.40
   3 -15 -10    2.77    0.43
  15   3  10    3.24    0.41
   3  15  10    2.95    0.45
  15   3  10    2.38    0.41
  -3  15 -10    3.42    0.41
 -15  -3  10    2.57    0.41
  15  -3 -10    3.26    0.49
   3 -15 -12    1.76    0.36
  -3  15 -12    1.73    0.36
  15   3  12    1.89    0.33
  -3  15 -12    1.82    0.35
   3  15  12    1.80    0.41
  15   3  12    2.44    0.43
 -15  -3  12    1.66    0.36
  15  -3 -12    1.58    0.34
   3 -15 -14    0.54    0.34
  15   3  14    0.50    0.23
  -3  15 -14    0.70    0.30
  -3  15 -14    0.25    0.25
  15   3  14   -0.01    0.23
 -15  -3  14    0.51    0.26
  15  -3 -14    0.59    0.30
   3 -15 -16    0.49    0.28
  15   3  16    0.00    0.19
  -3  15 -16    0.22    0.22
  -3  15 -16    0.73    0.30
  15   3  16    0.45    0.27
 -15  -3  16    0.83    0.30
  15  -3 -16    0.30    0.29
  15   3  18    0.39    0.23
  -3  15 -18    0.21    0.26
   3 -15 -18   -0.02    0.28
  15  -3 -18    0.56    0.31
   4  15 -17    1.48    0.35
  -4 -15 -17    1.48    0.41
  15  -4  17    1.37    0.36
   4  15 -17    1.31    0.40
 -15  -4 -17    1.65    0.37
  15   4 -17    0.99    0.37
   4  15 -15    2.98    0.43
   4 -15  15    2.50    0.45
  -4 -15 -15    2.93    0.48
  15  -4  15    3.83    0.54
   4  15 -15    3.69    0.57
  15   4 -15    2.82    0.48
   4  15 -13    1.15    0.26
   4 -15  13    1.11    0.34
  -4 -15 -13    1.13    0.35
   4  15 -13    0.88    0.32
  15  -4  13    1.12    0.34
  15   4 -13    0.93    0.31
   4  15 -11   -0.03    0.15
   4  15 -11    0.27    0.22
  -4 -15 -11   -0.12    0.25
   4 -15  11    0.25    0.21
  15  -4  11   -0.33    0.27
  15  -4  11    0.07    0.15
   4  15 -11    0.21    0.18
  -4  15  11   -0.03    0.26
  15   4 -11   -0.18    0.23
   4  15  -9    0.31    0.26
  -4 -15  -9    0.96    0.28
   4 -15   9    0.70    0.26
  15  -4   9    0.51    0.25
  15  -4   9    0.89    0.23
  -4  15   9    0.77    0.30
  15   4  -9    0.68    0.25
  15  -4   9    0.51    0.18
   4  15  -9    0.71    0.24
  15   4  -9    0.59    0.27
  -4  15   7   11.60    0.79
  -4 -15  -7    9.42    0.72
   4 -15   7   10.52    0.72
  15  -4   7    9.59    0.74
  15  -4   7   10.04    0.70
  15  -4   7   11.17    0.61
  15  -4   7   10.75    0.75
   4  15  -7   10.21    0.70
   4  15  -7   10.34    0.78
  15   4  -7   11.31    0.79
  15   4  -7   10.80    0.68
  -4 -15  -5    2.56    0.39
   4 -15   5    2.51    0.34
  15   4  -5    3.18    0.36
  -4  15   5    3.49    0.45
  15  -4   5    2.35    0.27
  15  -4   5    2.74    0.38
 -15   4   5    3.11    0.24
  15   4  -5    2.16    0.38
   4  15  -5    2.81    0.39
   4  15  -5    2.94    0.43
  -4  15   3    1.85    0.34
  -4 -15  -3    1.93    0.34
   4  15  -3    2.56    0.36
  15   4  -3    2.29    0.29
   4 -15   3    2.14    0.30
  15  -4   3    2.06    0.25
  15  -4   3    1.83    0.33
  15   4  -3    1.95    0.34
  15   4  -1    0.82    0.19
   4 -15   1    0.61    0.17
   4  15  -1    0.71    0.26
  -4  15   1    0.78    0.17
  15  -4   1    1.04    0.26
  15   4  -1    0.62    0.25
  -4  15   1    0.60    0.25
   4 -15  -1    0.52    0.23
   4 -15  -1    0.79    0.18
  -4  15  -1    0.53    0.13
   4  15   1    0.87    0.27
  -4  15  -1    0.82    0.28
  15   4   1    0.74    0.27
   4  15   1    0.65    0.25
  15  -4  -1    0.59    0.23
  15   4   1    0.49    0.15
   4 -15  -3    1.80    0.31
   4  15   3    1.55    0.35
   4 -15  -3    1.64    0.20
  -4  15  -3    2.55    0.37
   4  15   3    2.02    0.32
  15   4   3    1.72    0.32
  15  -4  -3    1.82    0.32
   4  15   5    2.61    0.41
   4 -15  -5    2.44    0.36
   4 -15  -5    2.49    0.22
  15  -4  -5    2.77    0.24
   4  15   5    2.44    0.38
  15   4   5    3.12    0.43
  15   4   5    2.64    0.39
  15  -4  -5    2.46    0.38
  -4  15  -5    1.96    0.32
   4 -15  -7    9.87    0.73
   4  15   7    9.89    0.76
   4  15   7   11.31    0.78
 -15  -4   7    9.57    0.78
  15   4   7   11.22    0.77
  15   4   7   10.45    0.77
  -4  15  -7   10.20    0.69
  15  -4  -7    9.73    0.73
  -4  15  -9    0.69    0.24
   4 -15  -9    0.70    0.27
   4  15   9    0.98    0.29
  15   4   9    0.24    0.23
 -15  -4   9    0.48    0.28
  15  -4  -9    0.98    0.30
   4 -15 -11   -0.02    0.23
  -4  15 -11   -0.13    0.20
  15   4  11   -0.19    0.18
   4  15  11    0.18    0.27
  15   4  11    0.07    0.23
  -4  15 -11    0.00    0.21
 -15  -4  11   -0.03    0.22
  15  -4 -11   -0.24    0.27
   4 -15 -13    1.25    0.36
  15   4  13    1.49    0.31
  -4  15 -13    1.26    0.33
   4  15  13    1.99    0.43
  -4  15 -13    1.38    0.32
  15   4  13    0.78    0.30
 -15  -4  13    0.79    0.30
  15  -4 -13    1.21    0.35
   4 -15 -15    3.01    0.49
  15   4  15    2.51    0.38
  -4  15 -15    2.54    0.45
  -4  15 -15    3.35    0.48
  15   4  15    3.62    0.55
 -15  -4  15    2.05    0.39
  15  -4 -15    2.85    0.49
  15   4  17    1.26    0.30
   4 -15 -17    1.63    0.41
  -4  15 -17    1.31    0.37
  15   4  17    1.61    0.43
 -15  -4  17    1.62    0.36
  15  -4 -17    1.48    0.41
   5 -15  16    0.56    0.29
  -5 -15 -16    0.74    0.34
  15  -5  16    1.14    0.34
   5  15 -16    0.48    0.35
 -15  -5 -16    0.39    0.25
  15   5 -16    0.61    0.28
   5 -15  14    1.60    0.39
  -5 -15 -14    1.86    0.41
   5  15 -14    0.90    0.32
  15  -5  14    1.22    0.35
  15   5 -14    0.85    0.30
  -5 -15 -12    8.07    0.72
  15  -5  12    7.08    0.69
  -5  15  12    8.29    0.71
   5  15 -12    7.34    0.61
   5 -15  12    8.50    0.75
   5  15 -12    8.39    0.77
  15   5 -12    8.40    0.74
   5  15 -10    6.06    0.65
   5 -15  10    6.19    0.61
  -5 -15 -10    4.82    0.56
  15  -5  10    5.80    0.60
  15  -5  10    5.61    0.50
   5  15 -10    5.90    0.54
  -5  15  10    5.85    0.58
  15   5 -10    4.60    0.55
  15   5 -10    5.98    0.57
   5  15  -8    3.43    0.48
  -5 -15  -8    3.78    0.51
   5 -15   8    3.01    0.42
  15  -5   8    3.30    0.45
  15   5  -8    3.46    0.42
  15  -5   8    3.76    0.43
  15  -5   8    3.34    0.33
   5  15  -8    2.80    0.38
  15   5  -8    3.48    0.47
  -5  15   8    3.39    0.46
  -5 -15  -6    5.89    0.57
   5 -15   6    6.10    0.54
  15  -5   6    6.84    0.59
  15  -5   6    6.09    0.42
  15  -5   6    5.93    0.55
   5  15  -6    6.86    0.65
  15   5  -6    5.59    0.56
   5  15  -6    6.13    0.54
  15   5  -6    6.94    0.54
  -5  15   6    7.17    0.62
  -5 -15  -4    2.05    0.36
   5  15  -4    2.11    0.34
  -5  15   4    2.28    0.37
  15   5  -4    2.08    0.30
   5 -15   4    1.85    0.30
  15  -5   4    1.86    0.36
 -15   5   4    2.46    0.25
  15  -5   4    2.52    0.27
  15  -5   4    2.50    0.36
  15   5  -4    1.82    0.35
  15   5  -2    1.05    0.21
   5 -15   2    1.33    0.25
   5  15  -2    1.35    0.29
  15  -5   2    1.06    0.18
  15  -5   2    0.87    0.24
  15   5  -2    1.29    0.30
  -5  15   2    1.32    0.30
   5 -15   0    0.06    0.12
  -5  15   0   -0.01    0.17
  15   5   0   -0.11    0.24
  15  -5   0    0.13    0.22
   5  15   0    0.15    0.21
  15   5   0    0.07    0.16
   5 -15  -2    0.75    0.23
   5  15   2    0.91    0.28
   5 -15  -2    1.04    0.19
  -5  15  -2    1.48    0.32
   5  15   2    1.01    0.27
  15   5   2    0.74    0.24
  15  -5  -2    0.92    0.27
   5  15   4    2.18    0.38
   5 -15  -4    2.04    0.34
   5 -15  -4    2.12    0.24
   5  15   4    2.07    0.36
  15   5   4    1.87    0.35
  15  -5  -4    2.00    0.33
  -5  15  -4    1.85    0.30
   5 -15  -6    6.53    0.59
   5 -15  -6    6.44    0.38
  15  -5  -6    7.01    0.43
   5  15   6    6.10    0.61
   5  15   6    7.05    0.63
 -15  -5   6    6.77    0.66
  15   5   6    5.77    0.56
  15   5   6    6.72    0.62
  -5  15  -6    6.61    0.54
  15  -5  -6    6.40    0.58
  -5  15  -8    3.05    0.38
   5 -15  -8    3.16    0.45
   5  15   8    3.21    0.47
  15   5   8    3.47    0.47
 -15  -5   8    3.11    0.48
  15  -5  -8    3.69    0.46
   5 -15 -10    5.52    0.59
  15   5  10    5.69    0.52
  15   5  10    5.59    0.61
   5  15  10    5.65    0.60
 -15  -5  10    4.63    0.56
  -5  15 -10    5.12    0.51
  15  -5 -10    5.71    0.59
   5 -15 -12    8.29    0.73
  15   5  12    6.84    0.59
  -5  15 -12    9.09    0.72
 -15  -5  12    6.75    0.66
   5  15  12    8.65    0.77
  15   5  12    8.38    0.75
  15  -5 -12    7.48    0.69
  -5  15 -12    7.37    0.64
   5 -15 -14    1.99    0.43
  15   5  14    0.98    0.27
  -5  15 -14    1.03    0.30
   5  15  14    1.42    0.39
  15   5  14    1.42    0.39
  -5  15 -14    1.41    0.36
 -15  -5  14    1.06    0.32
  15  -5 -14    2.07    0.42
  15   5  16    0.60    0.23
   5 -15 -16    0.81    0.29
  -5  15 -16    0.33    0.26
  15   5  16    0.88    0.37
 -15  -5  16    1.16    0.34
  15  -5 -16    0.43    0.31
   6 -15  17    1.22    0.35
  -6 -15 -17    2.40    0.47
  15  -6  17    1.61    0.40
   6  15 -17    2.54    0.53
 -15  -6 -17    2.10    0.39
  15   6 -17    1.73    0.40
   6 -15  15    5.58    0.65
  15  -6  15    6.33    0.68
   6  15 -15    5.70    0.69
  15   6 -15    5.59    0.65
  -6 -15 -15    5.73    0.64
  -6  15  13    5.15    0.58
  -6 -15 -13    4.59    0.58
   6 -15  13    6.14    0.66
   6  15 -13    4.59    0.61
  15  -6  13    5.75    0.63
   6  15 -13    5.45    0.52
  15   6 -13    5.30    0.61
  -6  15  11    1.07    0.32
   6  15 -11    1.04    0.31
  -6 -15 -11    0.69    0.31
   6 -15  11    1.13    0.32
  15  -6  11    0.87    0.31
  15  -6  11    0.73    0.21
  15   6 -11    1.14    0.33
   6  15 -11    0.88    0.25
  15   6 -11    1.31    0.35
  -6 -15  -9    7.28    0.63
  -6  15   9    7.61    0.66
   6 -15   9    6.48    0.61
  15  -6   9    5.69    0.60
  15  -6   9    6.87    0.57
   6  15  -9    7.26    0.58
   6  15  -9    7.01    0.68
  15   6  -9    7.20    0.66
  15   6  -9    7.73    0.63
  -6 -15  -7   22.48    1.14
   6 -15   7   21.23    1.10
  15  -6   7   24.32    1.24
  15  -6   7   24.45    1.15
  15  -6   7   20.00    1.06
   6  15  -7   22.70    1.23
  15   6  -7   23.34    1.20
   6  15  -7   22.95    1.09
  15   6  -7   23.39    1.10
  -6  15   7   24.56    1.20
  -6 -15  -5    0.76    0.25
   6  15  -5    0.99    0.27
  15   6  -5    0.26    0.20
   6 -15   5    0.99    0.25
  -6  15   5    0.26    0.25
  15  -6   5    0.67    0.23
  15  -6   5    0.80    0.25
 -15   6   5    0.76    0.16
  15   6  -5    0.85    0.29
   6  15  -5    0.96    0.29
  -6 -15  -3    1.49    0.32
  15   6  -3    1.02    0.25
   6 -15   3    1.00    0.23
  15  -6   3    1.14    0.30
   6  15  -3    0.92    0.26
  15  -6   3    1.23    0.18
  15  -6   3    1.02    0.27
  15   6  -3    1.85    0.36
  -6  15   3    1.31    0.30
   6 -15   1    3.99    0.38
  15  -6   1    4.20    0.51
  15   6  -1    4.77    0.44
  -6  15   1    3.80    0.45
  15  -6   1    3.22    0.40
  15   6  -1    3.92    0.45
   6  15  -1    3.35    0.42
   6 -15  -1    4.56    0.44
   6 -15  -1    4.05    0.37
   6  15   1    3.87    0.47
  -6  15  -1    4.83    0.51
  15   6   1    4.75    0.51
  15  -6  -1    3.77    0.44
   6  15   3    1.00    0.26
   6 -15  -3    1.14    0.28
   6 -15  -3    1.20    0.20
   6  15   3    1.19    0.30
  15   6   3    0.90    0.28
  15  -6  -3    1.19    0.29
  -6  15  -3    1.44    0.26
  -6  15  -5    0.45    0.19
   6 -15  -5    0.66    0.24
   6 -15  -5    0.77    0.17
   6  15   5    0.67    0.28
  15   6   5    0.42    0.26
   6  15   5    0.85    0.30
 -15  -6   5    1.07    0.35
  15   6   5    0.95    0.30
  15  -6  -5    0.66    0.25
   6 -15  -7   23.00    1.14
  15  -6  -7   22.04    0.90
 -15  -6   7   22.14    1.23
   6  15   7   25.05    1.24
  15   6   7   20.68    1.15
  15   6   7   24.98    1.24
  -6  15  -7   23.00    1.04
  15  -6  -7   24.49    1.17
   6 -15  -9    6.86    0.64
  15  -6  -9    7.50    0.54
  15   6   9    7.27    0.66
   6  15   9    5.96    0.63
 -15  -6   9    6.33    0.66
  15  -6  -9    7.51    0.65
  -6  15  -9    6.87    0.57
   6 -15 -11    1.00    0.28
  15   6  11    0.85    0.24
  -6  15 -11    0.44    0.21
   6  15  11    0.90    0.36
  15   6  11    0.70    0.30
 -15  -6  11    1.00    0.34
  15  -6 -11    1.11    0.31
  15   6  13    4.92    0.49
   6 -15 -13    4.79    0.58
  -6  15 -13    4.54    0.52
   6  15  13    4.45    0.59
  15   6  13    5.92    0.66
 -15  -6  13    4.69    0.57
  -6  15 -13    5.15    0.57
  15  -6 -13    5.76    0.63
   6 -15 -15    5.00    0.62
   6  15  15    5.39    0.67
  15   6  15    5.61    0.67
  -6  15 -15    5.09    0.59
 -15  -6  15    5.65    0.62
  15  -6 -15    6.53    0.68
   6 -15 -17    1.71    0.40
  15  -6 -17    1.58    0.47
  -6  15 -17    1.94    0.45
  15   6  17    2.47    0.51
 -15  -6  17    1.35    0.34
  15  -6 -17    1.83    0.44
   7 -15  16    0.31    0.27
  -7 -15 -16   -0.18    0.32
  15  -7  16    0.21    0.24
   7  15 -16   -0.03    0.30
 -15  -7 -16    0.34    0.23
  15   7 -16   -0.12    0.27
  -7 -15 -14    1.33    0.35
   7 -15  14    0.86    0.34
   7  15 -14    1.01    0.36
  15  -7  14    1.53    0.35
  15   7 -14    1.25    0.33
   7 -15  12    8.75    0.77
  -7 -15 -12    6.26    0.64
  15  -7  12    7.54    0.72
  -7  15  12    8.78    0.73
   7  15 -12    6.24    0.55
   7  15 -12    7.91    0.78
  15   7 -12    7.31    0.71
  15   7 -12    7.64    0.70
   7  15 -10    5.04    0.61
  -7 -15 -10    5.04    0.55
   7 -15  10    5.75    0.60
  15  -7  10    5.73    0.61
  15  -7  10    5.20    0.50
  15   7 -10    5.29    0.56
  -7  15  10    5.49    0.58
   7  15 -10    4.99    0.50
  15   7 -10    6.39    0.63
   7  15  -8    4.81    0.60
  -7 -15  -8    4.33    0.51
   7 -15   8    4.25    0.49
  15   7  -8    4.16    0.48
  15  -7   8    4.76    0.49
  -7 -15  -8    4.28    0.48
  -7  15   8    4.01    0.49
   7  15  -8    4.52    0.46
  15   7  -8    4.53    0.52
  15  -7   8    3.70    0.50
  -7 -15  -6    6.73    0.61
   7 -15   6    5.38    0.53
  15  -7   6    6.00    0.61
  15  -7   6    6.17    0.59
  -7 -15  -6    5.28    0.54
  -7  15   6    5.48    0.55
  15  -7   6    6.67    0.58
  15   7  -6    5.67    0.57
  15   7  -6    6.32    0.55
 -15   7   6    5.72    0.40
   7  15  -6    6.84    0.56
   7  15  -6    6.13    0.65
  -7 -15  -4    4.80    0.50
   7 -15   4    4.84    0.47
  15  -7   4    4.37    0.52
  -7 -15  -4    4.53    0.52
 -15   7   4    6.11    0.43
  15  -7   4    5.34    0.50
  15   7  -4    6.16    0.52
  15   7  -4    5.05    0.53
  -7  15   4    6.08    0.58
   7  15  -4    4.86    0.48
   7  15  -2    6.40    0.57
   7 -15   2    5.72    0.50
  15  -7   2    6.38    0.63
  -7 -15  -2    6.46    0.62
  15  -7   2    6.22    0.54
  15   7  -2    7.15    0.55
  15   7  -2    6.55    0.60
  -7  15   2    7.23    0.62
   7 -15   0    1.20    0.23
   7  15   0    1.36    0.31
  15  -7   0    0.85    0.32
  -7 -15   0    1.30    0.34
  -7  15   0    0.90    0.29
  15   7   0    0.96    0.27
  15  -7   0    1.04    0.28
  15   7   0    0.97    0.25
   7 -15  -2    5.73    0.51
   7 -15  -2    6.70    0.49
   7  15   2    6.49    0.58
  15  -7  -2    6.26    0.66
 -15  -7   2    6.39    0.66
   7  15   2    7.41    0.64
  15   7   2    5.27    0.55
  15  -7  -2    6.30    0.54
   7 -15  -4    5.34    0.50
   7 -15  -4    5.20    0.41
  15  -7  -4    3.76    0.53
   7  15   4    5.51    0.57
 -15  -7   4    4.88    0.60
  -7  15  -4    5.06    0.44
  15   7   4    4.82    0.53
  15  -7  -4    5.26    0.50
   7  15   4    5.88    0.58
   7 -15  -6    5.73    0.55
   7 -15  -6    6.05    0.43
  15  -7  -6    5.70    0.65
   7  15   6    6.77    0.65
  15   7   6    6.02    0.62
  15   7   6    6.52    0.62
 -15  -7   6    5.75    0.63
  -7  15  -6    5.65    0.48
  15  -7  -6    5.87    0.55
   7 -15  -8    4.31    0.50
  -7  15  -8    3.56    0.40
  15  -7  -8    4.01    0.58
   7  15   8    4.41    0.57
  15   7   8    4.89    0.58
 -15  -7   8    3.94    0.54
  15  -7  -8    4.08    0.49
   7 -15 -10    4.80    0.54
  15  -7 -10    4.89    0.46
  15   7  10    5.21    0.49
  15  -7 -10    5.09    0.63
   7  15  10    5.68    0.64
  15   7  10    4.89    0.58
 -15  -7  10    4.91    0.58
  15  -7 -10    5.40    0.58
  -7  15 -10    5.22    0.49
   7 -15 -12    7.21    0.68
  15   7  12    7.78    0.60
 -15  -7  12    7.53    0.71
  15  -7 -12    6.57    0.74
   7  15  12    8.30    0.78
  15   7  12    9.08    0.79
  15  -7 -12    7.97    0.71
  -7  15 -12    6.26    0.58
   7 -15 -14    0.98    0.33
  15  -7 -14    1.13    0.37
   7  15  14    1.32    0.37
  15   7  14    1.29    0.37
 -15  -7  14    0.79    0.31
  -7  15 -14    0.92    0.30
  15  -7 -14    1.45    0.37
   7 -15 -16    0.18    0.27
  15  -7 -16   -0.34    0.36
   7  15  16    0.23    0.30
  15   7  16    0.68    0.35
 -15  -7  16    0.22    0.24
  -7  15 -16    0.41    0.28
  15  -7 -16    0.14    0.25
  -8 -15 -15    0.33    0.26
   8 -15  15    0.87    0.33
  15  -8  15    0.24    0.22
   8  15 -15    0.46    0.34
  15   8 -15    0.22    0.26
  -8 -15 -13    0.90    0.28
   8 -15  13    1.14    0.34
   8  15 -13    0.50    0.26
  15  -8  13    1.30    0.37
  15   8 -13    0.87    0.35
  -8  15  13    1.29    0.36
  15   8 -13    1.82    0.39
  -8 -15 -11    1.98    0.38
   8  15 -11    2.14    0.46
   8 -15  11    2.57    0.44
  15   8 -11    2.29    0.40
  -8 -15 -11    1.81    0.31
  15  -8  11    3.00    0.48
  -8  15  11    2.70    0.45
  15   8 -11    1.74    0.40
   8  15 -11    2.09    0.32
  -8  15   9    0.13    0.23
   8  15  -9    0.45    0.29
  -8 -15  -9    0.32    0.22
   8  15  -9    0.25    0.17
   8 -15   9    0.52    0.23
  15   8  -9    0.28    0.24
  15  -8   9    0.16    0.22
  15  -8   9    0.39    0.21
  -8 -15  -9    0.19    0.20
  15   8  -9    0.42    0.29
   8  15  -7    3.94    0.52
  -8 -15  -7    3.38    0.45
  15   8  -7    4.16    0.48
   8 -15   7    3.59    0.46
  15  -8   7    3.80    0.51
   8  15  -7    3.98    0.43
  15  -8   7    3.82    0.48
  -8 -15  -7    3.73    0.46
  -8  15   7    3.50    0.47
  15   8  -7    3.38    0.45
  -8 -15  -5    4.15    0.48
  15   8  -5    4.39    0.49
  -8  15   5    4.32    0.51
   8 -15   5    4.66    0.49
  15  -8   5    4.40    0.54
  15  -8   5    4.67    0.53
  -8 -15  -5    3.75    0.49
  15  -8   5    4.00    0.46
   8  15  -5    3.72    0.43
 -15   8   5    4.26    0.37
  15   8  -5    3.91    0.49
   8  15  -5    4.35    0.55
  15   8  -3    0.56    0.23
   8  15  -3    0.52    0.23
   8 -15   3    0.44    0.20
  15  -8   3    0.42    0.23
 -15   8   3    0.81    0.20
  -8 -15  -3    0.87    0.28
  15  -8   3    0.44    0.18
  15   8  -3    0.60    0.24
  -8  15   3    0.35    0.23
   8  15  -1    5.96    0.55
   8 -15   1    6.10    0.51
  -8 -15  -1    6.84    0.64
  15  -8   1    5.70    0.61
   8  15  -1    6.29    0.42
  -8  15   1    6.38    0.60
  15   8  -1    6.77    0.56
  15  -8   1    6.11    0.54
  15   8  -1    6.15    0.57
 -15  -8  -1    5.28    0.62
   8 -15  -1    6.12    0.51
   8 -15  -1    5.57    0.47
   8  15   1    5.67    0.55
  15  -8  -1    5.83    0.63
  -8 -15   1    5.77    0.61
  -8  15  -1    7.08    0.63
  15   8   1    6.59    0.60
 -15  -8   1    6.02    0.66
  15  -8  -1    5.35    0.50
   8 -15  -3    0.38    0.21
   8 -15  -3    0.48    0.18
  15  -8  -3    0.78    0.31
  -8 -15   3    0.27    0.23
   8  15   3    0.51    0.27
 -15  -8   3    0.00    0.28
  15   8   3    0.87    0.28
  15  -8  -3    0.52    0.24
   8  15   3    0.57    0.25
  -8  15  -3    0.81    0.21
  -8  15  -5    4.00    0.38
   8 -15  -5    3.98    0.45
   8 -15  -5    3.75    0.37
  15  -8  -5    2.82    0.47
   8  15   5    4.21    0.54
  15   8   5    3.80    0.49
 -15  -8   5    3.90    0.53
  15   8   5    4.45    0.52
  15  -8  -5    4.14    0.46
   8 -15  -7    2.61    0.39
  -8  15  -7    3.83    0.40
   8 -15  -7    3.48    0.35
  15  -8  -7    4.15    0.60
   8  15   7    2.96    0.48
  15   8   7    4.46    0.56
 -15  -8   7    3.35    0.51
  15   8   7    4.44    0.51
  15  -8  -7    3.40    0.44
   8 -15  -9    0.43    0.23
  -8  15  -9    0.05    0.15
  15   8   9    0.41    0.17
  15  -8  -9    0.32    0.33
   8  15   9    0.57    0.33
  15   8   9    0.01    0.25
 -15  -8   9    0.23    0.24
  15  -8  -9    0.00    0.22
   8 -15 -11    2.01    0.38
  15   8  11    2.08    0.32
  15  -8 -11    2.35    0.35
  15  -8 -11    1.53    0.44
   8  15  11    2.34    0.46
  15   8  11    2.11    0.42
 -15  -8  11    1.86    0.42
  15  -8 -11    2.60    0.42
   8 -15 -13    1.30    0.35
  15  -8 -13    1.24    0.31
  15  -8 -13    1.80    0.45
   8  15  13    1.23    0.37
  15   8  13    1.32    0.39
 -15  -8  13    1.12    0.35
  15  -8 -13    1.32    0.34
   8 -15 -15    0.20    0.21
  15  -8 -15    0.23    0.23
  15  -8 -15    0.00    0.32
   8  15  15    0.17    0.28
  15   8  15    0.32    0.32
 -15  -8  15    0.64    0.28
  -8  15 -15    0.15    0.25
  15  -8 -15   -0.20    0.28
  -9 -15 -14    0.34    0.25
   9 -15  14    0.44    0.24
  15  -9  14    0.50    0.27
   9  15 -14    0.14    0.33
  15   9 -14    1.12    0.41
  15   9 -14    0.34    0.26
   9 -15  12    0.27    0.25
  -9 -15 -12   -0.01    0.23
   9  15 -12    0.43    0.32
  15  -9  12    0.48    0.25
  15   9 -12    0.36    0.29
  -9  15  12    0.04    0.23
  15   9 -12    0.12    0.25
  -9 -15 -10    0.57    0.24
   9  15 -10    1.05    0.41
   9 -15  10    0.65    0.28
  15  -9  10    1.01    0.35
  15   9 -10    0.26    0.25
  -9  15  10   -0.17    0.29
  -9 -15 -10    0.16    0.20
  15   9 -10    0.43    0.22
   9  15  -8    2.36    0.45
  -9 -15  -8    1.50    0.32
  15   9  -8    1.97    0.40
   9 -15   8    1.90    0.34
  15  -9   8    2.04    0.41
  15  -9   8    1.86    0.34
   9  15  -8    1.57    0.29
  -9 -15  -8    1.49    0.32
  -9  15   8    1.95    0.36
  15   9  -8    1.93    0.38
   9  15  -6    4.31    0.55
  -9 -15  -6    2.78    0.39
  15   9  -6    3.99    0.48
   9 -15   6    3.96    0.47
  -9  15   6    3.58    0.47
  15  -9   6    3.76    0.50
  15  -9   6    3.64    0.48
  -9 -15  -6    3.47    0.48
 -15  -9  -6    3.56    0.51
  15   9  -6    3.67    0.46
 -15   9   6    4.23    0.39
   9  15  -6    3.51    0.42
  15   9  -4    0.82    0.26
   9  15  -4    0.57    0.24
   9 -15   4    0.52    0.21
  15  -9   4    0.35    0.22
  15  -9   4    0.72    0.26
  -9 -15  -4    0.75    0.31
 -15   9   4    0.54    0.18
  15  -9   4    0.39    0.20
 -15  -9  -4    1.16    0.38
  15   9  -4    0.26    0.21
   9  15  -4    0.38    0.24
  -9  15   4    0.83    0.25
   9  15  -2    5.49    0.53
   9 -15   2    5.06    0.50
  15  -9   2    5.01    0.58
  -9 -15  -2    5.51    0.59
   9  15  -2    5.35    0.42
  15  -9   2    5.22    0.49
  15   9  -2    6.77    0.59
 -15  -9  -2    5.71    0.65
  -9  15   2    6.13    0.59
  15   9  -2    5.90    0.58
   9 -15   0    5.00    0.47
   9  15   0    5.10    0.52
  15  -9   0    5.76    0.63
  -9 -15   0    5.44    0.63
  -9  15   0    6.65    0.62
   9  15   0    5.29    0.41
  15   9   0    5.40    0.56
 -15  -9   0    5.49    0.62
  15  -9   0    6.12    0.53
   9 -15  -2    5.87    0.50
   9 -15  -2    5.80    0.50
  -9 -15   2    5.53    0.61
  15  -9  -2    4.37    0.57
  15   9   2    5.53    0.55
  -9  15  -2    5.87    0.44
 -15  -9   2    4.56    0.59
  15  -9  -2    5.84    0.53
   9 -15  -4    0.26    0.18
   9 -15  -4    0.40    0.18
  15  -9  -4    0.47    0.28
  -9 -15   4    0.58    0.29
   9  15   4    0.30    0.22
 -15  -9   4    0.80    0.30
  15   9   4    0.54    0.25
  15  -9  -4    0.20    0.18
   9 -15  -6    3.86    0.45
   9 -15  -6    3.57    0.38
  15  -9  -6    3.27    0.55
  -9 -15   6    2.85    0.49
   9  15   6    3.02    0.48
  15   9   6    3.71    0.51
 -15  -9   6    3.69    0.55
  15   9   6    3.80    0.50
  15  -9  -6    3.79    0.46
   9 -15  -8    1.54    0.31
  15  -9  -8    1.72    0.45
   9  15   8    1.80    0.40
  15   9   8    1.35    0.35
 -15  -9   8    1.34    0.35
  15  -9  -8    1.35    0.29
   9 -15 -10    0.21    0.24
  15  -9 -10    0.69    0.38
   9  15  10    0.65    0.33
  15   9  10    0.08    0.25
 -15  -9  10    0.45    0.31
  15  -9 -10    0.53    0.22
   9 -15 -12    0.26    0.25
  15  -9 -12    0.96    0.35
   9  15  12    0.71    0.36
  15   9  12   -0.20    0.29
 -15  -9  12    0.16    0.23
  15  -9 -12   -0.07    0.22
   9 -15 -14    0.79    0.28
  15  -9 -14    0.50    0.23
  15  -9 -14    0.81    0.38
   9  15  14    0.32    0.33
  15   9  14    0.49    0.34
 -15  -9  14    0.54    0.29
  15  -9 -14    0.31    0.27
 -10 -15 -13   -0.23    0.26
  10 -15  13    0.68    0.32
  10  15 -13   -0.37    0.32
  15 -10  13   -0.30    0.28
  15  10 -13    0.26    0.29
 -10  15  13    0.21    0.25
 -15 -10 -13   -0.09    0.23
  15  10 -13   -0.44    0.29
 -10 -15 -11    0.32    0.20
  10  15 -11    0.07    0.31
  10 -15  11    0.16    0.21
  15 -10  11    0.03    0.21
 -10 -15 -11    0.09    0.19
 -15 -10 -11    0.29    0.23
 -10  15  11    0.08    0.22
  15  10 -11    0.75    0.30
 -10 -15  -9    0.51    0.23
  10  15  -9    0.27    0.29
  15  10  -9   -0.07    0.23
  10 -15   9    0.22    0.20
  15 -10   9    0.40    0.24
 -10 -15  -9    0.26    0.22
 -15 -10  -9    0.17    0.24
  15  10  -9   -0.53    0.28
 -10  15   9    0.14    0.20
  10  15  -7    0.86    0.35
  10  15  -7    0.82    0.23
 -10 -15  -7    0.98    0.28
  15  10  -7    0.99    0.28
  10 -15   7    1.03    0.29
  15 -10   7    0.50    0.24
  15 -10   7    0.75    0.24
 -10  15   7    0.64    0.25
 -10 -15  -7    1.06    0.33
 -15 -10  -7    0.61    0.29
  15  10  -7    0.60    0.27
 -10  15   5    4.28    0.51
  15  10  -5    3.64    0.48
  10 -15   5    3.33    0.45
  15 -10   5    2.76    0.44
  15 -10   5    3.21    0.45
  10  15  -5    2.74    0.37
 -10 -15  -5    2.99    0.45
  15 -10   5    3.35    0.40
 -15 -10  -5    2.74    0.48
  15  10  -5    3.70    0.48
 -15  10   5    3.94    0.40
  10  15  -5    3.17    0.49
  15  10  -3    3.01    0.42
  10  15  -3    2.80    0.38
  10 -15   3    3.18    0.42
  15 -10   3    3.65    0.48
  15 -10   3    3.58    0.51
 -10 -15  -3    3.05    0.47
 -15  10   3    3.57    0.40
 -15 -10  -3    2.28    0.44
  15 -10   3    2.53    0.36
  10  15  -3    3.25    0.34
  15  10  -3    3.34    0.45
 -10  15   3    2.82    0.42
  10 -15   1    0.70    0.22
  15 -10   1    1.16    0.33
 -10 -15  -1    0.97    0.32
  10  15  -1    0.39    0.22
 -10  15   1    0.72    0.28
 -15 -10  -1    0.64    0.30
  10  15  -1    0.46    0.15
  15 -10   1    0.63    0.21
  15  10  -1    0.67    0.23
  15  10  -1    0.96    0.27
  10 -15  -1    0.77    0.23
  15 -10  -1    1.25    0.37
 -10  15  -1    0.96    0.28
 -10 -15   1    1.42    0.37
 -15 -10   1    0.97    0.37
  10  15   1    1.08    0.23
  15  10   1    0.64    0.23
  15 -10  -1    0.83    0.24
  10 -15  -3    3.06    0.36
  10 -15  -3    2.55    0.34
  15 -10  -3    3.03    0.50
 -10 -15   3    3.63    0.53
  10  15   3    3.18    0.48
 -15 -10   3    1.51    0.38
  15  10   3    3.38    0.45
  15 -10  -3    3.05    0.39
  10 -15  -5    2.92    0.38
  10 -15  -5    3.61    0.41
  15 -10  -5    3.23    0.54
 -10 -15   5    2.90    0.48
  10  15   5    3.83    0.54
  15  10   5    4.17    0.55
 -15 -10   5    3.05    0.53
  15  10   5    3.20    0.44
  15 -10  -5    3.21    0.41
  10 -15  -7    0.87    0.25
  15 -10  -7    0.86    0.34
 -10 -15   7    0.37    0.31
  10  15   7    0.94    0.35
  15  10   7    1.14    0.35
 -15 -10   7    1.15    0.36
  15 -10  -7    0.85    0.26
  10 -15  -9    0.04    0.20
  15 -10  -9    0.03    0.30
  10  15   9   -0.01    0.25
  15  10   9    0.27    0.30
 -15 -10   9   -0.26    0.28
  15 -10  -9    0.18    0.20
  10 -15 -11    0.39    0.23
  15 -10 -11    0.46    0.36
  10  15  11    0.07    0.32
  15  10  11    0.40    0.34
 -15 -10  11    0.37    0.30
  15 -10 -11    0.42    0.22
  10 -15 -13   -0.22    0.27
  15 -10 -13    0.25    0.30
  10  15  13    0.18    0.28
 -15 -10  13    0.39    0.28
  15  10  13    0.21    0.34
  15 -10 -13    0.03    0.23
 -11 -15 -12   -0.08    0.19
  11 -15  12   -0.16    0.27
  15 -11  12    0.07    0.21
  15  11 -12    0.32    0.31
 -11  15  12   -0.39    0.24
 -15 -11 -12   -0.01    0.24
  15  11 -12    0.29    0.26
 -11 -15 -10    0.40    0.23
  11  15 -10    0.88    0.36
 -11  15  10    0.47    0.26
  11 -15  10    0.47    0.28
  15  11 -10    0.08    0.28
  15 -11  10    0.29    0.27
 -11 -15 -10    1.18    0.33
 -15 -11 -10    0.28    0.25
  15  11 -10    0.81    0.30
 -11 -15  -8    0.21    0.19
  11  15  -8   -0.08    0.22
  15  11  -8    0.11    0.23
  11 -15   8    0.10    0.22
  15 -11   8   -0.21    0.25
 -11 -15  -8   -0.40    0.29
 -15 -11  -8   -0.40    0.30
 -11  15   8    0.10    0.22
  15  11  -8   -0.01    0.20
  11  15  -6    2.11    0.46
 -15  11   6    1.38    0.27
  15  11  -6    1.41    0.35
 -11  15   6    0.68    0.27
  11 -15   6    1.25    0.32
  15 -11   6    1.27    0.32
 -11 -15  -6    1.32    0.34
 -15 -11  -6    0.73    0.31
  15  11  -6    1.44    0.34
  15  11  -4   -0.01    0.26
  11 -15   4    0.23    0.19
  15 -11   4    0.21    0.23
  15 -11   4    0.46    0.29
 -11 -15  -4    0.25    0.24
 -15 -11  -4    0.46    0.29
  15 -11   4    0.71    0.24
  11  15  -4    0.20    0.17
 -15  11   4    0.68    0.21
  15  11  -4    0.75    0.26
 -11  15   4    0.40    0.23
  11  15  -4    0.57    0.25
  11  15  -4   -0.03    0.26
  11 -15   2    1.05    0.28
  15 -11   2    0.86    0.30
  15 -11   2    0.36    0.26
 -15  11   2    0.82    0.23
 -11 -15  -2    0.27    0.23
 -15 -11  -2    0.61    0.29
  15 -11   2    0.61    0.19
  11  15  -2    0.60    0.19
 -11  15   2    0.64    0.27
  15  11  -2    0.64    0.24
  11  15  -2    0.74    0.27
  15  11  -2    1.14    0.32
  11 -15   0    1.11    0.28
  15 -11   0    0.73    0.29
 -11  15   0    0.96    0.29
 -11 -15   0    1.19    0.38
 -15 -11   0    0.95    0.34
  11  15   0    1.17    0.24
  15  11   0    1.05    0.29
  15 -11   0    1.04    0.26
  11 -15  -2    0.49    0.19
  11 -15  -2    0.59    0.24
  15 -11  -2    0.52    0.30
 -11 -15   2    0.72    0.35
 -15 -11   2    0.73    0.32
  15  11   2    0.67    0.24
  15 -11  -2    0.60    0.20
  11 -15  -4    0.20    0.19
  11 -15  -4    0.43    0.22
  15 -11  -4    0.53    0.27
 -11 -15   4    0.58    0.32
  11  15   4    0.57    0.31
 -15 -11   4    0.01    0.28
  15  11   4    0.25    0.28
  15  11   4    0.78    0.26
  15 -11  -4    0.22    0.19
  11 -15  -6    0.86    0.24
  15 -11  -6    0.99    0.32
 -11 -15   6    0.65    0.29
  11  15   6    0.46    0.29
 -15 -11   6    1.26    0.37
  15  11   6    1.14    0.35
  15 -11  -6    1.01    0.25
  11 -15  -8   -0.10    0.18
  15 -11  -8    0.05    0.31
 -11 -15   8   -0.03    0.29
  11  15   8   -0.02    0.23
 -15 -11   8    0.00    0.24
  15  11   8    0.34    0.33
  15 -11  -8    0.07    0.21
  11 -15 -10    0.56    0.26
  15 -11 -10    0.32    0.30
  11  15  10    0.25    0.28
 -15 -11  10    0.37    0.28
  15  11  10    0.23    0.27
  15 -11 -10    0.68    0.27
  11 -15 -12   -0.13    0.19
  15 -11 -12    0.40    0.34
 -15 -11  12    0.25    0.29
  11  15  12    0.16    0.32
  15  11  12   -0.28    0.34
  15 -11 -12    0.72    0.29
 -12 -15 -11    0.35    0.25
  12  15 -11    0.11    0.33
  12 -15  11    0.56    0.30
  15 -12  11   -0.15    0.28
  15  12 -11    0.54    0.31
 -12 -15 -11    0.01    0.21
 -15 -12 -11    0.08    0.22
 -12  15  11    0.21    0.22
  15  12 -11    0.64    0.29
 -12 -15  -9    1.66    0.35
  12  15  -9    1.33    0.41
  15  12  -9    1.13    0.36
  12 -15   9    1.44    0.36
  15 -12   9    1.42    0.35
 -12 -15  -9    1.22    0.34
 -15 -12  -9    1.26    0.37
  15  12  -9    1.97    0.38
 -12  15   9    1.80    0.34
  12  15  -7    1.20    0.37
  15  12  -7    0.81    0.36
  12 -15   7    1.02    0.28
  15 -12   7    0.55    0.23
 -12  15   7    0.77    0.27
 -12 -15  -7    1.02    0.32
 -15 -12  -7    0.78    0.30
  15  12  -7    0.65    0.26
  12  15  -5    2.63    0.48
 -12  15   5    1.56    0.35
  15  12  -5    2.44    0.42
  12 -15   5    1.76    0.35
  15 -12   5    1.94    0.40
 -12 -15  -5    2.31    0.45
 -15 -12  -5    2.03    0.39
  15  12  -5    1.61    0.35
 -15  12   5    1.78    0.32
  15  12  -3    0.07    0.25
  12 -15   3    0.25    0.22
  15 -12   3    0.17    0.23
  15 -12   3    0.05    0.22
 -12 -15  -3   -0.17    0.25
 -15 -12  -3    0.59    0.29
 -15  12   3    0.10    0.17
  15 -12   3   -0.04    0.18
  12  15  -3   -0.07    0.15
  15  12  -3   -0.02    0.18
 -12  15   3    0.19    0.23
  12  15  -3   -0.31    0.26
  12 -15   1   -0.04    0.19
  15 -12   1    0.00    0.19
  15 -12   1   -0.01    0.23
 -15  12   1    0.42    0.22
 -12 -15  -1    0.43    0.31
 -12  15   1    0.46    0.24
 -15 -12  -1   -0.32    0.31
  12  15  -1    0.21    0.16
  15 -12   1    0.18    0.16
  15  12  -1    0.20    0.21
  15  12  -1    0.33    0.28
  12 -15  -1    0.51    0.23
  15 -12  -1    0.25    0.30
 -12  15  -1    0.03    0.23
 -12 -15   1    0.02    0.25
 -15 -12   1    0.45    0.28
  12  15   1    0.14    0.15
  15  12   1    0.31    0.24
  15 -12  -1    0.43    0.20
  12 -15  -3   -0.05    0.14
  12 -15  -3    0.15    0.17
  15 -12  -3   -0.23    0.27
 -12 -15   3    0.18    0.27
 -15 -12   3   -0.05    0.31
  12  15   3   -0.31    0.31
  15  12   3    0.35    0.21
  15 -12  -3    0.17    0.18
  12 -15  -5    1.89    0.31
  12 -15  -5    2.17    0.36
  15 -12  -5    2.02    0.47
 -12 -15   5    1.77    0.45
 -15 -12   5    2.74    0.51
  12  15   5    2.14    0.44
  15  12   5    2.87    0.50
  15 -12  -5    2.57    0.37
  12 -15  -7    0.79    0.24
  15 -12  -7    0.33    0.29
 -12 -15   7    0.94    0.36
 -15 -12   7    1.02    0.37
  12  15   7    0.62    0.29
  15  12   7    1.02    0.36
  15 -12  -7    0.81    0.25
  12 -15  -9    2.01    0.37
  15 -12  -9    1.45    0.43
 -12 -15   9    1.52    0.40
 -15 -12   9    1.03    0.39
  12  15   9    1.33    0.42
  15  12   9    0.97    0.36
  15 -12  -9    1.56    0.32
  12 -15 -11   -0.07    0.21
  15 -12 -11    0.18    0.30
 -15 -12  11   -0.08    0.30
  12  15  11    0.01    0.34
  15  12  11    0.37    0.34
  15 -12 -11    0.37    0.24
 -13 -15 -10    1.46    0.34
  13  15 -10    2.00    0.47
  15  13 -10    0.97    0.40
 -13  15  10    2.10    0.39
  13 -15  10    1.68    0.38
  15 -13  10    2.27    0.46
 -13 -15 -10    1.87    0.42
 -15 -13 -10    0.95    0.35
  15  13 -10    1.38    0.36
  13  15  -8    1.00    0.40
  15  13  -8    1.15    0.34
  13 -15   8    0.92    0.32
  15 -13   8    1.22    0.35
 -13 -15  -8    0.42    0.24
 -15 -13  -8    0.95    0.33
 -13  15   8    0.45    0.27
  15  13  -8    0.83    0.26
  13  15  -6    0.10    0.24
  15  13  -6    0.46    0.33
 -15  13   6   -0.35    0.26
 -13  15   6    0.49    0.28
  13 -15   6    0.08    0.22
  15 -13   6    0.16    0.23
 -13 -15  -6    0.05    0.25
 -15 -13  -6    0.23    0.25
  15  13  -6    0.49    0.25
  15  13  -4    2.43    0.44
  13 -15   4    2.26    0.40
  15 -13   4    2.67    0.44
 -13 -15  -4    2.52    0.46
 -15 -13  -4    1.87    0.44
  15  13  -4    1.70    0.34
 -15  13   4    2.50    0.39
 -13  15   4    1.83    0.39
  13  15  -4    3.53    0.53
  13 -15   2    1.31    0.31
  15 -13   2    0.84    0.27
 -13 -15  -2    0.74    0.36
 -15  13   2    1.04    0.30
 -15 -13  -2    0.76    0.34
 -13  15   2    1.23    0.33
  13  15  -2    0.73    0.22
  15  13  -2    0.62    0.22
  13  15  -2    1.77    0.40
  15  13  -2    1.33    0.36
  13 -15   0    1.43    0.33
  15 -13   0    1.43    0.32
  15 -13   0    1.39    0.38
 -13  15   0    1.63    0.35
 -13 -15   0    1.42    0.41
 -15 -13   0    2.33    0.49
  13  15   0    1.50    0.27
  15  13   0    1.75    0.33
  13 -15  -2    0.85    0.25
 -13 -15   2    1.72    0.41
 -15 -13   2    1.02    0.37
  13  15   2    0.69    0.22
  15  13   2    0.81    0.23
  13 -15  -4    1.64    0.34
  15 -13  -4    2.20    0.46
 -13 -15   4    1.98    0.47
 -15 -13   4    1.61    0.41
  13  15   4    1.55    0.42
  15  13   4    1.91    0.44
  15  13   4    2.27    0.38
  15 -13  -6   -0.49    0.32
 -13 -15   6    0.22    0.27
 -15 -13   6    0.65    0.32
  13  15   6    0.12    0.28
  15  13   6    0.12    0.28
  15 -13  -8    1.03    0.35
 -13 -15   8    0.25    0.27
 -15 -13   8    1.30    0.36
  13  15   8    1.35    0.39
  15  13   8    0.81    0.35
  15 -13 -10    1.21    0.42
 -13 -15  10    1.90    0.45
 -15 -13  10    1.39    0.43
  13  15  10    1.25    0.41
  15  13  10    1.49    0.42
  14  15  -7    1.59    0.41
  15  14  -7    1.86    0.41
  14 -15   7    1.49    0.38
  15 -14   7    0.70    0.27
 -14  15   7    1.13    0.33
 -14 -15  -7    0.68    0.28
 -15 -14  -7    1.91    0.45
  15  14  -7    1.09    0.30
 -15  14   5    5.01    0.55
  14  15  -5    5.07    0.65
  15  14  -5    5.69    0.67
 -14  15   5    5.88    0.59
  14 -15   5    4.84    0.59
  15 -14   5    4.05    0.55
 -14 -15  -5    4.49    0.61
 -15 -14  -5    5.08    0.65
  15  14  -5    5.49    0.56
  14 -15   3    4.13    0.55
  15 -14   3    3.54    0.52
 -14 -15  -3    3.11    0.55
 -15 -14  -3    3.54    0.55
  14  15  -3    3.94    0.48
  15  14  -3    3.83    0.48
 -15  14   3    4.24    0.51
 -14  15   3    3.56    0.47
  14  15  -3    3.82    0.56
  15  14  -3    4.18    0.57
  14 -15   1    2.75    0.42
  15 -14   1    3.20    0.50
 -15  14   1    2.60    0.43
 -14 -15  -1    2.95    0.52
 -15 -14  -1    3.15    0.54
 -14  15   1    2.92    0.45
  14  15  -1    2.85    0.39
  15  14  -1    3.05    0.44
  15  14  -1    3.25    0.50
  14 -15  -1    3.69    0.49
  15 -14  -1    2.39    0.43
 -14  15  -1    3.08    0.47
 -14 -15   1    2.74    0.49
 -15 -14   1    2.21    0.46
  14  15   1    3.13    0.42
  15  14   1    2.58    0.42
  14 -15  -3    4.04    0.52
  15 -14  -3    4.69    0.67
 -14 -15   3    3.91    0.58
 -15 -14   3    2.90    0.51
  14  15   3    3.22    0.58
  15  14   3    3.78    0.59
  15  14   3    3.91    0.48
  15 -14  -5    4.66    0.66
 -14 -15   5    4.11    0.61
 -15 -14   5    5.04    0.66
  14  15   5    5.43    0.70
  15  14   5    5.37    0.69
  15 -14  -7    1.95    0.46
 -14 -15   7    0.35    0.28
 -15 -14   7    1.73    0.44
  14  15   7    0.90    0.40
  15  14   7    1.61    0.46
  15  15  -4    1.51    0.44
  15 -15   4    1.33    0.32
 -15 -15  -4    1.13    0.37
 -15  15   4    1.15    0.32
  15 -15   2    5.72    0.65
 -15 -15  -2    4.77    0.66
  15  15  -2    5.26    0.56
 -15  15   2    5.63    0.59
  15  15  -2    5.93    0.70
  15 -15   0   16.85    1.09
 -15 -15   0   16.44    1.18
 -15  15   0   18.07    1.10
  15  15   0   16.10    0.99
  15 -15  -2    5.65    0.63
 -15 -15   2    4.56    0.65
  15  15   2    4.98    0.65
  15  15   2    6.28    0.60
  15 -15  -4    1.60    0.36
 -15 -15   4    0.87    0.35
  15  15   4    1.62    0.45
   0  16   0   22.69    0.95
  16   0   0   21.41    1.10
   0  16   0   21.98    1.13
   0 -16  -2    3.15    0.42
   0  16   2    2.79    0.43
   0  16   2    2.97    0.35
   0  16  -2    2.57    0.31
  16   0   2    2.51    0.39
  16   0  -2    2.72    0.41
   0  16  -2    2.58    0.39
   0  16   4   10.71    0.78
   0 -16  -4   10.83    0.76
   0  16   4   11.16    0.69
  16   0   4   10.13    0.66
  16   0   4   11.35    0.78
   0  16  -4    9.98    0.74
  16   0  -4   11.41    0.80
   0 -16  -6   13.54    0.88
   0  16   6   14.01    0.90
   0  16  -6   13.45    0.66
   0  16   6   13.60    0.81
  16   0   6   13.28    0.78
   0  16  -6   13.83    0.88
  16   0   6   14.43    0.91
   0  16  -6   14.11    0.88
  16   0  -6   12.80    0.87
   0  16  -8    2.96    0.44
   0 -16  -8    2.58    0.42
   0  16  -8    3.15    0.34
   0  16   8    2.72    0.41
  16   0   8    3.40    0.42
  16   0   8    3.02    0.44
  16   0  -8    4.03    0.52
   0  16   8    3.52    0.49
   0 -16 -10    7.61    0.70
   0  16 -10    7.05    0.55
  16   0  10    7.96    0.67
   0  16  10    8.42    0.76
  16   0  10    6.85    0.60
   0  16 -10    6.32    0.64
  16   0 -10    7.89    0.72
   0  16 -12   10.54    0.71
   0 -16 -12    8.84    0.77
  16   0  12   10.26    0.78
  16   0  12    9.58    0.74
 -16   0  12   11.03    0.80
   0  16 -12   10.50    0.83
  16   0 -12   10.85    0.86
   0 -16 -14    0.49    0.29
  16   0  14    0.81    0.27
   0  16 -14    0.83    0.34
   0  16 -14    0.54    0.25
  16   0  14    1.18    0.31
 -16   0  14    0.86    0.28
  16   0 -14    0.62    0.31
   0 -16 -16    0.79    0.33
  16   0  16    0.89    0.31
   0  16 -16    0.85    0.29
   0  16 -16    0.72    0.34
 -16   0  16    0.61    0.27
  16   0 -16    0.48    0.33
   1  16 -17    0.86    0.32
  -1 -16 -17    1.30    0.40
  16  -1  17    0.45    0.24
   1  16 -17    0.44    0.33
  16   1 -17    1.07    0.38
  -1 -16 -15    3.85    0.55
   1  16 -15    2.83    0.42
  16  -1  15    3.25    0.48
   1  16 -15    2.92    0.48
 -16   1  15    2.70    0.42
  16   1 -15    3.81    0.57
  -1 -16 -13    2.62    0.47
   1  16 -13    2.45    0.47
   1  16 -13    3.04    0.41
  16  -1  13    2.60    0.43
  16  -1  13    3.58    0.47
 -16   1  13    3.34    0.46
  16   1 -13    2.87    0.49
  -1 -16 -11    1.54    0.36
  -1  16  11    0.79    0.29
   1  16 -11    0.88    0.24
  16  -1  11    0.83    0.28
  16  -1  11    1.46    0.30
   1  16 -11    1.06    0.31
  16   1 -11    1.43    0.38
  -1 -16  -9   17.73    1.05
  -1  16   9   17.81    1.07
  16  -1   9   17.85    1.03
  16  -1   9   15.93    0.90
   1  16  -9   16.02    1.02
  16   1  -9   17.51    1.06
  -1 -16  -7    6.61    0.63
  -1  16   7    7.70    0.68
  -1  16   7    7.84    0.62
  16  -1   7    7.09    0.56
   1  16  -7    6.53    0.61
  16  -1   7    7.38    0.66
   1  16  -7    7.89    0.67
  16   1  -7    7.71    0.68
  -1 -16  -5    1.69    0.36
  -1  16   5    1.61    0.29
  16  -1   5    1.16    0.25
   1  16  -5    1.93    0.35
  16  -1   5    1.92    0.36
  -1  16   5    1.02    0.30
  16   1  -5    0.93    0.29
   1  16  -5    1.73    0.36
  -1 -16  -3   15.81    0.93
  -1  16   3   18.45    0.85
  16  -1   3   17.88    0.99
   1  16  -3   16.00    0.94
  16   1  -3   17.24    0.99
  -1  16   3   17.22    1.00
  -1  16   1    7.45    0.51
   1  16  -1    7.38    0.53
  16  -1   1    7.39    0.64
  16   1  -1    7.33    0.63
   1  16  -1    6.63    0.62
  -1  16   1    6.70    0.61
  16   1  -1    7.36    0.41
   1 -16  -1    6.91    0.59
  -1  16  -1    7.60    0.50
   1  16   1    7.16    0.53
  16   1   1    6.72    0.61
  16  -1  -1    6.71    0.59
  -1  16  -1    6.37    0.60
  16   1   1    6.73    0.36
   1  16   1    6.99    0.62
   1 -16  -3   16.16    0.92
  -1  16  -3   16.14    0.68
   1  16   3   17.36    0.88
  -1  16  -3   16.82    0.76
  16   1   3   20.24    1.06
  -1  16  -3   17.37    0.98
  16  -1  -3   17.76    0.99
   1  16   3   17.05    0.98
   1  16   5    1.85    0.38
   1 -16  -5    1.24    0.31
  -1  16  -5    1.16    0.29
  -1  16  -5    1.62    0.23
   1  16   5    1.24    0.28
  16   1   5    1.73    0.32
  16   1   5    1.03    0.29
  16  -1  -5    1.42    0.32
  -1  16  -5    1.56    0.30
   1 -16  -7    7.37    0.66
   1  16   7    5.84    0.61
  -1  16  -7    7.25    0.50
   1  16   7    7.67    0.62
  16   1   7    7.05    0.59
  16   1   7    6.62    0.63
  -1  16  -7    6.83    0.62
  16  -1  -7    8.84    0.70
   1 -16  -9   15.93    1.01
  -1  16  -9   15.26    0.83
  16   1   9   17.25    0.98
   1  16   9   18.33    1.08
   1  16   9   17.45    1.00
  16   1   9   16.83    0.94
  -1  16  -9   16.05    0.97
  16  -1  -9   16.24    1.01
  -1  16 -11    0.61    0.25
   1 -16 -11    0.82    0.29
  16   1  11    1.02    0.28
  -1  16 -11    1.07    0.26
   1  16  11    0.75    0.30
  16   1  11    1.05    0.31
 -16  -1  11    0.40    0.30
  16  -1 -11    1.02    0.35
   1 -16 -13    2.67    0.46
  -1  16 -13    2.76    0.46
  16   1  13    2.43    0.38
  -1  16 -13    2.99    0.42
  16   1  13    2.62    0.43
 -16  -1  13    2.77    0.44
  16  -1 -13    3.42    0.51
   1 -16 -15    4.17    0.58
  16   1  15    3.70    0.49
  -1  16 -15    3.43    0.49
  -1  16 -15    2.83    0.50
  16   1  15    4.17    0.54
 -16  -1  15    3.09    0.45
  16  -1 -15    4.02    0.60
   1 -16 -17    1.25    0.42
  16   1  17    1.13    0.34
  -1  16 -17    0.70    0.27
  -1  16 -17    0.64    0.28
  16  -1 -17    0.79    0.33
  -2 -16 -16    0.09    0.23
  16  -2  16    0.57    0.27
   2  16 -16   -0.17    0.30
  16   2 -16    0.22    0.29
  -2 -16 -14    0.34    0.25
   2  16 -14    0.75    0.32
  16  -2  14    0.33    0.23
 -16   2  14    0.68    0.27
  16   2 -14    0.13    0.27
  -2 -16 -12    3.00    0.48
   2  16 -12    3.16    0.48
  16  -2  12    3.95    0.50
  16  -2  12    3.96    0.47
  -2  16  12    3.80    0.51
  16   2 -12    2.67    0.44
   2  16 -10    3.41    0.49
  -2 -16 -10    3.18    0.48
  16  -2  10    3.17    0.46
  16  -2  10    2.74    0.38
  -2  16  10    3.04    0.47
  16  -2  10    2.44    0.35
  16   2 -10    2.52    0.44
   2  16  -8    0.35    0.28
  -2 -16  -8    0.64    0.29
  16  -2   8    0.11    0.23
  -2  16   8    0.08    0.27
   2  16  -8    0.22    0.20
  16  -2   8    0.29    0.17
  16  -2   8    0.03    0.24
  16   2  -8    0.33    0.26
  -2 -16  -6    2.24    0.39
   2 -16   6    3.07    0.37
  -2  16   6    2.29    0.33
  16  -2   6    2.37    0.32
   2  16  -6    2.70    0.39
  16  -2   6    2.70    0.41
  16   2  -6    2.31    0.38
  -2  16   6    2.76    0.46
   2  16  -6    2.44    0.41
  -2 -16  -4    2.42    0.40
   2 -16   4    2.63    0.33
  16   2  -4    3.35    0.33
  -2  16   4    2.53    0.42
  -2  16   4    2.48    0.32
  16  -2   4    2.84    0.33
  16  -2   4    2.84    0.40
  16   2  -4    2.16    0.36
   2  16  -4    2.04    0.35
   2  16  -2    0.74    0.28
  -2 -16  -2    0.69    0.27
  -2  16   2    0.80    0.27
   2 -16   2    0.53    0.17
  16   2  -2    0.77    0.19
  -2  16   2    0.79    0.21
  16  -2   2    0.38    0.24
  16   2  -2    0.37    0.23
   2 -16   0    0.48    0.14
  16   2   0    0.43    0.13
   2  16   0    0.68    0.28
  -2  16   0    0.39    0.16
   2  16   0    0.57    0.21
  16   2   0    0.25    0.23
  16  -2   0    0.36    0.24
  -2  16   0    1.02    0.30
  16   2   2    0.73    0.15
   2 -16  -2    0.53    0.22
   2 -16  -2    0.52    0.13
  -2  16  -2    0.86    0.18
   2  16   2    0.71    0.23
   2  16   2    0.83    0.30
  -2  16  -2    0.85    0.29
  16   2   2    0.44    0.25
  16  -2  -2    0.72    0.28
   2  16   4    2.95    0.43
   2 -16  -4    2.25    0.35
  -2  16  -4    2.87    0.43
   2  16   4    2.73    0.38
  -2  16  -4    2.41    0.26
  16   2   4    2.33    0.35
  16   2   4    2.87    0.25
  16   2   4    2.45    0.41
  16  -2  -4    2.53    0.39
  -2  16  -6    2.49    0.38
   2 -16  -6    1.89    0.36
   2  16   6    2.80    0.39
  16   2   6    2.29    0.36
  -2  16  -6    2.48    0.31
   2  16   6    2.84    0.44
  16   2   6    2.19    0.39
  16  -2  -6    2.26    0.41
  -2  16  -8    0.57    0.24
   2 -16  -8    0.27    0.23
   2  16   8    0.06    0.24
  -2  16  -8   -0.09    0.17
  16   2   8    0.07    0.21
  16   2   8    0.24    0.24
   2  16   8    0.00    0.27
  16  -2  -8    0.07    0.20
  -2  16 -10    3.40    0.46
   2 -16 -10    2.31    0.42
  16   2  10    3.47    0.46
  -2  16 -10    3.23    0.40
   2  16  10    3.13    0.44
  16   2  10    2.56    0.42
 -16  -2  10    3.61    0.51
  16  -2 -10    3.06    0.47
   2 -16 -12    3.64    0.50
  -2  16 -12    3.95    0.51
  16   2  12    2.89    0.41
  -2  16 -12    3.39    0.45
   2  16  12    3.87    0.52
  16   2  12    3.51    0.49
 -16  -2  12    3.09    0.47
  16  -2 -12    4.19    0.57
   2 -16 -14    0.36    0.25
  16   2  14    0.32    0.22
  -2  16 -14   -0.28    0.30
  -2  16 -14    0.30    0.23
  16   2  14    0.50    0.30
 -16  -2  14    0.40    0.25
  16  -2 -14    0.39    0.25
   2 -16 -16    0.10    0.22
  16   2  16    0.14    0.19
  -2  16 -16    0.15    0.25
  -2  16 -16   -0.23    0.33
  16   2  16   -0.18    0.29
 -16  -2  16   -0.22    0.25
  16  -2 -16    0.06    0.22
  -3 -16 -15    1.01    0.32
  16  -3  15    0.79    0.29
   3  16 -15    0.92    0.38
  16   3 -15    0.87    0.34
  -3 -16 -13    1.26    0.35
   3  16 -13    1.22    0.38
  16  -3  13    1.28    0.35
  16   3 -13    1.40    0.36
   3  16 -11    0.40    0.25
   3 -16  11    1.06    0.32
  -3 -16 -11    1.07    0.33
  16  -3  11    0.65    0.28
   3  16 -11    0.69    0.28
  16  -3  11    1.15    0.29
  16   3 -11    0.92    0.32
  -3  16  11    0.16    0.24
   3  16  -9    0.53    0.28
  -3 -16  -9    0.17    0.25
   3 -16   9    0.29    0.22
  16  -3   9    0.03    0.19
  16  -3   9   -0.03    0.18
  16  -3   9    0.53    0.21
   3  16  -9    0.16    0.19
  -3  16   9    0.49    0.25
  16   3  -9    0.26    0.25
   3  16  -7    4.48    0.54
  -3 -16  -7    4.41    0.52
   3 -16   7    4.73    0.49
  16  -3   7    4.78    0.43
   3  16  -7    5.20    0.54
  16  -3   7    4.75    0.53
  16   3  -7    5.28    0.56
  -3  16   7    4.13    0.51
  -3 -16  -5    0.94    0.27
   3 -16   5    0.84    0.23
  16   3  -5    1.56    0.27
  -3  16   5    1.69    0.37
  16  -3   5    1.15    0.23
  16  -3   5    1.82    0.36
  16   3  -5    1.09    0.33
   3  16  -5    1.44    0.31
   3  16  -5    1.32    0.35
   3  16  -3    2.60    0.39
  -3 -16  -3    3.33    0.44
  -3  16   3    3.52    0.50
   3 -16   3    2.45    0.32
  16   3  -3    2.70    0.31
  -3  16   3    2.96    0.33
  16  -3   3    2.93    0.33
  16  -3   3    3.12    0.42
  16   3  -3    2.25    0.38
  16   3  -1    0.48    0.17
   3 -16   1    0.28    0.14
   3  16  -1    0.30    0.23
  -3  16   1    0.37    0.16
  16  -3   1    0.21    0.21
  16   3  -1    0.30    0.23
  -3  16   1    0.06    0.22
  16   3   1    0.15    0.12
   3 -16  -1    0.30    0.21
   3 -16  -1    0.29    0.13
  -3  16  -1    0.10    0.12
   3  16   1    0.21    0.21
   3  16   1    0.68    0.27
  -3  16  -1    0.19    0.22
  16   3   1    0.15    0.22
  16  -3  -1    0.07    0.18
   3  16   3    2.88    0.43
   3 -16  -3    2.59    0.38
  -3  16  -3    2.64    0.41
   3  16   3    2.47    0.38
  16   3   3    2.34    0.39
  16  -3  -3    2.68    0.39
  16   3   3    2.74    0.27
   3 -16  -5    0.78    0.26
   3  16   5    0.87    0.27
   3  16   5    0.91    0.29
  16   3   5    0.97    0.26
  16   3   5    1.24    0.32
  16  -3  -5    0.99    0.27
  -3  16  -5    1.44    0.30
  -3  16  -7    4.40    0.48
   3 -16  -7    5.03    0.55
  16   3   7    5.14    0.53
   3  16   7    4.57    0.52
   3  16   7    4.25    0.52
  16   3   7    4.48    0.52
  16  -3  -7    4.19    0.50
  -3  16  -9    0.51    0.26
   3 -16  -9    0.01    0.24
   3  16   9    0.69    0.31
  16   3   9    0.35    0.25
  -3  16  -9    0.23    0.19
 -16  -3   9    0.73    0.34
  16  -3  -9    0.28    0.25
   3  16   9   -0.01    0.28
   3 -16 -11    0.54    0.29
  -3  16 -11    0.83    0.29
  16   3  11    1.07    0.26
   3  16  11    0.70    0.29
  -3  16 -11    0.78    0.25
  16   3  11    1.42    0.36
 -16  -3  11    0.87    0.34
  16  -3 -11    1.26    0.33
   3 -16 -13    1.05    0.33
  16   3  13    1.26    0.30
  -3  16 -13    0.93    0.29
  -3  16 -13    1.20    0.32
   3  16  13    1.33    0.40
  16   3  13    1.03    0.30
 -16  -3  13    1.37    0.35
  16  -3 -13    0.91    0.31
   3 -16 -15    0.36    0.27
  16   3  15    0.69    0.24
  -3  16 -15    0.56    0.29
  -3  16 -15    0.76    0.30
  16   3  15    1.49    0.40
 -16  -3  15    1.12    0.31
  16  -3 -15    0.98    0.38
  -4 -16 -16   -0.05    0.25
  16  -4  16   -0.09    0.21
   4  16 -16   -0.55    0.34
  16   4 -16    0.29    0.26
   4 -16  14    0.79    0.29
  -4 -16 -14    0.97    0.30
   4  16 -14    1.35    0.41
  16  -4  14    0.95    0.31
  16   4 -14    0.66    0.31
   4 -16  12    4.34    0.54
  -4 -16 -12    3.55    0.52
   4  16 -12    4.31    0.55
  16  -4  12    3.70    0.51
   4  16 -12    3.84    0.48
  -4  16  12    4.37    0.57
  16   4 -12    4.26    0.55
   4  16 -10    2.04    0.41
  -4 -16 -10    2.30    0.43
   4 -16  10    2.66    0.41
  16  -4  10    3.07    0.47
  16  -4  10    2.37    0.35
   4  16 -10    2.87    0.40
  16   4 -10    2.58    0.45
  -4  16  10    3.03    0.46
   4  16  -8    5.50    0.61
  -4  16   8    5.50    0.57
  -4 -16  -8    4.74    0.55
   4 -16   8    5.43    0.56
  16  -4   8    5.40    0.59
  16  -4   8    5.09    0.51
  16  -4   8    5.36    0.45
   4  16  -8    5.06    0.52
  16   4  -8    4.96    0.56
  16   4  -8    6.17    0.53
  -4 -16  -6    1.28    0.30
   4 -16   6    1.36    0.27
  16   4  -6    1.35    0.26
  16  -4   6    1.52    0.34
  16  -4   6    1.72    0.27
  -4  16   6    1.30    0.32
  16  -4   6    1.25    0.31
  16   4  -6    1.40    0.34
   4  16  -6    1.03    0.28
   4  16  -6    1.92    0.39
   4  16  -4    0.35    0.20
  -4 -16  -4    0.07    0.21
   4 -16   4    0.41    0.19
  -4  16   4    0.15    0.20
  16   4  -4    0.14    0.17
  16  -4   4    0.16    0.14
  16  -4   4    0.75    0.29
  16   4  -4    0.53    0.27
   4 -16   2    3.92    0.39
   4  16  -2    4.28    0.48
  16  -4   2    4.80    0.38
  16  -4   2    4.66    0.50
  16   4  -2    4.19    0.38
  16   4  -2    4.34    0.51
  -4  16   2    4.76    0.52
  16   4   0    1.28    0.23
   4 -16   0    1.03    0.20
   4  16   0    0.63    0.21
   4  16   0    1.24    0.33
  16   4   0    1.24    0.29
  16  -4   0    0.83    0.27
  -4  16   0    1.20    0.33
   4 -16  -2    3.61    0.43
   4 -16  -2    3.77    0.32
   4  16   2    4.82    0.49
  -4  16  -2    4.90    0.53
  16   4   2    4.01    0.36
  16   4   2    4.94    0.53
  16  -4  -2    4.75    0.49
   4  16   2    4.06    0.49
   4 -16  -4    0.42    0.21
  -4  16  -4    0.22    0.20
   4  16   4    0.04    0.24
   4  16   4    0.06    0.20
  16   4   4    0.37    0.24
  16  -4  -4    0.31    0.23
  -4  16  -4    0.11    0.18
  -4  16  -6    1.31    0.28
   4 -16  -6    1.63    0.34
   4  16   6    1.15    0.35
   4  16   6    1.59    0.34
  16   4   6    1.31    0.32
  16   4   6    1.43    0.33
  16  -4  -6    1.08    0.29
  -4  16  -8    4.77    0.50
   4  16   8    5.26    0.61
   4 -16  -8    4.57    0.53
   4  16   8    4.94    0.55
  16   4   8    5.14    0.56
  16   4   8    6.06    0.62
 -16  -4   8    5.59    0.63
  16  -4  -8    5.42    0.59
   4 -16 -10    1.99    0.39
  -4  16 -10    2.45    0.40
  16   4  10    2.26    0.37
   4  16  10    1.51    0.34
  16   4  10    2.95    0.47
  -4  16 -10    2.54    0.38
 -16  -4  10    2.47    0.44
  16  -4 -10    3.00    0.47
   4 -16 -12    4.53    0.56
  -4  16 -12    2.52    0.43
  16   4  12    4.14    0.49
   4  16  12    3.71    0.54
  -4  16 -12    4.03    0.49
  16   4  12    3.75    0.52
 -16  -4  12    3.67    0.51
  16  -4 -12    4.01    0.54
   4 -16 -14    1.47    0.38
  16   4  14    0.96    0.26
  -4  16 -14    0.73    0.31
  -4  16 -14    0.74    0.28
   4  16  14    0.70    0.31
  16   4  14    1.47    0.38
 -16  -4  14    0.96    0.33
  16  -4 -14    1.65    0.42
   4 -16 -16   -0.14    0.25
  16   4  16    0.21    0.22
  -4  16 -16   -0.26    0.27
  16   4  16    0.60    0.33
  -4  16 -16   -0.41    0.30
 -16  -4  16    0.47    0.31
  16  -4 -16    0.20    0.27
   5 -16  15    2.91    0.49
  -5 -16 -15    2.94    0.50
  16  -5  15    2.55    0.43
   5  16 -15    3.71    0.59
   5  16 -15    3.70    0.47
  16   5 -15    2.81    0.52
  -5 -16 -13    3.34    0.53
   5 -16  13    4.83    0.59
   5  16 -13    4.52    0.59
  16  -5  13    4.50    0.57
   5  16 -13    4.25    0.49
  -5  16  13    5.24    0.60
  16   5 -13    3.38    0.50
   5  16 -11    2.05    0.44
  -5 -16 -11    1.90    0.40
   5 -16  11    2.11    0.40
  16  -5  11    1.72    0.38
  -5  16  11    2.28    0.43
   5  16 -11    2.35    0.38
  16   5 -11    1.34    0.33
   5  16  -9    1.68    0.38
  -5 -16  -9    1.74    0.38
   5 -16   9    2.07    0.38
  16  -5   9    1.83    0.38
  -5  16   9    2.58    0.42
  16  -5   9    2.96    0.41
  16   5  -9    2.39    0.39
   5  16  -9    2.46    0.37
  16   5  -9    2.20    0.43
  -5  16   7   19.89    1.10
  -5 -16  -7   17.97    1.03
   5 -16   7   17.09    0.98
  16  -5   7   18.82    1.10
  16  -5   7   16.60    0.98
  16  -5   7   16.86    0.99
   5  16  -7   20.81    1.16
   5  16  -7   17.90    0.99
  16   5  -7   16.98    1.02
  16   5  -7   18.75    0.95
   5  16  -5    2.51    0.39
  -5 -16  -5    2.88    0.42
   5 -16   5    2.95    0.38
  16   5  -5    2.84    0.36
  -5  16   5    3.64    0.48
  16  -5   5    2.05    0.37
  16  -5   5    2.38    0.40
  16   5  -5    2.45    0.39
   5  16  -5    2.94    0.44
  -5  16   3    0.27    0.17
  -5 -16  -3    0.59    0.27
  16   5  -3    0.42    0.19
   5 -16   3    0.27    0.16
   5  16  -3    0.11    0.19
  16  -5   3    0.44    0.28
  16  -5   3    0.24    0.13
  16  -5   3    0.48    0.23
  16   5  -3   -0.04    0.20
  16   5  -1    2.87    0.33
   5 -16   1    2.95    0.33
   5  16  -1    3.06    0.40
  16  -5   1    3.18    0.41
  16   5  -1    3.07    0.42
  -5  16   1    3.08    0.44
   5  16   1    2.82    0.41
   5 -16  -1    2.79    0.37
   5 -16  -1    2.73    0.30
   5  16   1    3.33    0.43
  -5  16  -1    2.95    0.43
  16   5   1    3.36    0.45
  16  -5  -1    3.68    0.45
  16   5   1    3.33    0.34
   5 -16  -3    0.31    0.19
   5 -16  -3    0.08    0.10
  -5  16  -3    0.19    0.22
   5  16   3    0.23    0.23
   5  16   3   -0.03    0.22
  16   5   3    0.45    0.23
  16  -5  -3    0.52    0.27
  -5  16  -5    3.02    0.39
   5 -16  -5    2.53    0.39
   5  16   5    2.28    0.42
   5  16   5    2.11    0.37
  16   5   5    2.67    0.42
  16   5   5    2.43    0.39
  16  -5  -5    2.39    0.38
   5 -16  -7   16.71    1.00
   5  16   7   17.33    1.06
   5  16   7   16.56    1.01
 -16  -5   7   18.04    1.10
  16   5   7   18.63    1.05
  16   5   7   19.07    1.09
  -5  16  -7   17.34    0.94
  16  -5  -7   17.51    1.02
  -5  16  -9    2.23    0.36
   5 -16  -9    1.97    0.37
   5  16   9    2.09    0.39
  16   5   9    1.66    0.37
 -16  -5   9    2.52    0.45
  16  -5  -9    2.48    0.39
   5 -16 -11    1.60    0.36
  -5  16 -11    1.70    0.33
  16   5  11    1.56    0.29
   5  16  11    1.47    0.39
  16   5  11    1.87    0.38
  -5  16 -11    1.50    0.32
 -16  -5  11    1.81    0.42
  16  -5 -11    0.99    0.34
   5 -16 -13    4.22    0.56
  16   5  13    5.17    0.53
  -5  16 -13    3.97    0.51
   5  16  13    4.89    0.63
  16   5  13    4.58    0.58
  -5  16 -13    4.39    0.54
 -16  -5  13    4.96    0.58
  16  -5 -13    4.83    0.59
   5 -16 -15    2.86    0.48
  16   5  15    3.20    0.44
  -5  16 -15    2.87    0.49
  -5  16 -15    2.76    0.46
   5  16  15    2.85    0.53
  16   5  15    3.66    0.54
 -16  -5  15    2.80    0.46
  16  -5 -15    3.97    0.56
  -6 -16 -14    0.54    0.30
   6 -16  14   -0.11    0.28
   6  16 -14    0.55    0.31
  16  -6  14    0.16    0.23
   6  16 -14    0.31    0.20
  16   6 -14    0.71    0.32
  -6 -16 -12   11.42    0.87
   6 -16  12   12.19    0.92
  16  -6  12   12.37    0.93
  -6  16  12   14.48    0.97
   6  16 -12   11.82    0.80
   6  16 -12   11.87    0.96
  16   6 -12   11.77    0.91
   6  16 -10    4.29    0.57
  -6 -16 -10    5.07    0.58
   6 -16  10    4.79    0.55
  16  -6  10    4.56    0.56
  16  -6  10    5.28    0.51
  16   6 -10    5.50    0.56
  -6  16  10    4.77    0.56
   6  16 -10    4.12    0.47
  16   6 -10    5.19    0.60
   6  16  -8    3.00    0.48
  -6 -16  -8    3.11    0.45
   6 -16   8    3.65    0.46
  16  -6   8    3.16    0.48
  16   6  -8    3.37    0.45
  16  -6   8    3.70    0.46
  16   6  -8    3.56    0.49
  -6  16   8    3.54    0.50
   6  16  -8    3.37    0.44
  -6 -16  -6    9.86    0.76
   6 -16   6   10.63    0.75
  16  -6   6   10.39    0.80
  16  -6   6   10.76    0.78
  16  -6   6   10.50    0.76
   6  16  -6    9.39    0.80
  16   6  -6   11.04    0.81
  16   6  -6   11.11    0.72
   6  16  -6   10.64    0.74
  -6  16   6   11.93    0.84
  -6 -16  -4    3.97    0.49
  -6  16   4    4.20    0.50
  16   6  -4    3.74    0.41
   6 -16   4    2.75    0.37
   6  16  -4    3.87    0.46
  16  -6   4    4.19    0.51
  16  -6   4    4.35    0.49
  16   6  -4    3.34    0.48
  16   6  -2    2.55    0.34
   6 -16   2    2.64    0.33
  16  -6   2    2.80    0.44
   6  16  -2    2.62    0.39
  16  -6   2    2.77    0.38
  16   6  -2    2.68    0.41
  -6  16   2    2.64    0.42
   6  16   0    3.08    0.44
   6 -16   0    3.22    0.35
  16  -6   0    3.04    0.47
  -6  16   0    2.65    0.42
  16   6   0    3.58    0.45
  16  -6   0    2.73    0.39
  16   6   0    3.06    0.35
   6 -16  -2    2.43    0.35
   6 -16  -2    2.63    0.30
  -6  16  -2    2.38    0.39
   6  16   2    2.65    0.40
   6  16   2    2.02    0.35
  16   6   2    2.22    0.39
  16  -6  -2    3.07    0.41
   6 -16  -4    3.44    0.42
   6 -16  -4    3.98    0.34
   6  16   4    4.10    0.49
   6  16   4    2.89    0.44
 -16  -6   4    3.91    0.54
  16   6   4    4.19    0.50
  16  -6  -4    4.06    0.46
  -6  16  -4    3.79    0.41
   6 -16  -6   10.28    0.75
   6  16   6   10.95    0.83
 -16  -6   6   11.01    0.86
   6  16   6   10.42    0.81
  16   6   6   11.63    0.83
  16   6   6   10.92    0.83
  -6  16  -6    9.40    0.66
  16  -6  -6   11.44    0.80
  -6  16  -8    3.43    0.41
   6 -16  -8    3.35    0.46
   6  16   8    2.39    0.42
  16   6   8    2.63    0.44
 -16  -6   8    3.00    0.50
  16  -6  -8    3.66    0.49
   6 -16 -10    4.20    0.53
  -6  16 -10    4.77    0.51
  16   6  10    5.31    0.51
   6  16  10    4.50    0.56
  16   6  10    5.58    0.62
 -16  -6  10    4.73    0.58
  16  -6 -10    5.17    0.58
   6 -16 -12   11.60    0.90
  16   6  12   12.96    0.82
 -16  -6  12   12.49    0.94
   6  16  12   12.89    0.98
  16   6  12   13.96    0.99
  -6  16 -12   12.94    0.89
  16  -6 -12   12.35    0.90
  -6  16 -12   11.07    0.81
   6 -16 -14    0.69    0.30
  16   6  14    0.89    0.26
  -6  16 -14    0.26    0.23
   6  16  14    0.74    0.39
  16   6  14    0.79    0.34
  -6  16 -14    0.33    0.24
 -16  -6  14    0.54    0.27
  16  -6 -14    1.25    0.40
  -7 -16 -15    2.05    0.42
   7 -16  15    1.07    0.36
  16  -7  15    1.41    0.36
   7  16 -15    0.66    0.41
  16   7 -15    0.79    0.30
  -7  16  13    3.49    0.50
  -7 -16 -13    3.72    0.53
   7 -16  13    3.68    0.55
   7  16 -13    3.53    0.55
  16  -7  13    2.93    0.47
  16   7 -13    3.58    0.52
  -7 -16 -11    0.54    0.30
   7  16 -11    1.42    0.39
   7 -16  11    0.65    0.27
  16  -7  11    0.74    0.27
  16   7 -11    1.14    0.33
  16   7 -11    0.47    0.27
   7  16 -11    0.55    0.23
  -7  16  11    0.76    0.31
   7  16  -9    1.49    0.30
   7  16  -9    1.64    0.38
  -7  16   9    1.50    0.33
  -7 -16  -9    2.30    0.40
   7 -16   9    1.63    0.34
  16  -7   9    1.86    0.39
  16   7  -9    2.01    0.39
  16  -7   9    1.04    0.29
  16   7  -9    1.61    0.35
  -7 -16  -7   10.80    0.78
   7 -16   7    9.00    0.71
  16  -7   7    8.30    0.73
  16  -7   7    9.08    0.72
   7  16  -7   10.19    0.84
  16   7  -7    9.53    0.77
  16   7  -7    9.70    0.71
   7  16  -7    8.15    0.65
  -7  16   7   10.14    0.78
  -7 -16  -5    0.72    0.29
  16   7  -5    0.54    0.24
   7 -16   5    0.34    0.19
  -7  16   5    0.58    0.27
  16  -7   5   -0.33    0.28
   7  16  -5    0.42    0.23
  16  -7   5    0.19    0.18
  16   7  -5    0.39    0.27
   7  16  -5    0.71    0.28
  16   7  -3    0.12    0.18
   7 -16   3    0.24    0.18
  16  -7   3    0.51    0.27
  16  -7   3    0.21    0.23
   7  16  -3    0.35    0.22
  16   7  -3    0.30    0.20
  -7  16   3    0.65    0.27
  16   7  -1    1.47    0.29
   7  16  -1    1.91    0.34
   7 -16   1    1.41    0.26
  16  -7   1    1.68    0.40
  16  -7   1    1.52    0.31
  -7  16   1    1.22    0.31
  16   7  -1    1.54    0.34
   7 -16  -1    1.95    0.31
   7 -16  -1    1.45    0.25
  16  -7  -1    1.67    0.39
  -7  16  -1    2.20    0.40
  16   7   1    1.48    0.33
  16  -7  -1    1.50    0.31
   7  16   1    1.66    0.34
  16   7   1    1.64    0.29
   7 -16  -3    0.16    0.17
   7 -16  -3    0.29    0.15
  16  -7  -3    0.07    0.28
   7  16   3    0.07    0.26
 -16  -7   3    0.24    0.27
  16   7   3    0.40    0.22
   7  16   3    0.58    0.27
  16  -7  -3    0.19    0.18
  -7  16  -3    0.15    0.16
  -7  16  -5    0.36    0.19
   7  16   5    0.14    0.22
   7 -16  -5    0.32    0.20
  16  -7  -5    0.36    0.34
   7  16   5    0.74    0.31
  16   7   5    0.44    0.26
 -16  -7   5    0.25    0.28
  16   7   5    0.02    0.22
  16  -7  -5    0.01    0.19
   7 -16  -7    9.70    0.74
  16  -7  -7    7.35    0.77
 -16  -7   7    9.65    0.82
   7  16   7    9.08    0.77
  16   7   7    9.90    0.79
  16   7   7    9.82    0.80
  -7  16  -7    8.35    0.61
  16  -7  -7    9.49    0.72
   7 -16  -9    1.71    0.36
  -7  16  -9    1.54    0.30
  16  -7  -9    1.85    0.43
   7  16   9    1.58    0.39
  16   7   9    2.05    0.43
 -16  -7   9    1.45    0.39
  16  -7  -9    1.27    0.33
   7 -16 -11    0.58    0.28
  16   7  11    0.73    0.23
  -7  16 -11    1.12    0.27
  16  -7 -11    0.96    0.42
   7  16  11    0.21    0.28
  16   7  11    0.96    0.34
 -16  -7  11    0.80    0.33
  16  -7 -11    0.60    0.27
   7 -16 -13    3.05    0.48
  16  -7 -13    3.19    0.55
   7  16  13    4.24    0.62
  16   7  13    3.10    0.51
 -16  -7  13    3.18    0.52
  16  -7 -13    3.66    0.52
   7 -16 -15    1.04    0.34
  16  -7 -15    1.82    0.49
   7  16  15    1.15    0.43
  16   7  15    1.64    0.46
 -16  -7  15    1.48    0.38
  -7  16 -15    1.48    0.37
  16  -7 -15    1.08    0.34
  -8 -16 -14    0.44    0.28
   8 -16  14   -0.26    0.28
   8  16 -14    0.63    0.41
  16  -8  14   -0.11    0.26
  16   8 -14   -0.51    0.32
  -8 -16 -12    2.06    0.42
   8  16 -12    0.99    0.33
   8 -16  12    2.53    0.45
  16  -8  12    2.06    0.43
  16   8 -12    1.63    0.42
  -8  16  12    0.97    0.35
  16   8 -12    1.39    0.36
   8  16 -10    0.27    0.19
  -8 -16 -10    0.26    0.23
   8  16 -10    0.43    0.26
   8 -16  10    0.17    0.19
  16  -8  10    0.04    0.21
  16   8 -10    0.41    0.27
  16  -8  10    0.46    0.21
  -8  16  10    0.92    0.31
  16   8 -10    0.41    0.27
   8  16  -8    1.35    0.37
  -8 -16  -8    1.36    0.34
   8 -16   8    1.10    0.30
  16   8  -8    1.44    0.33
  16  -8   8    1.22    0.33
   8  16  -8    1.19    0.27
  16  -8   8    1.30    0.31
  -8 -16  -8    1.41    0.32
  -8  16   8    0.96    0.31
  16   8  -8    0.90    0.31
  -8 -16  -6    0.27    0.24
  16   8  -6   -0.12    0.21
   8 -16   6    0.10    0.17
  16  -8   6    0.53    0.25
  -8  16   6    0.09    0.22
  16  -8   6    0.05    0.21
  -8 -16  -6    0.22    0.21
   8  16  -6    0.15    0.21
  16  -8   6    0.20    0.22
  16   8  -6   -0.10    0.25
   8  16  -6    0.24    0.29
  -8  16   4    1.35    0.34
  16   8  -4    1.81    0.34
   8 -16   4    1.30    0.28
  16  -8   4    1.84    0.38
  -8 -16  -4    0.81    0.30
 -16   8   4    1.86    0.27
  16  -8   4    1.27    0.29
  16   8  -4    1.68    0.36
   8  16  -4    1.57    0.32
   8  16  -4    2.48    0.46
  16   8  -2    3.42    0.41
   8 -16   2    3.60    0.41
   8  16  -2    3.04    0.42
  16  -8   2    3.39    0.48
  -8 -16  -2    3.18    0.48
 -16  -8  -2    3.18    0.50
  16  -8   2    3.60    0.43
  16   8  -2    3.73    0.47
  -8  16   2    3.23    0.46
   8 -16   0    0.83    0.22
  16  -8   0    0.38    0.25
  -8 -16   0    0.44    0.28
  -8  16   0    0.55    0.25
 -16  -8   0    0.29    0.27
  16   8   0    0.69    0.24
  16  -8   0    0.46    0.21
  16   8   0    0.93    0.25
   8  16   0    0.26    0.21
   8  16   2    3.41    0.46
   8 -16  -2    3.82    0.42
   8 -16  -2    3.70    0.39
  16  -8  -2    3.48    0.52
  -8  16  -2    4.13    0.52
   8  16   2    3.11    0.47
 -16  -8   2    3.83    0.56
  16   8   2    3.45    0.46
  16  -8  -2    3.91    0.44
  -8  16  -2    3.15    0.35
  -8  16  -4    1.74    0.27
   8 -16  -4    1.92    0.34
   8 -16  -4    1.53    0.25
  16  -8  -4    0.83    0.35
   8  16   4    1.10    0.35
 -16  -8   4    1.22    0.38
  16   8   4    1.46    0.32
  16  -8  -4    1.56    0.33
  -8  16  -6   -0.06    0.15
   8 -16  -6    0.37    0.22
  16  -8  -6   -0.11    0.27
   8  16   6    0.15    0.27
  16   8   6   -0.25    0.22
 -16  -8   6   -0.25    0.29
  16   8   6    0.08    0.21
  16  -8  -6    0.20    0.21
   8 -16  -8    1.26    0.32
  16  -8  -8    0.65    0.32
   8  16   8    1.57    0.38
  16   8   8    1.26    0.36
 -16  -8   8    1.17    0.35
  16  -8  -8    0.87    0.28
   8 -16 -10    0.12    0.19
  16   8  10    0.60    0.23
  16  -8 -10    0.58    0.33
   8  16  10   -0.18    0.31
  16   8  10    0.26    0.29
 -16  -8  10   -0.14    0.33
  16  -8 -10    0.20    0.21
   8 -16 -12    1.95    0.40
  16  -8 -12    1.38    0.43
   8  16  12    1.99    0.46
  16   8  12    1.52    0.41
 -16  -8  12    1.70    0.41
  16  -8 -12    1.82    0.41
   8 -16 -14    0.06    0.25
  16  -8 -14    0.31    0.33
   8  16  14   -0.26    0.29
  16   8  14   -0.06    0.29
 -16  -8  14    0.09    0.23
  16  -8 -14   -0.09    0.24
  -9 -16 -13    0.59    0.28
   9 -16  13    0.64    0.28
   9  16 -13    0.88    0.38
  16  -9  13    0.15    0.21
  -9  16  13   -0.28    0.25
  16   9 -13   -0.16    0.29
  16   9 -13    0.12    0.22
  -9 -16 -11    0.05    0.21
   9  16 -11   -0.62    0.38
   9 -16  11   -0.05    0.23
  16  -9  11   -0.05    0.23
  16   9 -11    0.18    0.28
  -9  16  11   -0.04    0.24
  16   9 -11    0.21    0.25
  -9  16   9    1.04    0.30
  -9 -16  -9    0.84    0.30
   9  16  -9    1.42    0.39
   9 -16   9    0.91    0.29
  16   9  -9    1.30    0.34
  16  -9   9    1.48    0.36
  16  -9   9    1.07    0.29
  -9 -16  -9    1.10    0.31
  16   9  -9    1.17    0.30
   9  16  -7    0.33    0.29
  -9 -16  -7    0.31    0.23
  16   9  -7    1.04    0.32
   9 -16   7    0.91    0.27
  16  -9   7    1.09    0.31
  16  -9   7    1.09    0.30
  -9 -16  -7    0.48    0.24
  -9  16   7    0.68    0.29
 -16  -9  -7    0.73    0.30
   9  16  -7    0.96    0.24
  16   9  -7    1.12    0.31
   9  16  -5    4.02    0.46
  16   9  -5    3.65    0.47
  -9  16   5    4.00    0.50
   9 -16   5    2.91    0.42
  16  -9   5    3.37    0.50
  16  -9   5    3.38    0.48
  -9 -16  -5    3.01    0.46
  16  -9   5    4.19    0.47
 -16  -9  -5    3.26    0.54
  16   9  -5    4.21    0.51
   9  16  -5    4.42    0.56
   9  16  -3    7.94    0.65
   9 -16   3    8.62    0.66
  16  -9   3    8.74    0.76
  -9 -16  -3    7.86    0.72
 -16  -9  -3    7.00    0.73
 -16   9   3    9.28    0.61
  16  -9   3    8.92    0.67
  16   9  -3    7.59    0.68
  16   9  -3    9.10    0.70
  -9  16   3    7.95    0.69
   9  16  -1    1.03    0.31
   9 -16   1    0.85    0.23
  16  -9   1    1.07    0.35
  -9 -16  -1    1.27    0.36
 -16  -9  -1    1.63    0.42
  -9  16   1    1.02    0.31
  16  -9   1    1.09    0.29
  16   9  -1    1.63    0.34
  16   9  -1    1.78    0.34
   9 -16  -1    1.48    0.28
  16  -9  -1    1.17    0.33
  -9 -16   1    1.54    0.38
  -9  16  -1    1.27    0.31
   9  16   1    1.45    0.33
 -16  -9   1    1.51    0.37
  16   9   1    1.49    0.32
  16  -9  -1    1.54    0.31
   9 -16  -3    7.97    0.61
   9 -16  -3    8.05    0.58
  -9 -16   3    7.69    0.76
  16  -9  -3    6.05    0.69
 -16  -9   3    7.09    0.74
   9  16   3    8.28    0.74
  16   9   3    7.43    0.67
  16  -9  -3    7.76    0.62
   9 -16  -5    4.15    0.47
   9 -16  -5    3.54    0.38
  16  -9  -5    3.15    0.53
   9  16   5    4.27    0.53
  16   9   5    2.81    0.46
 -16  -9   5    4.31    0.58
  16   9   5    3.74    0.49
  16  -9  -5    4.37    0.48
   9 -16  -7    1.05    0.29
  16  -9  -7    0.23    0.27
   9  16   7    0.58    0.32
  16   9   7    0.98    0.29
 -16  -9   7    1.35    0.40
  16  -9  -7    1.09    0.28
   9 -16  -9    0.88    0.28
  16  -9  -9    0.78    0.34
   9  16   9    0.67    0.30
  16   9   9    1.17    0.38
 -16  -9   9    0.49    0.28
  16  -9  -9    1.01    0.30
   9 -16 -11   -0.15    0.23
  16  -9 -11    0.35    0.33
   9  16  11    0.05    0.30
  16   9  11   -0.17    0.32
 -16  -9  11   -0.14    0.32
  16  -9 -11    0.01    0.20
   9 -16 -13    0.59    0.32
  16  -9 -13    0.75    0.38
   9  16  13   -0.15    0.33
  16   9  13   -0.24    0.29
 -16  -9  13   -0.10    0.26
  16  -9 -13    0.79    0.34
 -10 -16 -12    0.01    0.24
  10  16 -12    0.16    0.37
  10 -16  12   -0.10    0.25
  16 -10  12   -0.12    0.24
 -10  16  12    0.40    0.26
  16  10 -12    0.16    0.26
 -16 -10 -12    0.06    0.22
  16  10 -12    0.54    0.25
 -10 -16 -10    0.53    0.28
  10  16 -10    0.73    0.30
  10 -16  10    0.48    0.26
  16 -10  10    0.82    0.33
 -10  16  10    0.41    0.28
  16  10 -10    0.16    0.24
 -10 -16 -10    0.15    0.19
 -16 -10 -10    0.89    0.30
  16  10 -10    0.48    0.27
  10  16  -8    1.91    0.45
 -10 -16  -8    1.07    0.30
  16  10  -8    1.39    0.38
  10 -16   8    1.76    0.38
  16 -10   8    1.23    0.34
 -10 -16  -8    1.36    0.31
 -16 -10  -8    1.95    0.43
 -10  16   8    1.04    0.33
  16  10  -8    1.04    0.29
  10  16  -6    5.01    0.61
  16  10  -6    3.55    0.48
  10 -16   6    2.93    0.43
  10  16  -6    3.27    0.42
 -10  16   6    4.69    0.53
  16 -10   6    3.74    0.51
  16 -10   6    3.56    0.50
 -10 -16  -6    2.89    0.48
 -16 -10  -6    2.87    0.49
  16  10  -6    3.12    0.46
 -10  16   4    1.32    0.34
  16  10  -4    1.43    0.33
  10 -16   4    1.46    0.33
  16 -10   4    1.94    0.39
  16 -10   4    0.64    0.26
 -10 -16  -4    1.43    0.37
 -16 -10  -4    1.26    0.39
  16 -10   4    1.56    0.31
 -16  10   4    1.68    0.29
  16  10  -4    0.75    0.26
  10  16  -4    1.12    0.29
  10  16  -4    0.83    0.31
  16  10  -2    4.16    0.50
  10 -16   2    3.81    0.47
  16 -10   2    4.19    0.56
 -16  10   2    3.62    0.42
 -10 -16  -2    3.01    0.49
  10  16  -2    3.94    0.48
 -16 -10  -2    4.46    0.60
  16 -10   2    4.29    0.48
  16  10  -2    3.87    0.50
 -10  16   2    4.66    0.55
  10  16   0    5.14    0.55
  10 -16   0    4.20    0.47
  16 -10   0    4.71    0.60
 -10 -16   0    5.18    0.62
 -10  16   0    6.05    0.62
  16  10   0    5.86    0.56
 -16 -10   0    4.03    0.58
  16  10   0    5.18    0.56
  16 -10   0    4.20    0.47
  10 -16  -2    3.75    0.42
  10 -16  -2    3.73    0.41
  16 -10  -2    4.25    0.59
 -10  16  -2    3.69    0.50
 -10 -16   2    3.38    0.52
  10  16   2    3.76    0.53
 -16 -10   2    3.41    0.53
  16  10   2    3.73    0.48
  16 -10  -2    4.02    0.45
  10 -16  -4    1.25    0.24
  10 -16  -4    0.67    0.21
  16 -10  -4    1.74    0.43
 -10 -16   4    1.05    0.35
  10  16   4    0.95    0.32
  16  10   4    1.20    0.33
 -16 -10   4    1.71    0.41
  16  10   4    1.40    0.33
  16 -10  -4    1.20    0.27
  10 -16  -6    3.77    0.45
  16 -10  -6    3.17    0.55
  10  16   6    3.60    0.54
  16  10   6    3.79    0.53
 -16 -10   6    2.49    0.45
  16  10   6    4.37    0.55
  16 -10  -6    2.83    0.40
  10 -16  -8    1.56    0.33
  16 -10  -8    0.66    0.28
  10  16   8    1.38    0.40
  16  10   8    1.96    0.45
 -16 -10   8    1.18    0.37
  16 -10  -8    0.60    0.26
  10 -16 -10    0.72    0.25
  16 -10 -10    0.43    0.30
  10  16  10    0.28    0.29
  16  10  10    0.20    0.29
 -16 -10  10    0.61    0.35
  16 -10 -10    0.89    0.28
  10 -16 -12    0.15    0.22
  16 -10 -12   -0.54    0.36
  10  16  12    0.04    0.29
  16  10  12   -0.39    0.34
 -16 -10  12    0.12    0.24
  16 -10 -12   -0.34    0.28
 -11 -16 -11    0.38    0.24
  11  16 -11    0.96    0.36
  11 -16  11    0.76    0.28
  16 -11  11    0.94    0.34
  16  11 -11    0.89    0.37
 -16 -11 -11    0.65    0.30
 -11  16  11    1.28    0.37
  16  11 -11    0.48    0.27
 -11 -16  -9    0.56    0.26
  11  16  -9    0.18    0.27
  16  11  -9    0.17    0.23
  11 -16   9    0.15    0.23
  16 -11   9    0.55    0.29
 -11 -16  -9    0.06    0.23
 -16 -11  -9    0.03    0.27
  16  11  -9    0.32    0.24
 -11  16   9   -0.07    0.24
  11  16  -7    1.14    0.40
  16  11  -7    0.52    0.28
  11 -16   7   -0.01    0.18
  16 -11   7    0.68    0.27
 -11  16   7    0.87    0.32
 -11 -16  -7    0.46    0.25
 -16 -11  -7   -0.08    0.24
  16  11  -7    0.07    0.21
  16  11  -5    2.45    0.43
 -11  16   5    2.02    0.38
  11 -16   5    2.28    0.40
  16 -11   5    1.41    0.35
  16 -11   5    2.01    0.41
 -11 -16  -5    2.50    0.44
 -16 -11  -5    1.62    0.41
  16  11  -5    2.31    0.41
  11  16  -5    2.44    0.47
  16  11  -3    1.44    0.35
  11 -16   3    0.86    0.26
  16 -11   3    1.69    0.38
  16 -11   3    0.63    0.32
  11  16  -3    1.16    0.29
 -11 -16  -3    1.07    0.36
 -16  11   3    1.27    0.29
 -16 -11  -3    0.65    0.36
  16 -11   3    1.79    0.34
  16  11  -3    1.63    0.35
 -11  16   3    1.38    0.34
  11  16  -3    1.32    0.34
  11 -16   1    0.59    0.24
  16 -11   1    1.54    0.40
 -11 -16  -1    2.13    0.45
 -16 -11  -1    1.49    0.41
 -11  16   1    1.42    0.33
  16 -11   1    1.21    0.27
  16  11  -1    1.00    0.30
  16  11  -1    0.95    0.30
  11 -16  -1    1.37    0.28
  16 -11  -1    1.29    0.37
 -11  16  -1    0.92    0.29
 -11 -16   1    1.76    0.43
 -16 -11   1    0.88    0.34
  16  11   1    1.34    0.33
  16 -11  -1    0.74    0.22
  11 -16  -3    1.60    0.29
  11 -16  -3    1.28    0.28
  16 -11  -3    0.59    0.29
 -11 -16   3    1.11    0.37
  11  16   3    0.55    0.26
 -16 -11   3    1.08    0.37
  16  11   3    1.37    0.34
  16 -11  -3    1.56    0.31
  11 -16  -5    2.34    0.35
  11 -16  -5    1.82    0.31
  16 -11  -5    1.27    0.38
 -11 -16   5    2.55    0.46
  11  16   5    3.31    0.52
  16  11   5    1.96    0.42
 -16 -11   5    2.44    0.45
  16  11   5    1.25    0.33
  16 -11  -5    1.52    0.31
  11 -16  -7    0.53    0.23
  16 -11  -7    0.53    0.36
 -11 -16   7    0.40    0.30
  11  16   7    1.05    0.37
  16  11   7    0.40    0.30
 -16 -11   7    0.61    0.32
  16 -11  -7    0.22    0.19
  11 -16  -9   -0.18    0.21
  16 -11  -9    0.64    0.36
  11  16   9   -0.44    0.30
 -16 -11   9   -0.21    0.29
  16  11   9   -0.02    0.24
  16 -11  -9    0.33    0.25
  11 -16 -11    0.97    0.27
  16 -11 -11    1.29    0.39
  11  16  11    1.42    0.41
 -16 -11  11    0.29    0.31
  16  11  11    1.25    0.43
  16 -11 -11    0.98    0.31
  12  16  -8    0.37    0.32
  16  12  -8    0.50    0.27
  12 -16   8    0.51    0.26
  16 -12   8    0.81    0.33
 -12 -16  -8    0.98    0.34
 -16 -12  -8    0.06    0.24
 -12  16   8    0.94    0.33
  16  12  -8    0.54    0.29
  12  16  -6    0.11    0.31
  16  12  -6    0.39    0.31
  12 -16   6    0.89    0.32
 -12  16   6   -0.30    0.29
  16 -12   6    0.42    0.24
 -12 -16  -6   -0.21    0.28
 -16 -12  -6   -0.18    0.29
  16  12  -6    0.46    0.28
  16  12  -4    0.74    0.30
  12 -16   4    0.41    0.22
  16 -12   4    0.68    0.32
  16 -12   4    0.41    0.22
 -12 -16  -4    0.36    0.28
 -16 -12  -4    1.07    0.38
  16 -12   4    0.39    0.18
  16  12  -4    0.24    0.21
 -16  12   4    0.53    0.25
 -12  16   4    0.36    0.25
  12  16  -4    1.00    0.34
  12 -16   2    0.51    0.24
  16 -12   2    1.02    0.34
  16 -12   2    0.37    0.27
 -12 -16  -2    0.49    0.28
 -16  12   2    0.80    0.23
 -16 -12  -2    1.26    0.40
  16 -12   2    0.61    0.22
  16  12  -2    0.84    0.27
 -12  16   2    0.84    0.32
  16  12  -2    0.89    0.30
  12 -16   0    0.32    0.22
  16 -12   0    0.38    0.29
 -12 -16   0    0.59    0.30
 -12  16   0    0.45    0.23
 -16 -12   0    0.62    0.29
  16  12   0    0.47    0.25
  16 -12   0    0.46    0.21
  16  12   0    0.40    0.26
  12 -16  -2    0.77    0.27
  16 -12  -2    0.36    0.26
 -12 -16   2    0.90    0.33
 -16 -12   2    0.58    0.32
  12  16   2    0.55    0.30
  16  12   2    0.39    0.25
  16 -12  -2    0.78    0.23
  12 -16  -4   -0.17    0.18
  16 -12  -4    0.00    0.27
 -12 -16   4    0.66    0.34
 -16 -12   4    1.06    0.33
  12  16   4    0.76    0.33
  16  12   4    0.18    0.27
  16  12   4    0.44    0.24
  16 -12  -4    0.30    0.20
  12 -16  -6    0.40    0.20
  16 -12  -6   -0.36    0.33
 -12 -16   6    0.24    0.27
 -16 -12   6   -0.16    0.30
  12  16   6    0.67    0.35
  16  12   6    0.14    0.28
  16 -12  -6   -0.07    0.21
  12 -16  -8    0.58    0.24
  16 -12  -8    0.23    0.32
 -12 -16   8    1.28    0.42
 -16 -12   8    0.35    0.25
  12  16   8   -0.16    0.33
  16  12   8    0.84    0.36
  16 -12  -8    0.10    0.22
  13  16  -7    2.17    0.46
  16  13  -7    2.12    0.47
  13 -16   7    1.68    0.37
  16 -13   7    1.79    0.42
 -13  16   7    1.77    0.39
 -13 -16  -7    1.94    0.42
 -16 -13  -7    1.22    0.36
  16  13  -7    1.55    0.35
  13  16  -5    0.79    0.33
  16  13  -5    0.78    0.31
 -13  16   5    1.05    0.34
  13 -16   5    1.09    0.31
  16 -13   5    1.19    0.35
 -13 -16  -5    0.84    0.33
 -16 -13  -5    1.21    0.37
  16  13  -5    0.81    0.27
  16  13  -3    0.12    0.26
  13 -16   3    0.92    0.30
  16 -13   3   -0.04    0.23
 -13 -16  -3    0.81    0.31
 -16 -13  -3    0.46    0.31
 -16  13   3    0.46    0.23
  16  13  -3    0.59    0.27
 -13  16   3   -0.03    0.23
  13  16  -3    0.73    0.29
  13 -16   1    0.08    0.19
  16 -13   1   -0.04    0.23
  16 -13   1   -0.15    0.27
 -16  13   1    0.25    0.22
 -13 -16  -1    0.11    0.26
 -16 -13  -1    0.49    0.35
 -13  16   1   -0.25    0.25
  16  13  -1    0.05    0.20
  16  13  -1    0.63    0.32
  13 -16  -1    0.19    0.17
  16 -13  -1   -0.03    0.22
  16 -13  -1    0.53    0.33
 -13  16  -1    0.51    0.27
 -13 -16   1    0.17    0.23
 -16 -13   1    0.17    0.28
  16  13   1    0.55    0.27
  13 -16  -3    0.44    0.23
  16 -13  -3    0.48    0.27
 -13 -16   3    0.49    0.31
 -16 -13   3    0.39    0.27
  13  16   3    0.67    0.33
  16  13   3    0.51    0.29
  16  13   3    0.40    0.22
  13 -16  -5    1.11    0.29
  16 -13  -5    1.49    0.46
 -13 -16   5    1.02    0.34
 -16 -13   5    0.97    0.38
  13  16   5    0.93    0.35
  16  13   5    0.88    0.34
  16 -13  -7    1.37    0.44
 -13 -16   7    0.78    0.38
 -16 -13   7    1.00    0.38
  13  16   7    1.28    0.41
  16  13   7    1.01    0.38
  14  16  -4   -0.27    0.33
  16  14  -4    0.08    0.29
  14 -16   4    0.10    0.20
  16 -14   4    0.05    0.22
 -14 -16  -4    0.06    0.30
 -16 -14  -4    0.20    0.28
  16  14  -4    0.08    0.23
 -14  16   4    0.09    0.22
  14 -16   2    2.49    0.44
  16 -14   2    1.40    0.34
 -14 -16  -2    1.86    0.44
 -16 -14  -2    1.68    0.46
 -16  14   2    2.12    0.39
  16  14  -2    2.30    0.40
 -14  16   2    2.27    0.43
  14  16  -2    2.27    0.48
  16  14  -2    2.89    0.51
  14 -16   0    5.62    0.62
  16 -14   0    4.52    0.59
 -14 -16   0    4.28    0.62
 -16  14   0    5.97    0.61
 -14  16   0    4.58    0.57
 -16 -14   0    4.31    0.64
  16  14   0    5.84    0.60
  16  14   0    5.93    0.67
  14 -16  -2    1.97    0.38
  16 -14  -2    2.45    0.44
  16 -14  -2    2.23    0.48
 -14  16  -2    1.98    0.42
 -14 -16   2    1.81    0.47
 -16 -14   2    1.62    0.41
  14  16   2    1.84    0.46
  16  14   2    2.42    0.41
  14 -16  -4    0.17    0.19
  16 -14  -4   -0.08    0.31
 -14 -16   4    0.13    0.31
 -16 -14   4    0.33    0.36
  14  16   4    0.54    0.31
  16  14   4    0.31    0.32
   0  17  -1    0.10    0.23
   0  17   1    0.35    0.26
   0  17   1    0.58    0.21
   0  17  -1    0.40    0.18
  17   0   1    0.41    0.25
  17   0  -1    0.15    0.24
   0 -17  -3    0.67    0.26
   0  17   3    0.94    0.24
   0  17   3    0.76    0.31
   0  17  -3    0.32    0.17
  17   0   3    1.22    0.31
  17   0  -3    0.51    0.24
   0  17  -3    0.48    0.25
   0 -17  -5    0.30    0.20
   0  17   5    0.23    0.22
  17   0   5    0.29    0.20
   0  17  -5    0.31    0.23
  17   0   5    0.08    0.21
  17   0  -5    0.30    0.25
   0  17  -5    0.58    0.24
   0  17   5    0.56    0.27
   0  17  -7    2.88    0.45
   0 -17  -7    2.21    0.38
   0  17  -7    2.73    0.41
   0  17   7    3.17    0.43
   0  17   7    3.41    0.49
  17   0   7    2.76    0.39
  17   0   7    2.98    0.46
  17   0  -7    3.58    0.49
   0  17  -9    3.05    0.45
   0 -17  -9    3.08    0.47
  17   0   9    2.87    0.43
   0  17   9    3.03    0.49
   0  17   9    3.22    0.44
  17   0   9    3.07    0.42
  17   0  -9    3.44    0.50
   0  17 -11    0.33    0.28
   0 -17 -11   -0.02    0.22
   0  17  11    0.17    0.31
  17   0  11    0.21    0.22
  17   0  11   -0.09    0.23
  17   0 -11    0.24    0.26
   0 -17 -13    1.55    0.40
   0  17 -13    1.03    0.33
  17   0  13    0.65    0.27
  17   0  13    1.22    0.35
 -17   0  13    0.97    0.30
  17   0 -13    0.67    0.33
   0 -17 -15    1.29    0.37
  17   0  15    1.46    0.33
   0  17 -15    1.05    0.33
 -17   0  15    1.25    0.34
  17   0 -15    0.65    0.32
  -1 -17 -14    0.96    0.35
   1  17 -14    0.53    0.27
  17  -1  14    0.21    0.22
  17  -1  14    0.25    0.22
 -17   1  14    0.56    0.28
  17   1 -14    0.05    0.28
  -1 -17 -12    2.78    0.48
   1  17 -12    2.15    0.44
  17  -1  12    2.71    0.45
  17  -1  12    2.73    0.44
  17   1 -12    2.36    0.45
   1  17 -10    1.94    0.40
  -1 -17 -10    2.10    0.40
  17  -1  10    2.32    0.42
  17  -1  10    2.31    0.38
  17   1 -10    1.68    0.39
  -1  17  10    2.95    0.51
   1  17  -8    0.89    0.31
  -1 -17  -8    0.08    0.18
   1  17  -8   -0.04    0.23
  17  -1   8    0.43    0.23
  17  -1   8    0.19    0.22
  -1  17   8    0.50    0.31
  17   1  -8    0.06    0.26
  -1  17   6    1.32    0.34
  -1 -17  -6    1.02    0.29
  -1  17   6    1.12    0.27
  17  -1   6    1.12    0.27
   1  17  -6    0.83    0.27
  17  -1   6    1.45    0.33
  17   1  -6    0.97    0.31
   1  17  -6    1.24    0.32
  -1 -17  -4    2.09    0.36
  -1  17   4    2.21    0.32
  17  -1   4    1.99    0.31
  -1  17   4    2.60    0.44
  17  -1   4    2.25    0.40
  17   1  -4    2.76    0.43
   1  17  -4    2.03    0.38
  -1 -17  -2    0.08    0.20
  -1  17   2    0.24    0.23
  -1  17   2    0.17    0.16
   1  17  -2    0.36    0.21
  17  -1   2    0.27    0.22
  17   1  -2    0.15    0.23
   1  17  -2   -0.07    0.21
  -1  17   0    0.15    0.20
   1  17   0   -0.03    0.21
  -1  17   0    0.42    0.18
   1  17   0   -0.01    0.17
  17   1   0   -0.42    0.29
  17  -1   0    0.21    0.21
   1 -17  -2    0.23    0.22
   1  17   2    0.07    0.19
   1  17   2   -0.01    0.17
  -1  17  -2    0.11    0.13
  17   1   2   -0.26    0.25
  17  -1  -2    0.13    0.21
  -1  17  -2    0.10    0.23
   1 -17  -4    1.82    0.33
   1  17   4    2.51    0.37
  17   1   4    1.96    0.34
  -1  17  -4    1.65    0.25
  -1  17  -4    2.07    0.36
  17   1   4    2.40    0.41
  17  -1  -4    2.90    0.45
   1  17   4    2.86    0.45
   1 -17  -6    0.83    0.28
   1  17   6    1.30    0.34
  -1  17  -6    1.10    0.30
   1  17   6    0.74    0.27
  17   1   6    1.55    0.32
  17   1   6    0.85    0.27
  17  -1  -6    0.89    0.30
  -1  17  -6    1.23    0.32
  -1  17  -8    0.08    0.22
   1 -17  -8   -0.04    0.27
   1  17   8   -0.02    0.24
   1  17   8    0.09    0.22
  17   1   8    0.11    0.22
  17   1   8    0.12    0.20
  17  -1  -8    0.15    0.21
  -1  17 -10    2.27    0.40
   1 -17 -10    2.35    0.42
  17   1  10    2.45    0.40
   1  17  10    2.21    0.40
  17   1  10    1.86    0.36
   1  17  10    3.00    0.51
  17  -1 -10    1.83    0.39
   1 -17 -12    1.79    0.39
  -1  17 -12    2.15    0.41
  17   1  12    2.65    0.43
  17   1  12    2.53    0.42
 -17  -1  12    2.22    0.41
  17  -1 -12    1.75    0.43
   1 -17 -14    0.78    0.33
  17   1  14    0.55    0.25
  -1  17 -14    0.40    0.29
  17   1  14    0.56    0.30
 -17  -1  14    0.42    0.22
  17  -1 -14    0.45    0.32
  -2 -17 -15    0.00    0.26
  17  -2  15   -0.12    0.25
   2  17 -15    0.12    0.30
  17   2 -15    0.10    0.25
  -2 -17 -13    1.30    0.39
   2  17 -13    0.74    0.31
  17  -2  13    0.66    0.26
  17   2 -13    0.66    0.33
   2  17 -11    1.79    0.38
  -2 -17 -11    0.79    0.31
  -2  17  11    1.92    0.41
  17  -2  11    1.23    0.32
   2  17 -11    1.10    0.30
  17  -2  11    1.30    0.30
  17   2 -11    1.38    0.37
   2  17  -9    0.20    0.20
  -2 -17  -9    0.12    0.24
  17  -2   9    0.31    0.21
   2  17  -9    0.03    0.19
  17  -2   9    0.08    0.18
  17   2  -9   -0.04    0.24
  -2  17   9   -0.03    0.23
   2  17  -7    1.45    0.38
  -2 -17  -7    1.37    0.37
  17  -2   7    1.20    0.28
   2  17  -7    1.73    0.35
  17  -2   7    1.15    0.31
  17   2  -7    1.73    0.38
  -2 -17  -5    1.59    0.34
  -2  17   5    1.84    0.29
  17  -2   5    1.97    0.30
  17  -2   5    1.76    0.37
  -2  17   5    2.16    0.39
   2  17  -5    2.08    0.38
  17   2  -5    2.15    0.41
   2  17  -5    2.12    0.40
  -2 -17  -3    6.06    0.58
  -2  17   3    6.26    0.49
  17  -2   3    6.80    0.51
  17  -2   3    5.32    0.55
  17   2  -3    6.31    0.61
   2  17  -3    5.42    0.57
  -2  17   3    6.27    0.62
  -2  17   1    0.90    0.32
   2  17  -1    0.57    0.23
  -2  17   1    0.30    0.15
   2  17  -1    0.77    0.23
  17  -2   1    0.97    0.30
  17   2  -1    0.85    0.30
   2  17   1    0.50    0.26
   2  17   1    0.74    0.22
  17   2   1    0.47    0.27
  17  -2  -1    0.77    0.29
  -2  17  -1    0.55    0.26
   2 -17  -3    6.48    0.60
   2  17   3    5.80    0.53
  17   2   3    6.61    0.63
  -2  17  -3    5.58    0.58
  17  -2  -3    6.44    0.61
   2  17   3    6.02    0.61
   2 -17  -5    1.88    0.38
   2  17   5    1.38    0.36
  -2  17  -5    2.15    0.38
   2  17   5    2.35    0.38
  17   2   5    1.74    0.34
  17   2   5    1.12    0.32
  17  -2  -5    1.82    0.38
  -2  17  -5    1.80    0.34
  -2  17  -7    1.54    0.34
   2 -17  -7    1.39    0.35
   2  17   7    1.31    0.36
   2  17   7    1.35    0.32
  17   2   7    1.34    0.32
  17   2   7    1.68    0.36
  17  -2  -7    1.02    0.32
  -2  17  -9    0.63    0.29
   2 -17  -9    0.51    0.30
  17   2   9   -0.13    0.20
   2  17   9    0.08    0.22
  17   2   9    0.40    0.26
  17  -2  -9    0.07    0.26
   2  17   9   -0.10    0.28
   2 -17 -11    1.26    0.34
  -2  17 -11    1.07    0.33
  17   2  11    0.95    0.28
  -2  17 -11    0.99    0.27
   2  17  11    1.29    0.37
  17   2  11    1.73    0.37
 -17  -2  11    1.09    0.32
  17  -2 -11    0.93    0.30
   2 -17 -13    0.49    0.30
  -2  17 -13    0.46    0.26
  17   2  13    0.64    0.27
  -2  17 -13    0.04    0.22
  17   2  13    0.78    0.31
 -17  -2  13    0.24    0.23
  17  -2 -13    0.39    0.28
   2 -17 -15   -0.11    0.25
  17   2  15   -0.02    0.21
  -2  17 -15    0.05    0.21
  -2  17 -15   -0.61    0.33
  17   2  15   -0.09    0.24
 -17  -2  15    0.37    0.22
  17  -2 -15    0.12    0.25
  -3 -17 -14    1.27    0.39
   3  17 -14    1.57    0.42
  17  -3  14    1.60    0.39
  17   3 -14    1.39    0.41
  -3 -17 -12    0.53    0.27
   3  17 -12    0.41    0.29
  17  -3  12    0.29    0.25
  -3  17  12    0.47    0.28
   3  17 -12    0.60    0.24
  17   3 -12    0.68    0.28
   3  17 -10    0.96    0.31
  -3 -17 -10    1.08    0.35
  -3  17  10    0.80    0.34
  17  -3  10    1.07    0.32
   3  17 -10    0.94    0.29
  17   3 -10    0.79    0.32
  -3 -17  -8    4.71    0.56
   3 -17   8    5.07    0.52
  -3  17   8    5.16    0.59
  17  -3   8    4.93    0.57
  17  -3   8    5.35    0.54
  17  -3   8    6.27    0.52
  17  -3   8    4.83    0.57
   3  17  -8    5.45    0.56
   3  17  -8    5.68    0.63
  17   3  -8    5.20    0.58
  -3 -17  -6    2.22    0.39
   3 -17   6    1.46    0.30
  17   3  -6    1.50    0.28
  17  -3   6    1.95    0.31
  17  -3   6    2.17    0.38
  -3  17   6    1.76    0.38
  17   3  -6    1.35    0.36
   3  17  -6    2.08    0.38
   3  17  -6    1.08    0.33
   3  17  -4    0.77    0.28
  -3 -17  -4    1.53    0.35
   3 -17   4    1.12    0.25
  17   3  -4    0.92    0.23
  -3  17   4    1.25    0.34
  17  -3   4    1.05    0.25
  17  -3   4    1.21    0.31
  17   3  -4    0.34    0.24
   3 -17   2    9.68    0.61
  17  -3   2   10.69    0.77
  17   3  -2    9.33    0.76
  17   3  -2   10.13    0.57
  -3  17   2   11.39    0.83
   3  17  -2    8.92    0.71
   3 -17   0    7.96    0.51
   3  17   0    8.74    0.65
  17   3   0    9.14    0.73
  17  -3   0    8.62    0.69
  -3  17   0    9.38    0.77
   3  17   0    8.98    0.72
   3 -17  -2    9.64    0.71
   3  17   2    8.51    0.72
   3  17   2    8.60    0.65
  17   3   2   10.20    0.76
  -3  17  -2    9.10    0.75
  17  -3  -2    9.78    0.74
   3 -17  -4    1.16    0.31
   3  17   4    0.72    0.29
  -3  17  -4    1.03    0.27
   3  17   4    1.00    0.29
  17   3   4    1.12    0.28
  17   3   4    1.03    0.33
  17  -3  -4    1.05    0.27
  -3  17  -4    0.54    0.22
  -3  17  -6    1.66    0.33
   3  17   6    1.81    0.38
   3 -17  -6    2.13    0.38
  -3  17  -6    1.35    0.32
   3  17   6    1.59    0.33
  17   3   6    1.69    0.34
  17   3   6    1.50    0.37
  17  -3  -6    1.24    0.33
  -3  17  -8    4.45    0.50
   3 -17  -8    5.71    0.61
  -3  17  -8    4.71    0.46
   3  17   8    5.79    0.61
   3  17   8    4.61    0.57
  17   3   8    5.59    0.58
  17   3   8    5.36    0.61
  17  -3  -8    4.28    0.53
   3 -17 -10    0.70    0.27
  -3  17 -10    0.70    0.27
  17   3  10    0.75    0.25
  -3  17 -10    0.76    0.23
   3  17  10    0.98    0.32
  17   3  10    0.83    0.32
 -17  -3  10    1.45    0.39
  17  -3 -10    1.27    0.36
   3 -17 -12   -0.05    0.24
  -3  17 -12    0.78    0.29
  17   3  12    0.37    0.21
  -3  17 -12    0.26    0.18
   3  17  12    0.60    0.33
  17   3  12    0.36    0.22
 -17  -3  12    0.76    0.32
  17  -3 -12    0.82    0.29
   3 -17 -14    1.28    0.38
  17   3  14    1.23    0.31
  -3  17 -14    1.37    0.36
  -3  17 -14    1.03    0.32
  17   3  14    0.67    0.31
 -17  -3  14    1.19    0.35
  17  -3 -14    1.09    0.39
  -4 -17 -15   -0.07    0.27
  17  -4  15   -0.21    0.25
   4  17 -15    0.12    0.30
   4  17 -15    0.12    0.20
  17   4 -15    0.37    0.26
  -4 -17 -13    2.05    0.43
   4  17 -13    1.17    0.38
  17  -4  13    1.70    0.37
   4  17 -13    1.04    0.29
  17   4 -13    0.83    0.31
  -4 -17 -11    2.84    0.47
   4  17 -11    2.12    0.45
   4 -17  11    2.13    0.40
  17  -4  11    2.29    0.44
  -4  17  11    1.55    0.39
   4  17 -11    1.82    0.35
  17   4 -11    1.93    0.41
   4  17  -9    1.19    0.35
  -4 -17  -9    0.61    0.31
   4 -17   9    0.39    0.19
  17  -4   9    0.51    0.25
  17  -4   9    0.43    0.21
  -4  17   9    1.17    0.33
   4  17  -9    0.75    0.26
  17   4  -9    1.04    0.34
   4  17  -7    3.90    0.53
  -4 -17  -7    4.33    0.54
   4 -17   7    3.34    0.43
  17  -4   7    4.46    0.56
  17  -4   7    3.67    0.46
  17   4  -7    4.02    0.44
  17  -4   7    3.56    0.48
  17   4  -7    3.67    0.52
   4  17  -7    3.86    0.47
  -4  17   7    4.43    0.56
   4  17  -5    3.22    0.44
  -4 -17  -5    2.40    0.40
   4 -17   5    2.89    0.39
  17   4  -5    3.26    0.38
  -4  17   5    3.11    0.49
  17  -4   5    3.60    0.47
  17   4  -5    3.76    0.49
   4  17  -5    2.96    0.44
  -4 -17  -3   11.84    0.82
   4 -17   3   10.85    0.68
  17  -4   3   10.80    0.61
  17  -4   3    9.76    0.76
  17   4  -3   10.56    0.81
  17   4  -3   10.69    0.63
  -4  17   3   11.22    0.83
   4  17  -3   10.35    0.76
  17   4  -1    0.93    0.20
   4 -17   1    1.10    0.23
   4  17  -1    1.17    0.30
  17  -4   1    1.22    0.30
  17   4  -1    1.51    0.34
  -4  17   1    1.88    0.38
  17   4   1    1.51    0.23
   4 -17  -1    1.07    0.20
   4  17   1    1.49    0.32
  17   4   1    1.27    0.33
  -4  17  -1    1.43    0.34
  17  -4  -1    0.89    0.31
   4  17   1    1.76    0.37
   4 -17  -3   10.67    0.76
   4  17   3   10.41    0.80
   4  17   3   10.84    0.77
  -4  17  -3    9.65    0.77
  17   4   3   11.07    0.82
  17  -4  -3   10.77    0.78
   4  17   5    3.51    0.51
   4 -17  -5    3.92    0.48
  -4  17  -5    2.95    0.45
   4  17   5    3.58    0.46
  17   4   5    3.75    0.47
  17   4   5    3.30    0.48
  17  -4  -5    3.55    0.47
  -4  17  -5    3.48    0.44
  -4  17  -7    3.31    0.44
   4 -17  -7    3.24    0.47
   4  17   7    4.24    0.56
   4  17   7    3.34    0.46
  17   4   7    3.67    0.48
  17   4   7    3.41    0.50
  17  -4  -7    3.24    0.47
  -4  17  -9    0.48    0.22
   4 -17  -9    0.90    0.32
   4  17   9    0.75    0.31
  17   4   9    0.56    0.26
  -4  17  -9    0.91    0.25
 -17  -4   9    0.96    0.31
  17  -4  -9    0.41    0.26
   4 -17 -11    2.30    0.43
  -4  17 -11    2.06    0.39
  17   4  11    2.30    0.38
   4  17  11    1.99    0.42
  -4  17 -11    2.49    0.40
  17   4  11    2.26    0.42
 -17  -4  11    1.03    0.31
  17  -4 -11    2.02    0.42
   4 -17 -13    1.63    0.42
  17   4  13    1.52    0.34
  -4  17 -13    1.33    0.31
  -4  17 -13    1.30    0.33
   4  17  13    1.33    0.39
  17   4  13    1.51    0.37
 -17  -4  13    2.11    0.43
  17  -4 -13    1.11    0.36
   4 -17 -15    0.56    0.30
  17   4  15    0.08    0.19
  -4  17 -15   -0.06    0.27
  -4  17 -15    0.24    0.22
  17   4  15    0.17    0.25
 -17  -4  15    0.55    0.30
  17  -4 -15    0.15    0.25
   5 -17  14    0.53    0.28
  -5 -17 -14    0.99    0.34
   5  17 -14    1.50    0.41
  17  -5  14    1.08    0.33
   5  17 -14    1.69    0.37
  17   5 -14    1.04    0.38
  -5  17  12    4.29    0.56
  -5 -17 -12    3.86    0.53
   5 -17  12    3.95    0.55
   5  17 -12    4.57    0.61
  17  -5  12    4.17    0.56
   5  17 -12    3.43    0.47
  17   5 -12    4.24    0.56
   5  17 -10    1.71    0.39
  -5 -17 -10    1.16    0.33
   5 -17  10    1.09    0.32
  17  -5  10    1.72    0.38
   5  17 -10    1.64    0.34
  -5  17  10    1.46    0.39
  17   5 -10    1.67    0.40
   5  17  -8    5.05    0.60
  -5  17   8    5.06    0.59
  -5 -17  -8    5.35    0.60
   5 -17   8    4.84    0.54
  17  -5   8    5.28    0.61
  17  -5   8    5.16    0.54
  17   5  -8    5.42    0.60
   5  17  -8    4.56    0.52
  17   5  -8    5.49    0.53
   5  17  -6    1.36    0.30
  -5 -17  -6    1.18    0.31
   5 -17   6    1.46    0.31
  17   5  -6    1.60    0.32
  17  -5   6    0.57    0.27
  -5  17   6    1.86    0.39
  17  -5   6    1.33    0.32
  17   5  -6    1.34    0.34
   5  17  -6    1.46    0.35
  -5 -17  -4    2.58    0.41
   5 -17   4    2.45    0.36
  -5  17   4    2.53    0.44
  17   5  -4    2.98    0.36
   5  17  -4    2.72    0.41
  17  -5   4    2.92    0.45
  17  -5   4    2.97    0.42
  17   5  -4    3.01    0.45
   5 -17   2    7.46    0.55
  17  -5   2    6.07    0.58
  17   5  -2    7.95    0.70
  17   5  -2    7.09    0.52
  -5  17   2    8.37    0.71
   5  17  -2    6.77    0.62
  17   5   0    0.17    0.17
   5 -17   0    0.16    0.14
   5  17   0   -0.10    0.23
  17   5   0   -0.07    0.19
  17  -5   0   -0.29    0.22
  -5  17   0    0.25    0.28
   5  17   0    0.26    0.23
   5 -17  -2    6.51    0.59
   5  17   2    8.02    0.70
   5  17   2    8.09    0.65
  -5  17  -2    8.59    0.73
  17   5   2    6.91    0.65
  17   5   2    7.38    0.51
  17  -5  -2    6.52    0.61
   5  17   4    3.12    0.48
   5 -17  -4    2.58    0.40
  -5  17  -4    2.49    0.41
   5  17   4    2.94    0.44
  17   5   4    3.23    0.49
  17  -5  -4    2.93    0.42
  -5  17  -4    2.25    0.35
  -5  17  -6    1.80    0.33
   5 -17  -6    1.69    0.36
   5  17   6    1.00    0.34
   5  17   6    1.17    0.34
  17   5   6    1.29    0.34
  17   5   6    1.54    0.38
 -17  -5   6    1.24    0.37
  17  -5  -6    1.26    0.33
  -5  17  -8    4.75    0.51
   5 -17  -8    4.90    0.57
   5  17   8    5.09    0.60
  17   5   8    5.03    0.58
  17   5   8    5.63    0.62
 -17  -5   8    5.82    0.64
  17  -5  -8    4.85    0.55
   5 -17 -10    1.50    0.35
  -5  17 -10    0.99    0.29
  17   5  10    1.17    0.28
   5  17  10    1.49    0.39
  17   5  10    0.82    0.32
  -5  17 -10    0.96    0.27
 -17  -5  10    1.28    0.37
  17  -5 -10    1.48    0.36
   5 -17 -12    3.73    0.54
  17   5  12    4.43    0.52
  -5  17 -12    4.29    0.52
   5  17  12    4.77    0.63
  17   5  12    4.97    0.60
  -5  17 -12    3.93    0.49
 -17  -5  12    3.82    0.56
  17  -5 -12    3.45    0.53
   5 -17 -14    0.60    0.29
  17   5  14    1.36    0.31
  -5  17 -14    0.88    0.33
   5  17  14    0.99    0.36
  -5  17 -14    1.02    0.32
  17   5  14    1.00    0.38
 -17  -5  14    1.27    0.37
  17  -5 -14    0.99    0.31
  -6 -17 -13    4.89    0.58
   6 -17  13    4.39    0.60
   6  17 -13    4.24    0.62
  17  -6  13    4.23    0.57
  -6  17  13    4.55    0.59
   6  17 -13    3.52    0.47
  17   6 -13    4.43    0.60
  -6  17  11    1.40    0.38
  -6 -17 -11    2.08    0.39
   6  17 -11    1.57    0.42
   6 -17  11    1.76    0.39
  17  -6  11    1.39    0.34
   6  17 -11    0.94    0.27
  17   6 -11    2.29    0.45
   6  17  -9    2.13    0.46
  -6 -17  -9    0.75    0.27
   6 -17   9    1.02    0.27
  -6  17   9    1.23    0.35
  17  -6   9    0.85    0.29
  17  -6   9    1.14    0.30
  17   6  -9    1.31    0.31
  17   6  -9    0.98    0.32
   6  17  -9    1.16    0.30
  -6  17   7   14.06    0.94
  -6 -17  -7   11.09    0.83
   6 -17   7   12.51    0.85
  17  -6   7   12.63    0.92
  17  -6   7   11.55    0.82
  17  -6   7   11.74    0.84
   6  17  -7   11.07    0.88
  17   6  -7   11.72    0.88
   6  17  -7   12.19    0.83
  17   6  -7   12.68    0.81
  -6 -17  -5    3.21    0.45
   6 -17   5    3.59    0.43
  17   6  -5    3.91    0.44
   6  17  -5    3.34    0.45
  -6  17   5    3.86    0.51
  17  -6   5    3.27    0.47
  17  -6   5    3.61    0.46
  17   6  -5    3.35    0.50
   6  17  -5    3.40    0.49
  -6  17   3    0.06    0.26
  17   6  -3    0.03    0.18
   6 -17   3    0.03    0.15
  17  -6   3    0.42    0.25
   6  17  -3    0.21    0.20
  17  -6   3    0.52    0.25
  17   6  -3    0.18    0.24
   6  17  -1    6.75    0.63
   6 -17   1    5.85    0.50
  17  -6   1    5.98    0.65
  17   6  -1    6.07    0.61
  17   6  -1    6.49    0.52
  -6  17   1    6.89    0.65
  17  -6   1    5.64    0.55
   6  17   1    6.62    0.63
   6 -17  -1    6.96    0.50
   6  17   1    6.51    0.61
  -6  17  -1    6.13    0.61
  17   6   1    6.96    0.65
  17   6   1    6.78    0.52
  17  -6  -1    5.49    0.55
   6 -17  -3    0.01    0.19
   6  17   3    0.06    0.22
  -6  17  -3    0.40    0.27
   6  17   3    0.01    0.22
  17   6   3    0.76    0.31
  17  -6  -3    0.02    0.19
  -6  17  -3   -0.08    0.19
  -6  17  -5    4.01    0.44
   6 -17  -5    3.68    0.47
   6  17   5    3.37    0.51
   6  17   5    4.23    0.53
  17   6   5    3.15    0.46
  17   6   5    3.95    0.52
 -17  -6   5    2.96    0.49
  17  -6  -5    3.74    0.47
   6 -17  -7   11.22    0.82
 -17  -6   7   12.54    0.95
   6  17   7   12.91    0.92
  17   6   7   13.02    0.92
  17   6   7   12.52    0.92
  -6  17  -7   11.18    0.75
  17  -6  -7   11.60    0.85
   6 -17  -9    0.89    0.29
  -6  17  -9    0.99    0.27
   6  17   9    1.18    0.33
  17   6   9    1.10    0.35
 -17  -6   9    1.40    0.36
  17  -6  -9    1.10    0.32
   6 -17 -11    1.98    0.41
  -6  17 -11    1.76    0.36
  17   6  11    1.41    0.31
   6  17  11    1.60    0.42
  17   6  11    2.29    0.43
 -17  -6  11    2.15    0.43
  17  -6 -11    1.58    0.37
   6 -17 -13    4.39    0.60
  17   6  13    4.90    0.53
  -6  17 -13    4.75    0.57
   6  17  13    4.34    0.61
  17   6  13    4.16    0.60
  -6  17 -13    4.82    0.56
 -17  -6  13    3.44    0.53
  17  -6 -13    3.81    0.56
  -7 -17 -12    4.43    0.58
   7  17 -12    3.83    0.60
   7 -17  12    4.53    0.58
  17  -7  12    4.36    0.60
  -7  17  12    4.65    0.60
  17   7 -12    5.29    0.64
   7  17 -10    1.50    0.31
   7  17 -10    2.17    0.45
  -7 -17 -10    1.20    0.33
   7 -17  10    1.83    0.39
  17  -7  10    1.22    0.34
  17   7 -10    1.25    0.34
  -7  17  10    2.04    0.44
  17   7 -10    1.35    0.35
   7  17  -8    1.93    0.44
  -7 -17  -8    2.67    0.44
   7  17  -8    3.41    0.44
   7 -17   8    2.30    0.41
  17  -7   8    3.24    0.49
  17   7  -8    3.26    0.44
  17  -7   8    3.11    0.44
  17   7  -8    3.12    0.48
  -7  17   8    2.96    0.47
  -7 -17  -6    1.88    0.37
   7 -17   6    1.74    0.33
  17   7  -6    2.34    0.38
  17  -7   6    2.14    0.42
  17  -7   6    2.82    0.46
   7  17  -6    2.02    0.35
  -7  17   6    2.26    0.40
  17  -7   6    1.40    0.34
  17   7  -6    1.87    0.37
   7  17  -6    1.87    0.38
   7  17  -4    5.40    0.56
   7 -17   4    5.46    0.53
  17  -7   4    4.71    0.56
  17  -7   4    5.60    0.57
  17   7  -4    5.76    0.53
  17   7  -4    5.36    0.59
  -7  17   4    6.65    0.65
   7  17  -4    5.54    0.65
  17   7  -2    4.44    0.45
   7 -17   2    4.17    0.44
  17  -7   2    2.98    0.46
  17  -7   2    3.62    0.45
  17   7  -2    4.18    0.52
  -7  17   2    4.65    0.56
   7  17  -2    3.12    0.44
  17   7   0    0.88    0.24
   7 -17   0    0.51    0.18
  17  -7   0    0.43    0.29
   7  17   0    0.37    0.22
  -7  17   0    0.94    0.32
  17   7   0    0.27    0.24
  17  -7   0    0.67    0.23
   7 -17  -2    3.95    0.46
   7 -17  -2    4.57    0.41
   7  17   2    4.15    0.53
  17  -7  -2    4.92    0.63
  -7  17  -2    4.39    0.53
   7  17   2    3.98    0.52
 -17  -7   2    3.96    0.58
  17   7   2    3.94    0.50
  17  -7  -2    4.35    0.52
  17   7   2    4.47    0.45
   7 -17  -4    6.00    0.57
   7  17   4    6.10    0.64
  17  -7  -4    5.73    0.69
   7  17   4    5.55    0.61
  17   7   4    5.83    0.63
  17   7   4    5.57    0.60
 -17  -7   4    5.56    0.66
  -7  17  -4    5.33    0.49
  17  -7  -4    6.82    0.61
  -7  17  -6    1.89    0.32
   7 -17  -6    2.57    0.41
  17  -7  -6    1.34    0.40
   7  17   6    2.80    0.46
  17   7   6    2.62    0.45
 -17  -7   6    2.26    0.45
  17   7   6    2.45    0.41
  17  -7  -6    2.27    0.39
   7 -17  -8    2.43    0.41
  -7  17  -8    2.15    0.35
  17  -7  -8    3.41    0.55
   7  17   8    3.52    0.51
  17   7   8    2.81    0.48
 -17  -7   8    2.37    0.47
  17  -7  -8    2.62    0.43
   7 -17 -10    1.23    0.32
  17   7  10    1.11    0.27
  17  -7 -10    1.11    0.38
   7  17  10    1.30    0.39
  17   7  10    1.43    0.38
 -17  -7  10    1.37    0.37
  17  -7 -10    1.47    0.34
   7 -17 -12    5.08    0.60
  17  -7 -12    3.86    0.61
   7  17  12    4.69    0.65
  17   7  12    5.31    0.68
 -17  -7  12    4.01    0.58
  17  -7 -12    4.34    0.58
  -8 -17 -11    0.05    0.23
   8  17 -11   -0.23    0.37
   8 -17  11    0.37    0.25
  17  -8  11    0.05    0.22
  17   8 -11    0.13    0.27
  17   8 -11    0.05    0.23
  -8  17  11    0.81    0.33
   8  17  -9    0.34    0.34
  -8 -17  -9    0.21    0.21
  -8  17   9   -0.25    0.26
   8 -17   9   -0.17    0.23
   8  17  -9    0.11    0.19
  17  -8   9   -0.05    0.24
  17   8  -9   -0.30    0.27
  17  -8   9    0.10    0.20
  17   8  -9   -0.03    0.25
   8  17  -7    4.83    0.62
  -8 -17  -7    4.12    0.53
   8 -17   7    3.86    0.49
  17   8  -7    3.86    0.51
  17  -8   7    3.77    0.54
  17  -8   7    4.07    0.51
   8  17  -7    3.69    0.47
  -8  17   7    3.86    0.51
  17   8  -7    3.65    0.51
  17   8  -5    4.05    0.49
   8 -17   5    3.78    0.48
  -8  17   5    4.32    0.54
  17  -8   5    3.82    0.52
  17  -8   5    3.83    0.52
  17  -8   5    3.75    0.48
   8  17  -5    4.17    0.50
  17   8  -5    3.29    0.47
   8  17  -5    4.19    0.58
  17   8  -3    4.31    0.48
   8  17  -3    4.04    0.50
   8 -17   3    3.93    0.45
  17  -8   3    2.98    0.48
  17  -8   3    3.50    0.46
  17   8  -3    4.18    0.54
  -8  17   3    3.64    0.50
  17   8  -1    4.13    0.47
   8 -17   1    4.74    0.48
  17  -8   1    4.69    0.59
   8  17  -1    4.79    0.54
  17  -8   1    5.53    0.55
 -17  -8  -1    4.16    0.59
  17   8  -1    4.61    0.55
  -8  17   1    4.62    0.54
   8 -17  -1    4.24    0.43
   8  17   1    5.16    0.57
  17  -8  -1    5.37    0.65
   8  17   1    4.81    0.56
  -8  17  -1    5.30    0.59
  17   8   1    5.15    0.51
 -17  -8   1    4.61    0.61
  17   8   1    3.74    0.51
  17  -8  -1    4.45    0.51
   8 -17  -3    3.22    0.43
   8  17   3    3.54    0.49
  17  -8  -3    2.47    0.49
  -8  17  -3    4.19    0.53
   8  17   3    3.04    0.45
 -17  -8   3    3.38    0.56
  17   8   3    3.04    0.46
  17  -8  -3    2.60    0.40
   8 -17  -5    4.19    0.48
  17  -8  -5    3.59    0.55
   8  17   5    4.77    0.61
  17   8   5    3.08    0.51
 -17  -8   5    3.70    0.55
  17   8   5    4.06    0.53
  17  -8  -5    4.39    0.51
   8 -17  -7    3.79    0.48
  17  -8  -7    2.86    0.52
   8  17   7    4.01    0.55
  17   8   7    3.97    0.54
 -17  -8   7    3.86    0.58
  17   8   7    5.19    0.60
  17  -8  -7    3.23    0.46
   8 -17  -9   -0.08    0.19
  17  -8  -9    0.56    0.34
   8  17   9   -0.18    0.29
  17   8   9   -0.31    0.29
 -17  -8   9    0.03    0.27
  17  -8  -9   -0.15    0.21
   8 -17 -11   -0.06    0.26
  17  -8 -11    0.24    0.32
   8  17  11    0.69    0.34
  17   8  11    0.04    0.33
 -17  -8  11    0.21    0.25
  17  -8 -11    0.40    0.28
  -9 -17 -10    2.05    0.41
   9  17 -10    1.95    0.45
   9 -17  10    1.75    0.40
  17  -9  10    1.69    0.38
  17   9 -10    1.86    0.42
  -9  17  10    1.54    0.38
  17   9 -10    0.96    0.28
   9  17  -8    4.26    0.59
  -9 -17  -8    3.37    0.49
   9 -17   8    4.60    0.53
  17   9  -8    3.10    0.45
  17  -9   8    3.65    0.52
  17  -9   8    4.46    0.54
  -9  17   8    3.86    0.52
  17   9  -8    4.00    0.53
   9  17  -6    2.56    0.49
  17   9  -6    2.52    0.40
   9 -17   6    2.06    0.37
  17  -9   6    1.49    0.35
  17  -9   6    2.83    0.44
  -9  17   6    2.18    0.42
  -9 -17  -6    1.60    0.36
  17  -9   6    2.74    0.42
 -17  -9  -6    1.78    0.44
  17   9  -6    2.15    0.43
   9  17  -6    1.72    0.35
   9  17  -4    6.59    0.62
   9 -17   4    5.45    0.56
  17  -9   4    7.57    0.73
  17  -9   4    6.24    0.68
  -9 -17  -4    6.10    0.65
  17  -9   4    6.06    0.59
   9  17  -4    7.61    0.74
 -17  -9  -4    5.60    0.68
  17   9  -4    6.84    0.65
  17   9  -4    6.97    0.63
  -9  17   4    7.51    0.69
   9 -17   2    8.62    0.67
   9  17  -2    8.40    0.69
  17  -9   2    6.59    0.72
  -9 -17  -2    7.63    0.75
 -17  -9  -2    8.44    0.82
  17  -9   2    7.07    0.62
  17   9  -2    8.24    0.72
  17   9  -2    8.70    0.70
  -9  17   2    8.63    0.74
   9 -17   0    5.02    0.49
  17  -9   0    5.11    0.63
  17   9   0    5.64    0.56
  17  -9   0    5.15    0.54
 -17  -9   0    5.60    0.67
  -9  17   0    5.11    0.60
  17   9   0    5.59    0.60
   9  17   0    5.15    0.57
   9 -17  -2    8.88    0.67
   9 -17  -2    7.37    0.57
  17  -9  -2    7.77    0.77
   9  17   2    8.88    0.75
 -17  -9   2    7.22    0.76
   9  17   2    8.02    0.73
  -9  17  -2    8.38    0.75
  17   9   2    8.95    0.75
  17  -9  -2    8.77    0.68
   9 -17  -4    6.73    0.60
  17  -9  -4    5.87    0.72
 -17  -9   4    7.84    0.79
   9  17   4    7.11    0.70
  17   9   4    6.47    0.68
  17   9   4    6.68    0.66
  17  -9  -4    6.05    0.59
   9 -17  -6    2.01    0.37
  17  -9  -6    1.95    0.46
   9  17   6    2.38    0.46
  17   9   6    3.02    0.49
 -17  -9   6    2.03    0.45
  17   9   6    2.32    0.43
  17  -9  -6    2.28    0.36
   9 -17  -8    2.99    0.44
  17  -9  -8    4.42    0.64
   9  17   8    3.92    0.56
  17   9   8    4.04    0.58
 -17  -9   8    3.80    0.58
  17  -9  -8    2.97    0.45
   9 -17 -10    1.47    0.35
  17  -9 -10    1.25    0.42
   9  17  10    1.35    0.41
  17   9  10    1.59    0.41
 -17  -9  10    1.02    0.38
  17  -9 -10    1.54    0.35
 -10  17   9    0.73    0.32
 -10 -17  -9    0.42    0.25
  10  17  -9    0.84    0.40
  10 -17   9    0.94    0.30
  17  10  -9    0.38    0.28
  17 -10   9    0.44    0.28
 -10 -17  -9    0.59    0.29
 -17 -10  -9    0.69    0.35
  17  10  -9    0.84    0.31
  10  17  -7    1.58    0.42
  17  10  -7    2.21    0.42
  10 -17   7    1.49    0.34
  17 -10   7    1.26    0.36
  17 -10   7    1.31    0.33
 -10 -17  -7    0.98    0.31
 -10  17   7    1.38    0.35
 -17 -10  -7    1.21    0.38
  17  10  -7    0.98    0.33
  17  10  -5    4.66    0.55
 -10  17   5    4.99    0.59
  10 -17   5    4.19    0.50
  17 -10   5    4.00    0.56
  17 -10   5    3.76    0.53
 -10 -17  -5    3.59    0.52
  10  17  -5    3.19    0.44
  17 -10   5    3.53    0.46
 -17 -10  -5    4.29    0.62
  17  10  -5    4.47    0.54
  10  17  -5    4.44    0.61
  17  10  -3    5.55    0.59
  10  17  -3    5.67    0.58
  10 -17   3    5.06    0.53
  17 -10   3    5.02    0.60
  17 -10   3    5.25    0.64
 -10 -17  -3    5.50    0.65
 -17 -10  -3    5.08    0.66
  17 -10   3    4.60    0.51
  17  10  -3    4.74    0.56
 -10  17   3    5.31    0.59
  17  10  -1    2.83    0.43
  10  17  -1    2.99    0.44
  10 -17   1    3.03    0.40
  17 -10   1    3.53    0.54
 -10 -17  -1    3.35    0.52
 -17 -10  -1    2.66    0.49
  17 -10   1    3.51    0.45
  17  10  -1    3.53    0.49
 -10  17   1    3.08    0.48
  10 -17  -1    2.54    0.36
  17 -10  -1    3.71    0.56
 -10 -17   1    3.25    0.55
 -10  17  -1    4.05    0.52
  10  17   1    2.97    0.49
 -17 -10   1    2.65    0.49
  17  10   1    2.67    0.44
  17 -10  -1    2.46    0.39
  17  10   1    3.37    0.47
  10 -17  -3    5.61    0.53
  17 -10  -3    5.62    0.69
 -10  17  -3    5.37    0.61
  10  17   3    5.57    0.66
 -17 -10   3    4.96    0.65
  17  10   3    4.80    0.57
  17 -10  -3    4.89    0.52
  10 -17  -5    4.77    0.51
  17 -10  -5    3.51    0.56
  10  17   5    4.55    0.59
  17  10   5    4.28    0.58
 -17 -10   5    4.91    0.64
  17  10   5    4.98    0.58
  17 -10  -5    3.13    0.43
  10 -17  -7    1.36    0.34
  17 -10  -7    0.75    0.31
  10  17   7    1.31    0.40
  17  10   7    1.13    0.37
 -17 -10   7    1.30    0.37
  17 -10  -7    1.83    0.35
  10 -17  -9    0.56    0.25
  17 -10  -9    0.65    0.38
  10  17   9    0.86    0.32
  17  10   9    0.23    0.28
 -17 -10   9    0.83    0.34
  17 -10  -9    0.25    0.23
  11  17  -8    2.85    0.54
  17  11  -8    2.85    0.50
  11 -17   8    3.39    0.50
  17 -11   8    2.70    0.48
 -11 -17  -8    2.06    0.40
 -17 -11  -8    3.25    0.55
 -11  17   8    2.09    0.41
  17  11  -8    2.18    0.41
  11  17  -6    1.20    0.41
  17  11  -6    1.01    0.35
  11 -17   6    0.11    0.19
  17 -11   6   -0.35    0.30
 -11  17   6    0.74    0.30
  17 -11   6    0.23    0.26
 -11 -17  -6    0.10    0.22
 -17 -11  -6    0.12    0.23
  17  11  -6    0.50    0.29
 -11  17   4    0.95    0.32
  17  11  -4    0.87    0.34
  11 -17   4    0.40    0.19
  17 -11   4    0.17    0.25
  17 -11   4    1.11    0.36
 -11 -17  -4    0.68    0.31
 -17 -11  -4    0.96    0.37
  17 -11   4    0.53    0.24
  17  11  -4    0.74    0.29
  11  17  -4    0.64    0.33
  17  11  -2    4.40    0.54
  11 -17   2    3.84    0.49
  17 -11   2    4.28    0.57
  17 -11   2    3.70    0.56
 -11 -17  -2    4.78    0.63
 -17 -11  -2    2.99    0.52
  17 -11   2    4.18    0.48
  17  11  -2    3.58    0.49
 -11  17   2    3.64    0.51
  11  17  -2    2.91    0.43
  11 -17   0    1.42    0.32
  17 -11   0    1.57    0.41
 -11 -17   0    1.65    0.43
 -17 -11   0    2.14    0.46
 -11  17   0    1.74    0.39
  17  11   0    1.64    0.37
  17 -11   0    1.30    0.28
  17  11   0    1.17    0.29
  11 -17  -2    3.42    0.44
  17 -11  -2    3.47    0.58
 -11  17  -2    4.22    0.55
 -11 -17   2    3.63    0.55
  11  17   2    2.76    0.47
 -17 -11   2    3.90    0.58
  17  11   2    3.87    0.51
  17 -11  -2    3.48    0.44
  11 -17  -4    0.33    0.19
  17 -11  -4    0.56    0.30
 -11 -17   4    0.49    0.31
  11  17   4    0.86    0.33
  17  11   4    0.53    0.32
 -17 -11   4    0.85    0.36
  17  11   4    0.69    0.30
  17 -11  -4    0.71    0.26
  11 -17  -6    0.02    0.18
  17 -11  -6    0.72    0.32
  11  17   6    0.45    0.25
  17  11   6    0.15    0.25
 -17 -11   6    0.65    0.37
  17 -11  -6   -0.07    0.21
  11 -17  -8    2.98    0.43
  17 -11  -8    1.92    0.49
  11  17   8    2.44    0.50
  17  11   8    3.43    0.57
 -17 -11   8    2.56    0.50
  17 -11  -8    2.44    0.39
  12  17  -5    1.32    0.40
  17  12  -5    1.01    0.34
 -12  17   5    1.19    0.35
  12 -17   5    1.62    0.38
  17 -12   5    1.78    0.41
 -12 -17  -5    1.11    0.36
 -17 -12  -5    1.67    0.43
  17  12  -5    1.06    0.34
  17  12  -3    0.69    0.31
  12 -17   3    0.75    0.27
  17 -12   3    0.75    0.33
  17 -12   3    0.39    0.26
 -12 -17  -3    0.31    0.28
 -17 -12  -3    0.42    0.32
  17  12  -3    0.59    0.25
 -12  17   3   -0.06    0.25
  12  17  -3    1.26    0.35
  12 -17   1    0.40    0.20
  17 -12   1    0.30    0.23
  17 -12   1    0.22    0.28
 -17  12   1    0.69    0.27
 -12 -17  -1    0.77    0.30
 -17 -12  -1    0.10    0.31
  17  12  -1    0.75    0.30
 -12  17   1    0.87    0.30
  17  12  -1    0.43    0.27
  12 -17  -1    0.11    0.18
  17 -12  -1    0.62    0.35
 -12 -17   1    0.70    0.33
 -12  17  -1    0.79    0.31
 -17 -12   1    0.89    0.37
  17  12   1    0.47    0.26
  17 -12  -1    0.40    0.24
  17 -12  -3    0.60    0.33
 -12 -17   3    0.64    0.33
  12  17   3    0.53    0.32
 -17 -12   3    0.58    0.31
  17  12   3    1.30    0.41
  17  12   3    0.63    0.26
  17 -12  -3    0.00    0.19
  17 -12  -5    0.59    0.34
 -12 -17   5    1.33    0.39
  12  17   5    1.82    0.47
 -17 -12   5    1.12    0.42
  17  12   5    1.55    0.44
  17  12   5    1.43    0.36
  17 -12  -5    0.77    0.28
  17  13  -2    1.60    0.39
  13 -17   2    1.27    0.34
  17 -13   2    1.18    0.32
  17 -13   2    1.34    0.40
 -13 -17  -2    1.67    0.46
 -17 -13  -2    1.00    0.36
  17  13  -2    1.13    0.33
 -13  17   2    1.25    0.34
  13  17  -2    1.15    0.39
  13 -17   0    0.18    0.21
  17 -13   0    0.60    0.31
  17 -13   0    0.33    0.29
 -17  13   0    0.11    0.20
 -13 -17   0    0.34    0.27
 -17 -13   0    0.39    0.27
 -13  17   0   -0.06    0.24
  17  13   0    0.59    0.29
  17  13   0   -0.05    0.26
  13 -17  -2    0.94    0.26
  17 -13  -2    0.66    0.30
 -13  17  -2    1.10    0.34
 -13 -17   2    1.06    0.39
 -17 -13   2    1.04    0.31
  13  17   2    0.98    0.36
  17  13   2    1.25    0.34
   0  18   0    4.38    0.55
   0  18   0    3.86    0.40
  18   0   0    3.14    0.47
   0  18   2    1.70    0.36
   0  18   2    1.63    0.29
   0  18  -2    1.68    0.27
  18   0   2    1.16    0.34
  18   0  -2    1.82    0.38
   0  18  -2    1.22    0.33
   0 -18  -4    0.20    0.22
   0  18   4    0.10    0.20
  18   0   4   -0.08    0.19
  18   0   4   -0.33    0.28
   0  18  -4    0.57    0.28
  18   0  -4   -0.38    0.26
   0  18   4   -0.12    0.27
   0 -18  -6    0.14    0.23
   0  18   6   -0.01    0.26
   0  18   6    0.01    0.20
  18   0   6   -0.06    0.19
   0  18  -6   -0.01    0.20
  18   0   6   -0.04    0.26
  18   0  -6   -0.01    0.25
   0  18  -6   -0.04    0.26
   0  18   8    1.99    0.43
   0  18  -8    1.23    0.33
   0 -18  -8    1.68    0.38
   0  18   8    1.39    0.31
   0  18  -8    1.95    0.39
  18   0   8    1.10    0.28
  18   0   8    1.29    0.33
  18   0  -8    2.39    0.42
   0  18 -10    1.02    0.32
   0 -18 -10    0.59    0.26
   0  18  10    0.72    0.35
  18   0  10    1.09    0.31
   0  18 -10    0.96    0.31
  18   0  10    0.86    0.29
  18   0 -10    1.15    0.37
   0 -18 -12    0.69    0.33
   0  18 -12    0.78    0.27
  18   0  12    0.23    0.23
  18   0  12    0.62    0.30
 -18   0  12    0.69    0.31
  18   0 -12    0.44    0.36
   0 -18 -14    0.34    0.24
   0  18 -14    0.78    0.36
  18   0  14    0.45    0.25
  18   0  14    0.42    0.27
 -18   0  14    1.02    0.34
  18   0 -14   -0.02    0.25
  -1 -18 -13    0.13    0.26
   1  18 -13    0.00    0.25
  18  -1  13    0.06    0.22
 -18   1  13    0.35    0.25
  18   1 -13    0.33    0.30
  -1  18  11    0.22    0.33
  -1 -18 -11    0.54    0.29
   1  18 -11    0.60    0.31
  18  -1  11    0.44    0.23
   1  18 -11    0.40    0.22
  18  -1  11    0.49    0.27
  18   1 -11    0.46    0.28
   1  18  -9   -0.23    0.29
  -1 -18  -9   -0.33    0.27
  -1  18   9   -0.24    0.32
  18  -1   9    0.09    0.17
   1  18  -9    0.38    0.24
  18  -1   9    0.11    0.22
  18   1  -9    0.12    0.25
   1  18  -7    1.15    0.32
  -1 -18  -7    1.53    0.34
  -1  18   7    1.87    0.41
  -1  18   7    1.21    0.29
  18  -1   7    1.85    0.33
   1  18  -7    0.92    0.28
  18  -1   7    1.10    0.32
  18   1  -7    1.29    0.33
  -1 -18  -5    2.59    0.43
  -1  18   5    2.20    0.35
  18  -1   5    2.79    0.39
  18  -1   5    2.50    0.41
   1  18  -5    2.57    0.43
  18   1  -5    2.92    0.47
  -1  18   5    2.36    0.44
   1  18  -5    2.63    0.43
  -1 -18  -3    4.03    0.50
  -1  18   3    4.34    0.44
  -1  18   3    5.08    0.59
   1  18  -3    3.82    0.40
  18  -1   3    3.88    0.42
  18  -1   3    3.69    0.50
  18   1  -3    3.94    0.52
   1  18  -3    4.09    0.52
   1  18  -1    0.66    0.25
  -1  18   1    0.91    0.30
   1  18  -1    1.13    0.24
  18  -1   1    0.50    0.25
  18   1  -1    0.94    0.33
   1  18   1    0.57    0.29
   1  18   1    0.95    0.25
  18   1   1    0.72    0.30
  18  -1  -1    1.15    0.33
  -1  18  -1    0.45    0.26
   1 -18  -3    4.70    0.54
   1  18   3    4.17    0.44
  18   1   3    4.02    0.51
   1  18   3    4.28    0.53
  18  -1  -3    4.67    0.53
  -1  18  -3    4.34    0.55
   1 -18  -5    2.05    0.39
   1  18   5    1.64    0.38
   1  18   5    2.25    0.37
  18   1   5    2.72    0.42
  -1  18  -5    1.47    0.34
  18   1   5    1.94    0.38
  18  -1  -5    2.20    0.41
  -1  18  -5    2.40    0.41
  -1  18  -7    1.28    0.33
   1 -18  -7    1.07    0.31
  -1  18  -7    0.69    0.28
   1  18   7    1.44    0.32
  18   1   7    0.97    0.26
  18   1   7    1.75    0.37
  18  -1  -7    1.56    0.39
   1  18   7    0.81    0.32
   1  18   9   -0.09    0.27
  -1  18  -9    0.35    0.28
   1 -18  -9    0.57    0.30
  18   1   9    0.12    0.18
  -1  18  -9    0.33    0.22
   1  18   9    0.14    0.22
  18   1   9    0.18    0.22
  18  -1  -9    0.04    0.25
   1 -18 -11    0.30    0.28
  -1  18 -11    0.31    0.26
  18   1  11    0.57    0.27
  18   1  11    0.41    0.28
 -18  -1  11    0.48    0.31
  18  -1 -11    0.87    0.35
   1 -18 -13   -0.10    0.25
  -1  18 -13   -0.20    0.28
  18   1  13    0.32    0.22
  18   1  13    0.02    0.23
 -18  -1  13   -0.05    0.27
  18  -1 -13    0.68    0.34
  -2 -18 -12   -0.08    0.29
   2  18 -12   -0.21    0.33
  18  -2  12    0.04    0.18
   2  18 -12    0.06    0.19
  18   2 -12    0.31    0.31
  -2  18  12    0.14    0.33
   2  18 -10    0.61    0.28
  -2 -18 -10    0.79    0.30
  18  -2  10    0.62    0.27
  -2  18  10    0.90    0.33
   2  18 -10    1.19    0.34
  18   2 -10    0.62    0.33
   2  18  -8    4.41    0.57
  -2 -18  -8    4.62    0.56
  18  -2   8    3.79    0.50
  -2  18   8    3.89    0.55
  18  -2   8    4.18    0.46
  18  -2   8    4.91    0.59
   2  18  -8    4.13    0.53
  18   2  -8    3.71    0.52
  -2 -18  -6    3.39    0.48
  18  -2   6    4.49    0.46
  18  -2   6    5.31    0.59
   2  18  -6    4.25    0.52
  18   2  -6    4.85    0.57
  -2  18   6    5.36    0.60
   2  18  -6    4.96    0.58
  -2 -18  -4    1.80    0.36
  -2  18   4    1.81    0.39
  18  -2   4    1.50    0.27
  18  -2   4    1.65    0.38
  18   2  -4    1.20    0.34
   2  18  -4    1.53    0.36
   2  18  -2    8.51    0.62
  18  -2   2    7.53    0.68
  18   2  -2    8.35    0.72
   2  18  -2    7.31    0.69
  -2  18   2    9.22    0.77
   2  18   0   15.66    0.88
  18   2   0   16.97    1.04
  18  -2   0   15.79    0.98
  -2  18   0   16.72    1.03
   2  18   0   15.51    1.00
   2  18   2    8.89    0.76
   2 -18  -2    7.79    0.67
   2  18   2    7.96    0.63
  18   2   2    8.38    0.72
  18  -2  -2    7.11    0.67
  -2  18  -2    7.39    0.70
   2 -18  -4    1.53    0.34
   2  18   4    2.13    0.43
   2  18   4    1.95    0.35
  18   2   4    1.90    0.35
  -2  18  -4    1.56    0.35
  18   2   4    1.16    0.33
  18  -2  -4    1.95    0.38
  -2  18  -4    1.57    0.33
  -2  18  -6    4.33    0.51
   2 -18  -6    5.55    0.59
  -2  18  -6    5.21    0.59
   2  18   6    5.49    0.56
  18   2   6    4.48    0.52
  18   2   6    4.87    0.60
   2  18   6    4.67    0.57
  18  -2  -6    4.16    0.53
  -2  18  -8    4.73    0.55
   2 -18  -8    4.84    0.58
  -2  18  -8    4.71    0.57
   2  18   8    4.41    0.53
  18   2   8    4.43    0.52
  18   2   8    4.51    0.59
  18  -2  -8    3.19    0.47
   2  18   8    5.38    0.65
   2 -18 -10    0.97    0.35
  -2  18 -10    0.10    0.20
  18   2  10    0.84    0.27
   2  18  10    1.00    0.33
  18   2  10    0.92    0.31
 -18  -2  10    0.89    0.31
  18  -2 -10    0.37    0.26
   2 -18 -12    0.28    0.27
  -2  18 -12    0.29    0.27
  18   2  12    0.31    0.25
  18   2  12    0.18    0.24
 -18  -2  12    0.17    0.28
  18  -2 -12    0.10    0.24
  -3 -18 -13    0.29    0.26
   3  18 -13   -0.37    0.30
  18  -3  13    0.01    0.19
   3  18 -13    0.00    0.20
  18   3 -13    0.20    0.31
  -3 -18 -11    1.08    0.34
   3  18 -11    1.61    0.41
  18  -3  11    1.09    0.30
   3  18 -11    1.60    0.36
  18   3 -11    0.95    0.32
  -3  18  11    1.78    0.40
   3  18  -9    4.69    0.60
  -3 -18  -9    4.64    0.56
  18  -3   9    4.95    0.59
  18  -3   9    4.31    0.50
   3  18  -9    5.30    0.58
  -3  18   9    5.90    0.65
  18   3  -9    4.20    0.58
   3  18  -7   -0.33    0.28
  -3  18   7    0.01    0.31
  -3 -18  -7   -0.43    0.28
  18  -3   7    0.15    0.23
  18   3  -7    0.11    0.23
   3  18  -7    0.26    0.21
  -3 -18  -5    3.79    0.49
   3 -18   5    3.75    0.43
  -3  18   5    3.18    0.49
  18  -3   5    4.24    0.52
  18   3  -5    3.90    0.53
   3  18  -5    4.71    0.57
   3  18  -5    3.74    0.49
   3 -18   3   21.11    1.00
  18  -3   3   23.74    1.02
  18  -3   3   23.70    1.23
  18   3  -3   24.20    1.27
   3  18  -3   24.29    1.26
  -3  18   3   23.75    1.27
  -3  18   1    2.26    0.41
   3  18  -1    2.28    0.41
   3  18  -1    1.65    0.32
  18  -3   1    1.48    0.37
  18   3  -1    2.02    0.42
   3  18   1    2.17    0.37
   3  18   1    1.46    0.37
  18   3   1    1.99    0.39
  18  -3  -1    1.95    0.40
  -3  18  -1    1.87    0.39
   3 -18  -3   23.58    1.21
   3  18   3   23.16    1.27
   3  18   3   23.70    1.17
  18   3   3   24.45    1.27
  -3  18  -3   23.88    1.27
  18  -3  -3   24.84    1.27
   3 -18  -5    4.05    0.50
  -3  18  -5    3.38    0.49
   3  18   5    4.20    0.49
  18   3   5    3.81    0.48
  18   3   5    3.56    0.51
   3  18   5    3.80    0.54
  18  -3  -5    3.96    0.52
  -3  18  -5    4.43    0.51
  -3  18  -7    0.12    0.23
   3 -18  -7   -0.02    0.19
  -3  18  -7    0.03    0.22
   3  18   7    0.38    0.22
  18   3   7    0.36    0.25
   3  18   7   -0.08    0.23
  18   3   7   -0.35    0.28
  18  -3  -7    0.57    0.29
  -3  18  -9    4.72    0.56
   3 -18  -9    4.98    0.58
   3  18   9    4.99    0.63
   3  18   9    5.23    0.61
  18   3   9    5.74    0.60
 -18  -3   9    4.78    0.61
  18  -3  -9    5.86    0.65
   3 -18 -11    1.08    0.33
  -3  18 -11    1.97    0.38
  18   3  11    2.05    0.38
   3  18  11    1.89    0.43
  18   3  11    2.04    0.42
 -18  -3  11    1.50    0.36
  18  -3 -11    1.06    0.36
   3 -18 -13    0.27    0.27
  18   3  13    0.60    0.26
  -3  18 -13    0.46    0.30
  18   3  13    0.23    0.25
 -18  -3  13   -0.21    0.28
  18  -3 -13    0.67    0.33
  -4 -18 -12    0.29    0.25
   4  18 -12    0.32    0.31
  18  -4  12    0.23    0.22
   4  18 -12    0.13    0.21
  -4  18  12   -0.01    0.25
  18   4 -12    0.45    0.25
   4  18 -10    0.43    0.28
  -4 -18 -10    0.21    0.23
   4 -18  10    0.94    0.28
  18  -4  10    1.05    0.33
   4  18 -10    0.57    0.25
  18   4 -10    0.64    0.26
  -4  18  10    0.98    0.35
   4  18  -8    3.37    0.53
  -4 -18  -8    3.88    0.52
   4 -18   8    3.60    0.47
  -4  18   8    4.74    0.61
  18  -4   8    5.19    0.61
  18  -4   8    4.44    0.51
  18   4  -8    5.37    0.63
   4  18  -8    4.29    0.53
   4  18  -6    3.03    0.46
  -4 -18  -6    2.38    0.41
   4 -18   6    2.79    0.39
  18  -4   6    2.64    0.44
  18  -4   6    3.29    0.47
  -4  18   6    4.22    0.54
  18   4  -6    2.88    0.49
   4  18  -6    3.76    0.54
  -4 -18  -4    2.64    0.44
   4 -18   4    1.80    0.31
   4  18  -4    2.31    0.41
  -4  18   4    2.32    0.44
  18  -4   4    1.83    0.37
  18   4  -4    2.52    0.44
   4 -18   2   10.70    0.67
  18  -4   2   10.53    0.79
  18   4  -2    9.43    0.79
  -4  18   2   12.04    0.89
   4  18  -2   11.21    0.83
   4  18   0    7.35    0.69
   4  18   0    7.61    0.63
  18   4   0    8.44    0.74
  18  -4   0    7.65    0.67
  -4  18   0    7.16    0.69
   4 -18  -2   10.11    0.75
   4  18   2    9.90    0.80
   4  18   2    9.91    0.74
  18   4   2    9.91    0.81
  -4  18  -2   10.00    0.81
  18  -4  -2   10.07    0.77
   4 -18  -4    2.04    0.38
   4  18   4    2.08    0.38
  -4  18  -4    2.67    0.46
  18   4   4    3.18    0.46
   4  18   4    2.30    0.43
  18   4   4    2.38    0.42
  18  -4  -4    2.78    0.44
  -4  18  -4    2.17    0.37
  -4  18  -6    2.82    0.41
   4 -18  -6    2.93    0.44
  -4  18  -6    3.05    0.48
   4  18   6    3.40    0.49
   4  18   6    2.75    0.48
  18   4   6    2.97    0.45
  18   4   6    2.97    0.48
  18  -4  -6    2.70    0.45
  -4  18  -8    3.28    0.46
   4 -18  -8    4.00    0.53
   4  18   8    4.92    0.61
   4  18   8    3.59    0.51
  18   4   8    4.87    0.55
  18   4   8    3.84    0.55
 -18  -4   8    3.98    0.58
  18  -4  -8    4.21    0.54
   4 -18 -10    0.30    0.27
  -4  18 -10    0.91    0.30
  18   4  10    1.14    0.31
   4  18  10    0.94    0.35
  18   4  10    0.32    0.27
 -18  -4  10   -0.17    0.27
  18  -4 -10    0.30    0.25
   4 -18 -12   -0.17    0.26
  -4  18 -12   -0.08    0.22
  18   4  12    0.24    0.23
   4  18  12   -0.02    0.28
  18   4  12    0.13    0.27
 -18  -4  12    0.33    0.28
  18  -4 -12    0.99    0.38
  -5 -18 -11    0.68    0.29
   5  18 -11    0.53    0.27
   5 -18  11    0.47    0.25
  18  -5  11    0.49    0.24
  -5  18  11    1.11    0.41
   5  18 -11    0.71    0.28
  18   5 -11    0.33    0.23
   5  18  -9    0.58    0.34
  -5 -18  -9    0.41    0.24
   5 -18   9    0.46    0.25
  18  -5   9    0.10    0.21
  18  -5   9    0.44    0.22
  -5  18   9    0.01    0.27
  18   5  -9    1.15    0.35
   5  18  -9    0.27    0.23
   5  18  -7    0.67    0.29
   5  18  -7    0.95    0.27
  -5 -18  -7    1.40    0.38
   5 -18   7    1.56    0.35
  18  -5   7    1.59    0.36
  18  -5   7    1.50    0.35
  18  -5   7    1.27    0.34
  18   5  -7    1.92    0.39
  -5  18   7    0.68    0.34
  -5 -18  -5    0.77    0.27
   5 -18   5    1.06    0.27
   5  18  -5    1.07    0.30
  18  -5   5    0.83    0.32
  -5  18   5    2.18    0.42
  18  -5   5    1.37    0.35
  18   5  -5    1.82    0.41
   5  18  -5    1.31    0.36
   5 -18   3    5.79    0.52
  -5  18   3    5.19    0.60
  18  -5   3    6.01    0.65
  18  -5   3    5.63    0.59
  18   5  -3    5.65    0.62
   5  18  -3    5.65    0.59
   5  18  -1    0.90    0.29
  18  -5   1    0.38    0.25
  18   5  -1    0.88    0.33
   5  18  -1    0.53    0.25
  -5  18   1    0.55    0.27
   5  18   1    0.55    0.24
   5  18   1    0.57    0.25
  18   5   1    0.42    0.30
  18  -5  -1    0.51    0.26
  -5  18  -1    1.22    0.36
   5 -18  -3    5.80    0.58
   5  18   3    6.06    0.61
  -5  18  -3    6.19    0.63
  -5  18  -3    4.72    0.51
   5  18   3    5.62    0.63
  18   5   3    5.48    0.61
  18  -5  -3    5.76    0.59
  -5  18  -5    1.24    0.30
   5 -18  -5    1.06    0.31
  -5  18  -5    0.71    0.28
   5  18   5    0.76    0.30
   5  18   5    1.06    0.32
  18   5   5    0.82    0.29
  18   5   5    0.76    0.30
  18  -5  -5    1.49    0.34
  -5  18  -7    1.37    0.31
   5 -18  -7    1.77    0.35
   5  18   7    1.48    0.37
   5  18   7    1.47    0.38
  18   5   7    2.08    0.43
  18   5   7    1.30    0.38
 -18  -5   7    1.98    0.44
  18  -5  -7    1.55    0.35
   5 -18  -9   -0.16    0.27
  -5  18  -9    0.05    0.19
   5  18   9    0.09    0.23
  18   5   9    0.93    0.31
 -18  -5   9   -0.05    0.29
  18  -5  -9    0.13    0.23
   5 -18 -11    1.30    0.37
  -5  18 -11    0.50    0.26
  18   5  11    0.76    0.27
   5  18  11    0.70    0.30
  18   5  11    0.54    0.26
 -18  -5  11    0.87    0.34
  18  -5 -11   -0.24    0.31
  -6 -18 -12    3.16    0.52
   6 -18  12    3.01    0.49
   6  18 -12    3.91    0.60
  18  -6  12    1.94    0.44
   6  18 -12    3.14    0.46
  18   6 -12    3.74    0.57
  -6  18  12    3.06    0.51
  -6 -18 -10    0.79    0.32
   6  18 -10   -0.02    0.23
   6 -18  10    0.43    0.26
  18  -6  10   -0.11    0.24
  -6  18  10   -0.11    0.34
  18   6 -10    0.19    0.25
   6  18 -10    0.52    0.24
  -6  18   8    1.77    0.40
   6  18  -8    2.10    0.46
   6  18  -8    1.45    0.33
  -6 -18  -8    1.30    0.35
   6 -18   8    1.49    0.34
  18  -6   8    2.26    0.43
  18  -6   8    1.58    0.35
  18   6  -8    2.47    0.40
  18   6  -8    1.91    0.41
  -6 -18  -6    0.54    0.27
   6 -18   6    1.19    0.29
   6  18  -6    1.21    0.31
  18  -6   6    1.13    0.32
  18   6  -6    1.24    0.30
  18  -6   6    1.16    0.33
  -6  18   6    1.06    0.34
  18  -6   6    1.19    0.31
  18   6  -6    0.90    0.33
   6  18  -6    0.44    0.26
   6 -18   4    2.75    0.39
  -6  18   4    2.81    0.46
  18  -6   4    2.07    0.42
   6  18  -4    2.56    0.42
  18  -6   4    2.19    0.40
  18   6  -4    3.14    0.48
   6  18  -4    2.69    0.48
  -6  18   2    3.53    0.49
   6 -18   2    3.56    0.42
  18  -6   2    3.47    0.52
  18  -6   2    4.22    0.52
  18   6  -2    3.46    0.49
   6  18  -2    3.87    0.50
   6  18   0    0.44    0.25
  18  -6   0    0.21    0.30
   6  18   0    0.70    0.29
  18   6   0    0.65    0.29
  18  -6   0    0.98    0.31
  -6  18   0    0.76    0.27
   6 -18  -2    4.02    0.48
   6  18   2    3.93    0.50
  -6  18  -2    3.97    0.54
  18   6   2    3.88    0.52
   6  18   2    4.11    0.52
  18  -6  -2    4.87    0.56
   6 -18  -4    2.19    0.38
  -6  18  -4    2.90    0.46
   6  18   4    2.34    0.41
  18   6   4    2.16    0.39
   6  18   4    2.39    0.44
 -18  -6   4    2.80    0.51
  18   6   4    1.79    0.40
  18  -6  -4    2.03    0.37
  -6  18  -4    2.90    0.39
  -6  18  -6    1.19    0.28
   6 -18  -6    0.55    0.24
   6  18   6    1.05    0.35
   6  18   6    1.04    0.33
  18   6   6    1.36    0.36
  18   6   6    1.23    0.34
 -18  -6   6    1.25    0.37
  18  -6  -6    1.02    0.29
   6 -18  -8    2.22    0.40
  -6  18  -8    1.48    0.30
   6  18   8    2.16    0.44
  18   6   8    1.76    0.42
 -18  -6   8    1.73    0.42
  18  -6  -8    1.04    0.32
   6 -18 -10    0.41    0.26
  -6  18 -10    0.19    0.22
  18   6  10    0.30    0.22
   6  18  10    0.03    0.24
  18   6  10   -0.32    0.32
 -18  -6  10    0.49    0.33
  18  -6 -10    0.16    0.24
   6 -18 -12    2.09    0.45
  18   6  12    2.83    0.43
   6  18  12    2.13    0.47
  18   6  12    3.71    0.58
  -6  18 -12    2.54    0.42
 -18  -6  12    3.69    0.58
  18  -6 -12    3.44    0.56
  -7  18  11    0.62    0.29
  -7 -18 -11    0.48    0.26
   7  18 -11    0.46    0.33
   7 -18  11    0.89    0.32
  18  -7  11    0.17    0.24
  18   7 -11    0.06    0.26
  18   7 -11    0.58    0.33
   7  18  -9    0.34    0.29
  -7 -18  -9   -0.10    0.25
   7  18  -9    0.38    0.24
   7 -18   9   -0.08    0.21
  -7  18   9    0.19    0.26
  18  -7   9    0.35    0.22
  18  -7   9    0.30    0.19
  18   7  -9    0.00    0.23
  18   7  -9    0.07    0.23
   7  18  -7    3.00    0.52
  -7 -18  -7    3.14    0.48
   7 -18   7    3.35    0.47
  18  -7   7    3.65    0.54
  18   7  -7    3.43    0.45
   7  18  -7    3.70    0.48
  18  -7   7    4.36    0.55
  18  -7   7    4.86    0.56
  -7  18   7    4.54    0.57
  18   7  -7    4.04    0.54
   7 -18   5    1.73    0.32
  18   7  -5    1.61    0.32
  -7  18   5    1.28    0.31
  18  -7   5    1.36    0.36
   7  18  -5    1.55    0.35
  18  -7   5    1.82    0.37
  18   7  -5    1.69    0.39
   7  18  -5    1.53    0.39
  -7  18   3    2.03    0.40
  18   7  -3    2.29    0.37
   7 -18   3    1.88    0.33
  18  -7   3    1.34    0.36
  18  -7   3    1.81    0.37
  18   7  -3    1.64    0.38
   7  18  -3    1.93    0.37
  18   7  -1    3.26    0.41
   7 -18   1    2.50    0.35
   7  18  -1    2.19    0.40
  18  -7   1    2.44    0.49
  18  -7   1    2.50    0.41
  18   7  -1    3.06    0.49
  -7  18   1    3.02    0.49
  18  -7  -1    2.57    0.50
   7  18   1    3.77    0.51
 -18  -7   1    2.54    0.49
  -7  18  -1    2.71    0.46
  18   7   1    3.67    0.49
  18  -7  -1    2.38    0.40
   7  18   1    2.48    0.42
   7 -18  -3    1.47    0.32
  18  -7  -3    0.98    0.34
  -7  18  -3    1.37    0.34
   7  18   3    1.36    0.34
 -18  -7   3    1.77    0.42
  18   7   3    2.01    0.40
  18  -7  -3    1.87    0.36
   7  18   3    1.34    0.37
  -7  18  -3    1.58    0.30
  -7  18  -5    1.93    0.33
   7 -18  -5    1.36    0.32
  -7  18  -5    1.52    0.36
  18  -7  -5    1.15    0.36
   7  18   5    1.17    0.36
  18   7   5    1.61    0.38
 -18  -7   5    1.70    0.44
  18   7   5    1.45    0.35
   7  18   5    1.17    0.35
  18  -7  -5    1.10    0.30
   7 -18  -7    3.66    0.49
  18  -7  -7    4.17    0.63
   7  18   7    3.49    0.53
  18   7   7    5.00    0.60
  18   7   7    4.16    0.55
 -18  -7   7    5.14    0.64
  18  -7  -7    4.39    0.53
   7 -18  -9   -0.22    0.23
  18  -7  -9    0.61    0.44
   7  18   9    0.84    0.35
  18   7   9    0.29    0.28
 -18  -7   9    0.00    0.29
  18  -7  -9    0.18    0.22
   7 -18 -11    1.35    0.37
  18  -7 -11    0.05    0.34
   7  18  11    0.60    0.32
  18   7  11    0.95    0.36
 -18  -7  11    0.54    0.34
  18  -7 -11    0.62    0.32
  -8 -18 -10    0.66    0.30
   8  18 -10    0.31    0.32
   8 -18  10    0.52    0.27
  18  -8  10    0.44    0.26
  18   8 -10    0.50    0.29
  -8  18  10    0.67    0.32
  18   8 -10    0.08    0.25
   8  18  -8    2.43    0.48
  -8 -18  -8    1.54    0.38
   8 -18   8    1.56    0.37
  18  -8   8    2.29    0.45
  18   8  -8    2.27    0.41
  18  -8   8    1.83    0.38
   8  18  -8    1.91    0.37
  18   8  -8    2.24    0.46
  -8  18   8    1.90    0.43
   8  18  -6   -0.45    0.31
   8 -18   6    0.50    0.24
  18   8  -6   -0.03    0.20
  18  -8   6   -0.11    0.22
  18  -8   6    0.10    0.22
  -8  18   6   -0.07    0.27
  18  -8   6    0.20    0.23
   8  18  -6   -0.02    0.20
  18   8  -6   -0.12    0.24
   8  18  -4    3.67    0.48
  18   8  -4    4.34    0.49
  -8  18   4    4.16    0.56
   8 -18   4    3.51    0.45
  18  -8   4    3.71    0.53
  18  -8   4    4.32    0.52
  18   8  -4    4.63    0.58
   8  18  -4    4.44    0.61
  18   8  -2    4.91    0.52
   8 -18   2    3.88    0.45
  18  -8   2    4.43    0.58
   8  18  -2    4.04    0.52
 -18  -8  -2    3.59    0.57
  18  -8   2    3.85    0.49
  18   8  -2    4.15    0.52
  -8  18   2    5.14    0.60
  18   8   0    0.63    0.24
   8  18   0    0.16    0.21
  18  -8   0    0.34    0.28
   8  18   0    0.44    0.27
 -18  -8   0    1.20    0.40
  18   8   0    0.80    0.27
  18  -8   0    0.95    0.30
  -8  18   0    0.86    0.33
   8  18   2    4.77    0.58
  18  -8  -2    4.15    0.61
   8  18   2    4.18    0.55
  -8  18  -2    5.89    0.64
 -18  -8   2    4.94    0.65
  18   8   2    4.32    0.56
  18  -8  -2    4.15    0.51
   8 -18  -4    3.73    0.47
  18  -8  -4    4.78    0.67
  -8  18  -4    4.18    0.56
   8  18   4    4.35    0.56
  18   8   4    4.04    0.55
 -18  -8   4    3.48    0.56
  18   8   4    3.93    0.53
  18  -8  -4    3.33    0.45
   8 -18  -6   -0.22    0.24
  18  -8  -6    0.50    0.39
   8  18   6    0.18    0.29
  18   8   6   -0.24    0.28
 -18  -8   6   -0.16    0.30
  18   8   6    0.19    0.27
  18  -8  -6   -0.03    0.23
   8 -18  -8    1.46    0.35
  18  -8  -8    2.20    0.48
   8  18   8    2.73    0.50
  18   8   8    2.89    0.50
 -18  -8   8    2.27    0.47
  18  -8  -8    2.58    0.44
   8 -18 -10    0.60    0.23
  18  -8 -10    0.27    0.33
   8  18  10   -0.25    0.35
  18   8  10    0.64    0.36
 -18  -8  10    0.51    0.31
  18  -8 -10    0.42    0.27
  -9 -18  -9    1.17    0.36
   9  18  -9    0.97    0.35
  -9  18   9    0.74    0.37
   9 -18   9    1.17    0.34
  18  -9   9    0.95    0.33
  18   9  -9    0.76    0.32
  18   9  -9    1.88    0.39
   9  18  -7    1.03    0.36
   9 -18   7    1.25    0.32
  18   9  -7    1.12    0.32
  18  -9   7    0.53    0.28
  18  -9   7    2.04    0.41
  -9  18   7    1.36    0.35
 -18  -9  -7    1.01    0.38
  18   9  -7    1.80    0.41
   9  18  -7    0.95    0.28
   9  18  -5    2.30    0.39
  18   9  -5    2.06    0.39
   9 -18   5    2.12    0.37
  -9  18   5    3.43    0.51
  18  -9   5    2.64    0.47
  18  -9   5    2.26    0.44
  18  -9   5    2.65    0.41
 -18  -9  -5    1.93    0.46
  18   9  -5    2.28    0.42
   9  18  -5    2.33    0.47
   9  18  -3    6.69    0.65
   9 -18   3    5.99    0.58
  18  -9   3    6.67    0.72
  18  -9   3    7.14    0.65
 -18  -9  -3    5.92    0.71
  18   9  -3    8.08    0.74
  18   9  -3    6.92    0.63
  -9  18   3    6.94    0.69
  18   9  -1    2.68    0.40
   9 -18   1    2.37    0.35
   9  18  -1    1.94    0.39
  18  -9   1    2.31    0.47
 -18  -9  -1    2.32    0.47
  18  -9   1    2.20    0.38
  18   9  -1    2.50    0.45
  -9  18   1    3.65    0.53
  18  -9  -1    2.60    0.50
   9  18   1    2.80    0.45
   9  18   1    2.44    0.44
  -9  18  -1    3.33    0.50
 -18  -9   1    2.68    0.51
  18   9   1    2.82    0.46
  18  -9  -1    3.00    0.43
  18   9   1    2.36    0.39
   9 -18  -3    6.89    0.62
  18  -9  -3    6.28    0.73
   9  18   3    6.75    0.70
  -9  18  -3    7.72    0.74
 -18  -9   3    6.14    0.74
  18   9   3    5.69    0.63
  18  -9  -3    6.36    0.61
   9 -18  -5    2.29    0.39
  18  -9  -5    1.70    0.44
   9  18   5    2.79    0.50
  18   9   5    2.46    0.46
 -18  -9   5    2.81    0.51
  18   9   5    2.65    0.46
  18  -9  -5    2.09    0.38
   9 -18  -7    1.34    0.35
  18  -9  -7    1.08    0.40
   9  18   7    1.41    0.41
  18   9   7    1.63    0.40
 -18  -9   7    0.74    0.34
  18  -9  -7    0.76    0.30
   9 -18  -9    0.72    0.28
  18  -9  -9    0.88    0.39
   9  18   9    0.59    0.33
  18   9   9    1.02    0.40
 -18  -9   9   -0.03    0.28
  18  -9  -9    0.88    0.29
  10  18  -6    0.67    0.38
  18  10  -6    0.36    0.24
  10 -18   6   -0.08    0.18
  18 -10   6    0.48    0.28
  18 -10   6    0.19    0.33
 -10  18   6   -0.13    0.27
 -18 -10  -6    0.15    0.26
  18  10  -6    0.07    0.23
 -10  18   4    0.39    0.29
  18  10  -4    0.10    0.23
  10 -18   4    0.14    0.21
  18 -10   4    0.42    0.25
  18 -10   4    0.42    0.30
  18 -10   4    0.16    0.19
 -18 -10  -4    0.09    0.25
  18  10  -4   -0.02    0.28
  10  18  -4    0.52    0.27
  10  18  -4    0.65    0.33
  18  10  -2    2.90    0.44
  10 -18   2    2.40    0.38
  18 -10   2    2.67    0.47
 -18 -10  -2    1.87    0.45
  18 -10   2    2.77    0.42
  10  18  -2    2.47    0.43
  18  10  -2    2.34    0.43
 -10  18   2    2.65    0.45
  10 -18   0    3.51    0.45
  18 -10   0    3.81    0.59
 -18 -10   0    3.50    0.58
  18  10   0    4.13    0.54
  18 -10   0    3.98    0.48
 -10  18   0    3.95    0.54
  10  18   0    4.01    0.54
  18  10   0    4.60    0.53
  18 -10  -2    2.78    0.53
 -10  18  -2    2.46    0.44
  10  18   2    2.36    0.46
 -18 -10   2    1.72    0.43
  18  10   2    2.68    0.45
  18 -10  -2    2.31    0.39
  18  10   2    2.95    0.44
  10 -18  -4    0.72    0.23
  18 -10  -4    0.13    0.27
 -10  18  -4    0.75    0.30
  10  18   4    0.57    0.34
  18  10   4    0.69    0.34
 -18 -10   4    0.64    0.33
  18  10   4    0.40    0.26
  18 -10  -4    0.30    0.20
  10 -18  -6    0.25    0.22
  18 -10  -6    0.34    0.32
  10  18   6    0.71    0.34
  18  10   6    0.28    0.25
 -18 -10   6   -0.18    0.27
  18  10   6   -0.15    0.28
  18 -10  -6    0.44    0.24
  11  18  -5    0.15    0.27
  18  11  -5    0.41    0.26
 -11  18   5    0.47    0.29
  11 -18   5    1.06    0.33
  18 -11   5    0.36    0.26
  18 -11   5    1.69    0.41
 -11 -18  -5   -0.11    0.31
 -18 -11  -5    0.96    0.41
  18  11  -5    0.58    0.31
  18  11  -3    1.13    0.35
  11 -18   3   -0.11    0.23
  18 -11   3    0.33    0.24
  18 -11   3    0.31    0.25
 -11 -18  -3    0.46    0.27
 -18 -11  -3    1.14    0.38
  18 -11   3    0.21    0.19
  18  11  -3    0.60    0.28
  11  18  -3    0.40    0.30
 -11  18   3    0.23    0.25
  18  11  -1   -0.17    0.26
  11 -18   1    0.01    0.17
  18 -11   1    0.10    0.29
 -11 -18  -1    1.02    0.40
 -18 -11  -1    0.80    0.38
  18 -11   1   -0.12    0.22
  18  11  -1    0.21    0.26
 -11  18   1    0.30    0.31
  18 -11  -1    0.65    0.35
 -11 -18   1    0.55    0.33
  11  18   1    0.29    0.26
 -11  18  -1    0.15    0.25
 -18 -11   1    0.23    0.30
  18  11   1   -0.09    0.25
  18 -11  -1    0.15    0.18
  18  11   1    0.17    0.23
  18 -11  -3   -0.09    0.36
 -11  18  -3    0.50    0.28
  11  18   3    0.63    0.32
  18  11   3    0.32    0.29
 -18 -11   3   -0.27    0.31
  18  11   3    0.26    0.24
  18 -11  -3    0.52    0.26
  11 -18  -5    0.25    0.20
  18 -11  -5    0.09    0.29
  11  18   5    1.03    0.36
  18  11   5    0.48    0.36
 -18 -11   5    0.60    0.38
  18  11   5    1.19    0.37
  18 -11  -5    0.79    0.28
   0  19  -1    1.58    0.38
   0  19   1    1.19    0.35
  19   0   1    1.15    0.35
  19   0  -1    1.93    0.40
   0 -19  -3    3.74    0.51
  19   0   3    3.78    0.45
   0  19   3    3.34    0.49
  19   0   3    3.42    0.49
  19   0  -3    3.73    0.52
   0  19  -3    3.42    0.49
   0 -19  -5    1.80    0.38
   0  19   5    2.22    0.44
   0  19   5    1.38    0.31
  19   0   5    2.31    0.37
  19   0   5    1.77    0.41
   0  19  -5    1.65    0.37
  19   0  -5    2.15    0.44
   0  19  -5    1.91    0.40
   0  19  -7    1.74    0.39
   0 -19  -7    1.59    0.36
   0  19   7    1.53    0.33
  19   0   7    1.32    0.31
   0  19   7    1.83    0.42
  19   0   7    1.88    0.42
   0  19  -7    1.36    0.34
  19   0  -7    1.63    0.39
   0  19  -9    0.53    0.29
   0 -19  -9    0.53    0.32
  19   0   9   -0.02    0.21
  19   0   9   -0.06    0.22
   0  19  -9    0.04    0.19
   0  19   9    0.55    0.36
  19   0  -9    0.02    0.25
   0 -19 -11    0.39    0.26
   0  19  11   -0.67    0.42
   0  19 -11    0.62    0.30
  19   0  11    0.02    0.21
   0  19 -11   -0.10    0.24
  19   0  11   -0.36    0.30
  19   0 -11   -0.31    0.32
  -1 -19 -12   -0.16    0.31
   1  19 -12    0.02    0.23
  19  -1  12    0.50    0.26
   1  19 -12    0.04    0.24
  19   1 -12    0.56    0.33
   1  19 -10    1.00    0.33
  -1 -19 -10    1.01    0.32
  19  -1  10    0.93    0.31
   1  19 -10    0.18    0.22
  19   1 -10    0.60    0.28
  -1  19  10    0.49    0.31
   1  19  -8    3.48    0.51
  -1 -19  -8    3.32    0.50
  19  -1   8    3.28    0.44
  19  -1   8    3.38    0.50
   1  19  -8    3.72    0.52
  -1  19   8    3.12    0.53
  19   1  -8    4.55    0.60
  -1 -19  -6    1.10    0.32
  -1  19   6    0.79    0.34
  19  -1   6    1.41    0.30
  19  -1   6    0.79    0.30
   1  19  -6    1.18    0.35
  19   1  -6    1.16    0.33
   1  19  -6    1.37    0.35
  -1 -19  -4    0.42    0.30
  19  -1   4    0.13    0.21
  19  -1   4    0.22    0.29
  -1  19   4    0.10    0.24
  19   1  -4   -0.21    0.29
   1  19  -4   -0.07    0.23
   1  19  -4    0.04    0.21
   1  19  -2    3.91    0.52
  -1  19   2    3.47    0.51
  19  -1   2    2.65    0.44
  19   1  -2    3.97    0.53
   1  19   0   10.14    0.68
  19   1   0   11.41    0.87
  19  -1   0    9.98    0.81
  -1  19   0   10.15    0.83
   1  19   0    8.55    0.77
   1  19   2    2.70    0.38
   1  19   2    3.76    0.53
  19   1   2    3.48    0.50
  19  -1  -2    3.30    0.48
  -1  19  -2    4.70    0.59
   1  19   4    0.29    0.32
   1 -19  -4   -0.03    0.23
   1  19   4    0.26    0.24
  19   1   4   -0.04    0.21
  19   1   4    0.36    0.30
  19  -1  -4    0.21    0.28
  -1  19  -4    0.18    0.23
  -1  19  -4    0.17    0.23
  -1  19  -6    0.66    0.29
   1 -19  -6    0.98    0.33
   1  19   6    0.78    0.27
   1  19   6    0.90    0.33
  19   1   6    0.89    0.30
  -1  19  -6    0.30    0.26
  19   1   6    0.98    0.32
  19  -1  -6    1.36    0.37
  -1  19  -8    2.41    0.42
   1 -19  -8    2.03    0.44
   1  19   8    4.21    0.56
   1  19   8    3.59    0.48
  -1  19  -8    2.85    0.46
  19   1   8    3.26    0.45
  19   1   8    2.80    0.51
  19  -1  -8    3.78    0.54
   1 -19 -10    0.96    0.31
  -1  19 -10    0.13    0.22
  19   1  10    0.43    0.22
  -1  19 -10    0.66    0.29
   1  19  10    0.88    0.32
  19   1  10    1.18    0.34
   1  19  10    0.41    0.31
  19  -1 -10    0.10    0.26
   1 -19 -12   -0.23    0.31
  -1  19 -12    0.06    0.22
  19   1  12    0.12    0.20
  19   1  12   -0.32    0.29
 -19  -1  12    0.22    0.27
  19  -1 -12    0.60    0.33
  -2 -19 -11    0.12    0.28
   2  19 -11    0.64    0.30
  19  -2  11    0.63    0.30
  -2  19  11   -0.04    0.34
   2  19 -11    0.71    0.28
  19   2 -11   -0.40    0.35
  -2  19   9    2.84    0.51
   2  19  -9    2.46    0.46
  -2 -19  -9    2.29    0.44
  19  -2   9    2.17    0.43
   2  19  -9    1.98    0.40
  19   2  -9    2.07    0.49
   2  19  -7   -0.08    0.23
  -2 -19  -7   -0.01    0.23
  -2  19   7    0.32    0.30
  19  -2   7   -0.08    0.24
   2  19  -7   -0.11    0.23
  19   2  -7   -0.32    0.24
  -2 -19  -5    4.11    0.53
  19  -2   5    4.25    0.55
  19   2  -5    4.36    0.57
  -2  19   5    4.65    0.57
   2  19  -5    5.27    0.61
   2  19  -5    4.10    0.55
  19  -2   3   14.50    0.83
   2  19  -3   15.12    0.86
  19  -2   3   14.59    0.98
  19   2  -3   14.33    0.99
   2  19  -3   14.58    0.99
  -2  19   3   16.21    1.05
  -2  19   1    3.50    0.53
   2  19  -1    2.76    0.44
   2  19  -1    3.02    0.41
  19  -2   1    2.91    0.46
  19   2  -1    2.78    0.45
   2  19   1    2.58    0.38
   2  19   1    2.62    0.46
  19   2   1    2.50    0.43
  19  -2  -1    2.96    0.48
  -2  19  -1    2.75    0.48
   2 -19  -3   14.80    0.96
   2  19   3   15.32    1.05
   2  19   3   15.75    0.93
  19   2   3   15.29    1.03
  19  -2  -3   14.82    0.99
  -2  19  -3   14.95    1.02
   2 -19  -5    4.58    0.56
   2  19   5    5.06    0.62
   2  19   5    4.15    0.50
  19   2   5    4.02    0.50
  -2  19  -5    4.64    0.59
  19   2   5    4.49    0.57
  19  -2  -5    4.40    0.57
  -2  19  -5    3.92    0.51
  -2  19  -7    0.34    0.22
   2 -19  -7   -0.20    0.26
   2  19   7    0.25    0.28
   2  19   7    0.19    0.25
  -2  19  -7    0.27    0.24
  19   2   7   -0.21    0.24
  19   2   7    0.17    0.28
  19  -2  -7    0.50    0.28
   2  19   9    2.54    0.51
  -2  19  -9    2.49    0.44
   2 -19  -9    1.46    0.36
  19   2   9    2.13    0.40
  -2  19  -9    2.58    0.46
   2  19   9    2.03    0.39
  19   2   9    2.68    0.45
  19  -2  -9    1.34    0.39
   2 -19 -11    0.07    0.24
  -2  19 -11   -0.25    0.25
  19   2  11    0.27    0.19
   2  19  11    0.17    0.26
  19   2  11   -0.03    0.26
 -19  -2  11    0.65    0.30
  19  -2 -11    0.09    0.23
   3  19 -10    0.79    0.32
  -3 -19 -10    0.77    0.32
  -3  19  10    0.63    0.34
  19  -3  10    0.66    0.32
   3  19 -10    0.63    0.26
  19   3 -10    0.83    0.32
   3  19  -8    2.75    0.50
  -3 -19  -8    1.78    0.41
  19  -3   8    1.96    0.43
  19  -3   8    2.65    0.43
  -3  19   8    3.01    0.52
  19  -3   8    2.54    0.46
  19   3  -8    2.88    0.50
   3  19  -8    2.20    0.43
  -3 -19  -6    6.53    0.67
  19  -3   6    6.20    0.66
   3  19  -6    6.60    0.69
  19   3  -6    5.72    0.66
  -3  19   6    6.15    0.67
   3  19  -6    5.54    0.60
  -3 -19  -4    3.69    0.51
   3  19  -4    2.95    0.46
  -3  19   4    3.96    0.55
  19  -3   4    3.21    0.48
  19   3  -4    3.85    0.54
   3  19  -4    3.12    0.49
   3  19  -2    6.78    0.59
  19  -3   2    7.55    0.71
  19   3  -2    7.46    0.72
  -3  19   2    7.09    0.72
   3  19  -2    7.48    0.70
   3  19   0   12.27    0.82
  19   3   0   12.99    0.94
  19  -3   0   12.91    0.92
  -3  19   0   12.37    0.93
   3  19   0   13.41    0.94
   3  19   2    7.70    0.74
   3  19   2    7.27    0.63
  19   3   2    7.54    0.73
  19  -3  -2    6.73    0.69
  -3  19  -2    7.64    0.73
   3 -19  -4    3.37    0.47
   3  19   4    2.49    0.46
   3  19   4    3.34    0.46
  19   3   4    2.93    0.43
  19   3   4    2.98    0.47
  -3  19  -4    2.91    0.47
  19  -3  -4    3.87    0.52
  -3  19  -4    3.17    0.45
   3 -19  -6    5.74    0.63
   3  19   6    6.50    0.71
   3  19   6    6.99    0.67
  19   3   6    6.79    0.63
  -3  19  -6    6.28    0.69
  19   3   6    7.52    0.75
  -3  19  -6    6.24    0.62
  19  -3  -6    6.33    0.66
  -3  19  -8    3.04    0.45
   3 -19  -8    1.59    0.38
  -3  19  -8    2.96    0.48
   3  19   8    2.70    0.45
  19   3   8    2.74    0.45
  19   3   8    2.38    0.44
   3  19   8    2.69    0.50
  19  -3  -8    3.12    0.48
   3 -19 -10    0.71    0.29
  -3  19 -10    0.36    0.25
  19   3  10    0.87    0.30
   3  19  10    0.82    0.32
  19   3  10    0.88    0.29
 -19  -3  10    0.77    0.31
  19  -3 -10    0.75    0.29
  -4 -19 -11    0.97    0.34
   4  19 -11    0.18    0.30
  19  -4  11   -0.14    0.22
  -4  19  11    0.00    0.28
   4  19 -11    0.04    0.20
  19   4 -11    0.83    0.35
   4  19  -9    2.12    0.45
  -4 -19  -9    2.40    0.47
  19  -4   9    2.17    0.44
  -4  19   9    2.67    0.49
  19   4  -9    2.17    0.42
   4  19  -9    2.26    0.43
   4  19  -7    0.64    0.30
   4  19  -7    0.26    0.25
  -4  19   7    0.82    0.32
  -4 -19  -7    0.22    0.23
   4 -19   7    0.26    0.20
  19  -4   7    0.36    0.25
  19  -4   7    0.67    0.31
  19  -4   7    0.13    0.23
  19   4  -7    0.27    0.27
  -4 -19  -5    2.70    0.45
   4  19  -5    2.24    0.38
   4 -19   5    1.95    0.33
  19  -4   5    2.17    0.43
  -4  19   5    2.74    0.46
  19  -4   5    2.77    0.46
  19   4  -5    2.43    0.46
   4  19  -5    2.81    0.49
  19  -4   3   10.61    0.83
  19   4  -3   12.01    0.92
  -4  19   3   13.35    0.97
   4  19  -3   11.82    0.89
  -4  19   1    1.33    0.36
   4  19  -1    1.12    0.28
   4  19  -1    1.31    0.34
  19  -4   1    0.69    0.29
  19   4  -1    0.88    0.29
   4  19   1    1.15    0.29
  19   4   1    1.19    0.34
  19  -4  -1    1.46    0.35
  -4  19  -1    1.55    0.36
   4  19   1    1.11    0.34
   4 -19  -3   12.73    0.89
   4  19   3   13.11    0.96
   4  19   3   13.90    0.90
  -4  19  -3   11.00    0.82
  19   4   3   11.18    0.89
  -4  19  -3   13.05    0.94
  19  -4  -3   13.20    0.92
  -4  19  -5    1.98    0.37
   4 -19  -5    2.38    0.40
   4  19   5    2.63    0.48
   4  19   5    2.62    0.44
  -4  19  -5    2.32    0.45
  19   4   5    2.35    0.42
  19   4   5    2.20    0.43
  19  -4  -5    1.91    0.38
  -4  19  -7    0.22    0.21
   4 -19  -7   -0.26    0.29
   4  19   7    0.01    0.29
  -4  19  -7    0.24    0.22
   4  19   7    0.33    0.24
  19   4   7    0.36    0.24
  19   4   7   -0.04    0.28
 -19  -4   7    0.70    0.38
  19  -4  -7    0.50    0.29
   4 -19  -9    2.70    0.46
  -4  19  -9    2.23    0.40
   4  19   9    2.03    0.41
  19   4   9    2.88    0.48
 -19  -4   9    2.76    0.48
  19  -4  -9    3.15    0.48
   4 -19 -11   -0.01    0.25
  -4  19 -11   -0.16    0.20
  19   4  11   -0.19    0.23
   4  19  11    0.18    0.27
  19   4  11   -0.28    0.31
 -19  -4  11   -0.25    0.28
  19  -4 -11    0.37    0.30
  -5 -19 -10    0.88    0.33
   5  19 -10    0.28    0.25
   5 -19  10    0.37    0.25
  19  -5  10    1.09    0.33
  19   5 -10    0.22    0.27
  -5  19  10    0.20    0.28
   5  19 -10    0.45    0.24
   5  19  -8    0.07    0.23
   5  19  -8    0.42    0.29
  -5 -19  -8    1.13    0.34
  -5  19   8    1.09    0.40
   5 -19   8    0.88    0.29
  19  -5   8    0.55    0.25
  19  -5   8    0.91    0.30
  19   5  -8    0.32    0.26
  -5 -19  -6    0.08    0.19
   5 -19   6   -0.20    0.23
   5  19  -6   -0.07    0.19
  19  -5   6    0.20    0.24
  19  -5   6   -0.17    0.25
  -5  19   6   -0.04    0.26
  19   5  -6   -0.14    0.24
   5  19  -6   -0.02    0.24
  -5  19   4    0.70    0.34
  19  -5   4    0.90    0.33
   5  19  -4    0.69    0.29
  19  -5   4    1.06    0.32
  19   5  -4    0.54    0.24
   5  19  -4    0.51    0.29
   5  19  -2    3.11    0.46
  19  -5   2    2.90    0.43
  19   5  -2    2.46    0.44
   5  19   0    0.14    0.24
   5  19   0   -0.21    0.22
  19   5   0    0.67    0.26
  19  -5   0    0.15    0.21
  -5  19   0    0.03    0.26
   5  19   2    4.46    0.58
   5  19   2    3.84    0.50
  19   5   2    3.50    0.49
  -5  19  -2    3.45    0.53
  19  -5  -2    3.27    0.47
   5 -19  -4    0.96    0.30
   5  19   4    0.38    0.28
   5  19   4    0.69    0.29
  19   5   4    1.05    0.30
  -5  19  -4    0.39    0.28
  19   5   4    0.06    0.26
  19  -5  -4    0.45    0.26
  -5  19  -4    0.72    0.25
  -5  19  -6    0.13    0.19
   5 -19  -6    0.15    0.20
   5  19   6   -0.03    0.27
  -5  19  -6    0.56    0.29
   5  19   6   -0.23    0.22
  19   5   6    0.05    0.28
  19   5   6   -0.01    0.25
 -19  -5   6   -0.05    0.30
  19  -5  -6    0.14    0.22
   5 -19  -8    0.58    0.27
  -5  19  -8    0.57    0.26
   5  19   8    0.51    0.30
  19   5   8    0.37    0.24
 -19  -5   8    0.68    0.31
  19  -5  -8    0.99    0.35
   5 -19 -10    0.99    0.35
  -5  19 -10    0.52    0.26
  19   5  10    0.90    0.26
   5  19  10    0.07    0.28
  19   5  10    0.23    0.25
 -19  -5  10    0.33    0.31
  19  -5 -10    1.03    0.31
   6  19  -9    0.35    0.28
   6  19  -9   -0.09    0.23
  -6 -19  -9   -0.38    0.30
   6 -19   9    0.46    0.27
  19  -6   9   -0.33    0.27
  -6  19   9    0.45    0.27
  19   6  -9   -0.05    0.26
  -6 -19  -7    1.38    0.35
   6 -19   7    1.23    0.30
   6  19  -7    1.38    0.32
  19  -6   7    1.64    0.37
  19  -6   7    1.22    0.32
  19  -6   7    1.22    0.32
  19   6  -7    0.64    0.30
  -6  19   7    1.75    0.42
   6 -19   5    0.51    0.24
  19  -6   5   -0.06    0.24
   6  19  -5    0.03    0.21
  -6  19   5    0.22    0.29
  19  -6   5    0.28    0.25
  19   6  -5    0.22    0.27
   6  19  -5   -0.30    0.29
  -6  19   3    0.19    0.24
  19  -6   3    0.85    0.34
  19  -6   3    0.52    0.22
   6  19  -3    0.84    0.30
  19   6  -3    0.40    0.27
   6  19  -1    1.53    0.37
  19  -6   1    1.71    0.40
   6  19  -1    1.07    0.31
  19  -6   1    1.62    0.36
  19   6  -1    1.07    0.31
  -6  19   1    1.76    0.39
  19  -6  -1    1.40    0.41
   6  19   1    1.65    0.38
   6  19   1    1.11    0.31
  19   6   1    1.56    0.39
  19  -6  -1    1.55    0.36
  -6  19  -1    1.42    0.38
   6 -19  -3    0.05    0.19
   6  19   3   -0.07    0.25
   6  19   3    0.58    0.29
  -6  19  -3    0.69    0.32
  19   6   3    0.30    0.23
  19  -6  -3    0.76    0.31
  -6  19  -3    0.55    0.23
  -6  19  -5    0.16    0.19
   6 -19  -5    0.25    0.22
  -6  19  -5    0.20    0.23
   6  19   5    0.28    0.27
   6  19   5   -0.01    0.25
  19   6   5    0.34    0.29
  19   6   5   -0.18    0.24
 -19  -6   5   -0.13    0.25
  19  -6  -5    0.15    0.27
  -6  19  -7    1.16    0.31
   6 -19  -7    1.50    0.34
   6  19   7    0.91    0.34
  19   6   7    1.62    0.38
  19   6   7    2.07    0.44
 -19  -6   7    1.69    0.43
  19  -6  -7    1.32    0.35
   6 -19  -9    0.41    0.25
   6  19   9    0.36    0.31
  19   6   9   -0.21    0.31
 -19  -6   9    0.53    0.31
  19  -6  -9   -0.14    0.24
  -7  19   8    0.51    0.31
   7  19  -8    0.25    0.25
  -7 -19  -8    0.75    0.34
   7 -19   8    0.94    0.27
  19  -7   8    0.39    0.28
   7  19  -8    1.30    0.31
  19  -7   8    0.77    0.29
  19   7  -8    0.03    0.30
   7  19  -6    0.69    0.29
   7 -19   6    0.74    0.28
  19  -7   6    0.72    0.28
  19  -7   6    0.63    0.29
   7  19  -6   -0.17    0.25
  -7  19   6    0.78    0.35
  19  -7   6    1.32    0.37
  19   7  -6    1.14    0.35
   7 -19   4    0.13    0.16
  -7  19   4    0.66    0.35
  19  -7   4    0.21    0.23
  19  -7   4    0.24    0.23
  19   7  -4   -0.17    0.29
   7  19  -4    0.00    0.20
   7  19  -4    0.39    0.27
  -7  19   2    1.46    0.36
   7  19  -2    1.84    0.39
  19  -7   2    0.94    0.34
  19  -7   2    1.70    0.36
  19   7  -2    1.52    0.36
  19  -7   0   -0.12    0.28
   7  19   0    0.33    0.25
   7  19   0    0.04    0.23
  19   7   0    0.00    0.19
  19  -7   0   -0.14    0.21
  -7  19   0    0.27    0.24
   7  19   2    1.60    0.38
  19  -7  -2    1.49    0.40
   7  19   2    1.52    0.40
 -19  -7   2    1.69    0.45
  -7  19  -2    1.77    0.38
  19   7   2    1.90    0.39
  19  -7  -2    1.71    0.37
   7 -19  -4   -0.36    0.26
  19  -7  -4   -0.04    0.31
  -7  19  -4    0.31    0.26
   7  19   4   -0.42    0.32
  19   7   4    0.49    0.30
 -19  -7   4   -0.11    0.27
  19   7   4    0.03    0.26
  19  -7  -4   -0.05    0.21
   7  19   4    0.57    0.33
   7 -19  -6    0.84    0.29
  19  -7  -6    0.33    0.29
  -7  19  -6    0.50    0.28
   7  19   6    0.39    0.28
  19   7   6    0.54    0.27
 -19  -7   6    0.74    0.35
  19   7   6    0.59    0.31
  19  -7  -6    1.19    0.34
   7 -19  -8    0.84    0.30
  19  -7  -8   -0.12    0.34
   7  19   8    1.03    0.35
  19   7   8    0.59    0.31
 -19  -7   8    0.50    0.32
  19  -7  -8    0.23    0.28
   8  19  -7    1.94    0.49
  -8 -19  -7    1.80    0.40
   8 -19   7    1.40    0.35
  19  -8   7    1.61    0.41
  19  -8   7    1.33    0.35
   8  19  -7    1.53    0.34
  -8  19   7    1.68    0.39
  19   8  -7    1.95    0.43
   8 -19   5    0.15    0.19
  19  -8   5    0.62    0.28
  19  -8   5    0.21    0.25
  -8  19   5    0.16    0.30
  19  -8   5    0.44    0.27
  19   8  -5    0.38    0.30
   8  19  -5    0.25    0.22
   8  19  -5   -0.04    0.31
  -8  19   3    2.42    0.46
   8  19  -3    2.18    0.41
  19  -8   3    2.53    0.48
  19  -8   3    2.26    0.41
  19   8  -3    1.85    0.40
  19  -8   1    0.29    0.27
 -19  -8  -1    0.04    0.29
  19  -8   1    0.13    0.21
  19   8  -1    0.28    0.27
   8  19  -1    0.08    0.24
  -8  19   1    0.31    0.29
  19  -8  -1    0.37    0.29
   8  19   1   -0.32    0.28
   8  19   1    0.05    0.24
 -19  -8   1    0.21    0.26
  19   8   1    0.11    0.27
  19  -8  -1    0.09    0.22
  -8  19  -1    0.30    0.29
   8 -19  -3    2.86    0.42
   8  19   3    2.21    0.45
  19  -8  -3    2.47    0.52
   8  19   3    2.70    0.46
  -8  19  -3    2.80    0.48
 -19  -8   3    2.42    0.51
  19   8   3    2.58    0.48
  19  -8  -3    1.89    0.39
   8 -19  -5    0.67    0.25
  19  -8  -5   -0.23    0.36
  -8  19  -5    1.09    0.34
   8  19   5   -0.02    0.24
  19   8   5    0.30    0.28
 -19  -8   5    0.72    0.38
  19   8   5    0.13    0.25
  19  -8  -5    0.52    0.27
   8 -19  -7    0.98    0.31
  19  -8  -7    2.62    0.57
   8  19   7    1.46    0.42
  19   8   7    1.99    0.41
 -19  -8   7    1.88    0.45
  19   8   7    1.22    0.37
  19  -8  -7    1.84    0.39
  -9  19   4    0.22    0.26
   9 -19   4    0.30    0.19
  19  -9   4    0.46    0.29
  19  -9   4    0.78    0.34
   9  19  -4    0.33    0.27
  19  -9   4    0.14    0.22
 -19  -9  -4   -0.18    0.35
  19   9  -4    0.48    0.30
   9  19  -4   -0.35    0.37
   9  19  -2    2.72    0.45
  19  -9   2    2.29    0.46
 -19  -9  -2    2.03    0.47
  19  -9   2    2.34    0.41
  19   9  -2    1.42    0.37
  -9  19   2    2.40    0.46
  19  -9   0    4.33    0.64
   9  19   0    4.86    0.61
 -19  -9   0    5.08    0.67
  19   9   0    4.85    0.60
  19  -9   0    5.04    0.58
  -9  19   0    5.88    0.66
   9  19   0    3.65    0.54
  19  -9  -2    1.91    0.46
   9  19   2    2.85    0.50
   9  19   2    2.14    0.44
  -9  19  -2    2.31    0.46
 -19  -9   2    2.17    0.51
  19   9   2    1.78    0.39
  19  -9  -2    2.58    0.41
   9 -19  -4    0.41    0.25
  19  -9  -4    0.34    0.38
  -9  19  -4   -0.17    0.29
   9  19   4    0.18    0.24
  19   9   4    0.22    0.26
 -19  -9   4    0.49    0.34
  19   9   4    0.07    0.22
  19  -9  -4    0.80    0.28
  10  19  -1    0.25    0.25
  19 -10   1    1.37    0.44
 -19 -10  -1    1.37    0.41
  19 -10   1    0.55    0.26
  19  10  -1    0.63    0.31
 -10  19   1    0.73    0.30
  19 -10  -1    1.04    0.37
  10  19   1    0.96    0.38
 -19 -10   1    0.24    0.27
  19  10   1    1.21    0.34
 -10  19  -1    1.45    0.40
  19 -10  -1    1.09    0.32
   0  20   0    2.84    0.50
  20   0   0    2.46    0.46
   0  20  -2    0.65    0.31
   0  20   2    0.22    0.26
  20   0   2    0.28    0.21
  20   0  -2    0.68    0.29
   0 -20  -4    0.45    0.28
  20   0   4    0.64    0.27
  20   0   4    0.38    0.29
  20   0  -4    1.03    0.37
   0  20  -4    0.51    0.26
   0  20   4    0.63    0.33
   0  20  -4    0.63    0.26
   0  20  -6   -0.35    0.30
   0 -20  -6    0.09    0.24
   0  20   6    0.23    0.28
  20   0   6    0.17    0.21
  20   0   6   -0.31    0.27
   0  20  -6   -0.01    0.24
  20   0  -6    0.07    0.24
   0  20  -8    1.13    0.36
   0 -20  -8    0.80    0.29
   0  20   8    0.09    0.32
  20   0   8    0.57    0.26
   0  20  -8    0.36    0.26
  20   0  -8    0.32    0.29
   1  20  -9    0.08    0.23
  -1 -20  -9    0.15    0.23
  20  -1   9    0.14    0.25
  -1  20   9    0.31    0.35
   1  20  -9    0.19    0.20
  20   1  -9    0.13    0.30
   1  20  -7    2.17    0.43
  -1 -20  -7    2.00    0.41
  -1  20   7    2.45    0.44
  20  -1   7    2.67    0.47
  20   1  -7    2.47    0.46
   1  20  -7    2.16    0.41
  -1  20   5    2.12    0.45
  -1 -20  -5    2.36    0.43
  20  -1   5    2.23    0.44
  20   1  -5    2.90    0.49
   1  20  -5    2.15    0.43
   1  20  -5    2.79    0.46
   1  20  -3    0.97    0.33
  20  -1   3    1.32    0.31
  -1  20   3    1.54    0.40
  20  -1   3    1.74    0.38
  20   1  -3    1.58    0.40
   1  20  -1    0.85    0.31
  -1  20   1    0.91    0.28
  20  -1   1    0.80    0.29
  20   1  -1    0.66    0.28
  -1  20  -1    0.59    0.28
   1  20   1    1.00    0.31
  20   1   1    0.54    0.27
  20  -1  -1    0.86    0.31
  20   1   3    1.45    0.32
  20   1   3    1.63    0.39
  20  -1  -3    0.99    0.32
   1  20   3    1.41    0.34
  -1  20  -3    0.87    0.27
   1 -20  -5    2.16    0.43
   1  20   5    2.94    0.54
  20   1   5    2.71    0.42
  20   1   5    2.16    0.43
  20  -1  -5    2.50    0.46
  -1  20  -5    2.42    0.46
  -1  20  -5    2.82    0.46
   1  20   7    3.34    0.55
  -1  20  -7    1.78    0.39
   1 -20  -7    2.09    0.43
  20   1   7    1.77    0.37
  20   1   7    2.24    0.42
  -1  20  -7    2.45    0.44
  20  -1  -7    1.88    0.40
  -1  20  -9    0.69    0.31
   1 -20  -9    0.45    0.28
   1  20   9    0.77    0.35
  20   1   9    0.55    0.25
   1  20   9   -0.18    0.27
  20   1   9   -0.07    0.23
  -1  20  -9    0.74    0.29
  20  -1  -9    0.28    0.29
   2  20  -8    0.96    0.34
  -2 -20  -8    0.88    0.32
  20  -2   8    2.15    0.44
  20  -2   8    0.94    0.35
  -2  20   8    1.69    0.44
  20   2  -8    1.92    0.43
   2  20  -8    1.44    0.38
   2  20  -6    1.48    0.37
  -2 -20  -6    1.35    0.38
  -2  20   6    1.55    0.39
  20  -2   6    1.15    0.34
  20   2  -6    1.23    0.37
   2  20  -6    0.33    0.26
   2  20  -4    0.03    0.24
  20  -2   4   -0.52    0.34
  -2  20   4    0.10    0.25
  20   2  -4   -0.23    0.29
   2  20  -4    0.02    0.26
   2  20  -2    3.09    0.49
  -2  20   2    2.01    0.41
  20  -2   2    2.47    0.47
  20   2  -2    3.53    0.53
  20  -2   0    6.05    0.66
  20   2   0    5.30    0.64
  -2  20   0    6.41    0.70
   2  20   0    7.06    0.72
   2  20   2    1.96    0.35
  20   2   2    2.94    0.49
  20  -2  -2    1.68    0.37
   2  20   2    2.15    0.43
  -2  20  -2    2.29    0.42
   2 -20  -4   -0.03    0.21
   2  20   4    0.31    0.27
   2  20   4   -0.04    0.22
  20   2   4   -0.13    0.22
  20   2   4   -0.27    0.30
  20  -2  -4    0.39    0.30
  -2  20  -4   -0.41    0.28
  -2  20  -4    0.22    0.20
  -2  20  -6    1.33    0.35
   2 -20  -6    1.34    0.38
   2  20   6    1.16    0.31
  20   2   6    1.28    0.31
  20   2   6    1.66    0.38
  -2  20  -6    1.73    0.40
  20  -2  -6    1.93    0.41
   2  20   6    1.89    0.43
   2  20   8    2.32    0.49
  -2  20  -8    2.31    0.43
   2 -20  -8    1.17    0.34
   2  20   8    1.22    0.35
  20   2   8    1.57    0.36
  -2  20  -8    1.75    0.38
  20   2   8    2.08    0.44
  20  -2  -8    1.73    0.44
   3  20  -7    0.49    0.29
  -3 -20  -7    0.23    0.23
  -3  20   7    0.17    0.26
  20  -3   7    0.31    0.28
  20  -3   7    0.19    0.27
  20   3  -7    0.69    0.35
   3  20  -7    0.12    0.20
  -3 -20  -5    1.63    0.37
   3  20  -5    2.43    0.44
  20  -3   5    2.62    0.46
  20   3  -5    1.97    0.43
  -3  20   5    2.37    0.46
   3  20  -5    2.50    0.47
  20  -3   3    6.32    0.65
  20   3  -3    5.87    0.69
   3  20  -3    6.46    0.69
  -3  20   3    6.50    0.70
  -3  20   1    1.77    0.42
   3  20  -1    0.99    0.29
   3  20  -1    1.37    0.30
  20  -3   1    1.36    0.36
  20   3  -1    1.13    0.32
  -3  20  -1    1.15    0.35
   3  20   1    0.98    0.30
  20   3   1    1.48    0.39
  20  -3  -1    1.13    0.37
   3  20   1    0.98    0.34
   3  20   3    5.93    0.68
   3  20   3    6.88    0.64
  20   3   3    6.84    0.66
  20   3   3    6.41    0.68
  20  -3  -3    5.55    0.64
  -3  20  -3    6.11    0.67
  -3  20  -3    5.32    0.60
  -3  20  -5    1.84    0.37
   3 -20  -5    1.43    0.34
   3  20   5    2.14    0.40
  20   3   5    2.08    0.40
  20   3   5    2.17    0.41
  -3  20  -5    2.38    0.43
  20  -3  -5    1.46    0.35
   3  20   5    1.98    0.43
  -3  20  -7   -0.04    0.20
   3 -20  -7    0.32    0.22
   3  20   7    0.33    0.28
  20   3   7   -0.22    0.25
  -3  20  -7    0.52    0.28
  20   3   7   -0.22    0.27
  20  -3  -7   -0.37    0.27
   3  20   7   -0.07    0.27
   4  20  -8    1.37    0.37
   4  20  -8    1.09    0.35
  -4 -20  -8    1.52    0.38
  20  -4   8    1.01    0.33
  -4  20   8    1.65    0.42
  20   4  -8    1.34    0.39
   4  20  -6    1.25    0.39
  -4 -20  -6    1.00    0.32
   4  20  -6    0.72    0.29
  20  -4   6    1.30    0.36
  20  -4   6    0.65    0.27
  20   4  -6    0.73    0.31
  -4  20   6    1.57    0.40
   4  20  -4    2.21    0.42
  -4  20   4    2.41    0.48
  20  -4   4    2.05    0.42
  20   4  -4    2.18    0.44
   4  20  -4    2.00    0.44
   4  20  -2    5.16    0.62
   4  20  -2    5.05    0.55
  20  -4   2    4.90    0.59
  20   4  -2    4.98    0.61
  -4  20   2    6.42    0.69
  -4  20   0    2.07    0.46
   4  20   0    1.61    0.34
  20   4   0    1.66    0.41
  20  -4   0    1.43    0.37
   4  20   0    1.79    0.38
   4  20   2    5.62    0.65
   4  20   2    5.06    0.57
  20   4   2    5.08    0.63
  20  -4  -2    4.18    0.56
  -4  20  -2    4.91    0.62
   4 -20  -4    1.68    0.36
   4  20   4    1.91    0.39
  20   4   4    2.12    0.42
  20   4   4    2.48    0.48
  -4  20  -4    1.76    0.40
  20  -4  -4    2.14    0.44
   4  20   4    1.99    0.46
  -4  20  -4    1.79    0.36
  -4  20  -6    1.15    0.33
   4 -20  -6    0.78    0.29
   4  20   6    0.95    0.33
  20   4   6    1.40    0.35
  -4  20  -6    0.99    0.34
  20   4   6    1.01    0.35
  20  -4  -6    1.18    0.35
   4  20   6    2.26    0.48
   4 -20  -8    1.54    0.37
  -4  20  -8    1.38    0.36
  -4  20  -8    1.44    0.36
   4  20   8    0.87    0.33
  20   4   8    1.63    0.37
  20   4   8    1.17    0.36
 -20  -4   8    1.44    0.41
  20  -4  -8    1.16    0.33
   4  20   8    1.47    0.45
  -5  20   7    2.98    0.54
   5  20  -7    2.58    0.48
  -5 -20  -7    2.34    0.47
   5  20  -7    2.02    0.43
  20  -5   7    1.95    0.43
  20  -5   7    2.18    0.42
  20  -5   7    2.10    0.43
  20   5  -7    2.04    0.42
   5  20  -5    2.51    0.45
  20  -5   5    2.28    0.46
  -5  20   5    2.17    0.43
  20  -5   5    2.01    0.40
  20   5  -5    2.50    0.45
   5  20  -5    2.42    0.49
  -5  20   3    0.50    0.29
  20  -5   3    0.98    0.35
   5  20  -3    0.74    0.29
  20  -5   3    0.21    0.22
  20   5  -3    0.95    0.35
  -5  20   1    3.10    0.50
   5  20  -1    3.29    0.46
  20  -5   1    3.53    0.51
  20   5  -1    3.72    0.56
   5  20  -1    3.65    0.55
   5  20   1    4.26    0.58
   5  20   1    2.98    0.45
  20   5   1    3.39    0.53
  20  -5  -1    3.50    0.51
  -5  20  -1    3.59    0.52
   5  20   3    0.15    0.23
  20   5   3    1.35    0.39
  -5  20  -3    0.96    0.32
  20  -5  -3    0.40    0.25
   5  20   3    1.34    0.40
  -5  20  -3    0.04    0.21
  -5  20  -5    2.01    0.39
   5 -20  -5    2.35    0.42
   5  20   5    1.85    0.41
  20   5   5    2.36    0.45
  -5  20  -5    2.18    0.46
  20   5   5    1.99    0.45
 -20  -5   5    2.04    0.48
  20  -5  -5    2.14    0.42
   5  20   5    2.68    0.50
   5  20   7    1.26    0.42
  -5  20  -7    1.43    0.34
   5 -20  -7    1.78    0.39
  -5  20  -7    1.65    0.43
   5  20   7    2.13    0.43
  20   5   7    2.47    0.45
  20   5   7    1.31    0.37
 -20  -5   7    1.54    0.43
  20  -5  -7    1.77    0.40
   6  20  -6    0.99    0.38
  20  -6   6    0.73    0.33
  20  -6   6    0.47    0.31
   6  20  -6    0.29    0.25
  20  -6   6   -0.20    0.26
  -6  20   6    0.09    0.29
  20   6  -6    0.58    0.31
  20  -6   4    1.42    0.40
  -6  20   4    1.24    0.38
  20  -6   4    0.97    0.32
   6  20  -4    1.34    0.36
  20   6  -4    1.20    0.36
   6  20  -4    1.01    0.31
  -6  20   2    2.27    0.47
  20  -6   2    2.48    0.50
   6  20  -2    2.25    0.42
  20  -6   2    2.45    0.42
  20   6  -2    2.78    0.48
   6  20  -2    3.39    0.52
   6  20   0    0.70    0.33
  20  -6   0    0.24    0.34
   6  20   0    0.49    0.30
  20   6   0    0.31    0.28
  20  -6   0    0.88    0.32
  -6  20   0    0.51    0.30
  20  -6  -2    1.79    0.48
   6  20   2    2.29    0.43
  20   6   2    2.19    0.43
  20  -6  -2    2.58    0.46
  -6  20  -2    2.17    0.45
   6  20   2    3.82    0.56
  -6  20  -2    2.65    0.41
   6 -20  -4    0.88    0.28
   6  20   4    0.68    0.29
  20   6   4    1.42    0.40
  20   6   4    0.59    0.24
 -20  -6   4    1.04    0.38
  20  -6  -4    0.97    0.33
   6  20   4    0.79    0.32
   6 -20  -6    0.57    0.25
  -6  20  -6    0.17    0.29
   6  20   6    0.80    0.27
  20   6   6    0.89    0.36
  20   6   6    0.60    0.30
 -20  -6   6    0.54    0.35
   6  20   6    0.95    0.38
  20  -6  -6    0.24    0.23
   7  20  -3    0.34    0.27
  -7  20   3    0.64    0.35
  20  -7   3    0.16    0.26
  20  -7   3    0.42    0.26
  20   7  -3    0.33    0.25
  -7  20   1    1.83    0.43
  20  -7   1    1.71    0.44
   7  20  -1    1.26    0.36
   7  20  -1    1.15    0.34
  20  -7   1    1.92    0.39
  20   7  -1    1.94    0.43
   7  20   1    1.29    0.39
  20  -7  -1    1.02    0.42
   7  20   1    1.18    0.35
 -20  -7   1    1.24    0.39
  20   7   1    1.31    0.40
  20  -7  -1    1.70    0.40
  -7  20  -1    1.34    0.38
   7  20   3   -0.03    0.31
  20  -7  -3    0.16    0.29
   7  20   3    0.63    0.30
  20   7   3    0.46    0.33
 -20  -7   3    0.22    0.34
  -7  20  -3    0.13    0.22
  20   7   3    0.35    0.23
  20  -7  -3   -0.15    0.24
   8  20   0    1.44    0.36
  20  -8   0    0.98    0.35
   8  20   0    2.01    0.42
 -20  -8   0    2.69    0.52
  20   8   0    1.37    0.39
  20  -8   0    1.90    0.39
  -8  20   0    1.30    0.39
   0  21  -1   -0.11    0.27
   0  21   1    0.55    0.34
  21   0   1    0.18    0.25
  21   0  -1    0.33    0.26
   0  21  -3    1.62    0.38
  21   0   3    1.77    0.37
  21   0   3    1.62    0.42
  21   0  -3    1.60    0.40
   0  21   3    1.25    0.35
   0 -21  -5    1.34    0.37
   0  21   5    0.71    0.36
  21   0   5    0.23    0.30
  21   0  -5    0.95    0.34
   0  21  -5    1.01    0.33
   0  21  -5    0.88    0.33
   1  21  -4    2.30    0.46
  21  -1   4    3.06    0.51
  21   1  -4    2.74    0.47
  -1  21   4    2.70    0.48
   1  21  -4    2.68    0.49
   1  21  -2    0.48    0.31
  -1  21   2    0.11    0.25
  21  -1   2   -0.27    0.25
  21   1  -2    0.14    0.23
  -1  21   0   -0.10    0.24
   1  21   0    0.17    0.24
  21   1   0    0.04    0.27
  21  -1   0    0.24    0.27
  -1  21  -2   -0.20    0.25
  21   1   2    0.51    0.31
  21  -1  -2    0.10    0.25
   1  21   2    0.37    0.30
   1  21   4    3.38    0.55
  21   1   4    2.95    0.44
  21   1   4    3.26    0.54
  21  -1  -4    2.99    0.51
  -1  21  -4    3.80    0.56
  -1  21  -4    2.47    0.45
   2  21  -5    1.01    0.36
  21  -2   5    1.48    0.38
  21   2  -5    1.03    0.36
  -2  21   5    0.99    0.37
   2  21  -5    0.94    0.35
   2  21  -3    0.09    0.26
  -2  21   3    0.03    0.23
  21  -2   3   -0.07    0.22
  21   2  -3    0.06    0.29
  -2  21   1   -0.38    0.28
   2  21  -1   -0.16    0.26
  21  -2   1   -0.01    0.24
  21   2  -1   -0.11    0.25
  -2  21  -1    0.41    0.24
  21   2   1    0.01    0.24
  21  -2  -1    0.15    0.22
   2  21   1    0.24    0.25
   2  21   3    0.15    0.28
  21   2   3   -0.13    0.26
  21   2   3   -0.05    0.27
  21  -2  -3    0.00    0.26
  -2  21  -3    0.17    0.22
  -2  21  -3   -0.40    0.27
  -2  21  -5    0.75    0.28
   2 -21  -5    1.14    0.35
  21   2   5    1.16    0.32
  21   2   5    1.16    0.44
   2  21   5    0.97    0.40
  21  -2  -5    1.16    0.34
  -2  21  -5    1.28    0.40
   3  21  -4    0.08    0.26
  21  -3   4    0.67    0.30
  -3  21   4    0.83    0.35
  21   3  -4    0.40    0.29
   3  21  -4    0.27    0.27
  -3  21   2    0.41    0.26
   3  21  -2    0.66    0.27
  21  -3   2    0.74    0.29
  21   3  -2    0.92    0.30
  -3  21   0    0.36    0.26
  21   3   0    0.41    0.28
  21  -3   0    0.29    0.24
   3  21   0   -0.12    0.28
   3  21   2    0.37    0.28
  21   3   2    0.37    0.28
  21  -3  -2    0.97    0.36
  -3  21  -2    0.37    0.29
   3 -21  -4   -0.34    0.30
  21   3   4    0.26    0.23
   3  21   4    0.05    0.26
  21   3   4    0.39    0.26
  21  -3  -4    0.26    0.22
  -3  21  -4    0.13    0.23
  -3  21  -4    0.52    0.28
  -4  21   3   -0.40    0.29
   4  21  -3   -0.10    0.26
  21  -4   3    0.60    0.30
  21   4  -3   -0.27    0.27
  -4  21   1    1.79    0.40
  21  -4   1    0.98    0.35
  21   4  -1    1.85    0.43
   4  21  -1    0.73    0.32
  -4  21  -1    1.95    0.43
   4  21   1    2.22    0.47
   4  21   1    1.41    0.34
  21   4   1    1.70    0.39
  21  -4  -1    2.01    0.46
   4  21   3    0.06    0.23
  21   4   3   -0.27    0.30
   4  21   3   -0.04    0.24
  21   4   3    0.41    0.31
  21  -4  -3    0.15    0.22
  -4  21  -3    0.52    0.32
  -4  21  -3    0.09    0.22
   0   0   0    0.00    0.00
;
_shelx_hkl_checksum              73898
loop_
_space_group_symop_operation_xyz
'x, y, z'
'y, -x, -z'
'-x, -y, z'
'-y, x, -z'
'x, -y, -z'
'-x, y, -z'
'-y, -x, z'
'y, x, z'
'x+1/2, y+1/2, z+1/2'
'y+1/2, -x+1/2, -z+1/2'
'-x+1/2, -y+1/2, z+1/2'
'-y+1/2, x+1/2, -z+1/2'
'x+1/2, -y+1/2, -z+1/2'
'-x+1/2, y+1/2, -z+1/2'
'-y+1/2, -x+1/2, z+1/2'
'y+1/2, x+1/2, z+1/2'
loop_
_atom_site_label
_atom_site_type_symbol
_atom_site_fract_x
_atom_site_fract_y
_atom_site_fract_z
_atom_site_U_iso_or_equiv
_atom_site_adp_type
_atom_site_occupancy
_atom_site_site_symmetry_order
_atom_site_calc_flag
_atom_site_refinement_flags_posn
_atom_site_refinement_flags_adp
_atom_site_refinement_flags_occupancy
_atom_site_disorder_assembly
_atom_site_disorder_group
Ag1 Ag 0.5000 0.5000 0.20384(5) 0.0337(2) Uani 1 4 d S T P . .
Ag2 Ag 0.6613(4) 0.4721(5) 0.1587(3) 0.0469(12) Uani 0.65 1 d . . . A 1
Ag2B Ag 0.6587(7) 0.4704(9) 0.1736(6) 0.0406(15) Uani 0.35 1 d . . . A 2
Ag3 Ag 0.58443(8) 0.5000 0.0000 0.0442(4) Uani 0.5 2 d S T P A .
S1 S 0.40088(9) 0.40088(9) 0.19857(13) 0.0356(5) Uani 1 2 d S T P A .
C1 C 0.3743(5) 0.3743(5) 0.2845(6) 0.055(3) Uani 1 2 d S T P . .
C2 C 0.2880(7) 0.3944(9) 0.2935(7) 0.101(5) Uani 1 1 d . . . . .
H2A H 0.2791 0.4465 0.2796 0.151 Uiso 1 1 calc GR . . . .
H2B H 0.2740 0.3889 0.3395 0.151 Uiso 1 1 calc GR . . . .
H2C H 0.2573 0.3603 0.2669 0.151 Uiso 1 1 calc GR . . . .
C3 C 0.4225(6) 0.4225(6) 0.3306(8) 0.087(5) Uani 1 2 d S T P A .
H3A H 0.4717 0.3985 0.3367 0.130 Uiso 0.5 1 calc GR . . B -1
H3B H 0.3970 0.4270 0.3728 0.130 Uiso 0.5 1 calc GR . . B -1
H3C H 0.4294 0.4727 0.3117 0.130 Uiso 0.5 1 calc GR . . B -1
S2 S 0.60201(11) 0.39799(11) 0.07135(13) 0.0446(6) Uani 1 2 d S T P . .
C4 C 0.6705(5) 0.3295(5) 0.0321(5) 0.057(3) Uani 1 2 d DS T P A .
C5 C 0.7237(8) 0.3739(8) -0.0122(8) 0.114(5) Uani 1 1 d D U . . .
H5A H 0.6946 0.3980 -0.0471 0.170 Uiso 1 1 calc GR . . A .
H5B H 0.7609 0.3396 -0.0313 0.170 Uiso 1 1 calc GR . . . .
H5C H 0.7497 0.4127 0.0134 0.170 Uiso 1 1 calc GR . . . .
C6 C 0.7147(5) 0.2853(5) 0.0850(7) 0.087(5) Uani 1 2 d DS T P . .
H6A H 0.7488 0.3197 0.1079 0.131 Uiso 0.5 1 calc GR . . A -1
H6B H 0.7440 0.2451 0.0643 0.131 Uiso 0.5 1 calc GR . . A -1
H6C H 0.6792 0.2632 0.1161 0.131 Uiso 0.5 1 calc GR . . A -1
O1 O 0.6912(12) 0.4024(8) 0.2692(10) 0.100(6) Uani 0.5 1 d D U . A -1
O2 O 0.626(2) 0.3004(17) 0.2399(17) 0.100(6) Uani 0.25 1 d D U . A -1
C7 C 0.6597(6) 0.3403(6) 0.2798(8) 0.089(5) Uani 1 2 d DS TU P . .
C8 C 0.6889(6) 0.3111(6) 0.3463(8) 0.097(6) Uani 1 2 d DS T P A .
F1 F 0.7425(7) 0.2575(7) 0.3353(15) 0.131(8) Uani 0.55 2 d DS TU P A 1
F1B F 0.6535(13) 0.3465(13) 0.3962(14) 0.145(11) Uani 0.45 2 d DS TU P A 2
F2 F 0.7239(17) 0.3642(15) 0.3825(14) 0.204(12) Uani 0.55 1 d D U . A 1
F2B F 0.7639(9) 0.318(2) 0.3522(18) 0.182(12) Uani 0.45 1 d D U . A 2
N1 N 0.7950(3) 0.4849(4) 0.1662(4) 0.0545(17) Uani 1 1 d . . . . .
C9 C 0.8299(4) 0.5497(5) 0.1494(5) 0.057(2) Uani 1 1 d . . . . .
H9 H 0.7994 0.5913 0.1370 0.068 Uiso 1 1 calc R . . . .
C10 C 0.9105(5) 0.5597(5) 0.1490(5) 0.061(2) Uani 1 1 d . . . . .
H10 H 0.9320 0.6070 0.1380 0.073 Uiso 1 1 calc R . . . .
C11 C 0.9572(4) 0.4972(5) 0.1655(4) 0.0505(17) Uani 1 1 d . . . . .
C12 C 0.9204(5) 0.4285(5) 0.1825(5) 0.055(2) Uani 1 1 d . . . . .
H12 H 0.9492 0.3851 0.1930 0.066 Uiso 1 1 calc R . . . .
C13 C 0.8405(5) 0.4252(5) 0.1836(4) 0.053(2) Uani 1 1 d . . . . .
H13 H 0.8172 0.3796 0.1970 0.064 Uiso 1 1 calc R . . . .
N2 N 1.0000 0.205(4) 0.0000 0.17(3) Uiso 0.3 2 d DS T P . .
C14 C 1.0000 0.270(3) 0.0000 0.091(16) Uiso 0.3 2 d DS T P . .
C15 C 1.0000 0.347(3) 0.0000 0.13(2) Uiso 0.3 2 d DS T P . .
H15A H 1.0403 0.3655 0.0285 0.193 Uiso 0.15 1 d R . . C -1
H15B H 0.9513 0.3655 0.0160 0.193 Uiso 0.15 1 d R . . C -1
H15C H 1.0083 0.3655 -0.0445 0.193 Uiso 0.15 1 d R . . C -1
loop_
_atom_site_aniso_label
_atom_site_aniso_U_11
_atom_site_aniso_U_22
_atom_site_aniso_U_33
_atom_site_aniso_U_23
_atom_site_aniso_U_13
_atom_site_aniso_U_12
Ag1 0.0278(3) 0.0278(3) 0.0454(6) 0.000 0.000 -0.0027(4)
Ag2 0.0332(9) 0.0498(10) 0.058(3) -0.0046(16) 0.0066(14) 0.0019(8)
Ag2B 0.0233(17) 0.0445(17) 0.054(4) -0.006(3) -0.001(2) 0.0043(14)
Ag3 0.0360(7) 0.0483(8) 0.0483(8) 0.0180(8) 0.000 0.000
S1 0.0328(7) 0.0328(7) 0.0413(13) 0.0035(7) 0.0035(7) -0.0061(9)
C1 0.061(5) 0.061(5) 0.043(6) 0.007(3) 0.007(3) -0.023(6)
C2 0.061(7) 0.164(14) 0.077(8) 0.032(8) 0.024(6) -0.023(7)
C3 0.106(8) 0.106(8) 0.048(8) 0.006(5) 0.006(5) -0.047(10)
S2 0.0498(9) 0.0498(9) 0.0341(13) 0.0008(7) -0.0008(7) 0.0128(11)
C4 0.069(5) 0.069(5) 0.032(6) -0.003(3) 0.003(3) 0.019(6)
C5 0.117(7) 0.118(7) 0.105(7) 0.020(6) 0.049(6) 0.028(6)
C6 0.095(9) 0.095(9) 0.073(10) 0.004(4) -0.004(4) 0.058(10)
O1 0.095(8) 0.109(9) 0.095(9) 0.007(7) -0.019(7) 0.000(7)
O2 0.095(8) 0.109(9) 0.095(9) 0.007(7) -0.019(7) 0.000(7)
C7 0.068(5) 0.068(5) 0.129(11) -0.001(6) 0.001(6) 0.009(7)
C8 0.106(9) 0.106(9) 0.078(12) 0.011(6) -0.011(6) 0.039(12)
F1 0.127(10) 0.127(10) 0.139(17) 0.027(10) -0.027(10) 0.020(14)
F1B 0.172(15) 0.172(15) 0.090(16) -0.008(12) 0.008(12) -0.01(2)
F2 0.19(2) 0.26(2) 0.165(17) -0.106(16) -0.094(15) 0.007(17)
F2B 0.099(14) 0.24(2) 0.20(2) 0.04(2) -0.086(15) -0.012(16)
N1 0.033(3) 0.059(4) 0.072(4) 0.003(4) -0.008(3) 0.004(3)
C9 0.036(4) 0.054(5) 0.080(6) 0.014(4) -0.007(4) 0.010(3)
C10 0.040(4) 0.055(5) 0.087(7) 0.017(5) 0.000(4) 0.000(3)
C11 0.033(4) 0.055(4) 0.063(5) -0.003(5) -0.007(3) 0.005(3)
C12 0.038(4) 0.048(5) 0.079(7) 0.002(4) -0.004(4) 0.005(3)
C13 0.040(4) 0.047(4) 0.072(6) 0.001(4) -0.008(4) -0.002(3)
loop_
_atom_type_symbol
_atom_type_description
_atom_type_scat_dispersion_real
_atom_type_scat_dispersion_imag
_atom_type_scat_source
C C 0.0033 0.0016 'International Tables Vol C Tables 4.2.6.8 and 6.1.1.4'
H H 0.0000 0.0000 'International Tables Vol C Tables 4.2.6.8 and 6.1.1.4'
Ag Ag -0.8971 1.1015 'International Tables Vol C Tables 4.2.6.8 and 6.1.1.4'
F F 0.0171 0.0103 'International Tables Vol C Tables 4.2.6.8 and 6.1.1.4'
N N 0.0061 0.0033 'International Tables Vol C Tables 4.2.6.8 and 6.1.1.4'
O O 0.0106 0.0060 'International Tables Vol C Tables 4.2.6.8 and 6.1.1.4'
S S 0.1246 0.1234 'International Tables Vol C Tables 4.2.6.8 and 6.1.1.4'
loop_
_exptl_crystal_face_index_h
_exptl_crystal_face_index_k
_exptl_crystal_face_index_l
_exptl_crystal_face_perp_dist
-2 -23 7 0.1033
2 24 -7 0.1049
2 6 28 0.0820
-2 -5 -29 0.0656
-24 0 -7 0.1082
24 0 7 0.1426
loop_
_geom_angle_atom_site_label_1
_geom_angle_atom_site_label_2
_geom_angle_atom_site_label_3
_geom_angle
_geom_angle_site_symmetry_1
_geom_angle_site_symmetry_3
Ag2 Ag1 Ag2 102.3(3) 8 .
Ag2 Ag1 Ag2 102.3(3) 3_665 7_665
Ag2 Ag1 Ag2 66.6(4) 3_665 8
Ag2 Ag1 Ag2 144.6(3) 3_665 .
Ag2 Ag1 Ag2 144.6(3) 8 7_665
Ag2 Ag1 Ag2 66.6(4) 7_665 .
Ag2B Ag1 Ag2B 107.4(6) 3_665 7_665
Ag2B Ag1 Ag2B 67.1(6) 7_665 .
Ag2B Ag1 Ag2B 155.6(5) 3_665 .
Ag2B Ag1 Ag2B 67.1(6) 3_665 8
Ag2B Ag1 Ag2B 107.4(6) 8 .
Ag2B Ag1 Ag2B 155.6(5) 8 7_665
S1 Ag1 Ag2 55.83(18) . 3_665
S1 Ag1 Ag2 122.36(18) . 8
S1 Ag1 Ag2 55.83(18) . 7_665
S1 Ag1 Ag2 55.83(18) 3_665 .
S1 Ag1 Ag2 55.83(18) 3_665 8
S1 Ag1 Ag2 122.36(18) 3_665 3_665
S1 Ag1 Ag2 122.36(18) . .
S1 Ag1 Ag2 122.36(18) 3_665 7_665
S1 Ag1 Ag2B 55.8(3) 3_665 .
S1 Ag1 Ag2B 122.9(3) 3_665 7_665
S1 Ag1 Ag2B 55.8(3) . 3_665
S1 Ag1 Ag2B 122.9(3) 3_665 3_665
S1 Ag1 Ag2B 122.9(3) . .
S1 Ag1 Ag2B 55.8(3) 3_665 8
S1 Ag1 Ag2B 122.9(3) . 8
S1 Ag1 Ag2B 55.8(3) . 7_665
S1 Ag1 S1 175.03(13) . 3_665
Ag1 Ag2 Ag2 56.71(18) . 7_665
S1 Ag2 Ag1 51.29(14) 3_665 .
S1 Ag2 Ag2 107.95(19) 3_665 7_665
S2 Ag2 Ag1 84.6(2) . .
S2 Ag2 Ag2 47.11(18) . 7_665
S2 Ag2 S1 120.2(3) . 3_665
S2 Ag2 O1 117.5(5) . .
O1 Ag2 Ag1 90.2(5) . .
O1 Ag2 Ag2 79.1(4) . 7_665
O1 Ag2 S1 102.6(5) . 3_665
N1 Ag2 Ag1 153.8(4) . .
N1 Ag2 Ag2 140.3(3) . 7_665
N1 Ag2 S1 108.3(4) . 3_665
N1 Ag2 S2 121.5(4) . .
N1 Ag2 O1 77.8(5) . .
Ag1 Ag2B Ag2B 56.4(3) . 7_665
S1 Ag2B Ag1 53.4(2) 3_665 .
S1 Ag2B Ag2B 109.7(3) 3_665 7_665
S1 Ag2B S2 115.6(5) 3_665 .
S2 Ag2B Ag1 83.7(4) . .
S2 Ag2B Ag2B 52.4(3) . 7_665
O1 Ag2B Ag1 98.6(7) . .
O1 Ag2B S1 112.8(7) . 3_665
O1 Ag2B S2 119.9(7) . .
O1 Ag2B N1 82.2(7) . .
N1 Ag2B Ag1 161.4(7) . .
N1 Ag2B Ag2B 140.9(4) . 7_665
N1 Ag2B S1 109.1(6) . 3_665
N1 Ag2B S2 112.2(5) . .
Ag3 Ag3 Ag3 45.0 2_565 3_665
Ag3 Ag3 Ag3 45.0 4_655 3_665
Ag3 Ag3 Ag3 90.0 2_565 4_655
Ag3 Ag3 S2 63.19(4) 2_565 .
Ag3 Ag3 S2 129.71(7) 2_565 4_655
Ag3 Ag3 S2 63.19(4) 4_655 4_655
Ag3 Ag3 S2 129.71(7) 4_655 .
S2 Ag3 Ag3 97.63(6) . 3_665
S2 Ag3 Ag3 97.63(6) 4_655 3_665
S2 Ag3 S2 164.73(11) 4_655 .
Ag1 S1 Ag2 72.88(19) . 3_665
Ag1 S1 Ag2 72.88(19) . 7_665
Ag1 S1 Ag2B 70.8(3) . 3_665
Ag1 S1 Ag2B 70.8(3) . 7_665
Ag2 S1 Ag2 128.2(4) 7_665 3_665
Ag2B S1 Ag2B 133.8(6) 3_665 7_665
C1 S1 Ag1 108.2(4) . .
C1 S1 Ag2 113.50(18) . 3_665
C1 S1 Ag2 113.50(18) . 7_665
C1 S1 Ag2B 107.8(3) . 7_665
C1 S1 Ag2B 107.8(3) . 3_665
C2 C1 S1 107.1(7) 8 .
C2 C1 S1 107.1(7) . .
C2 C1 C2 114.9(14) 8 .
C3 C1 S1 107.3(9) . .
C3 C1 C2 110.0(9) . .
C3 C1 C2 110.0(9) . 8
C1 C2 H2A 109.5 . .
C1 C2 H2B 109.5 . .
C1 C2 H2C 109.5 . .
H2A C2 H2B 109.5 . .
H2A C2 H2C 109.5 . .
H2B C2 H2C 109.5 . .
C1 C3 H3A 109.5 . .
C1 C3 H3B 109.5 . .
C1 C3 H3C 109.5 . .
H3A C3 H3B 109.5 . .
H3A C3 H3C 109.5 . .
H3B C3 H3C 109.5 . .
Ag2 S2 Ag2 85.8(4) 7_665 .
Ag2B S2 Ag2B 75.1(6) 7_665 .
Ag3 S2 Ag2 135.5(2) . 7_665
Ag3 S2 Ag2 95.7(2) 2_565 7_665
Ag3 S2 Ag2 135.5(2) 2_565 .
Ag3 S2 Ag2 95.7(2) . .
Ag3 S2 Ag2B 99.8(3) . .
Ag3 S2 Ag2B 99.8(3) 2_565 7_665
Ag3 S2 Ag2B 136.0(3) . 7_665
Ag3 S2 Ag2B 136.0(3) 2_565 .
Ag3 S2 Ag3 53.62(9) 2_565 .
C4 S2 Ag2 112.1(3) . 7_665
C4 S2 Ag2 112.1(3) . .
C4 S2 Ag2B 113.7(4) . 7_665
C4 S2 Ag2B 113.7(4) . .
C4 S2 Ag3 108.3(3) . .
C4 S2 Ag3 108.3(3) . 2_565
C5 C4 S2 108.5(8) 7_665 .
C5 C4 S2 108.5(8) . .
C5 C4 C5 106.4(16) 7_665 .
C5 C4 C6 111.4(9) . .
C5 C4 C6 111.4(9) 7_665 .
C6 C4 S2 110.6(8) . .
C4 C5 H5A 109.5 . .
C4 C5 H5B 109.5 . .
C4 C5 H5C 109.5 . .
H5A C5 H5B 109.5 . .
H5A C5 H5C 109.5 . .
H5B C5 H5C 109.5 . .
C4 C6 H6A 109.5 . .
C4 C6 H6B 109.5 . .
C4 C6 H6C 109.5 . .
H6A C6 H6B 109.5 . .
H6A C6 H6C 109.5 . .
H6B C6 H6C 109.5 . .
C7 O1 Ag2 118.0(13) . .
C7 O1 Ag2B 118.7(14) . .
C7 O2 Ag2 129(2) . 7_665
C7 O2 Ag2B 125(3) . 7_665
O1 C7 C8 107.2(12) . .
O2 C7 O1 127(2) . .
O2 C7 C8 123.6(19) . .
F1 C8 C7 108.7(17) . .
F1B C8 C7 110.8(19) . .
F2 C8 C7 113.9(16) 7_665 .
F2 C8 C7 113.9(16) . .
F2 C8 F1 104.9(16) 7_665 .
F2 C8 F1 104.9(16) . .
F2 C8 F2 110(3) 7_665 .
F2B C8 C7 112.3(16) 7_665 .
F2B C8 C7 112.3(16) . .
F2B C8 F1B 110(2) . .
F2B C8 F1B 110(2) 7_665 .
F2B C8 F2B 100(3) . 7_665
C9 N1 Ag2 121.3(5) . .
C9 N1 Ag2B 124.1(6) . .
C9 N1 C13 116.8(7) . .
C13 N1 Ag2 121.7(6) . .
C13 N1 Ag2B 119.0(6) . .
N1 C9 H9 117.9 . .
N1 C9 C10 124.1(8) . .
C10 C9 H9 117.9 . .
C9 C10 H10 120.6 . .
C11 C10 C9 118.7(8) . .
C11 C10 H10 120.6 . .
C10 C11 C11 121.9(9) . 3_765
C12 C11 C10 117.1(7) . .
C12 C11 C11 121.0(9) . 3_765
C11 C12 H12 120.1 . .
C13 C12 C11 119.8(8) . .
C13 C12 H12 120.1 . .
N1 C13 C12 123.3(8) . .
N1 C13 H13 118.3 . .
C12 C13 H13 118.3 . .
N2 C14 C15 180.0 . .
C14 C15 H15A 109.5 . .
C14 C15 H15B 109.5 . .
C14 C15 H15C 109.5 . .
H15A C15 H15B 109.5 . .
H15A C15 H15C 109.5 . .
H15B C15 H15C 109.5 . .
loop_
_geom_bond_atom_site_label_1
_geom_bond_atom_site_label_2
_geom_bond_distance
_geom_bond_site_symmetry_2
Ag1 Ag2 2.987(7) 8
Ag1 Ag2 2.987(7) 7_665
Ag1 Ag2 2.987(7) .
Ag1 Ag2 2.987(7) 3_665
Ag1 Ag2B 2.871(12) 3_665
Ag1 Ag2B 2.871(12) .
Ag1 Ag2B 2.871(12) 8
Ag1 Ag2B 2.871(12) 7_665
Ag1 S1 2.439(2) .
Ag1 S1 2.439(2) 3_665
Ag2 Ag2 3.279(17) 7_665
Ag2 S1 2.586(9) 3_665
Ag2 S2 2.409(8) .
Ag2 O1 2.58(2) .
Ag2 N1 2.338(10) .
Ag2B Ag2B 3.17(3) 7_665
Ag2B S1 2.515(14) 3_665
Ag2B S2 2.604(14) .
Ag2B O1 2.33(2) .
Ag2B N1 2.387(14) .
Ag3 Ag3 2.075(2) 4_655
Ag3 Ag3 2.075(2) 2_565
Ag3 Ag3 2.935(3) 3_665
Ag3 S2 2.301(2) .
Ag3 S2 2.301(2) 4_655
S1 Ag2 2.586(9) 3_665
S1 Ag2 2.586(9) 7_665
S1 Ag2B 2.515(14) 3_665
S1 Ag2B 2.515(14) 7_665
S1 C1 1.847(11) .
C1 C2 1.552(13) 8
C1 C2 1.552(13) .
C1 C3 1.50(2) .
C2 H2A 0.9600 .
C2 H2B 0.9600 .
C2 H2C 0.9600 .
C3 H3A 0.9600 .
C3 H3B 0.9600 .
C3 H3C 0.9600 .
S2 Ag2 2.409(8) 7_665
S2 Ag2B 2.604(14) 7_665
S2 Ag3 2.301(2) 2_565
S2 C4 1.859(12) .
C4 C5 1.499(10) 7_665
C4 C5 1.499(10) .
C4 C6 1.519(11) .
C5 H5A 0.9600 .
C5 H5B 0.9600 .
C5 H5C 0.9600 .
C6 H6A 0.9600 .
C6 H6B 0.9600 .
C6 H6C 0.9600 .
O1 C7 1.228(13) .
O2 Ag2 2.45(4) 7_665
O2 Ag2B 2.25(4) 7_665
O2 C7 1.213(14) .
C7 C8 1.518(13) .
C8 F1 1.337(14) .
C8 F1B 1.327(14) .
C8 F2 1.323(13) .
C8 F2 1.323(13) 7_665
C8 F2B 1.315(13) 7_665
C8 F2B 1.315(13) .
N1 C9 1.324(11) .
N1 C13 1.350(10) .
C9 H9 0.9300 .
C9 C10 1.412(12) .
C10 H10 0.9300 .
C10 C11 1.397(12) .
C11 C11 1.490(12) 3_765
C11 C12 1.396(12) .
C12 H12 0.9300 .
C12 C13 1.390(12) .
C13 H13 0.9300 .
N2 C14 1.12(3) .
C14 C15 1.35(3) .
C15 H15A 0.9600 .
C15 H15B 0.9600 .
C15 H15C 0.9600 .
loop_
_geom_torsion_atom_site_label_1
_geom_torsion_atom_site_label_2
_geom_torsion_atom_site_label_3
_geom_torsion_atom_site_label_4
_geom_torsion
_geom_torsion_site_symmetry_1
_geom_torsion_site_symmetry_2
_geom_torsion_site_symmetry_3
_geom_torsion_site_symmetry_4
Ag1 S1 C1 C2 118.1(8) . . . .
Ag1 S1 C1 C2 -118.1(8) . . . 8
Ag1 S1 C1 C3 0.000(2) . . . .
Ag2 S1 C1 C2 -163.1(8) 7_665 . . .
Ag2 S1 C1 C2 39.3(10) 3_665 . . .
Ag2 S1 C1 C2 -39.3(10) 7_665 . . 8
Ag2 S1 C1 C2 163.1(8) 3_665 . . 8
Ag2 S1 C1 C3 -78.8(3) 3_665 . . .
Ag2 S1 C1 C3 78.8(3) 7_665 . . .
Ag2 S2 C4 C5 -169.7(9) 7_665 . . .
Ag2 S2 C4 C5 -75.1(10) . . . .
Ag2 S2 C4 C5 75.1(10) 7_665 . . 7_665
Ag2 S2 C4 C5 169.7(9) . . . 7_665
Ag2 S2 C4 C6 -47.3(2) 7_665 . . .
Ag2 S2 C4 C6 47.3(2) . . . .
Ag2 O1 C7 O2 14(3) . . . .
Ag2 O1 C7 C8 178.3(11) . . . .
Ag2 O2 C7 O1 -48(4) 7_665 . . .
Ag2 O2 C7 C8 150(2) 7_665 . . .
Ag2 N1 C9 C10 -176.1(9) . . . .
Ag2 N1 C13 C12 173.7(7) . . . .
Ag2B S1 C1 C2 -43.0(10) 7_665 . . 8
Ag2B S1 C1 C2 -166.8(8) 7_665 . . .
Ag2B S1 C1 C2 43.0(10) 3_665 . . .
Ag2B S1 C1 C2 166.8(8) 3_665 . . 8
Ag2B S1 C1 C3 -75.1(3) 3_665 . . .
Ag2B S1 C1 C3 75.1(3) 7_665 . . .
Ag2B S2 C4 C5 80.7(10) 7_665 . . 7_665
Ag2B S2 C4 C5 164.1(9) . . . 7_665
Ag2B S2 C4 C5 -164.1(9) 7_665 . . .
Ag2B S2 C4 C5 -80.7(10) . . . .
Ag2B S2 C4 C6 -41.7(4) 7_665 . . .
Ag2B S2 C4 C6 41.7(4) . . . .
Ag2B O1 C7 O2 18(3) . . . .
Ag2B O1 C7 C8 -177.5(12) . . . .
Ag2B O2 C7 O1 -53(4) 7_665 . . .
Ag2B O2 C7 C8 145(2) 7_665 . . .
Ag2B N1 C9 C10 175.9(9) . . . .
Ag2B N1 C13 C12 -178.5(8) . . . .
Ag3 S2 C4 C5 -86.0(9) . . . 7_665
Ag3 S2 C4 C5 86.0(9) 2_565 . . .
Ag3 S2 C4 C5 -29.2(9) 2_565 . . 7_665
Ag3 S2 C4 C5 29.2(9) . . . .
Ag3 S2 C4 C6 151.63(7) . . . .
Ag3 S2 C4 C6 -151.63(7) 2_565 . . .
O1 C7 C8 F1 -101.3(14) . . . .
O1 C7 C8 F1B 78.7(14) . . . .
O1 C7 C8 F2 142(2) . . . 7_665
O1 C7 C8 F2 15(3) . . . .
O1 C7 C8 F2B -45(3) . . . .
O1 C7 C8 F2B -157(2) . . . 7_665
O2 C7 C8 F1 64(2) . . . .
O2 C7 C8 F1B -116(2) . . . .
O2 C7 C8 F2 -52(3) . . . 7_665
O2 C7 C8 F2 -180(3) . . . .
O2 C7 C8 F2B 120(3) . . . .
O2 C7 C8 F2B 8(3) . . . 7_665
N1 C9 C10 C11 1.9(17) . . . .
C9 N1 C13 C12 -2.1(14) . . . .
C9 C10 C11 C11 179.3(8) . . . 3_765
C9 C10 C11 C12 -1.0(15) . . . .
C10 C11 C12 C13 -1.2(14) . . . .
C11 C11 C12 C13 178.5(7) 3_765 . . .
C11 C12 C13 N1 2.9(15) . . . .
C13 N1 C9 C10 -0.3(16) . . . .
loop_
_exptl_oxdiff_crystal_face_indexfrac_h
_exptl_oxdiff_crystal_face_indexfrac_k
_exptl_oxdiff_crystal_face_indexfrac_l
_exptl_oxdiff_crystal_face_x
_exptl_oxdiff_crystal_face_y
_exptl_oxdiff_crystal_face_z
-2.0000 -23.0000 7.0002 -0.0134 0.0122 0.9802
2.0000 24.0000 -7.0002 0.0221 -0.0059 -1.0199
2.0000 6.0000 27.9998 0.9520 0.2887 -0.0009
-2.0000 -5.0000 -28.9999 -0.9743 -0.2940 -0.0475
-24.0000 -0.0000 -7.0000 -0.5806 0.8342 0.0057
24.0000 0.0000 7.0000 0.5806 -0.8342 -0.0057
