#------------------------------------------------------------------------------
#$Date: 2019-06-14 11:57:32 +0300 (Fri, 14 Jun 2019) $
#$Revision: 215978 $
#$URL: file:///home/coder/svn-repositories/cod/cif/1/55/14/1551440.cif $
#------------------------------------------------------------------------------
#
# This file is available in the Crystallography Open Database (COD),
# http://www.crystallography.net/
#
# All data on this site have been placed in the public domain by the
# contributors.
#
data_1551440
loop_
_publ_author_name
'Ren-Wu Huang'
'Yong-Sheng Wei'
'Xi-Yan Dong'
'Xiao-Hui Wu'
'Chen-Xia Du'
'Shuang-Quan Zang'
'Thomas C. W. Mak'
_publ_section_title
;
 Hypersensitive dual-function luminescence switching of a
 silver-chalcogenolate cluster-based metal-organic framework
;
_journal_name_full               'Nature Chemistry'
_journal_page_first              689
_journal_page_last               697
_journal_paper_doi               10.1038/nchem.2718
_journal_volume                  9
_journal_year                    2017
_chemical_absolute_configuration ad
_chemical_formula_moiety         'C80 H104 Ag12 F12 N8 O8 S8, 2(C8 H10)'
_chemical_formula_sum            'C96 H124 Ag12 F12 N8 O8 S8'
_chemical_formula_weight         3296.94
_space_group_crystal_system      tetragonal
_space_group_IT_number           121
_space_group_name_Hall           'I -4 2'
_space_group_name_H-M_alt        'I -4 2 m'
_atom_sites_solution_hydrogens   mixed
_atom_sites_solution_primary     direct
_cell_angle_alpha                90
_cell_angle_beta                 90
_cell_angle_gamma                90
_cell_formula_units_Z            2
_cell_length_a                   17.2348(3)
_cell_length_b                   17.2348(3)
_cell_length_c                   20.8923(9)
_cell_measurement_reflns_used    6006
_cell_measurement_temperature    100.3(5)
_cell_measurement_theta_max      27.7650
_cell_measurement_theta_min      3.6730
_cell_volume                     6205.8(3)
_computing_cell_refinement
;
CrysAlisPro, Agilent Technologies,
Version 1.171.37.35 (release 13-08-2014 CrysAlis171 .NET)
(compiled Aug 13 2014,18:06:01)
;
_computing_data_collection
;
CrysAlisPro, Agilent Technologies,
Version 1.171.37.35 (release 13-08-2014 CrysAlis171 .NET)
(compiled Aug 13 2014,18:06:01)
;
_computing_data_reduction
;
CrysAlisPro, Agilent Technologies,
Version 1.171.37.35 (release 13-08-2014 CrysAlis171 .NET)
(compiled Aug 13 2014,18:06:01)
;
_computing_molecular_graphics    'Olex2 (Dolomanov et al., 2009)'
_computing_publication_material  'Olex2 (Dolomanov et al., 2009)'
_computing_structure_refinement  'ShelXL (Sheldrick, 2015)'
_computing_structure_solution    'ShelXS (Sheldrick, 2008)'
_diffrn_ambient_environment      N~2~
_diffrn_ambient_temperature      100.3(5)
_diffrn_detector                 'CCD plate'
_diffrn_detector_area_resol_mean 16.2312
_diffrn_detector_type            Eos
_diffrn_measured_fraction_theta_full 0.993
_diffrn_measured_fraction_theta_max 0.995
_diffrn_measurement_details
;
#__ type_ start__ end____ width___ exp.time_
  1 omega  -22.00   23.60   0.8000   15.0000
omega____ theta____ kappa____ phi______ frames
    -      -15.1755  -99.0000  -90.0000 57

#__ type_ start__ end____ width___ exp.time_
  2 omega  -25.00    2.20   0.8000   15.0000
omega____ theta____ kappa____ phi______ frames
    -      -15.1755  -99.0000  150.0000 34

#__ type_ start__ end____ width___ exp.time_
  3 omega   58.00   89.20   0.8000   15.0000
omega____ theta____ kappa____ phi______ frames
    -       18.0661 -178.0000  150.0000 39

#__ type_ start__ end____ width___ exp.time_
  4 omega  -40.00   68.00   0.8000   15.0000
omega____ theta____ kappa____ phi______ frames
    -       18.0661    0.0000   90.0000 135

#__ type_ start__ end____ width___ exp.time_
  5 omega   -7.00   45.00   0.8000   15.0000
omega____ theta____ kappa____ phi______ frames
    -       18.0661  -99.0000   30.0000 65

#__ type_ start__ end____ width___ exp.time_
  6 omega   48.00   75.20   0.8000   15.0000
omega____ theta____ kappa____ phi______ frames
    -       18.0661  178.0000  -90.0000 34
;
_diffrn_measurement_device       'four-circle diffractometer'
_diffrn_measurement_device_type  'Xcalibur, Eos, Gemini'
_diffrn_measurement_method       '\w scans'
_diffrn_orient_matrix_UB_11      -0.0321114000
_diffrn_orient_matrix_UB_12      0.0173282000
_diffrn_orient_matrix_UB_13      0.0156800000
_diffrn_orient_matrix_UB_21      -0.0237347000
_diffrn_orient_matrix_UB_22      -0.0082266000
_diffrn_orient_matrix_UB_23      -0.0268911000
_diffrn_orient_matrix_UB_31      -0.0099672000
_diffrn_orient_matrix_UB_32      -0.0364151000
_diffrn_orient_matrix_UB_33      0.0135429000
_diffrn_radiation_monochromator  graphite
_diffrn_radiation_probe          x-ray
_diffrn_radiation_type           MoK\a
_diffrn_radiation_wavelength     0.71073
_diffrn_reflns_av_R_equivalents  0.0512
_diffrn_reflns_av_unetI/netI     0.0387
_diffrn_reflns_Laue_measured_fraction_full 0.993
_diffrn_reflns_Laue_measured_fraction_max 0.995
_diffrn_reflns_limit_h_max       21
_diffrn_reflns_limit_h_min       -21
_diffrn_reflns_limit_k_max       21
_diffrn_reflns_limit_k_min       -20
_diffrn_reflns_limit_l_max       25
_diffrn_reflns_limit_l_min       -26
_diffrn_reflns_number            17698
_diffrn_reflns_point_group_measured_fraction_full 0.984
_diffrn_reflns_point_group_measured_fraction_max 0.986
_diffrn_reflns_theta_full        25.250
_diffrn_reflns_theta_max         26.384
_diffrn_reflns_theta_min         3.343
_diffrn_source                   'Enhance (Mo) X-ray Source'
_exptl_absorpt_coefficient_mu    2.049
_exptl_absorpt_correction_T_max  1.00000
_exptl_absorpt_correction_T_min  0.85237
_exptl_absorpt_correction_type   multi-scan
_exptl_absorpt_process_details
;
CrysAlisPro, Agilent Technologies,
Version 1.171.37.35 (release 13-08-2014 CrysAlis171 .NET)
(compiled Aug 13 2014,18:06:01)
Empirical absorption correction using spherical harmonics,
 implemented in SCALE3 ABSPACK scaling algorithm.
;
_exptl_crystal_colour            colourless
_exptl_crystal_colour_primary    colourless
_exptl_crystal_density_diffrn    1.764
_exptl_crystal_description       block
_exptl_crystal_F_000             3240
_exptl_crystal_size_max          0.25
_exptl_crystal_size_mid          0.23
_exptl_crystal_size_min          0.18
_refine_diff_density_max         1.335
_refine_diff_density_min         -0.756
_refine_diff_density_rms         0.122
_refine_ls_abs_structure_details
;
 Flack x determined using 1064 quotients [(I+)-(I-)]/[(I+)+(I-)]
 (Parsons and Flack (2004), Acta Cryst. A60, s61).
;
_refine_ls_abs_structure_Flack   0.01(3)
_refine_ls_extinction_coef       .
_refine_ls_extinction_method     none
_refine_ls_goodness_of_fit_ref   1.083
_refine_ls_hydrogen_treatment    constr
_refine_ls_matrix_type           full
_refine_ls_number_parameters     201
_refine_ls_number_reflns         3295
_refine_ls_number_restraints     121
_refine_ls_restrained_S_all      1.086
_refine_ls_R_factor_all          0.0725
_refine_ls_R_factor_gt           0.0559
_refine_ls_shift/su_max          0.001
_refine_ls_shift/su_mean         0.000
_refine_ls_structure_factor_coef Fsqd
_refine_ls_weighting_details
;
 w=1/[\s^2^(Fo^2^)+(0.0539P)^2^+56.7557P]
 where P=(Fo^2^+2Fc^2^)/3
;
_refine_ls_weighting_scheme      calc
_refine_ls_wR_factor_gt          0.1293
_refine_ls_wR_factor_ref         0.1387
_reflns_Friedel_coverage         0.807
_reflns_Friedel_fraction_full    0.974
_reflns_Friedel_fraction_max     0.976
_reflns_number_gt                2730
_reflns_number_total             3295
_reflns_threshold_expression     'I > 2\s(I)'
_cod_data_source_file            nchem.2718-s23.cif
_cod_data_source_block           ag12bpy_o-xylene
_cod_database_code               1551440
_chemical_oxdiff_formula         C1H1O1N1S1Ag1
_shelx_space_group_comment
;
The symmetry employed for this shelxl refinement is uniquely defined
by the following loop, which should always be used as a source of
symmetry information in preference to the above space-group names.
They are only intended as comments.
;
_reflns_odcompleteness_completeness 99.59
_reflns_odcompleteness_iscentric 1
_reflns_odcompleteness_theta     26.32
_olex2_refinement_description
;
1. Fixed Uiso
 At 1.2 times of:
  All C(H) groups
 At 1.5 times of:
  All C(H,H,H) groups
2. Restrained distances
 C4-C5 = C4-C6 = C4-C7
 1.54 with sigma of 0.01
 C8-C9
 1.54 with sigma of 0.02
 C22-C15 = C21-C16
 1.5 with sigma of 0.02
 C9-F1 \\sim C9-F1B \\sim C9-F2 \\sim C9-F2B
 with sigma of 0.01
 C5-C6 \\sim C6-C7 \\sim C5-C7
 with sigma of 0.01
 O1-C8 \\sim C8-O2
 with sigma of 0.01
 C20-C22 \\sim C22-C16 \\sim C15-C21 \\sim C21-C17
 with sigma of 0.01
3. Restrained planarity
 C15, C16, C17, C20, C21, C22
 with sigma of 0.1
4. Uiso/Uaniso restraints and constraints
C8 \\sim O1 \\sim O2: within 2A with sigma of 0.01 and sigma for terminal atoms
of 0.02
C4 \\sim C6 \\sim C7: within 2A with sigma of 0.01 and sigma for terminal atoms
of 0.02
Uanis(F2) \\sim Ueq, Uanis(F2B) \\sim Ueq, Uanis(F1) \\sim Ueq, Uanis(F1B)
\\sim Ueq, Uanis(C6) \\sim Ueq, Uanis(C7) \\sim Ueq, Uanis(C9) \\sim Ueq,
Uanis(O1) \\sim Ueq, Uanis(C4) \\sim Ueq, Uanis(C5) \\sim Ueq, Uanis(Ag3B)
\\sim Ueq, Uanis(C3) \\sim Ueq: with sigma of 0.01 and sigma for terminal atoms
of 0.02
Uanis(F2) = Uanis(F2B)
Uanis(O1) = Uanis(O2)
Uanis(C6) = Uanis(C7)
Uiso(C19) = Uiso(C16) = Uiso(C15) = Uiso(C17) = Uiso(C22) = Uiso(C20) =
Uiso(C21) = Uiso(C18)
5. Others
 Fixed Sof: Ag3(0.215) Ag3B(0.035) H3A(0.5) H3B(0.5) H3C(0.5) H5A(0.5)
 H5B(0.5) H5C(0.5) C6(0.5) H6A(0.5) H6B(0.5) H6C(0.5) C7(0.5) H7A(0.5) H7B(0.5)
 H7C(0.5) O1(0.5) O2(0.5) F1(0.25) F1B(0.25) F2(0.5) F2B(0.5) C15(0.25)
 C16(0.25) C17(0.25) H17(0.25) C18(0.25) H18(0.25) C19(0.25) H19(0.25)
 C20(0.25) H20(0.25) C21(0.25) H21A(0.25) H21B(0.25) H21C(0.25) C22(0.25)
 H22A(0.25) H22B(0.25) H22C(0.25)
6.a Riding coordinates:
 C7(H7A,H7B,H7C), C21(H21A,H21B,H21C), C22(H22A,H22B,H22C)
6.b Aromatic/amide H refined with riding coordinates:
 C10(H10), C11(H11), C13(H13), C14(H14), C17(H17), C18(H18), C19(H19), C20(H20)
6.c Fitted hexagon refined as free rotating group:
 C15(C16,C17,C18,C19,C20)
6.d Idealised Me refined as rotating group:
 C2(H2A,H2B,H2C), C3(H3A,H3B,H3C), C5(H5A,H5B,H5C), C6(H6A,H6B,H6C)
Comments: Several groups in this structure involving silver atoms, 
trifluoroacetate, t-butyl mercaptan anions, and lattice o-xylene 
molecules were disordered. They were treated with different 
strategies according to the electron density distribution. For the 
cluster framework, relatively large residual densities were observed 
around the central Ag-Ag part. The related Ag was split over two 
sites with fixed occupancies of 0.43:0.07 and restrained ADP for 
the minor part with "ISOR 0.01 0.02", which gave rise to 
better refinement results. With this model, the entire central 
Ag-Ag was disordered over four parts. For the trifluoroacetate, 
two equal parts were assigned to model the disorder. The C-F 
and C-O distances were restrained to be the same with "SADI 0.01", 
respectively. The C-C bond length was restrained to be 1.54 
angstrom with "DFIX 1.54". Anisotropic displacement parameters 
were restrained with "ISOR 0.01 0.02" for all atoms in the 
trifluoroacetate apart from C8. F2 and F2B, as well as O1 and O2, 
were constrained to have the same ADPs, because their equivalent 
positions were very close to each other. For the two t-butyl 
mercaptan anions, only half of the anions were shown in the 
asymmetric unit. In the anion with S2, the three terminal carbon 
atoms with 0.5 occupancy were assigned, whereas in the 
anion with S1, only one full and one half terminal carbon atoms 
were assigned. The C-C distances in the t-butyl group were 
restrained using "DFIX 1.54 0.01", and the ADPs of the carbon 
atoms were also restrained using "ISOR 0.01 0.02" or 
"SIMU 0.01 0.02". Due to the close equivalent positions, the ADPs 
of C6 and C7 were constrained to also be the same. The lattice o-xylene 
molecules were heavily disordered because of the high lattice symmetry, 
the geometry of the guest, and the relatively large volume of the pore 
compared with the guest. More than one site for the o-xylene was 
observed from the difference Fourier map; however, only the main part 
was assigned with strong geometry restraints using "DFIX", 
"SADI 0.01" and "FLAT". All the atoms in this model were constrained 
to have the same isotropic displacement parameters. 
;
_shelx_res_file
;
TITL A in I-42m #121
REM reset to I-42m #121
CELL 0.71073 17.2348 17.2348 20.8923 90 90 90
ZERR 2 0.0003 0.0003 0.0009 0 0 0
LATT -2
SYMM +Y,-X,-Z
SYMM -X,-Y,+Z
SYMM -Y,+X,-Z
SYMM +X,-Y,-Z
SYMM -X,+Y,-Z
SYMM -Y,-X,+Z
SYMM +Y,+X,+Z
SFAC C H Ag F N O S
UNIT 192 248 24 24 16 16 16
DFIX 1.54 0.01 C4 C5 C4 C6 C4 C7
DFIX 1.54 C8 C9
DFIX 1.5 C22 C15 C21 C16
SADI 0.01 C9 F1 C9 F1B C9 F2 C9 F2B
SADI 0.01 C5 C6 C6 C7 C5 C7
SADI 0.01 O1 C8 C8 O2
SADI 0.01 C20 C22 C22 C16 C15 C21 C21 C17
FLAT C15 C16 C17 C20 C21 C22
SIMU 0.01 0.02 2 C8 O1 O2
SIMU 0.01 0.02 2 C4 C6 C7
ISOR 0.01 0.02 F2 F2B F1 F1B C6 C7 C9 O1 C4 C5 Ag3B C3
EADP F2 F2B
EADP O1 O2
EADP C6 C7
EADP C19 C16 C15 C17 C22 C20 C21 C18

L.S. 50
PLAN  3
BOND
MORE -1
BOND $H
CONF
fmap 2
acta 50.5
OMIT 0 2 4
OMIT 0 0 4
OMIT 0 4 8
REM <olex2.extras>
REM <HklSrc "%.\\Ag12bpy_o-xylene.hkl">
REM </olex2.extras>

WGHT    0.053900   56.755741
FVAR       0.02471
AG1   3    0.500000    0.500000    0.202131    10.25000    0.04129    0.04129 =
         0.05547    0.00000    0.00000   -0.00702
AG2   3    0.528462    0.660085    0.163610    11.00000    0.04965    0.03641 =
         0.07944   -0.00421   -0.00756   -0.00927
PART 1
AG3   3    0.500000    0.583624    0.000000    10.21500    0.06984    0.02522 =
         0.06085    0.00000   -0.03563    0.00000
PART 0
PART 2
AG3B  3    0.553774    0.553774   -0.026060    10.03500    0.06131    0.06131 =
         0.05134   -0.00715   -0.00715   -0.03326
PART 0
S1    7    0.599290    0.400710    0.197736    10.50000    0.04857    0.04857 =
         0.05896    0.01495   -0.01495   -0.00039
C1    1    0.625602    0.374398    0.280910    10.50000    0.09326    0.09326 =
         0.05842    0.02055   -0.02055   -0.00828
PART 1
C2    1    0.712408    0.392294    0.291645    11.00000    0.09894    0.21291 =
         0.08586    0.04885   -0.04744   -0.02021
AFIX 137
H2A   2    0.739331    0.345267    0.302281    11.00000   -1.50000
H2B   2    0.717787    0.428804    0.326063    11.00000   -1.50000
H2C   2    0.734081    0.413939    0.253267    11.00000   -1.50000
AFIX   0
PART 0
C3    1    0.575861    0.424139    0.327680    10.50000    0.12739    0.12739 =
         0.09948    0.03364   -0.03364   -0.01487
PART -1
AFIX 137
H3A   2    0.569699    0.475434    0.310503    10.50000   -1.50000
H3B   2    0.601412    0.427101    0.368437    10.50000   -1.50000
H3C   2    0.525805    0.400549    0.332933    10.50000   -1.50000
AFIX   0
PART 0
S2    7    0.600876    0.600876    0.071860    10.50000    0.07759    0.07759 =
         0.03956   -0.01312   -0.01312   -0.01328
C4    1    0.665568    0.665568    0.034507    10.50000    0.11509    0.11509 =
         0.08858    0.00619    0.00619   -0.00770
C5    1    0.713179    0.713179    0.082450    10.50000    0.07719    0.07719 =
         0.07934   -0.00685   -0.00685   -0.01836
PART -1
AFIX 137
H5A   2    0.741694    0.752548    0.060015    10.50000   -1.50000
H5B   2    0.748714    0.679660    0.104528    10.50000   -1.50000
H5C   2    0.678945    0.737145    0.112830    10.50000   -1.50000
AFIX   0
C6    1    0.719133    0.648538   -0.020761    10.50000    0.13489    0.13553 =
         0.07887   -0.00174    0.02823   -0.01138
AFIX 137
H6A   2    0.753538    0.606975   -0.009347    10.50000   -1.50000
H6B   2    0.748898    0.694062   -0.030669    10.50000   -1.50000
H6C   2    0.689080    0.633730   -0.057470    10.50000   -1.50000
AFIX   0
C7    1    0.607602    0.726468    0.007132    10.50000    0.13489    0.13553 =
         0.07887   -0.00174    0.02823   -0.01138
AFIX   3
H7A   2    0.597062    0.714288   -0.036818    10.50000   -1.50000
H7B   2    0.630642    0.777058    0.009822    10.50000   -1.50000
H7C   2    0.560042    0.725858    0.031022    10.50000   -1.50000
AFIX   0
O1    6    0.695052    0.614128    0.246684    10.50000    0.08960    0.09509 =
         0.08114   -0.01664   -0.00154   -0.01272
O2    6    0.593172    0.687864    0.271624    10.50000    0.08960    0.09509 =
         0.08114   -0.01664   -0.00154   -0.01272
PART 0
C8    1    0.657898    0.657898    0.281810    10.50000    0.08472    0.08472 =
         0.08012   -0.00988   -0.00988   -0.01718
C9    1    0.694450    0.694450    0.339457    10.50000    0.11957    0.11957 =
         0.11074   -0.00621   -0.00621    0.00683
PART 1
F1    4    0.748851    0.748851    0.322919    10.25000    0.12316    0.12316 =
         0.10489   -0.02747   -0.02747   -0.05783
PART 0
PART 2
F1B   4    0.657483    0.657483    0.388854    10.25000    0.17258    0.17258 =
         0.14489   -0.02246   -0.02246    0.01822
PART 0
PART 1
F2    4    0.730015    0.641353    0.377686    10.50000    0.11741    0.19059 =
         0.13309   -0.00614   -0.05645   -0.01025
PART 0
PART 2
F2B   4    0.760429    0.663809    0.363723    10.50000    0.11741    0.19059 =
         0.13309   -0.00614   -0.05645   -0.01025
PART 0
N1    5    0.514654    0.794456    0.166041    11.00000    0.06198    0.04360 =
         0.05798   -0.01412   -0.00251   -0.00940
C10   1    0.575409    0.841147    0.182769    11.00000    0.05355    0.04914 =
         0.06300   -0.01210   -0.00864   -0.00367
AFIX  43
H10   2    0.622042    0.818001    0.194475    11.00000   -1.20000
AFIX   0
C11   1    0.570865    0.919382    0.183089    11.00000    0.04618    0.04311 =
         0.05356    0.00157   -0.00805   -0.01060
AFIX  43
H11   2    0.614320    0.948268    0.194429    11.00000   -1.20000
AFIX   0
C12   1    0.502806    0.957598    0.166876    11.00000    0.05656    0.04375 =
         0.04209   -0.01083    0.01223   -0.00957
C13   1    0.440826    0.909710    0.150865    11.00000    0.04351    0.05459 =
         0.05798   -0.01282   -0.00128   -0.00167
AFIX  43
H13   2    0.393088    0.931252    0.140148    11.00000   -1.20000
AFIX   0
C14   1    0.450138    0.831003    0.150896    11.00000    0.04851    0.04658 =
         0.06108   -0.02001   -0.00305   -0.00821
AFIX  43
H14   2    0.407608    0.800902    0.139321    11.00000   -1.20000
AFIX  66

PART -1
C15   1    0.653666    1.033647   -0.008627    10.25000    0.11400
C16   1    0.687019    0.962122    0.005085    10.25000    0.11400
C17   1    0.640104    0.898103    0.016899    10.25000    0.11400
AFIX  43
H17   2    0.662420    0.850249    0.026074    10.25000   -1.20000
AFIX  65
C18   1    0.559837    0.905609    0.015001    10.25000    0.11400
AFIX  43
H18   2    0.528448    0.862776    0.022905    10.25000   -1.20000
AFIX  65
C19   1    0.526483    0.977133    0.001288    10.25000    0.11400
AFIX  43
H19   2    0.472779    0.982154    0.000018    10.25000   -1.20000
AFIX  65
C20   1    0.573397    1.041152   -0.010526    10.25000    0.11400
AFIX  43
H20   2    0.551081    1.089007   -0.019700    10.25000   -1.20000
AFIX   0
C21   1    0.772504    0.954122    0.006498    10.25000    0.11400
AFIX   3
H21A  2    0.786774    0.909042    0.030788    10.25000   -1.50000
H21B  2    0.794784    0.999422    0.025848    10.25000   -1.50000
H21C  2    0.791414    0.948972   -0.036503    10.25000   -1.50000
AFIX   0
C22   1    0.703762    1.100001   -0.026039    10.25000    0.11400
AFIX   3
H22A  2    0.757162    1.084291   -0.026209    10.25000   -1.50000
H22B  2    0.696022    1.138911    0.006221    10.25000   -1.50000
H22C  2    0.690302    1.120811   -0.067159    10.25000   -1.50000
AFIX   0
HKLF 4

REM  A in I-42m #121
REM R1 =  0.0559 for    2730 Fo > 4sig(Fo)  and  0.0725 for all    3295 data
REM    201 parameters refined using    121 restraints

END

WGHT      0.0548     56.6570

REM Highest difference peak  1.335,  deepest hole -0.756,  1-sigma level  0.122
Q1    1   0.5000  0.5000  0.2430  10.25000  0.05    1.33
Q2    1   0.6649  0.6649  0.2304  10.50000  0.05    1.10
Q3    1   0.5000  0.5000  0.5000  10.12500  0.05    0.84
;
_shelx_res_checksum              24449
_shelx_hkl_file
;
   0   0   4    0.98    0.12
   0   0  -6 1000.00   18.44
   0   0   6  984.67   18.43
   0   0  -8   35.20    1.03
   0   0   8   37.15    1.04
   0   0 -10    0.21    0.15
   0   0  10   -0.13    0.14
   0   0 -12  119.56    2.80
   0   0 -14    4.80    0.44
   0   0 -16    2.39    0.35
   0   0 -18    8.59    0.65
   0   0 -20    1.34    0.35
   0   0 -20    2.08    0.42
   0   0  20    1.11    0.26
   0   0 -22    6.38    0.72
   0   0 -24    1.39    0.43
   0   0 -26    0.55    0.30
   1   0   5  107.39    2.23
   0   1   5  105.56    2.14
   0  -1   5  105.99    2.16
   0  -1   5  105.49    2.25
   0  -1  -5  104.86    2.14
   0   1   7   14.03    0.50
   0  -1  -7   13.11    0.49
   0   1  -7   13.64    0.56
   1   0   7   14.22    0.55
  -1   0  -7   13.39    0.54
   1   0  -7   13.97    0.53
   0  -1   7   14.49    0.57
   1   0  -9   59.19    1.49
   0   1   9   59.24    1.44
   0  -1   9   56.76    1.53
   1   0   9   58.00    1.50
   0  -1  -9   54.19    1.42
  -1   0  -9   55.70    1.49
   0   1  -9   57.20    1.53
   1   0  11   25.93    0.94
   0   1 -11   26.99    0.99
   0  -1 -11   25.56    0.89
  -1   0 -11   25.84    0.95
   1   0 -11   27.68    0.95
   0   1  11   27.83    0.92
   0  -1 -13   12.54    0.64
   0   1 -13   12.29    0.68
  -1   0 -13   13.06    0.68
   0  -1  13   12.61    0.60
   1   0 -13   13.25    0.68
   0   1 -15   -0.14    0.23
   0  -1  15    0.04    0.18
  -1   0 -15    0.52    0.23
   1   0 -15   -0.25    0.22
   0  -1 -15    0.15    0.20
   1   0 -15    0.10    0.19
  -1   0 -17    0.59    0.26
   1   0 -17    0.21    0.22
   1   0 -17    0.66    0.28
   0  -1  17    0.42    0.23
   0  -1 -17    0.12    0.21
   0   1 -17    0.46    0.28
  -1   0  19    3.81    0.43
   1   0 -19    5.66    0.62
   0   1 -19    5.23    0.56
   1   0  19    4.93    0.41
   1   0 -19    4.62    0.50
   0  -1 -19    4.16    0.58
   0  -1  19    4.09    0.41
   0  -1 -21    1.49    0.36
   0  -1  21    0.82    0.24
   1   0 -21    0.97    0.33
  -1   0  21    0.87    0.27
   0   1 -21    0.90    0.32
   1   0 -21    0.33    0.24
   0   1 -21    0.90    0.32
  -1   0 -23    1.05    0.38
   1   0 -23    0.78    0.34
   0   1 -23    0.66    0.33
   1   0 -23    0.06    0.27
   0  -1 -23    0.93    0.36
   1   0 -25    3.22    0.60
   0   1 -25    2.88    0.55
   0  -1 -25    3.35    0.63
  -1   0 -25    2.83    0.60
   1   1 -26    0.25    0.34
  -1  -1 -26    0.91    0.37
   1   1 -24    0.71    0.34
  -1  -1 -24    0.54    0.30
   1   1 -24    0.75    0.35
   1   1 -22    3.42    0.54
   1   1 -22    2.81    0.47
  -1   1  22    2.56    0.40
  -1  -1 -22    2.63    0.52
   1   1 -20    1.38    0.36
   1  -1  20    2.25    0.30
   1   1 -20    1.87    0.39
   1  -1  18    0.60    0.19
   1   1 -18    0.61    0.27
   1   1 -18    0.67    0.28
   1   1 -16    0.22    0.23
   1  -1  16    0.26    0.18
   1   1 -16   -0.11    0.22
   1   1 -14    5.98    0.50
  -1  -1 -14    5.10    0.44
   1  -1  14    5.72    0.38
  -1  -1 -12    2.63    0.30
   1   1 -12    2.65    0.32
   1  -1  12    2.17    0.23
   1  -1  10   14.91    0.67
   1   1 -10   15.45    0.68
   1  -1  10   14.28    0.53
  -1  -1 -10   14.32    0.62
   1   1  -8   11.15    0.52
   1  -1   8   10.49    0.51
   1  -1   8   10.60    0.40
  -1  -1  -8   10.75    0.47
   1  -1   6   26.46    0.82
   1  -1   6   26.94    0.66
   1   1  -4   11.05    0.39
   1  -1   4   10.80    0.42
   1  -1  -4   10.76    0.44
   1   1   4   10.35    0.35
   1  -1  -6   22.10    0.63
   1   1   6   22.99    0.67
   1   1   8   10.83    0.47
  -1   1  -8   11.01    0.53
   1  -1  -8   10.58    0.44
   1   1  10   15.20    0.62
  -1   1 -10   13.74    0.66
   1  -1 -10   15.31    0.61
  -1   1 -12    2.37    0.32
   1  -1 -12    2.37    0.27
   1   1  12    2.25    0.27
   1  -1 -14    5.67    0.55
   1  -1 -14    5.83    0.45
  -1   1 -14    5.67    0.50
  -1  -1  16    0.15    0.22
   1  -1 -16    0.31    0.21
  -1   1 -16   -0.02    0.23
   1  -1 -16    0.50    0.27
   1  -1 -18    0.32    0.24
  -1  -1  18    0.42    0.22
  -1   1 -18   -0.01    0.24
   1  -1 -18    0.73    0.29
  -1   1 -20    1.21    0.34
  -1  -1  20    1.09    0.27
   1  -1 -20    1.72    0.34
   1  -1 -20    1.66    0.39
   1  -1 -22    2.23    0.45
   1  -1 -24    0.97    0.37
  -1   1 -24    1.23    0.45
   1  -1 -26    0.82    0.37
  -1   1 -26    0.53    0.34
   2   0  -4    5.18    0.28
   0  -2   4    5.06    0.30
   0  -2   4    5.82    0.26
   0  -2   6  124.46    2.72
   2   0   6  127.59    2.67
   0  -2  -6  121.85    2.50
   0   2   6  126.44    2.50
   2   0  -6  122.04    2.71
   0  -2   6  128.89    2.58
   0   2   8   12.21    0.45
   0  -2   8   12.20    0.58
   0  -2  -8   11.63    0.45
   2   0  -8   12.81    0.53
   0  -2   8   12.07    0.48
   2   0  -8   11.72    0.59
   2   0   8   12.21    0.55
   0   2  10   10.60    0.47
   0   2 -10   11.25    0.60
   2   0  10   10.57    0.55
   0  -2  10   11.08    0.50
   2   0 -10   10.69    0.52
   2   0 -10    8.95    0.57
   0  -2 -10    9.85    0.47
   2   0 -12    9.45    0.63
   2   0 -12    9.50    0.54
   0   2 -12    9.92    0.61
   0  -2 -12    9.61    0.50
   0  -2  12    9.88    0.50
   2   0  12    9.64    0.57
   2   0 -14    3.15    0.42
   0   2 -14    2.39    0.36
   0  -2 -14    3.02    0.32
   0  -2  14    2.71    0.30
   2   0 -14    2.92    0.35
   2   0 -16    0.59    0.25
   2   0 -16    0.72    0.25
   0  -2  16    0.93    0.23
   0   2 -16    0.83    0.31
   2   0 -18    0.59    0.26
   0  -2  18    0.40    0.21
   0  -2 -18    1.17    0.34
   2   0 -18    0.90    0.32
   0   2 -18    0.91    0.32
   2   0  18    0.99    0.22
   2   0 -20    1.97    0.43
  -2   0  20    2.14    0.37
   0   2 -20    2.79    0.44
   0   2 -20    1.83    0.38
   2   0 -20    1.99    0.38
   0  -2  20    1.95    0.30
   0  -2 -20    1.94    0.44
   0  -2 -22    0.80    0.36
  -2   0  22    0.92    0.31
   2   0 -22    1.26    0.36
   0   2 -22    1.59    0.40
   2   0 -22    1.06    0.33
   0   2 -22    0.65    0.31
   2   0 -24    0.62    0.33
   0   2 -24    0.23    0.28
   2   0 -24    0.36    0.29
   0  -2 -24    0.09    0.28
   2   0 -26    0.84    0.34
   0   2 -26    0.29    0.26
   0  -2 -26    0.80    0.38
  -1  -2 -25    0.88    0.37
   2   1 -25    0.30    0.33
   1   2 -25    0.19    0.30
  -2  -1 -25    0.92    0.34
   2   1 -25    1.02    0.38
   1   2 -25    0.70    0.27
   2   1 -23    0.98    0.36
  -1  -2 -23    0.28    0.32
   1   2 -23    0.53    0.32
   2   1 -23    0.51    0.30
   1   2 -23    0.12    0.25
   2   1 -21    0.42    0.30
   2   1 -21   -0.12    0.26
   1   2 -21    0.03    0.24
   1   2 -19    1.34    0.36
   2  -1  19    1.09    0.21
   1  -2  19    1.46    0.25
   2   1 -19    1.39    0.35
   2   1 -19    1.39    0.35
   1   2 -19    1.56    0.36
   1   2 -17    1.16    0.31
   1  -2  17    0.68    0.20
   1   2 -17    1.20    0.30
   2   1 -17    1.77    0.34
   2  -1  17    0.83    0.18
   2   1 -17    1.17    0.31
   2   1 -15    9.30    0.63
   1  -2  15    8.59    0.49
   2   1 -15    8.22    0.65
   2  -1  15    9.03    0.44
   1   2 -15    9.94    0.67
   2  -1  13    2.61    0.22
   2   1 -13    2.00    0.30
   1   2 -13    2.20    0.32
   1  -2  13    2.30    0.25
   2   1 -13    2.53    0.34
   1   2 -11   15.36    0.73
   1  -2  11   14.73    0.56
   2  -1  11   13.78    0.69
   2  -1  11   14.93    0.50
   2   1 -11   16.10    0.71
   2   1 -11   14.47    0.74
   2  -1   9   20.72    0.57
   2  -1   9   21.91    0.82
   1  -2   9   21.08    0.64
   2   1  -9   20.94    0.83
   1  -2   9   21.07    0.82
   2   1  -9   22.04    0.79
   1   2  -9   20.79    0.81
   2  -1   7    9.87    0.48
   2   1  -7    9.54    0.47
   1  -2   7   10.38    0.36
   1  -2   7   10.59    0.51
   2  -1   7    8.60    0.27
   1  -2   5   32.97    0.95
   1  -2   5   34.25    0.78
   2   1  -5   30.76    0.88
   2  -1   5   33.58    0.94
   2  -1   3   12.66    0.45
  -1  -2  -3   13.32    0.38
   2   1  -3   11.85    0.39
   1   2  -3   12.13    0.35
  -2   1   3   13.21    0.33
   1  -2   3   12.77    0.47
   1  -2  -3   13.51    0.48
  -2  -1   3   13.04    0.44
  -1  -2   3   13.83    0.46
   2  -1  -3   12.90    0.46
   2  -1  -5   31.69    0.94
   1  -2  -5   32.65    0.73
   1   2   5   31.55    0.78
   1  -2  -5   31.46    0.96
  -1   2  -5   33.22    0.77
   2  -1  -5   31.97    0.76
  -1  -2   5   33.67    0.89
   2  -1  -7    8.84    0.49
   1  -2  -7    9.65    0.36
   2   1   7    8.86    0.42
   1   2   7    9.01    0.38
  -1  -2   7    9.35    0.44
   1  -2  -7    8.38    0.50
   1   2   9   21.85    0.71
  -2   1  -9   20.32    0.81
   2  -1  -9   19.10    0.84
  -1   2  -9   20.57    0.82
   1  -2  -9   20.83    0.67
   2  -1  -9   20.90    0.70
   2   1   9   21.70    0.76
  -1  -2   9   20.62    0.76
   2  -1 -11   16.47    0.66
   1  -2 -11   15.87    0.62
   1  -2 -11   15.29    0.81
  -2   1 -11   15.50    0.74
  -1   2 -11   16.55    0.77
   2   1  11   15.41    0.68
   2  -1 -11   14.22    0.77
   1   2  11   15.67    0.63
  -1  -2  11   14.65    0.66
   1  -2 -13    2.55    0.39
   1  -2 -13    2.37    0.29
  -1   2 -13    1.90    0.34
   1   2  13    2.10    0.26
  -1  -2  13    2.45    0.31
   2  -1 -13    2.38    0.29
  -2   1 -13    2.10    0.32
   2   1  13    2.58    0.30
   2  -1 -13    2.68    0.37
   2  -1 -15    8.54    0.69
   1  -2 -15    9.05    0.55
  -1  -2  15    8.35    0.56
  -2   1 -15    9.12    0.65
   1  -2 -15    9.47    0.74
   2  -1 -15    9.31    0.59
  -1   2 -15    9.95    0.68
   2  -1 -17    1.60    0.33
   1  -2 -17    1.17    0.28
   2  -1 -17    1.80    0.37
   1  -2 -17    0.92    0.32
  -1  -2  17    0.79    0.25
  -2  -1  17    0.94    0.30
  -1   2 -17    1.21    0.34
   1  -2 -19    1.27    0.37
  -2  -1  19    1.88    0.36
   2  -1 -19    1.54    0.33
  -1   2 -19    1.35    0.35
   1  -2 -19    1.16    0.28
  -1  -2  19    0.93    0.24
   2  -1 -19    1.36    0.36
  -1  -2  21    0.42    0.24
  -1   2 -21   -0.22    0.31
   2  -1 -21    0.18    0.30
   2  -1 -21   -0.25    0.25
   1  -2 -21    0.69    0.32
  -2  -1  21   -0.25    0.25
   1  -2 -23    0.14    0.28
  -1   2 -23    0.20    0.28
   2  -1 -23    0.17    0.24
   2  -1 -23    0.51    0.31
  -2   1 -25    0.20    0.28
   1  -2 -25    0.19    0.30
  -1   2 -25    0.42    0.34
   2   2 -24    0.26    0.30
  -2  -2 -24    0.14    0.29
   2   2 -24    0.56    0.31
   2   2 -22    1.11    0.37
   2   2 -22    0.44    0.28
   2   2 -20    2.57    0.46
   2   2 -20    2.18    0.41
   2   2 -18    4.03    0.49
   2   2 -18    3.55    0.47
   2  -2  18    3.46    0.31
   2   2 -16    6.11    0.55
   2   2 -16    4.68    0.50
   2  -2  16    5.11    0.35
   2   2 -14   10.90    0.68
   2   2 -14   10.71    0.69
   2  -2  14    9.80    0.45
   2   2 -12   40.99    1.32
   2  -2  12   36.58    0.98
   2   2 -12   38.38    1.32
   2  -2  10   48.53    1.14
   2   2 -10   47.06    1.44
   2   2 -10   53.70    1.48
   2  -2  10   50.47    1.50
   2   2  -8   13.79    0.60
   2  -2   8   13.47    0.64
   2  -2   8   14.91    0.43
   2   2  -8   15.36    0.64
  -2  -2  -6   20.66    0.52
   2   2  -6   19.08    0.64
   2  -2   6   19.60    0.73
   2  -2   4   23.25    0.73
   2   2  -4   22.09    0.61
   2   2  -2   23.78    0.56
   2  -2   2   24.01    0.61
   2  -2   2   25.47    0.69
   2  -2   2   25.61    0.65
   2  -2   0    8.46    0.31
   2  -2  -2   25.43    0.65
  -2  -2   2   26.17    0.73
   2  -2  -2   25.66    0.70
  -2  -2   2   25.07    0.72
  -2   2  -4   21.49    0.52
  -2  -2   4   22.51    0.61
  -2   2  -4   23.98    0.58
   2  -2  -4   21.49    0.71
   2   2   4   21.88    0.55
  -2  -2   4   22.49    0.71
  -2   2  -6   17.71    0.46
   2  -2  -6   18.48    0.71
  -2  -2   6   17.89    0.67
   2  -2  -6   17.94    0.47
   2  -2  -8   13.66    0.68
   2  -2  -8   15.39    0.51
  -2  -2   8   15.14    0.64
   2   2   8   14.07    0.55
  -2   2 -10   47.65    1.48
   2  -2 -10   47.83    1.56
   2  -2 -10   50.09    1.28
   2   2  10   51.58    1.36
  -2  -2  10   49.26    1.43
   2  -2 -12   34.47    1.35
  -2   2 -12   36.98    1.29
   2  -2 -12   34.52    1.07
   2   2  12   35.98    1.13
  -2  -2  12   34.43    1.19
  -2  -2  14    9.75    0.62
   2  -2 -14   10.45    0.75
  -2   2 -14   10.40    0.69
   2   2  14   10.35    0.59
   2  -2 -14   10.44    0.56
   2  -2 -16    5.29    0.44
   2  -2 -16    4.56    0.55
  -2  -2  16    4.20    0.44
  -2   2 -16    5.32    0.54
   2  -2 -18    2.69    0.45
  -2   2 -18    3.87    0.49
  -2  -2  18    3.48    0.43
   2  -2 -18    3.12    0.37
   2  -2 -20    2.05    0.44
   2  -2 -20    2.39    0.37
  -2  -2  20    2.16    0.36
  -2  -2  22    1.07    0.31
   2  -2 -22    0.62    0.34
   2  -2 -24    0.50    0.34
   0  -3  -1    8.17    0.29
   0  -3  -1    8.02    0.32
   0  -3  -1    7.84    0.28
   3   0  -1    8.03    0.32
   3   0   1    7.46    0.32
   3   0  -3  127.36    2.71
   0  -3   3  135.38    2.70
  -3   0   3  133.93    2.66
   0  -3  -3  134.56    2.77
   0   3   5   31.82    0.72
   0  -3   5   34.88    0.90
   3   0  -5   33.69    0.87
  -3   0   5   34.87    0.87
   0   3  -5   34.32    0.88
   3   0  -5   33.94    0.96
   0  -3   7    0.87    0.17
   0   3   7    0.97    0.11
   3   0  -7    0.69    0.17
  -3   0   7    1.15    0.20
   0   3  -7    0.96    0.17
   3   0   7    0.71    0.17
   3   0  -7    0.91    0.17
   0   3   9    5.38    0.28
   3   0  -9    5.19    0.40
   0  -3   9    4.99    0.33
   3   0   9    5.26    0.38
   3   0  -9    5.04    0.34
   3   0 -11    0.35    0.16
   3   0 -11    0.29    0.17
   0  -3  11    0.12    0.13
   3   0 -11    0.32    0.18
   3   0  11    0.21    0.15
   0   3 -11    0.32    0.21
   0  -3  13    0.94    0.22
   0   3 -13    1.24    0.29
   3   0 -13    1.34    0.27
   3   0 -13    0.94    0.28
   3   0 -15    1.39    0.28
   3   0  15    1.58    0.19
   3   0 -15    1.38    0.30
   0  -3  15    1.41    0.26
   0   3 -15    1.77    0.35
   0  -3 -17    0.62    0.32
   3   0 -17    0.43    0.24
   0   3 -17    0.43    0.29
   0  -3  17    0.64    0.22
   3   0  17    0.85    0.18
   3   0 -17    0.69    0.26
   3   0 -19    1.93    0.37
   0  -3  19    1.66    0.28
   3   0 -19    2.50    0.43
   0  -3 -19    2.20    0.46
   0   3 -19    1.71    0.39
  -3   0  21   -0.51    0.32
   0  -3 -21    0.41    0.30
   3   0 -21   -0.09    0.27
   0   3 -21    0.04    0.23
   0   3 -21    0.00    0.29
   3   0 -21    0.44    0.25
   3   0 -23    0.14    0.24
   3   0 -23    0.46    0.28
   0  -3 -23    0.84    0.36
   0   3 -23    0.54    0.36
   0   3 -23    0.15    0.25
  -3   0  23   -0.21    0.28
   0   3 -25    0.26    0.29
   3   0 -25    0.68    0.34
   0   3 -25   -0.08    0.33
   0  -3 -25    0.44    0.33
   3   1 -24   -0.17    0.29
  -1  -3 -24   -0.34    0.34
   1   3 -24   -0.93    0.38
   3   1 -24   -0.34    0.26
   3   1 -22    0.02    0.27
  -1  -3 -22    0.24    0.28
   1   3 -22    0.41    0.26
   3   1 -22    0.30    0.28
   1   3 -22    0.23    0.28
   3   1 -20    1.99    0.38
   3   1 -20    2.83    0.48
   1   3 -20    2.94    0.47
   1   3 -20    2.26    0.42
   1   3 -18    3.24    0.46
   1  -3  18    2.20    0.28
   3   1 -18    2.75    0.41
   3  -1  18    2.44    0.22
   3   1 -18    2.13    0.39
   1   3 -18    2.33    0.39
   3  -1  16    3.31    0.24
   3   1 -16    4.15    0.46
   3   1 -16    2.82    0.42
   1   3 -16    3.25    0.44
   1  -3  16    3.40    0.32
   1   3 -16    4.23    0.49
   3   1 -14    4.30    0.43
   1   3 -14    3.95    0.45
   3  -1  14    3.37    0.22
   3   1 -14    3.78    0.45
   1  -3  14    2.63    0.28
   3   1 -12    8.89    0.55
   3  -1  12    8.52    0.32
   1  -3  12    9.61    0.46
   1   3 -12   10.32    0.63
   3   1 -12    9.18    0.60
   3   1 -12    9.51    0.56
   3   1 -10   27.03    1.00
   3   1 -10   28.28    0.96
   1  -3  10   29.59    0.82
   3   1 -10   29.65    0.97
   3  -1  10   28.98    1.02
   1   3 -10   29.55    1.04
   1  -3   8   10.75    0.57
   1  -3   8   10.86    0.43
   3  -1   8   10.25    0.54
   3   1  -8   10.79    0.54
   3   1  -8   10.31    0.51
   1  -3   6    0.95    0.19
   3  -1   6    0.57    0.15
   1  -3   6    1.14    0.14
   3   1  -6    0.88    0.16
   1   3  -6    0.87    0.17
   3   1  -6    0.81    0.17
  -3   1   4   24.18    0.59
   3  -1   4   21.12    0.51
  -1  -3  -4   23.49    0.65
   1  -3   4   22.73    0.74
   3   1  -4   22.88    0.67
   3  -1   2   29.72    0.78
  -1  -3  -2   28.06    0.80
   1  -3   2   28.61    0.79
   1  -3   2   27.34    0.73
   3   1  -2   27.71    0.72
   1  -3   2   28.73    0.66
  -3  -1  -2   28.44    0.70
  -1  -3  -2   29.09    0.74
  -3  -1   0   20.84    0.60
   3   1   0   20.15    0.57
  -1  -3   0   20.67    0.59
   1  -3   0   20.65    0.60
  -3  -1   0   20.64    0.49
   1  -3   0   21.19    0.53
   3  -1   0   21.74    0.61
   1  -3   0   21.21    0.55
  -1  -3   2   28.82    0.79
   3  -1  -2   28.73    0.64
  -3  -1   2   27.72    0.81
   1  -3  -2   29.51    0.77
   3  -1  -2   27.33    0.77
  -1   3  -2   28.97    0.67
   1  -3  -2   28.30    0.78
   3  -1  -4   23.19    0.76
   1  -3  -4   25.62    0.80
  -1  -3   4   24.72    0.74
   1  -3  -4   24.24    0.77
   3   1   4   26.27    0.61
  -1   3  -4   23.96    0.66
  -3  -1   4   24.73    0.73
   3  -1  -6    0.98    0.18
   1  -3  -6    0.96    0.20
  -3  -1   6    1.01    0.16
   1  -3  -6    0.97    0.09
  -1  -3   6    1.14    0.19
   1   3   6    1.14    0.13
  -1   3  -6    1.08    0.14
   3  -1  -6    1.14    0.14
   3  -1  -8    9.79    0.55
   1  -3  -8   10.25    0.59
   1   3   8   10.69    0.41
   3   1   8   10.51    0.50
  -1  -3   8   10.75    0.50
   1  -3  -8   10.44    0.37
   3  -1  -8    9.78    0.42
   3  -1 -10   27.94    0.89
   3  -1 -10   28.23    1.09
  -1  -3  10   29.99    0.98
   1  -3 -10   28.52    0.82
   3  -1 -10   31.01    0.94
  -1   3 -10   31.91    1.12
   1   3  10   30.65    0.89
   3   1  10   30.52    1.01
   1  -3 -10   28.58    1.16
   1   3  12   10.08    0.49
   3  -1 -12    9.27    0.50
   3  -1 -12   10.29    0.67
   1  -3 -12    9.57    0.46
   3   1  12    9.18    0.55
  -1  -3  12    9.43    0.54
   1  -3 -12    9.81    0.68
   3  -1 -12    9.89    0.52
  -1   3 -12   10.98    0.66
   1  -3 -14    3.45    0.45
   3  -1 -14    4.05    0.38
   1  -3 -14    3.27    0.32
   3  -1 -14    3.43    0.43
  -1   3 -14    3.94    0.46
  -1  -3  14    2.75    0.34
   1   3  14    2.69    0.29
   1  -3 -16    3.47    0.35
   3  -1 -16    2.86    0.36
  -1   3 -16    4.19    0.51
   1  -3 -16    3.41    0.49
   3  -1 -16    3.25    0.39
  -1  -3  16    3.18    0.38
   3  -1 -16    3.58    0.48
  -3  -1  16    3.05    0.41
   1  -3 -18    2.42    0.43
  -3  -1  18    3.14    0.42
  -1   3 -18    3.12    0.47
   3  -1 -18    2.78    0.45
   3  -1 -18    3.09    0.40
  -1  -3  18    2.64    0.37
  -1  -3  20    2.32    0.35
  -1   3 -20    2.98    0.48
   3  -1 -20    2.13    0.37
   1  -3 -20    1.79    0.42
   3  -1 -20    2.73    0.49
  -3  -1  20    1.27    0.31
   3  -1 -22    0.19    0.27
   1  -3 -22    0.69    0.33
   3  -1 -22    0.55    0.25
  -3  -1  22    0.51    0.28
  -1   3 -22    0.24    0.30
   1  -3 -24    0.79    0.37
   3  -1 -24   -0.19    0.32
  -1   3 -24   -0.13    0.28
   2   3 -25   -0.34    0.34
   3   2 -25   -0.05    0.25
  -2  -3 -25    0.03    0.30
   3   2 -25   -0.11    0.30
   2   3 -25   -0.02    0.30
   2   3 -23    0.50    0.29
   2   3 -23    0.07    0.28
   3   2 -23    0.68    0.32
   3   2 -23    0.35    0.27
   3   2 -21    2.46    0.44
   2   3 -21    2.06    0.45
   2   3 -21    2.59    0.46
   3   2 -21    2.38    0.43
   3   2 -19    2.08    0.39
   2   3 -19    2.98    0.46
   3   2 -19    1.84    0.36
   2  -3  19    2.24    0.25
   2   3 -19    2.99    0.47
   2  -3  17    2.66    0.27
   3   2 -17    2.65    0.42
   3  -2  17    2.48    0.21
   2   3 -17    3.28    0.43
   2   3 -17    3.33    0.46
   3   2 -17    3.22    0.44
   2   3 -15   23.06    1.06
   3  -2  15   19.77    0.63
   3   2 -15   20.73    1.03
   2  -3  15   21.12    0.73
   3   2 -15   23.35    1.04
   2   3 -15   25.47    1.10
   3   2 -13   17.02    0.81
   3   2 -13   14.43    0.79
   2  -3  13   16.73    0.58
   2   3 -13   15.24    0.79
   2   3 -13   16.61    0.84
   3  -2  13   14.60    0.47
   3   2 -11   19.03    0.84
   3   2 -11   21.34    0.86
   2   3 -11   18.88    0.81
   3   2 -11   19.52    0.83
   3  -2  11   17.66    0.49
   2  -3  11   20.67    0.62
  -3  -2 -11   18.23    0.52
   2   3 -11   20.51    0.87
   2  -3   9   61.02    1.70
   2   3  -9   57.34    1.56
  -3  -2  -9   57.91    1.25
   3   2  -9   60.63    1.61
   3   2  -9   61.02    1.64
   2   3  -9   63.07    1.69
   3  -2   9   63.24    1.71
   2  -3   9   61.62    1.36
   3   2  -7   46.30    1.26
   2  -3   7   46.72    1.38
   2   3  -7   47.45    1.22
  -2  -3  -7   51.05    1.14
   3   2  -7   48.52    1.34
   3  -2   7   48.81    1.38
   3  -2   5    2.61    0.25
   2  -3   5    2.28    0.25
  -3   2   5    2.65    0.15
   2   3  -5    2.45    0.18
   3   2  -5    2.51    0.20
  -2  -3  -5    3.05    0.19
   3  -2   3  101.37    2.17
   2  -3   3   99.64    2.05
   2  -3   3  102.27    2.06
   3   2  -3   98.21    2.02
   2  -3   3  101.91    2.18
   3  -2   3  102.26    2.13
  -2  -3  -3   99.71    2.18
   2   3  -3   94.06    1.92
  -3  -2  -1    6.01    0.30
   2  -3   1    6.30    0.27
   2  -3   1    6.69    0.31
   2  -3   1    6.78    0.31
  -2  -3  -1    6.47    0.32
   3  -2   1    6.26    0.30
   3   2  -1    5.48    0.24
  -3  -2  -1    5.94    0.27
  -2  -3   1    5.60    0.31
  -3  -2   1    5.62    0.31
  -2  -3   1    5.23    0.30
   2  -3  -1    5.50    0.28
   3  -2  -1    5.38    0.29
  -2  -3   1    5.60    0.19
   2  -3  -1    5.77    0.24
  -3  -2   3   99.47    2.05
   3  -2  -3   99.77    2.20
   2   3   3   96.91    2.06
  -2   3  -3   98.97    2.08
   3  -2  -3   99.54    2.06
  -3  -2   3  103.42    2.24
  -2  -3   3   99.96    2.21
  -2   3  -3  104.49    2.10
  -2  -3   3   98.47    1.96
  -2  -3   3  101.12    2.21
   2  -3  -3  101.22    2.20
  -3  -2   3   99.94    2.18
   2  -3  -3  101.47    2.15
   3   2   3  103.79    2.09
   2  -3  -5    2.18    0.25
  -3  -2   5    2.22    0.26
   3   2   5    2.13    0.14
  -3  -2   5    2.09    0.19
  -2   3  -5    1.94    0.15
   3  -2  -5    2.05    0.23
  -2  -3   5    2.07    0.23
  -2   3  -5    2.31    0.19
  -3  -2   7   46.90    1.34
  -2  -3   7   48.01    1.31
   3  -2  -7   45.64    1.36
  -2   3  -7   47.65    1.08
   3  -2  -7   45.24    1.05
   2  -3  -7   46.23    1.39
   2  -3  -7   48.05    1.04
  -3   2  -7   47.39    1.04
   3  -2  -9   58.64    1.72
   2  -3  -9   60.02    1.78
  -3   2  -9   60.19    1.29
  -2  -3   9   59.63    1.62
  -3  -2   9   57.24    1.64
   3   2   9   61.47    1.55
   2  -3  -9   61.50    1.38
   2   3   9   62.54    1.48
   3  -2  -9   57.74    1.38
   2  -3 -11   19.33    0.66
   3   2  11   20.62    0.79
  -2  -3  11   17.64    0.79
   2   3  11   19.66    0.72
   2  -3 -11   19.35    0.94
  -2   3 -11   20.81    0.91
   3  -2 -11   19.09    0.92
   3  -2 -11   19.58    0.70
  -3   2 -11   19.57    0.88
  -3  -2  11   18.72    0.85
   3  -2 -11   18.71    0.66
  -2   3 -13   17.24    0.88
   2  -3 -13   16.14    0.91
  -2  -3  13   15.54    0.77
   3  -2 -13   16.58    0.69
   2   3  13   15.80    0.69
   2  -3 -13   16.44    0.65
   3  -2 -13   15.00    0.64
   3  -2 -13   15.56    0.89
   3   2  13   16.51    0.75
  -3  -2  13   14.77    0.80
  -2   3 -15   22.00    1.07
   2  -3 -15   20.41    1.12
   2  -3 -15   21.64    0.82
  -3  -2  15   20.08    0.98
  -2  -3  15   21.08    0.95
   2   3  15   20.27    0.85
   3  -2 -15   19.58    1.08
   3  -2 -15   23.39    0.90
   3  -2 -15   19.07    0.81
  -2  -3  17    2.47    0.37
   3  -2 -17    2.54    0.44
   3  -2 -17    2.53    0.34
   2  -3 -17    2.75    0.33
   3  -2 -17    3.44    0.39
   2  -3 -17    2.45    0.43
  -2   3 -17    3.10    0.46
  -3  -2  17    3.26    0.43
  -2   3 -19    3.33    0.49
  -3  -2  19    2.45    0.39
   2  -3 -19    2.01    0.44
   2  -3 -19    2.30    0.34
  -2  -3  19    1.93    0.34
   3  -2 -19    2.59    0.35
   3  -2 -19    2.11    0.42
  -2  -3  21    1.99    0.38
   3  -2 -21    3.05    0.42
  -3  -2  21    1.46    0.35
   3  -2 -21    2.60    0.49
   2  -3 -21    2.30    0.46
   3  -2 -23    0.77    0.34
   2  -3 -23    0.33    0.33
  -2   3 -25   -0.36    0.35
   2  -3 -25   -0.04    0.27
   3  -2 -25   -0.26    0.34
   3   3 -24    0.33    0.29
   3   3 -24    0.93    0.34
   3   3 -22    1.60    0.42
   3   3 -22    0.75    0.35
   3   3 -20    0.75    0.27
   3   3 -20    0.62    0.32
   3   3 -18   13.17    0.88
   3  -3  18   11.02    0.46
  -3  -3 -18   12.15    0.49
   3   3 -16    5.24    0.54
   3  -3  16    4.17    0.26
   3   3 -16    4.46    0.49
  -3  -3 -16    4.54    0.29
   3  -3  14    3.13    0.22
   3   3 -14    4.31    0.43
  -3  -3 -14    3.55    0.25
   3   3 -14    5.00    0.48
  -3  -3 -12   62.59    1.42
   3   3 -12   59.49    1.76
   3   3 -10   50.13    1.57
   3   3 -10   57.00    1.61
  -3  -3 -10   55.21    1.23
   3   3 -10   50.45    1.48
   3   3  -8    3.25    0.33
   3   3  -8    3.06    0.26
  -3  -3  -8    3.63    0.20
   3  -3   8    3.59    0.34
   3   3  -6   97.20    2.13
   3  -3   6  102.28    2.36
   3  -3   4   76.54    1.64
   3   3  -4   73.91    1.59
   3  -3   4   78.72    1.83
   3  -3   2    4.84    0.31
  -3  -3  -2    4.83    0.30
  -3   3   2    5.03    0.28
   3  -3   2    5.46    0.29
   3   3  -2    4.87    0.21
   3  -3   0    3.05    0.23
  -3  -3   0    3.03    0.26
  -3  -3   0    2.96    0.18
   3  -3  -2    4.65    0.29
  -3  -3   2    4.75    0.33
  -3  -3   2    4.68    0.33
  -3  -3   2    4.24    0.20
  -3  -3   4   78.05    1.85
  -3  -3   4   77.01    1.82
   3   3   4   73.10    1.60
  -3  -3   4   74.57    1.60
  -3   3  -4   75.50    1.73
   3  -3  -4   77.07    1.83
   3  -3  -4   75.69    1.72
   3   3   4   79.08    1.72
  -3  -3   6  102.37    2.37
  -3   3  -6   98.62    2.01
   3  -3  -6   99.44    2.38
  -3   3  -6  104.16    2.10
  -3   3  -6   97.33    2.24
   3  -3  -8    3.14    0.16
  -3   3  -8    3.67    0.22
  -3   3  -8    3.05    0.17
   3  -3  -8    3.02    0.33
  -3  -3   8    3.78    0.36
   3  -3 -10   51.50    1.23
   3  -3 -10   52.16    1.68
   3  -3 -10   56.67    1.32
   3   3  10   54.73    1.44
  -3  -3  10   50.93    1.57
  -3   3 -10   56.36    1.27
  -3  -3  12   59.84    1.82
  -3   3 -12   64.64    1.93
   3   3  12   67.56    1.72
   3  -3 -12   60.23    1.96
   3  -3 -12   64.85    1.58
   3  -3 -12   61.55    1.49
   3  -3 -14    3.67    0.30
   3  -3 -14    3.88    0.33
  -3   3 -14    3.80    0.46
   3   3  14    3.22    0.34
  -3  -3  14    2.96    0.40
   3  -3 -14    3.38    0.44
  -3  -3  16    4.90    0.50
   3  -3 -16    5.62    0.43
   3  -3 -16    4.59    0.37
   3  -3 -16    5.90    0.61
  -3   3 -16    6.19    0.61
   3  -3 -18   15.98    0.77
   3  -3 -18   15.63    1.04
  -3  -3  18   13.09    0.83
  -3  -3  20    1.09    0.33
   3  -3 -20    0.73    0.24
   3  -3 -20    1.48    0.41
   3  -3 -22    1.15    0.41
  -3  -3  22    0.75    0.30
   3  -3 -24    0.33    0.26
   4   0   0    1.50    0.18
   0   4   0    2.02    0.15
   0  -4   0    1.85    0.14
   0  -4   0    2.51    0.26
   0  -4  -2    1.46    0.22
   0  -4  -2    0.81    0.15
   4   0  -2    1.01    0.17
  -4   0  -2    1.04    0.17
   0   4   2    1.06    0.15
   0  -4  -2    0.78    0.15
   4   0   2    0.86    0.17
   0  -4  -2    1.11    0.21
   0   4  -4    0.31    0.13
  -4   0   4    0.39    0.14
   4   0  -4    0.35    0.12
   0  -4  -4    0.40    0.15
  -4   0  -4    0.35    0.07
  -4   0   6   26.45    0.78
   0  -4   6   25.91    0.80
   4   0  -6   25.65    0.78
   0   4  -6   25.09    0.78
   4   0  -6   26.40    0.87
   0   4   8    1.02    0.12
  -4   0   8    1.45    0.24
   0  -4   8    1.35    0.21
   4   0  -8    1.01    0.18
   4   0   8    1.35    0.22
   0   4  -8    1.20    0.20
   4   0  -8    1.12    0.22
   4   0 -10    1.13    0.23
   0   4  10    1.21    0.14
   4   0  10    1.01    0.22
   4   0 -10    1.19    0.21
   0  -4  10    1.02    0.18
   4   0 -12    0.46    0.20
   4   0  12    0.36    0.06
   0  -4  12    0.77    0.21
   4   0 -12    0.79    0.21
   0   4 -12    0.41    0.23
   4   0 -12    0.56    0.19
   0   4 -14    0.49    0.25
   4   0  14    0.50    0.09
   4   0 -14    0.92    0.24
   0  -4  14    0.72    0.21
   4   0 -14    0.47    0.23
   4   0 -14    0.34    0.20
   0  -4  16    0.47    0.19
   4   0 -16    0.32    0.23
   0   4 -16    0.42    0.28
   0  -4 -16    0.43    0.25
   4   0 -16    0.76    0.25
   4   0  16    0.27    0.09
   4   0 -18    0.51    0.24
   0   4 -18    0.52    0.28
   0  -4 -18    0.26    0.26
   0  -4  18    0.42    0.21
   4   0 -18    0.61    0.24
   0  -4 -20    0.77    0.33
   0   4 -20    1.74    0.44
   0  -4  20    1.18    0.27
   4   0 -20    1.30    0.33
   4   0 -20    1.73    0.41
   0   4 -20    1.36    0.36
  -4   0  20    1.87    0.40
   0   4 -22    0.13    0.24
   4   0 -22    0.04    0.26
  -4   0  22   -0.29    0.30
   0  -4 -22    0.22    0.30
   4   0 -22    0.41    0.29
   0   4 -22    0.20    0.31
   0  -4 -24    1.08    0.41
   4   0 -24    0.86    0.35
   0   4 -24    1.12    0.43
   0   4 -24    0.63    0.32
   4   1 -25    0.89    0.35
  -1  -4 -25   -0.18    0.31
   1   4 -25   -0.27    0.37
   1   4 -25    0.42    0.27
   1   4 -23    0.21    0.28
  -4   1  23   -0.32    0.29
   4   1 -23   -0.10    0.28
  -1  -4 -23   -0.21    0.30
   1   4 -23   -0.52    0.36
   4   1 -23   -0.21    0.28
   4   1 -21    0.42    0.28
   1   4 -21    0.59    0.29
  -1  -4 -21    0.68    0.38
   1   4 -21    0.38    0.32
   4   1 -21    0.68    0.32
   1   4 -19    1.49    0.39
   1  -4  19    1.13    0.24
   1   4 -19    0.89    0.26
   4   1 -19    1.44    0.35
   4   1 -19    1.58    0.36
   4  -1  17    0.48    0.07
   1   4 -17    1.12    0.29
   1   4 -17    0.72    0.31
   4   1 -17    0.76    0.26
   4   1 -17    0.99    0.29
   1  -4  17    0.63    0.20
   4   1 -15    1.29    0.28
   1   4 -15    1.08    0.31
   4   1 -15    1.09    0.28
   1  -4  15    0.87    0.20
   4   1 -13    3.54    0.38
   1   4 -13    4.04    0.44
   4   1 -13    4.48    0.41
   4   1 -13    4.07    0.43
   1  -4  13    3.94    0.32
   4   1 -11    5.67    0.41
   4   1 -11    5.24    0.44
   1   4 -11    5.61    0.48
   1  -4  11    5.08    0.34
   4  -1   9   20.96    0.85
   1  -4   9   20.14    0.69
   4   1  -9   21.13    0.79
   4   1  -9   19.93    0.82
   4   1  -7    9.70    0.50
   1  -4   7    9.31    0.54
   1   4  -7    9.87    0.49
   4  -1   7    9.76    0.52
   4   1  -7    9.18    0.47
   1  -4   7   10.49    0.44
   1   4  -5   10.95    0.49
  -1  -4  -5   11.20    0.46
   1  -4   5   11.08    0.54
   4   1  -5   11.00    0.49
  -4   1   5   11.45    0.41
  -1  -4  -5   10.92    0.54
   4   1  -5   11.77    0.49
  -1  -4  -3    3.67    0.26
   4   1  -3    3.81    0.25
  -1  -4  -3    3.70    0.30
   4  -1   3    3.73    0.27
  -4  -1  -3    3.49    0.21
   1  -4   3    3.17    0.26
   1  -4   3    3.61    0.18
  -1   4   3    3.53    0.17
   4   1  -1    3.78    0.25
  -1   4   1    4.57    0.23
  -1  -4  -1    4.44    0.28
   1  -4   1    4.53    0.31
   4  -1   1    4.11    0.27
   1  -4   1    4.02    0.26
  -4  -1  -1    3.97    0.27
   1  -4   1    4.18    0.20
  -4  -1   1    3.86    0.32
  -1   4  -1    3.85    0.19
   4  -1  -1    3.58    0.27
   1  -4  -1    3.60    0.20
   1  -4  -1    4.52    0.32
   1  -4  -1    4.11    0.24
  -1  -4   1    3.76    0.30
   4   1   1    3.12    0.24
   4   1   3    4.16    0.23
  -1   4  -3    3.55    0.18
   1  -4  -3    3.55    0.27
  -4  -1   3    3.91    0.29
  -1  -4   3    3.69    0.28
   1  -4  -3    3.64    0.29
   4  -1  -3    3.84    0.28
   4   1   5   11.61    0.36
   4  -1  -5   10.86    0.51
  -4  -1   5   11.10    0.48
  -1   4  -5   10.59    0.43
   1  -4  -5   10.79    0.52
  -1  -4   5   11.12    0.50
  -4  -1   5   11.62    0.48
   1  -4  -5   11.27    0.54
   4   1   7    9.13    0.31
   1   4   7   10.06    0.35
  -1  -4   7   11.42    0.52
   1  -4  -7   10.62    0.59
  -4  -1   7   10.25    0.51
  -1   4  -7    9.78    0.42
   4  -1  -7    9.79    0.54
  -1  -4   9   21.26    0.80
   1  -4  -9   20.88    0.93
   4  -1  -9   21.31    0.89
   4  -1  -9   20.19    0.69
   4   1   9   21.64    0.82
   1   4   9   22.40    0.65
  -1   4  -9   20.81    0.70
   4  -1 -11    5.36    0.47
  -1   4 -11    5.12    0.47
   1   4  11    5.58    0.32
   4   1  11    6.06    0.45
   4  -1 -11    5.56    0.36
   1  -4 -11    5.12    0.50
  -1  -4  11    5.53    0.41
   1   4  13    4.24    0.31
   4  -1 -13    4.04    0.36
   1  -4 -13    4.60    0.50
  -1  -4  13    4.06    0.39
   4  -1 -13    4.50    0.38
  -1   4 -13    3.87    0.45
   4  -1 -13    4.30    0.46
  -1   4 -15    1.77    0.39
  -1  -4  15    1.51    0.29
   4  -1 -15    1.13    0.27
   4  -1 -15    1.11    0.26
   4  -1 -15    1.83    0.29
   1  -4 -15    1.55    0.34
   4  -1 -17    0.80    0.30
   1  -4 -17    0.77    0.31
  -4  -1  17    0.56    0.29
  -1  -4  17    1.06    0.27
  -1   4 -17    0.53    0.30
   4  -1 -17    0.93    0.26
  -4  -1  19    1.50    0.35
  -1   4 -19    0.85    0.33
   1  -4 -19    1.04    0.36
  -1  -4  19    1.24    0.30
   4  -1 -19    1.20    0.34
   4  -1 -19    1.07    0.28
   4  -1 -21    0.00    0.25
  -4  -1  21    0.00    0.27
   4  -1 -21    0.16    0.24
  -1  -4  21    0.26    0.23
   1  -4 -21   -0.12    0.30
  -1   4 -21    0.80    0.35
  -1   4 -23    0.04    0.24
   1  -4 -23    0.77    0.39
  -4  -1  23    0.12    0.25
   4  -1 -23    0.18    0.26
  -1   4 -23    0.91    0.39
  -1   4 -25   -0.23    0.30
   1  -4 -25   -0.20    0.30
   4  -1 -25   -0.16    0.33
   2   4 -24    0.26    0.30
   4   2 -24    0.49    0.29
   2   4 -24   -0.34    0.28
   4   2 -24   -0.08    0.28
  -2  -4 -24    0.17    0.30
   2   4 -22    0.37    0.32
   4   2 -22   -0.11    0.26
   4   2 -22    0.21    0.22
   2   4 -22    0.36    0.26
   4   2 -20    1.96    0.41
   2   4 -20    1.24    0.35
   2   4 -20    1.04    0.30
   4   2 -20    0.97    0.31
   2  -4  18    2.53    0.26
   2   4 -18    2.76    0.46
   4   2 -18    2.85    0.45
   2   4 -18    2.27    0.40
   4   2 -18    2.23    0.40
   2   4 -16    2.20    0.35
   4   2 -16    1.76    0.34
   4   2 -16    2.39    0.37
   2  -4  16    1.83    0.23
   2   4 -16    2.57    0.42
   4   2 -14    3.86    0.41
   2  -4  14    3.15    0.27
   2   4 -14    3.15    0.41
   4   2 -14    3.17    0.41
   2   4 -14    3.39    0.38
   2  -4  12   34.07    0.96
   4   2 -12   36.99    1.25
   4   2 -12   32.78    1.21
   2   4 -12   32.37    1.16
   2   4 -12   35.60    1.30
   2   4 -10   25.24    0.90
  -2  -4 -10   27.95    0.82
   4   2 -10   26.73    0.99
   4   2 -10   25.67    0.97
   4   2  -8    6.23    0.40
  -2  -4  -8    6.50    0.34
   4   2  -8    7.18    0.45
   2   4  -8    6.09    0.35
   2  -4   8    6.67    0.47
   4  -2   8    6.59    0.46
   4  -2   6   39.52    1.19
  -2  -4  -6   41.89    1.04
   2   4  -6   38.28    0.96
   4   2  -6   39.62    1.15
   2   4  -6   39.61    1.16
   2  -4   6   39.33    1.22
  -4   2   6   41.33    0.93
   4   2  -6   38.42    1.08
   4   2  -4   52.32    1.21
  -2  -4  -4   54.18    1.37
   2  -4   4   53.94    1.38
   2  -4   2   12.93    0.43
   2  -4   2   13.34    0.52
   4  -2   2   12.91    0.51
  -4  -2  -2   12.19    0.47
  -4   2   2   13.28    0.40
  -2  -4  -2   13.25    0.54
   4   2  -2   12.22    0.44
   2  -4   2   12.77    0.49
  -2   4   0    9.24    0.37
   4   2   0    9.32    0.33
   2  -4   0    8.96    0.36
  -2  -4   0    8.80    0.42
  -4  -2   0    8.64    0.41
   4  -2   0    8.81    0.40
   4   2   0    8.51    0.36
   2  -4   0    8.90    0.36
   2  -4   0    8.75    0.41
  -2  -4   2   13.15    0.55
   4   2   2   13.72    0.49
  -2  -4   2   12.22    0.54
   4  -2  -2   13.27    0.53
  -4  -2   2   12.80    0.55
  -4  -2   2   13.58    0.46
   2  -4  -2   12.90    0.39
  -2   4  -2   13.34    0.44
   2  -4  -2   13.63    0.51
  -2   4  -4   55.73    1.31
  -4  -2   4   54.64    1.38
   4  -2  -4   54.00    1.24
   4  -2  -4   51.11    1.39
   2  -4  -4   53.90    1.38
   2  -4  -4   54.58    1.41
  -2  -4   4   53.61    1.40
   2   4   4   52.31    1.27
  -4  -2   4   53.90    1.28
  -4  -2   4   54.06    1.45
  -2   4  -4   52.80    1.25
   4   2   4   53.94    1.25
  -4  -2   6   39.17    1.05
   2  -4  -6   37.30    1.13
  -2   4  -6   39.65    1.01
  -2   4  -6   37.43    1.00
  -4  -2   6   37.28    1.17
   4   2   6   38.90    0.93
  -2  -4   6   38.86    1.13
   4  -2  -6   37.56    1.16
   4   2   6   32.96    0.80
   2  -4  -6   39.53    1.20
  -4  -2   6   37.60    1.09
  -2   4  -6   38.00    0.95
   2  -4  -8    7.74    0.52
  -2   4  -8    6.44    0.32
  -4  -2   8    6.95    0.42
   2  -4  -8    5.69    0.23
  -4  -2   8    6.29    0.46
   4  -2  -8    7.22    0.48
  -2  -4   8    6.79    0.44
   4  -2 -10   26.18    0.78
   2  -4 -10   25.64    0.71
  -4  -2  10   24.33    1.02
   2  -4 -10   26.86    1.11
  -2  -4  10   25.86    0.97
   2   4  10   27.41    0.83
   4  -2 -10   27.80    1.09
   4   2  10   28.30    0.96
  -2   4 -12   33.97    1.28
   4  -2 -12   32.99    0.95
   4  -2 -12   34.72    1.03
  -2  -4  12   30.93    1.13
   2  -4 -12   31.89    0.88
   2   4  12   34.53    1.00
   2  -4 -12   33.68    1.34
   4   2  12   33.71    1.13
  -4  -2  12   31.28    1.22
   4  -2 -12   31.35    1.26
  -2  -4  14    2.77    0.36
   4  -2 -14    2.96    0.42
  -4  -2  14    3.14    0.42
   2  -4 -14    3.72    0.49
   4  -2 -14    2.93    0.29
   4  -2 -14    3.44    0.33
   2  -4 -14    2.54    0.26
  -4   2 -14    2.52    0.16
   2   4  14    2.96    0.31
  -2   4 -14    3.09    0.43
  -2  -4  16    1.94    0.34
   4  -2 -16    1.44    0.35
  -4   2 -16    1.28    0.13
   2  -4 -16    2.03    0.41
   2   4  16    1.93    0.27
   4  -2 -16    1.99    0.28
   2  -4 -16    2.07    0.27
  -4  -2  16    1.71    0.38
   4  -2 -16    2.05    0.30
  -2  -4  18    2.97    0.41
  -2   4 -18    3.13    0.51
   2  -4 -18    2.74    0.49
   4  -2 -18    2.33    0.35
   4  -2 -18    2.06    0.42
  -4  -2  18    1.86    0.38
   4  -2 -20    1.20    0.38
  -4  -2  20    1.55    0.35
  -2  -4  20    1.37    0.33
  -2   4 -20    1.18    0.38
   2  -4 -20    0.57    0.33
   4  -2 -20    1.25    0.31
   4  -2 -22    0.05    0.26
  -4  -2  22    0.26    0.27
   2  -4 -22    0.04    0.26
   2  -4 -24   -0.13    0.31
   4  -2 -24    0.49    0.32
   3   4 -25   -0.26    0.31
  -3  -4 -25   -0.09    0.30
   3   4 -25    0.61    0.34
   4   3 -25   -0.12    0.26
   4   3 -25   -0.59    0.35
   4   3 -23    0.71    0.36
   3   4 -23    0.20    0.23
   3   4 -23    0.47    0.31
   4   3 -23    0.27    0.25
   4   3 -21    1.10    0.32
   3   4 -21    1.61    0.40
   3   4 -21    1.06    0.30
   4   3 -21    1.13    0.38
   4   3 -19    1.41    0.40
   3   4 -19    2.25    0.44
   4   3 -19    1.57    0.34
   3   4 -19    1.78    0.36
   4   3 -17    2.58    0.42
   4   3 -17    2.27    0.37
   3   4 -17    2.54    0.39
  -3  -4 -17    2.72    0.26
   3   4 -17    3.00    0.44
   4   3 -15   17.09    0.91
   3   4 -15   19.18    0.99
   4   3 -15   17.52    0.93
  -3  -4 -15   18.10    0.64
   3   4 -15   16.91    0.88
  -3  -4 -13   21.85    0.70
   4   3 -13   21.84    0.98
   4   3 -13   19.95    0.91
   3   4 -13   20.01    0.90
   3   4 -13   23.54    1.04
   3   4 -11    3.13    0.37
   4   3 -11    3.02    0.31
  -3  -4 -11    3.32    0.24
   3   4 -11    3.43    0.33
   4   3  -9   24.76    0.96
   3   4  -9   24.82    0.99
   4   3  -9   24.26    0.87
   3   4  -9   24.33    0.82
  -3  -4  -9   26.68    0.75
   3   4  -7   42.06    1.28
   4   3  -7   40.22    1.12
   4  -3   7   44.04    1.32
   3   4  -7   40.53    1.06
   4   3  -7   40.56    1.26
   3  -4   7   41.62    1.31
   3  -4   5    4.72    0.36
   4   3  -5    4.14    0.25
   4  -3   5    4.18    0.34
   4  -3   5    4.08    0.24
   3   4  -5    4.54    0.22
   3  -4   3   35.04    1.02
  -3   4   3   34.31    0.95
   3  -4   3   34.27    0.93
   4   3  -3   33.24    0.86
   3   4  -3   32.65    0.76
  -3  -4  -3   34.13    1.01
   4  -3   3   35.16    0.98
   3  -4   3   34.09    0.92
  -4   3   3   34.12    0.89
  -4  -3  -3   33.96    0.97
   4  -3   3   35.39    1.01
  -4  -3  -1   21.57    0.74
   4  -3   1   23.43    0.73
   4   3  -1   22.70    0.65
  -4  -3  -1   24.36    0.70
   3  -4   1   23.46    0.70
   3  -4   1   23.24    0.72
  -4  -3  -1   22.90    0.69
  -3  -4   1   23.63    0.58
  -4  -3   1   23.69    0.65
   3  -4  -1   22.83    0.65
   3  -4  -1   23.01    0.72
  -3   4  -1   23.34    0.70
  -4  -3   1   21.55    0.77
   4  -3  -1   22.88    0.75
   4   3   1   22.49    0.68
  -3  -4   1   22.05    0.76
  -3  -4   1   22.80    0.77
   3   4   3   32.11    0.87
  -4  -3   3   32.58    0.99
  -3  -4   3   33.41    1.01
   3  -4  -3   33.17    0.98
   4   3   3   33.86    0.92
  -3   4  -3   33.15    0.90
   4  -3  -3   32.53    0.98
  -3  -4   3   31.44    0.74
   3   4   3   33.99    0.97
  -4  -3   3   32.72    1.03
  -3  -4   3   33.02    1.02
  -4  -3   3   32.37    0.82
  -3  -4   5    4.43    0.23
   3  -4  -5    4.69    0.35
  -4   3  -5    4.33    0.31
  -3   4  -5    4.88    0.29
   4  -3  -5    4.57    0.30
  -3   4  -5    4.72    0.30
  -4  -3   5    4.17    0.37
  -4  -3   5    4.00    0.34
   4   3   5    4.31    0.28
  -4  -3   5    4.63    0.27
   4  -3  -5    4.38    0.35
   3   4   5    4.07    0.26
   3  -4  -5    4.78    0.33
  -3  -4   5    4.81    0.37
   4   3   5    3.96    0.22
  -3   4  -7   40.83    0.98
  -3   4  -7   39.93    1.14
  -3  -4   7   42.67    1.27
  -3   4  -7   45.03    1.08
  -4   3  -7   36.70    0.87
  -4  -3   7   42.47    1.13
  -4   3  -7   41.00    1.20
   4  -3  -7   41.90    1.31
   3  -4  -7   40.99    1.30
  -4  -3   7   38.92    1.26
  -4  -3   9   23.14    0.99
   3  -4  -9   26.91    0.69
   3  -4  -9   26.23    1.06
  -3  -4   9   25.74    0.99
  -3   4  -9   26.16    0.72
  -3   4  -9   27.26    0.80
   4  -3  -9   26.99    1.06
   3   4  11    3.16    0.28
   3  -4 -11    3.48    0.41
   4  -3 -11    2.84    0.37
   4  -3 -11    3.37    0.22
   3  -4 -11    2.69    0.21
  -3  -4  11    3.09    0.36
   4   3  11    3.09    0.31
  -4   3 -11    2.82    0.20
   4  -3 -11    3.08    0.25
   3  -4 -11    2.61    0.17
  -4  -3  11    3.08    0.38
  -3   4 -11    2.95    0.24
   3  -4 -13   19.36    0.62
  -4  -3  13   19.53    0.96
   3  -4 -13   19.49    1.04
   3  -4 -13   22.04    0.72
   4  -3 -13   20.76    1.05
   3   4  13   21.45    0.82
   4  -3 -13   21.22    0.77
  -3   4 -13   20.57    0.70
  -3   4 -13   21.55    1.04
   4  -3 -13   19.81    0.67
  -3  -4  13   18.58    0.92
  -4   3 -13   20.70    0.61
  -4  -3  15   16.55    0.93
   4  -3 -15   17.96    1.03
  -3   4 -15   19.46    1.05
   4  -3 -15   18.25    0.76
  -3  -4  15   16.76    0.89
   3   4  15   17.21    0.77
   3  -4 -15   17.36    0.69
   4  -3 -15   16.71    0.66
   3  -4 -15   16.97    0.63
   3  -4 -15   17.32    1.02
  -4   3 -15   16.25    0.55
   3  -4 -17    2.72    0.30
   4  -3 -17    2.61    0.45
   3  -4 -17    2.54    0.48
   4  -3 -17    3.04    0.36
  -3   4 -17    2.66    0.44
  -4  -3  17    3.37    0.45
  -3  -4  17    2.58    0.39
   4  -3 -19    1.58    0.29
  -3  -4  19    2.25    0.40
   3  -4 -19    1.52    0.25
  -4  -3  19    1.92    0.37
   4  -3 -19    1.86    0.45
   3  -4 -19    1.52    0.38
   3  -4 -21    1.19    0.39
  -4  -3  21    0.77    0.30
  -3  -4  21    1.25    0.33
   4  -3 -21    1.65    0.44
  -4  -3  23    0.54    0.30
   3  -4 -23    0.34    0.29
   4  -3 -23    0.49    0.34
   4  -3 -25    0.42    0.34
   3  -4 -25    0.27    0.36
   4   4 -24    0.75    0.36
   4   4 -24    0.18    0.24
   4   4 -22    0.66    0.29
   4   4 -22    0.25    0.34
   4   4 -20    1.77    0.43
   4   4 -20    2.50    0.43
   4   4 -18    5.30    0.54
   4   4 -18    6.78    0.65
   4   4 -16    1.17    0.26
   4   4 -16    1.37    0.32
   4   4 -14    3.80    0.39
   4   4 -14    4.70    0.49
   4   4 -12   23.28    1.01
   4   4 -12   20.49    0.87
   4   4 -10   19.07    0.75
   4   4  -8   46.66    1.45
   4   4  -8   46.47    1.23
   4  -4   6   35.32    0.95
   4  -4   6   38.35    1.20
   4   4  -6   35.40    0.93
   4  -4   4   51.85    1.39
  -4  -4  -4   49.87    1.36
   4   4  -4   47.44    1.13
   4  -4   4   50.28    1.29
   4  -4   4   48.53    1.23
   4   4  -2   43.03    1.01
  -4   4   2   43.46    1.11
  -4  -4  -2   44.40    1.18
   4  -4   2   43.70    1.19
  -4  -4  -2   42.23    1.18
   4  -4   2   44.91    1.16
   4   4   0    0.80    0.16
  -4  -4   0    0.89    0.13
  -4  -4   0    0.50    0.16
   4  -4   0    0.89    0.16
  -4  -4   2   45.01    1.04
  -4   4  -2   45.13    1.19
  -4  -4   2   43.48    1.27
   4  -4  -2   45.07    1.23
  -4  -4   2   45.64    1.27
   4  -4  -4   50.97    1.39
  -4  -4   4   47.62    1.13
   4  -4  -4   49.35    1.27
  -4   4  -4   49.09    1.29
  -4  -4   4   49.29    1.39
   4   4   4   50.90    1.31
  -4  -4   4   50.25    1.42
  -4   4  -6   37.20    1.11
  -4  -4   6   35.73    1.21
   4   4   6   39.80    1.09
   4  -4  -6   38.46    1.23
  -4  -4   6   38.31    0.99
   4  -4  -6   37.68    1.11
   4   4   6   36.34    0.96
  -4  -4   8   48.26    1.49
   4  -4  -8   48.93    1.53
  -4   4  -8   49.48    1.40
  -4   4  -8   47.58    1.09
   4  -4 -10   20.86    0.97
  -4   4 -10   22.26    0.68
  -4  -4  10   19.20    0.93
  -4   4 -12   21.84    0.70
   4  -4 -12   21.90    0.71
   4  -4 -12   20.41    1.04
  -4  -4  12   21.14    0.99
   4   4  12   22.65    0.85
  -4  -4  14    3.88    0.47
   4  -4 -14    3.68    0.49
   4  -4 -14    4.01    0.26
  -4   4 -14    4.15    0.29
   4  -4 -14    4.91    0.34
  -4   4 -16    1.39    0.19
   4  -4 -16    1.51    0.24
   4  -4 -16    1.24    0.34
  -4  -4  16    1.15    0.31
   4  -4 -18    6.12    0.69
  -4  -4  18    5.98    0.60
   4  -4 -18    6.42    0.46
  -4  -4  20    2.14    0.39
   4  -4 -20    1.41    0.40
   4  -4 -22    0.48    0.33
  -4  -4  22    0.54    0.30
   4  -4 -24    0.78    0.35
   0  -5  -1    8.12    0.41
   0   5   1    7.25    0.35
   5   0   1    7.71    0.39
   5   0  -1    7.45    0.38
   0  -5  -1    7.78    0.33
   0   5  -1    7.25    0.25
   0  -5   1    7.02    0.24
   0  -5  -3   49.06    1.31
   5   0   3   44.73    1.25
   0  -5  -3   49.54    1.26
  -5   0  -3   46.13    1.11
   0  -5  -3   50.08    1.25
   5   0  -3   43.55    1.23
   0  -5  -3   47.90    1.10
   0  -5  -5   24.41    0.80
   0   5  -5   23.76    0.79
   0   5  -5   22.53    0.59
  -5   0   5   25.52    0.76
   0  -5  -5   24.94    0.88
   0  -5  -5   24.20    0.63
  -5   0  -5   23.46    0.59
   5   0  -5   23.88    0.82
   0  -5  -5   23.88    0.87
   0   5  -7    7.82    0.43
  -5   0   7    9.41    0.45
   0  -5   7    8.05    0.45
   5   0  -7    8.56    0.49
  -5   0   7    9.24    0.51
   0  -5  -7    8.87    0.54
   0  -5   9    7.51    0.44
   0   5  -9    7.76    0.45
   5   0  -9    7.68    0.44
   5   0   9    7.25    0.48
   0   5   9    7.34    0.27
  -5   0   9    7.79    0.51
   5   0  -9    7.72    0.51
   0  -5  11    0.57    0.19
   5   0 -11    0.58    0.18
   5   0 -11    0.60    0.21
   0   5 -13    0.60    0.28
   5   0 -13    1.06    0.27
   5   0 -13    0.87    0.23
   0  -5  13    0.57    0.20
   0  -5 -15    7.53    0.71
   0  -5  15    6.28    0.48
   5   0 -15    7.06    0.53
   5   0 -15    7.36    0.64
   0   5 -15    8.54    0.69
   0  -5 -17    1.04    0.35
   0   5 -17    0.59    0.31
   5   0 -17    0.44    0.23
   0  -5  17    0.40    0.21
   5   0 -17    0.26    0.23
   0  -5  19    3.10    0.37
   0  -5 -19    3.36    0.54
   0   5 -19    2.77    0.50
   5   0 -19    3.03    0.43
   5   0 -19    2.26    0.45
  -5   0  21    0.63    0.33
   0  -5 -21    0.05    0.28
   0   5 -21    0.67    0.35
   5   0 -21    0.03    0.22
   5   0 -21    0.52    0.25
   0   5 -21    0.04    0.23
   0  -5 -23    0.28    0.32
   0   5 -23   -0.01    0.22
   0   5 -23    0.00    0.29
   5   0 -23    0.38    0.29
  -5   0  23    0.36    0.30
   5   0 -23   -0.15    0.29
   0  -5 -25    0.38    0.38
   0   5 -25   -0.03    0.28
   5   0 -25    0.28    0.27
   0   5 -25    0.48    0.37
   5   1 -24    0.21    0.28
   1   5 -24    0.03    0.30
  -1  -5 -24    0.81    0.36
  -5   1  24    0.60    0.31
   1   5 -24    0.33    0.28
   5   1 -24    0.03    0.25
   5   1 -22    0.28    0.26
  -1  -5 -22    0.08    0.28
   1   5 -22    0.20    0.24
   1   5 -22   -0.48    0.35
   5   1 -22    0.49    0.28
   5   1 -20    1.36    0.33
   5   1 -20    1.14    0.33
  -1  -5 -20    1.32    0.39
   1   5 -20    1.74    0.37
   1   5 -20    1.84    0.43
   5   1 -18    0.21    0.22
   1   5 -18    0.19    0.27
   1  -5  18    0.20    0.17
   1   5 -18    0.39    0.21
   5   1 -18    0.31    0.24
   5   1 -16    1.85    0.35
   1  -5  16    1.89    0.27
   5   1 -16    2.78    0.38
   1   5 -16    1.76    0.33
   1   5 -16    2.60    0.45
   5   1 -14    1.48    0.29
   1  -5  14    1.70    0.25
   1   5 -14    1.48    0.33
   5   1 -14    1.92    0.32
   1  -5  12    0.31    0.15
   5   1 -12    0.17    0.17
   5   1 -12    0.25    0.19
   1   5 -12    0.61    0.28
   5   1 -10    4.18    0.38
   1  -5  10    3.94    0.31
   5   1 -10    3.76    0.35
  -1  -5  -8    2.53    0.27
  -5   1   8    2.48    0.31
   5   1  -8    2.53    0.28
   5  -1   8    2.65    0.31
   5   1  -8    2.42    0.27
   1   5  -8    2.73    0.27
  -1  -5  -6   17.26    0.65
  -1  -5  -6   17.29    0.76
   1   5  -6   17.72    0.69
  -5   1   6   18.18    0.59
   1  -5   6   17.39    0.75
   5   1  -6   16.99    0.67
  -1  -5  -4    5.30    0.38
  -5  -1  -4    4.93    0.26
   1  -5   4    4.88    0.36
  -1  -5  -4    5.23    0.34
   5   1  -4    5.18    0.33
  -1  -5  -2   35.70    0.99
  -1  -5  -2   34.09    0.93
  -1   5   2   34.96    0.82
  -1   5   2   36.00    0.87
   5   1  -2   33.70    0.96
   5  -1   2   35.58    1.02
  -5  -1  -2   34.16    0.93
   1  -5   2   34.51    0.99
  -1   5   2   35.99    0.97
   1  -5   2   34.23    0.99
   1  -5   2   35.59    0.81
  -5  -1   0   28.42    0.86
  -1  -5   0   26.90    0.83
   5  -1   0   27.73    0.85
   1  -5   0   26.58    0.76
   5   1   0   27.54    0.83
  -1   5   0   26.96    0.77
  -1  -5   0   28.47    0.68
   1  -5   0   27.11    0.84
  -1   5   0   27.50    0.73
  -5  -1   0   28.50    0.64
   1  -5   0   27.67    0.72
   1  -5  -2   36.88    0.96
   5  -1  -2   33.13    0.99
   1  -5  -2   36.55    1.02
  -1   5  -2   33.98    0.81
   5   1   2   33.25    0.99
  -1   5  -4    4.90    0.32
  -1   5  -4    4.95    0.23
   5  -1  -4    4.95    0.34
  -5  -1   4    4.86    0.31
  -5  -1   4    4.66    0.33
   5   1   4    5.84    0.28
   1  -5  -4    4.73    0.34
  -1  -5   4    4.82    0.34
  -1   5  -4    5.48    0.33
   1  -5  -4    5.23    0.37
   1  -5  -6   15.59    0.72
   5  -1  -6   16.76    0.71
   5   1   6   17.16    0.49
  -5  -1   6   17.71    0.67
  -1  -5   6   17.20    0.68
  -1   5  -6   16.47    0.53
   1  -5  -6   15.27    0.41
   1  -5  -6   16.06    0.71
  -5  -1   6   16.97    0.65
  -1   5  -6   16.91    0.62
  -1  -5   8    3.28    0.32
   1  -5  -8    3.06    0.35
   1   5   8    3.07    0.18
   5  -1  -8    2.66    0.31
  -5  -1   8    2.55    0.28
   5   1   8    2.38    0.15
  -1   5  -8    2.69    0.24
   5  -1 -10    4.02    0.30
   5   1  10    3.13    0.16
  -1   5 -10    3.78    0.30
   1   5  10    4.16    0.24
   5   1  10    4.40    0.39
   5  -1 -10    3.68    0.38
  -1  -5  10    3.59    0.34
   1  -5 -10    4.13    0.43
   5   1  12    0.29    0.06
  -1   5 -12    0.60    0.26
  -1  -5  12    0.50    0.20
   1  -5 -12    0.68    0.28
   5  -1 -12    0.59    0.18
   5  -1 -12    0.32    0.21
   1   5  12    0.53    0.13
   5  -1 -14    1.42    0.26
   5  -1 -14    1.54    0.31
   5  -1 -14    1.79    0.28
   1  -5 -14    1.84    0.38
  -1   5 -14    1.88    0.38
   5   1  14    0.98    0.10
   1   5  14    1.23    0.19
  -1  -5  14    1.30    0.28
   1  -5 -16    2.57    0.46
   5  -1 -16    1.56    0.29
  -1   5 -16    2.98    0.49
   5   1  16    1.10    0.11
  -1  -5  16    2.46    0.35
   5  -1 -16    2.02    0.30
   5  -1 -16    1.37    0.32
  -1  -5  18    0.14    0.21
   5  -1 -18   -0.13    0.22
  -5  -1  18    0.62    0.31
   1  -5 -18   -0.06    0.26
   5  -1 -18   -0.02    0.20
  -1   5 -18    0.87    0.33
   5  -1 -20    1.87    0.36
  -1  -5  20    0.96    0.28
  -1   5 -20    1.05    0.37
   5  -1 -20    1.40    0.37
  -5  -1  20    0.85    0.30
   1  -5 -20    1.43    0.41
  -5  -1  22    0.85    0.36
   5  -1 -22    0.51    0.32
  -1   5 -22   -0.16    0.28
   5  -1 -22   -0.06    0.24
   1  -5 -22    0.29    0.30
  -1   5 -24    0.44    0.30
  -1   5 -24    0.18    0.32
   5  -1 -24   -0.13    0.24
  -5  -1  24    0.29    0.33
   1  -5 -24    0.45    0.32
   2   5 -25   -0.30    0.35
   2   5 -25   -0.27    0.30
   5   2 -25    0.68    0.30
  -2  -5 -25   -0.24    0.39
   5   2 -23    0.13    0.25
   5   2 -23    0.13    0.27
   2   5 -23    0.41    0.27
   2   5 -23    0.30    0.32
  -2  -5 -23    0.21    0.30
   5   2 -21    0.02    0.25
   2   5 -21    0.08    0.28
   5   2 -21   -0.26    0.25
   2   5 -21    0.08    0.20
   5   2 -19    0.30    0.25
   2   5 -19    0.79    0.25
  -2  -5 -19    0.39    0.20
   5   2 -19    0.05    0.22
   2   5 -19    0.63    0.31
   2   5 -17    1.83    0.34
   5   2 -17    1.25    0.31
   2  -5  17    1.29    0.21
  -2  -5 -17    1.02    0.23
   5   2 -17    2.11    0.38
   2   5 -17    1.40    0.35
   5   2 -15    1.70    0.33
   2   5 -15    1.91    0.38
  -2  -5 -15    1.58    0.26
   2   5 -15    2.25    0.33
   5   2 -15    2.07    0.36
  -2  -5 -13    2.39    0.28
   2   5 -13    1.79    0.33
   2   5 -13    2.29    0.30
   5   2 -13    2.32    0.33
   2   5 -11    4.30    0.35
   5   2 -11    4.62    0.41
  -2  -5 -11    4.90    0.35
   5   2 -11    4.50    0.41
   2   5 -11    4.89    0.46
  -2  -5  -9    2.14    0.24
   5   2  -9    2.41    0.27
   2   5  -9    1.82    0.20
   2   5  -9    2.35    0.30
   5   2  -9    2.40    0.29
   2   5  -7    0.78    0.20
   5  -2   7    0.35    0.15
   2   5  -7    0.81    0.12
   2  -5   7    1.11    0.23
  -2  -5  -7    0.83    0.18
  -5   2   7    0.78    0.14
   5   2  -7    0.81    0.19
   5   2  -7    1.02    0.18
   2  -5   5   17.58    0.72
  -2  -5  -5   17.88    0.61
  -2  -5  -5   18.06    0.73
   5   2  -5   17.47    0.62
   2   5  -5   14.05    0.39
   5   2  -3    5.46    0.32
   2  -5   3    6.46    0.29
   2  -5   3    6.07    0.35
   5  -2   3    5.72    0.36
   2  -5   3    6.21    0.38
  -2  -5  -3    5.64    0.38
  -5  -2  -3    5.71    0.32
  -2   5   1    2.92    0.22
   2  -5   1    2.86    0.26
  -5  -2  -1    2.71    0.19
   5   2  -1    2.36    0.21
   5  -2   1    2.51    0.24
   2  -5   1    2.59    0.19
  -5  -2  -1    2.29    0.24
   2  -5   1    2.44    0.22
  -2  -5  -1    2.58    0.26
   5   2  -1    2.54    0.16
  -2   5   1    2.50    0.19
   2  -5  -1    2.48    0.21
   5  -2  -1    2.83    0.26
   2  -5  -1    2.18    0.24
  -2   5  -1    2.19    0.22
  -5  -2   1    2.62    0.22
   5   2   1    2.07    0.21
  -2   5  -1    2.81    0.20
  -2  -5   1    2.09    0.25
   5   2   1    2.61    0.24
   2  -5  -1    2.25    0.19
  -5  -2   1    2.34    0.26
   5  -2  -3    6.26    0.39
   2  -5  -3    6.39    0.24
   2  -5  -3    7.09    0.39
   2   5   3    6.30    0.35
  -5  -2   3    6.57    0.40
  -2  -5   3    6.92    0.42
  -5  -2   3    6.30    0.43
  -2   5  -3    6.35    0.30
   5   2   3    6.43    0.34
  -5  -2   3    6.30    0.33
   5   2   5   19.04    0.59
  -2   5  -5   17.54    0.62
   2  -5  -5   19.34    0.76
  -5  -2   5   18.37    0.66
  -2   5  -5   18.91    0.67
   5  -2  -5   18.94    0.75
  -5  -2   5   18.47    0.79
  -5  -2   5   18.96    0.72
  -2  -5   5   18.24    0.73
  -2   5  -5   17.84    0.59
   2  -5  -5   18.18    0.73
  -2   5  -7    1.17    0.19
   5  -2  -7    1.11    0.23
  -2   5  -7    1.06    0.16
  -5  -2   7    1.03    0.18
  -5  -2   7    0.90    0.23
   5   2   7    1.24    0.14
  -5  -2   7    0.72    0.21
   5   2   7    0.87    0.09
   2  -5  -7    1.14    0.24
   2  -5  -7    1.33    0.25
  -2   5  -7    0.92    0.14
  -2  -5   7    1.16    0.22
  -5  -2   9    2.55    0.28
  -2   5  -9    2.45    0.23
   2  -5  -9    2.16    0.32
  -5  -2   9    2.14    0.35
  -2   5  -9    2.65    0.25
  -2  -5   9    2.08    0.30
   5  -2  -9    2.25    0.32
   5   2   9    2.09    0.17
   2   5   9    1.97    0.19
  -5  -2  11    4.61    0.48
   2   5  11    4.61    0.30
   5  -2 -11    5.51    0.50
   2  -5 -11    4.71    0.49
  -2  -5  11    3.84    0.38
   5   2  11    4.53    0.25
  -2  -5  13    2.20    0.33
   5  -2 -13    1.92    0.24
   5  -2 -13    1.50    0.30
   5  -2 -13    2.31    0.27
   2   5  13    2.21    0.24
   2  -5 -13    1.89    0.38
  -5  -2  13    1.71    0.35
  -2   5 -13    2.27    0.40
   2  -5 -15    1.42    0.34
   5  -2 -15    2.12    0.30
  -2  -5  15    1.36    0.30
   5  -2 -15    1.55    0.25
   2   5  15    1.31    0.23
  -2   5 -15    1.97    0.42
  -5  -2  15    1.38    0.35
   5  -2 -15    2.05    0.37
  -5  -2  17    1.91    0.42
   5  -2 -17    1.09    0.34
  -2  -5  17    1.52    0.32
  -2   5 -17    1.62    0.40
   5  -2 -17    1.24    0.27
   2  -5 -17    0.83    0.37
  -5  -2  19    0.55    0.29
  -2   5 -19    0.33    0.28
   5  -2 -19    0.62    0.24
   2  -5 -19    0.23    0.24
  -2  -5  19    0.45    0.25
   5  -2 -19   -0.26    0.29
  -2  -5  21    0.42    0.27
  -5  -2  21    0.06    0.28
   2  -5 -21    0.61    0.33
   5  -2 -21   -0.01    0.22
  -2   5 -21    0.10    0.30
   5  -2 -21    0.40    0.29
   2  -5 -23    0.50    0.32
   5  -2 -23    0.30    0.34
  -5  -2  23    0.03    0.25
  -2   5 -25    0.34    0.29
   5  -2 -25   -0.57    0.39
   2  -5 -25    0.31    0.30
   3   5 -24   -0.16    0.26
   5   3 -24    0.40    0.32
  -3  -5 -24    0.49    0.38
   3   5 -24    0.42    0.33
   5   3 -24    0.19    0.26
   3   5 -22    0.47    0.26
   3   5 -22   -0.29    0.34
   5   3 -22   -0.01    0.28
   5   3 -22    0.67    0.30
   5   3 -20    1.22    0.33
   3   5 -20    0.84    0.28
   5   3 -20    1.11    0.36
   3   5 -20    1.11    0.38
   3   5 -18    3.92    0.54
   5   3 -18    3.28    0.44
   3   5 -18    3.66    0.46
   5   3 -18    4.40    0.52
  -3  -5 -18    3.79    0.32
   3   5 -16    1.03    0.24
   3   5 -16    0.94    0.33
   5   3 -16    0.48    0.23
  -3  -5 -16    0.63    0.18
   5   3 -16    0.91    0.30
   3   5 -14    2.43    0.39
   5   3 -14    2.40    0.34
  -3  -5 -14    2.25    0.26
   3   5 -14    2.46    0.32
   5   3 -14    2.28    0.36
   5   3 -12   16.74    0.79
  -3  -5 -12   17.33    0.64
   3   5 -12   14.75    0.70
   3   5 -12   17.30    0.89
   3   5 -10    6.57    0.39
  -3  -5 -10    7.26    0.39
   5   3 -10    7.20    0.46
   5   3  -8   12.26    0.56
  -3  -5  -8   13.41    0.52
   3   5  -8   11.55    0.47
   5   3  -8   12.30    0.64
   3   5  -8   12.99    0.66
   5   3  -6   15.22    0.59
   5  -3   6   15.73    0.72
  -3  -5  -6   16.27    0.74
   5  -3   6   15.95    0.52
   5   3  -6   15.18    0.68
  -5   3   6   16.21    0.47
   3   5  -6   15.62    0.47
   3  -5   6   17.34    0.76
   3  -5   4    5.67    0.39
   3  -5   4    5.24    0.30
  -3  -5  -4    4.89    0.38
   3   5  -4    4.37    0.18
   3  -5   4    4.67    0.32
  -3   5   4    5.31    0.37
   5   3  -4    5.09    0.30
   5  -3   4    5.57    0.36
  -5  -3  -2   19.87    0.72
   5   3  -2   20.83    0.65
   3  -5   2   21.23    0.66
  -5  -3  -2   21.12    0.68
  -5   3   2   20.95    0.61
  -3  -5  -2   20.34    0.75
   3  -5   2   19.79    0.71
  -3   5   2   21.22    0.73
   5  -3   2   21.54    0.74
  -5  -3  -2   22.09    0.73
   3  -5   2   21.65    0.75
  -5  -3   0    2.36    0.21
   3  -5   0    2.06    0.21
   3  -5   0    2.52    0.21
   5   3   0    2.07    0.19
   5   3   0    2.12    0.20
  -3  -5   0    2.57    0.28
   5  -3   0    2.23    0.24
  -5  -3   0    1.90    0.23
  -3   5   0    2.42    0.21
   5  -3  -2   21.80    0.77
  -5  -3   2   21.10    0.65
  -5  -3   2   20.35    0.78
  -3   5  -2   21.84    0.67
   5   3   2   21.03    0.71
   3  -5  -2   20.99    0.61
  -3  -5   2   21.39    0.79
  -5  -3   2   21.43    0.78
  -3  -5   2   19.09    0.49
  -3  -5   2   19.91    0.76
   3  -5  -2   21.10    0.72
   3  -5  -4    4.70    0.21
   5   3   4    5.56    0.32
  -3  -5   4    6.19    0.42
   3   5   4    5.11    0.32
  -3   5  -4    5.85    0.32
   3  -5  -4    5.79    0.37
  -5  -3   4    5.37    0.30
   3  -5  -4    5.81    0.38
   5  -3  -4    5.70    0.30
  -3  -5   4    4.85    0.40
  -3  -5   4    4.76    0.19
  -5  -3   4    6.02    0.41
   5  -3  -4    5.46    0.38
  -5  -3   4    5.25    0.42
  -5  -3   6   15.45    0.75
   5  -3  -6   16.31    0.74
  -3   5  -6   16.52    0.58
  -5  -3   6   14.84    0.69
  -3   5  -6   17.94    0.64
  -3  -5   6   17.28    0.75
   5  -3  -6   16.12    0.61
  -5   3  -6   16.45    0.69
  -3   5  -6   16.89    0.62
  -5  -3   6   16.46    0.61
   3  -5  -6   16.53    0.74
   5   3   6   16.56    0.59
   3   5   6   16.12    0.60
   5   3   6   15.31    0.49
   3  -5  -6   17.62    0.72
   3  -5  -8   12.25    0.65
  -5  -3   8   11.52    0.69
  -3   5  -8   12.40    0.48
   5  -3  -8   11.81    0.67
  -5   3  -8   12.03    0.62
   3  -5  -8   12.79    0.69
  -3   5  -8   12.76    0.54
  -3   5  -8   12.16    0.56
  -5  -3   8   13.36    0.59
   5   3   8   12.65    0.50
  -3  -5   8   11.73    0.66
   3   5  10    8.02    0.41
   3  -5 -10    8.05    0.60
   5   3  10    7.79    0.38
  -3  -5  10    7.54    0.54
  -5  -3  10    7.01    0.57
   3  -5 -10    6.06    0.26
  -3   5 -10    7.29    0.35
  -3   5 -10    7.74    0.42
   5  -3 -10    7.95    0.57
   5  -3 -12   16.61    0.89
   3  -5 -12   17.90    0.95
  -3   5 -12   17.40    0.65
  -5  -3  12   15.73    0.86
   3  -5 -12   15.35    0.49
  -3  -5  12   16.82    0.83
  -3   5 -12   17.75    0.92
   3   5  12   16.78    0.65
  -3   5 -14    2.32    0.42
   3  -5 -14    1.88    0.16
   3  -5 -14    2.25    0.22
   5  -3 -14    2.61    0.29
   5  -3 -14    1.91    0.37
   3   5  14    2.52    0.28
  -5  -3  14    2.42    0.43
   3  -5 -14    2.51    0.41
  -3  -5  14    2.00    0.35
  -3   5 -14    2.11    0.25
  -5  -3  16    0.96    0.35
   5  -3 -16    1.12    0.34
  -3   5 -16    0.47    0.18
   3  -5 -16    0.29    0.27
   5  -3 -16    0.66    0.21
  -3   5 -16    0.36    0.29
   3   5  16    0.38    0.18
  -3  -5  16    0.18    0.24
  -3  -5  18    3.24    0.46
  -3   5 -18    4.78    0.58
  -5  -3  18    3.36    0.50
   5  -3 -18    3.72    0.39
   5  -3 -18    3.56    0.53
   3  -5 -18    3.75    0.57
  -3  -5  20    0.90    0.32
   3  -5 -20    1.01    0.36
   5  -3 -20    0.88    0.33
   5  -3 -20    1.44    0.29
  -5  -3  20    0.89    0.33
  -3   5 -20    0.85    0.37
   3  -5 -22    0.62    0.35
  -3  -5  22   -0.06    0.26
  -5  -3  22   -0.17    0.33
   5  -3 -22    0.17    0.30
   5  -3 -24   -0.04    0.27
   3  -5 -24    0.33    0.28
   4   5 -23    2.38    0.47
   4   5 -23    1.36    0.37
   5   4 -23    2.93    0.53
   5   4 -23    2.25    0.47
   4   5 -21    0.69    0.33
   5   4 -21    0.43    0.27
   5   4 -21    0.36    0.25
   4   5 -21    0.46    0.24
   5   4 -19    1.04    0.33
   4   5 -19    0.64    0.32
   5   4 -19    1.18    0.30
   4   5 -19    1.50    0.32
   5   4 -17    5.00    0.51
   5   4 -17    5.20    0.57
   4   5 -17    4.86    0.49
   4   5 -15    6.16    0.51
   4   5 -15    6.13    0.59
   5   4 -15    5.98    0.52
   5   4 -15    6.21    0.58
   5   4 -13   11.51    0.73
   5   4 -13   10.26    0.63
   4   5 -13   12.22    0.76
   4   5 -13   10.68    0.61
   4   5 -11   12.79    0.61
   5   4 -11   13.98    0.67
   5   4  -9    1.60    0.21
   4   5  -9    1.38    0.18
   5  -4   7   84.34    1.85
  -5   4   7   80.24    1.66
   4   5  -7   84.36    1.83
   5   4  -7   84.78    1.93
   5   4  -7   83.90    2.18
   4   5  -7   87.25    2.21
   5  -4   5   44.70    1.34
   5  -4   5   45.09    1.27
   4  -5   5   44.79    1.36
   4   5  -5   44.05    1.03
   4  -5   5   43.57    1.19
   5  -4   5   43.17    1.14
  -4  -5  -5   45.23    1.34
   5   4  -5   43.69    1.12
   4  -5   5   44.60    1.22
  -5  -4  -3   34.73    1.04
   5  -4   3   35.73    1.09
  -4  -5  -3   36.10    1.09
   4  -5   3   35.36    1.09
   5   4  -3   34.14    0.91
   4  -5   3   33.88    1.01
  -4   5   3   34.91    1.03
   4  -5   3   34.83    1.00
  -5  -4  -3   33.58    1.03
   5  -4   3   35.90    1.05
  -5   4   3   35.38    0.96
   4   5  -3   34.05    0.82
  -5  -4  -1   54.57    1.33
   5   4  -1   50.33    1.25
   5  -4   1   53.43    1.39
   5   4  -1   50.19    1.26
  -4  -5  -1   51.41    1.42
   4  -5   1   52.46    1.34
   4  -5   1   54.03    1.37
  -5  -4  -1   50.61    1.41
  -4   5   1   52.86    1.38
   4   5   1   50.41    1.35
   5   4   1   51.10    1.31
  -4   5  -1   52.86    1.35
  -4  -5   1   52.81    1.18
   5  -4  -1   53.24    1.41
  -4  -5   1   48.81    1.44
  -5  -4   1   53.31    1.26
  -4  -5   1   51.08    1.43
   4  -5  -1   51.13    1.28
  -5  -4   1   51.30    1.44
   4  -5  -1   52.81    1.37
  -4  -5   3   34.58    1.12
   4   5   3   36.15    1.09
  -5  -4   3   33.08    1.10
  -5  -4   3   34.36    1.14
   5   4   3   36.19    1.06
   4  -5  -3   34.90    1.08
  -5   4  -3   35.75    1.06
  -4  -5   3   35.57    1.15
  -5  -4   3   34.62    0.90
  -4  -5   3   33.65    0.81
  -4   5  -3   34.83    1.02
   5  -4  -3   33.30    1.08
  -4  -5   5   45.63    1.06
   5  -4  -5   45.83    1.38
   4  -5  -5   46.89    1.29
  -4  -5   5   44.81    1.39
  -5  -4   5   44.72    1.40
   5   4   5   47.61    1.26
   4   5   5   44.92    1.18
   4  -5  -5   43.98    1.35
  -4   5  -5   45.27    1.24
  -5  -4   5   44.14    1.14
   5  -4  -5   45.47    1.21
  -5  -4   5   43.71    1.35
  -4  -5   5   43.32    1.36
  -5   4  -5   44.96    1.29
   4   5   5   46.30    1.30
   4  -5  -7   89.74    2.31
   5  -4  -7   85.82    2.28
   5  -4  -7   89.81    2.12
  -5   4  -7   88.20    2.18
   5   4   7   91.65    2.06
  -4   5  -7   87.41    1.93
   4   5   7   83.82    1.96
  -5  -4   7   86.04    2.29
   4  -5  -7   90.48    2.19
   5   4   7   83.06    1.88
  -4  -5   7   87.04    2.28
  -5  -4   7   89.62    2.02
  -4   5  -7   87.55    2.11
  -4   5  -9    1.44    0.20
  -4   5  -9    1.43    0.15
  -5  -4   9    1.04    0.26
   4  -5  -9    1.35    0.26
  -4  -5   9    1.37    0.28
  -4   5  -9    1.44    0.21
   4  -5  -9    1.64    0.27
   5   4   9    1.75    0.22
  -5   4  -9    1.30    0.11
   5  -4  -9    1.34    0.28
   4   5  11   13.60    0.62
  -4  -5  11   13.49    0.78
   4  -5 -11   14.02    0.47
   5  -4 -11   14.41    0.83
   4  -5 -11   14.77    0.85
  -5  -4  11   13.15    0.79
  -4   5 -11   14.65    0.58
  -4   5 -11   13.47    0.48
   4  -5 -13   10.84    0.45
   4   5  13   11.70    0.60
   5  -4 -13   11.71    0.52
   5  -4 -13   11.59    0.79
  -4   5 -13   12.13    0.81
  -5  -4  13   10.42    0.73
   4  -5 -13   11.48    0.80
  -4   5 -13   11.79    0.54
  -4  -5  13   10.62    0.72
   5  -4 -15    5.64    0.39
   4  -5 -15    6.32    0.64
  -4   5 -15    5.91    0.38
  -5  -4  15    5.25    0.57
  -4  -5  15    4.65    0.53
  -4   5 -15    5.94    0.63
   5  -4 -15    5.09    0.58
   4  -5 -15    5.23    0.34
  -4  -5  17    4.44    0.52
   5  -4 -17    5.11    0.40
   4  -5 -17    5.36    0.63
   4  -5 -17    4.88    0.35
   5  -4 -17    4.01    0.55
  -5  -4  17    3.97    0.50
  -4  -5  19    0.76    0.30
   5  -4 -19    0.27    0.27
   5  -4 -19    1.09    0.24
   4  -5 -19    1.05    0.38
  -5  -4  19    1.09    0.35
   4  -5 -21    0.76    0.32
  -4  -5  21    0.59    0.30
   5  -4 -21    0.47    0.34
  -5  -4  21    0.70    0.31
   4  -5 -23    1.06    0.45
   5  -4 -23    1.34    0.43
  -5  -4  23    1.66    0.42
   5   5 -24   -0.46    0.31
   5   5 -22    2.31    0.48
   5   5 -22    2.17    0.41
   5   5 -20    2.73    0.43
   5   5 -20    3.32    0.52
   5   5 -18    3.81    0.53
   5   5 -18    3.07    0.41
   5   5 -16    2.06    0.32
   5   5 -16    1.64    0.35
   5   5 -14   14.42    0.75
   5   5 -14   15.21    0.89
   5   5 -12    5.15    0.40
   5   5 -10   18.52    0.72
   5   5  -8   69.26    1.66
   5   5  -6    1.80    0.18
  -5  -5  -6    1.98    0.29
   5  -5   6    1.84    0.22
   5   5  -4   55.24    1.31
  -5  -5  -4   56.76    1.56
   5  -5   4   56.39    1.45
   5  -5   4   58.57    1.61
  -5   5   4   57.21    1.48
   5  -5   4   57.85    1.51
  -5  -5  -2   67.27    1.78
  -5   5   2   69.46    1.67
   5  -5   2   70.00    1.76
  -5  -5  -2   70.89    1.68
  -5  -5  -2   70.82    1.74
   5  -5   2   67.87    1.72
   5   5  -2   68.31    1.55
  -5  -5   0   14.17    0.67
   5  -5   0   15.02    0.63
  -5   5   0   15.17    0.64
   5   5   0   14.65    0.59
  -5  -5   0   15.27    0.54
  -5  -5   0   14.38    0.67
   5  -5  -2   66.38    1.74
  -5  -5   2   65.94    1.82
   5   5   2   66.60    1.70
   5   5   2   70.35    1.78
  -5  -5   2   69.00    1.52
  -5  -5   2   66.08    1.79
  -5   5  -2   69.07    1.73
   5  -5  -4   56.03    1.59
  -5  -5   4   56.23    1.31
  -5  -5   4   55.21    1.64
  -5  -5   4   56.75    1.63
   5   5   4   58.93    1.55
  -5   5  -4   57.63    1.53
  -5   5  -6    1.79    0.23
   5  -5  -6    1.81    0.24
  -5  -5   6    1.60    0.28
  -5  -5   6    1.81    0.18
  -5  -5   6    1.24    0.26
   5   5   6    1.64    0.23
   5   5   6    1.55    0.19
   5  -5  -6    1.84    0.27
  -5   5  -8   71.93    1.63
   5  -5  -8   75.22    1.95
  -5   5  -8   71.07    1.91
   5   5   8   75.94    1.87
  -5  -5   8   71.30    2.07
   5  -5  -8   72.48    2.08
  -5  -5  10   18.27    0.92
  -5   5 -10   18.40    0.55
   5  -5 -10   19.65    0.97
  -5  -5  12    4.65    0.49
   5  -5 -12    5.47    0.54
   5   5  12    4.69    0.40
   5  -5 -12    5.64    0.31
   5  -5 -14   13.54    0.91
   5  -5 -14   13.63    0.55
  -5  -5  14   12.42    0.84
   5  -5 -16    2.38    0.25
   5  -5 -16    1.64    0.37
  -5  -5  16    2.74    0.46
   5  -5 -18    2.91    0.30
  -5  -5  18    3.37    0.49
   5  -5 -18    3.62    0.56
   5  -5 -20    3.16    0.55
  -5  -5  20    2.33    0.44
   5  -5 -22    2.15    0.51
  -5  -5  22    2.85    0.49
   5  -5 -24   -0.21    0.33
   0   6   0   61.67    1.53
   0  -6   0   68.30    1.66
   0   6   0   66.58    1.60
   6   0   0   65.53    1.64
   0  -6   0   67.20    1.43
   6   0   2   43.66    1.25
   0  -6  -2   49.16    1.28
   0   6  -2   43.30    1.21
   0   6   2   47.21    1.13
   6   0  -2   44.17    1.23
   0   6  -2   43.93    0.95
   0  -6   2   42.61    0.94
  -6   0  -2   47.40    1.18
   0  -6  -2   46.53    1.17
  -6   0  -4   15.64    0.51
   0  -6  -4   17.04    0.67
   0   6  -4   16.49    0.66
   0  -6  -4   17.37    0.67
   6   0  -4   14.69    0.63
   0  -6  -4   16.34    0.52
   0  -6  -4   17.30    0.72
   0  -6  -6   59.86    1.57
   0   6  -6   59.39    1.55
   0  -6  -6   61.64    1.69
  -6   0   6   61.51    1.61
  -6   0  -6   56.99    1.26
  -6   0   6   60.91    1.50
   0  -6  -6   57.88    1.31
   6   0  -6   57.93    1.59
   0   6  -6   56.69    1.27
   0  -6  -6   58.42    1.66
   0  -6   8    3.96    0.34
  -6   0   8    3.80    0.35
  -6   0   8    3.79    0.31
   0  -6  -8    4.09    0.41
   0   6  -8    3.77    0.32
   6   0  -8    3.88    0.36
   0  -6  10    8.80    0.51
   6   0 -10    8.71    0.58
   0   6 -10    8.76    0.51
   0  -6 -10    9.53    0.68
   0  -6  12    7.39    0.49
   0  -6 -12    7.74    0.65
   0   6 -12    8.48    0.65
   6   0 -12    7.58    0.49
   6   0 -12    7.79    0.59
   0   6 -14    1.54    0.35
   0  -6  14    1.51    0.28
   6   0 -14    1.03    0.29
   0  -6 -14    1.40    0.36
   6   0 -14    1.23    0.27
   0  -6  16    9.69    0.62
   6   0 -16   10.49    0.67
   6   0 -16   10.52    0.79
   0   6 -16   10.27    0.82
   0  -6 -16   11.01    0.89
   0  -6 -18    5.47    0.66
   0  -6  18    4.38    0.44
   0   6 -18    5.01    0.60
   6   0 -18    5.55    0.53
   6   0 -18    5.48    0.61
   0   6 -20    0.44    0.23
  -6   0  20    0.61    0.32
   0  -6  20   -0.15    0.19
   0  -6 -20    0.78    0.33
   6   0 -20    1.18    0.38
   6   0 -20    0.81    0.29
   0   6 -20    0.45    0.33
   6   0 -22    1.26    0.40
   0   6 -22    0.86    0.32
  -6   0  22    1.57    0.43
   6   0 -22    1.61    0.37
   0   6 -22    1.94    0.45
   0  -6 -22    1.49    0.41
   0   6 -24    0.80    0.42
   6   0 -24    0.66    0.36
   0   6 -24    1.47    0.41
   0  -6 -24    1.36    0.42
  -6   0  24    1.20    0.39
  -1  -6 -25    0.44    0.38
   1   6 -25    1.24    0.42
  -6   1  25    0.16    0.33
   6   1 -25    0.82    0.40
  -6   1  23    0.35    0.30
   6   1 -23    0.52    0.30
   1   6 -23    0.22    0.24
   6   1 -23    0.21    0.29
  -1  -6 -23    0.31    0.32
   1   6 -23   -0.04    0.30
  -1  -6 -21    0.57    0.36
   6   1 -21   -0.28    0.28
   1   6 -21    0.31    0.32
   1   6 -21    0.52    0.27
   6   1 -21    0.06    0.23
   6   1 -19    2.51    0.40
   1   6 -19    2.82    0.49
   6   1 -19    2.09    0.41
  -1  -6 -19    2.54    0.34
   1   6 -19    1.77    0.36
   1  -6  19    1.66    0.28
  -1  -6 -19    2.39    0.51
   1   6 -17    1.85    0.32
   6   1 -17    2.67    0.42
   1   6 -17    2.07    0.43
   1  -6  17    2.33    0.31
   6   1 -17    2.26    0.37
   6   1 -15    4.68    0.47
   6   1 -15    4.83    0.52
   1   6 -15    4.49    0.44
   1   6 -15    4.07    0.54
   1  -6  15    4.16    0.38
   6   1 -13    2.41    0.36
   1  -6  13    2.30    0.29
   1   6 -13    2.49    0.41
  -1  -6 -11    4.54    0.39
   1   6 -11    4.23    0.40
   6   1 -11    4.74    0.44
   6   1 -11    4.75    0.41
   6   1  -9   23.74    0.95
   1   6  -9   24.98    0.93
  -1  -6  -9   24.40    0.87
   6   1  -7   17.35    0.73
  -6   1   7   18.03    0.65
   1   6  -7   17.99    0.74
  -1  -6  -7   18.70    0.73
  -1  -6  -5   45.02    1.16
  -1  -6  -5   48.64    1.30
   1   6  -5   46.75    1.33
   1  -6   5   46.06    1.38
   6   1  -5   46.25    1.30
  -1  -6  -5   47.88    1.42
  -6  -1  -5   45.98    1.12
   6   1  -3  130.94    2.95
  -1  -6  -3  141.00    3.07
   1  -6   3  133.88    3.00
  -1   6   3  138.50    2.76
  -6  -1  -3  134.61    2.86
  -1  -6  -3  140.85    2.98
  -1  -6  -3  132.66    2.86
   6  -1   3  139.17    3.03
   1  -6   3  138.55    2.70
  -1   6   3  135.30    2.69
   1  -6   1   35.74    0.88
   6  -1   1   34.96    1.07
  -1   6   1   38.37    0.99
   6   1  -1   35.79    1.05
  -6  -1  -1   36.31    1.05
  -1  -6  -1   37.87    0.94
  -1  -6  -1   35.96    1.02
  -1   6   1   34.93    0.93
   1  -6   1   36.12    1.07
  -1   6   1   35.24    0.97
   1  -6  -1   38.29    1.09
   6  -1  -1   34.13    1.05
  -1  -6   1   33.35    0.77
  -6  -1   1   36.47    1.10
   1  -6  -1   37.23    0.95
  -1   6  -1   34.17    1.00
   1   6   1   35.29    1.00
   6   1   1   35.32    1.05
  -1   6  -1   35.48    0.87
   6  -1  -3  130.56    2.97
  -6  -1   3  136.33    2.92
   1  -6  -3  140.52    2.99
   1  -6  -3  139.32    2.92
  -1   6  -3  131.33    2.67
  -1   6  -5   47.00    1.30
  -1   6  -5   46.70    1.10
  -6  -1   5   48.53    1.32
   1  -6  -5   48.49    1.39
  -6   1  -5   48.41    1.10
   1  -6  -5   47.86    1.41
  -1   6  -5   48.72    1.33
   6  -1  -5   47.32    1.38
  -6  -1   5   48.86    1.33
  -1  -6   5   47.11    1.36
   1  -6  -7   17.34    0.47
  -1   6  -7   19.36    0.73
   1  -6  -7   17.46    0.82
  -1  -6   7   18.09    0.76
  -1   6  -7   17.96    0.69
  -6  -1   7   19.24    0.76
  -1   6  -7   17.73    0.58
   1  -6  -7   19.50    0.83
   6  -1  -7   18.30    0.80
  -6  -1   7   18.36    0.72
  -1  -6   9   24.03    0.92
   1  -6  -9   24.80    1.06
  -1   6  -9   23.60    0.84
  -6  -1   9   25.70    0.97
   1   6   9   22.96    0.62
   6  -1  -9   23.57    0.99
  -1  -6  11    5.27    0.44
   1  -6 -11    4.93    0.52
  -1   6 -11    4.99    0.38
   6  -1 -11    5.69    0.50
   1   6  11    4.97    0.26
   6  -1 -13    2.91    0.39
   1   6  13    2.32    0.21
   1  -6 -13    1.82    0.36
  -1   6 -13    2.72    0.42
  -1  -6  13    1.97    0.31
   6  -1 -15    4.62    0.43
   6  -1 -15    4.07    0.40
   1  -6 -15    5.08    0.60
  -1   6 -15    5.60    0.58
   6  -1 -15    4.87    0.56
  -1  -6  15    4.12    0.45
   1  -6 -17    2.45    0.46
  -1   6 -17    2.06    0.43
   6  -1 -17    1.92    0.41
  -6  -1  17    2.34    0.45
  -1  -6  17    1.35    0.31
   6  -1 -17    2.91    0.38
   1  -6 -19    1.43    0.41
  -1  -6  19    1.92    0.35
  -6  -1  19    1.73    0.39
   6  -1 -19    1.76    0.41
   6  -1 -19    3.10    0.40
  -1   6 -19    2.38    0.47
   6  -1 -21    0.72    0.34
   6  -1 -21    0.53    0.26
   1  -6 -21    0.57    0.30
  -1   6 -21    0.09    0.32
  -6  -1  21    0.46    0.34
  -1   6 -23    0.25    0.26
  -1   6 -23    1.39    0.44
   1  -6 -23    0.78    0.36
   6  -1 -23    0.42    0.32
  -6  -1  23    0.94    0.38
  -1   6 -25    0.89    0.42
   1  -6 -25   -0.01    0.30
   6  -1 -25    0.47    0.29
  -2  -6 -24   -0.25    0.37
   6   2 -24    0.35    0.32
   6   2 -24   -0.54    0.34
   2   6 -24    0.13    0.34
   2   6 -22    0.97    0.40
  -2  -6 -22    0.79    0.36
   6   2 -22    0.93    0.34
   6   2 -22    1.79    0.41
   2   6 -22    1.02    0.29
   2   6 -20    0.49    0.24
   6   2 -20    0.76    0.31
   6   2 -20    0.95    0.34
   2   6 -20    0.79    0.37
  -2  -6 -18    2.77    0.34
   6   2 -18    2.09    0.38
   2   6 -18    2.12    0.45
   6   2 -18    2.28    0.42
   2   6 -18    1.58    0.31
   6   2 -16    1.26    0.33
  -2  -6 -16    2.10    0.29
   2   6 -16    1.75    0.40
   6   2 -16    2.12    0.37
   2   6 -16    1.84    0.31
   2   6 -14    0.84    0.30
  -2  -6 -14    1.00    0.24
   2   6 -14    0.76    0.21
   6   2 -14    1.25    0.27
   2   6 -12    0.77    0.19
   2   6 -12    0.70    0.26
  -2  -6 -12    0.51    0.20
   6   2 -12    0.70    0.22
   6   2 -10    5.15    0.43
  -2  -6 -10    5.23    0.38
   2   6 -10    4.66    0.32
   6   2 -10    4.73    0.40
   2   6  -8   16.71    0.76
   2   6  -8   16.49    0.54
  -2  -6  -8   17.95    0.69
   6   2  -8   17.12    0.72
  -6   2   8   17.15    0.59
  -2  -6  -6   16.12    0.74
   6   2  -6   15.51    0.64
  -2  -6  -6   17.26    0.65
   2  -6   6   16.12    0.74
  -6   2   6   17.09    0.56
   2   6  -6   12.77    0.38
   2   6  -6   17.02    0.72
  -2   6   4   31.53    0.75
  -2  -6  -4   30.03    0.92
   2  -6   4   31.54    1.04
   6   2  -4   30.41    0.95
  -2   6   4   30.61    1.02
  -2  -6  -4   33.77    1.09
  -6  -2  -4   30.36    0.89
   2  -6   4   31.72    0.83
   6  -2   4   30.53    1.02
   6   2  -2   56.80    1.43
   2  -6   2   58.54    1.30
   6  -2   2   58.18    1.51
   6   2  -2   53.90    1.18
   2  -6   2   55.86    1.46
  -2   6   2   57.12    1.44
  -2  -6  -2   55.71    1.44
  -2   6   2   56.92    1.28
  -6   2   2   55.05    1.18
  -6  -2  -2   56.27    1.43
   2  -6   2   56.35    1.48
   2  -6   0   35.47    1.09
   6   2   0   36.39    1.06
  -2  -6   0   37.40    1.10
   6  -2   0   38.28    1.11
  -2   6   0   36.81    1.00
  -6  -2   0   38.94    1.07
   2  -6   0   35.81    0.99
  -2   6   0   36.06    0.98
  -6  -2   0   36.39    1.10
   2  -6   0   36.64    0.97
   6  -2  -2   55.34    1.52
  -6  -2   2   56.23    1.57
   2  -6  -2   59.24    1.46
   6   2   2   59.07    1.48
   2  -6  -2   57.72    1.30
  -6  -2   2   58.68    1.46
  -2   6  -2   57.44    1.49
  -2   6  -2   56.88    1.34
   2  -6  -2   59.61    1.55
   2  -6  -4   32.36    1.02
  -6  -2   4   30.82    0.94
  -2   6  -4   30.91    0.84
  -2   6  -4   32.09    1.00
  -6  -2   4   32.02    1.02
   6  -2  -4   31.26    0.77
   2   6   4   30.48    0.95
  -2  -6   4   30.89    1.04
   6   2   4   31.97    0.90
   6  -2  -4   29.68    1.03
  -6  -2   4   29.94    1.08
  -2   6  -6   16.69    0.65
  -6  -2   6   16.89    0.82
  -2   6  -6   16.76    0.58
   6  -2  -6   15.79    0.74
   6   2   6   17.41    0.58
   2  -6  -6   17.10    0.76
  -2   6  -6   17.61    0.69
  -6  -2   6   15.93    0.70
   2  -6  -6   16.16    0.75
  -6  -2   6   16.95    0.67
  -2  -6   6   16.49    0.74
  -2   6  -8   17.48    0.64
   6   2   8   17.32    0.53
  -2   6  -8   18.13    0.70
  -2   6  -8   16.75    0.61
  -6  -2   8   17.50    0.72
  -2  -6   8   17.65    0.78
   2  -6  -8   17.45    0.82
  -6  -2   8   14.66    0.80
  -6  -2   8   17.08    0.73
   6  -2  -8   16.22    0.77
  -6  -2  10    4.73    0.50
   2   6  10    5.16    0.28
   6  -2 -10    5.12    0.47
  -6  -2  10    5.17    0.42
  -2  -6  10    4.84    0.44
   2  -6 -10    5.26    0.50
  -2   6 -10    5.23    0.38
   6   2  10    4.51    0.25
  -2   6 -10    4.97    0.35
  -2   6 -12    0.46    0.17
   2   6  12    0.66    0.14
   2  -6 -12    0.51    0.27
  -2  -6  12    1.03    0.27
   6   2  12    0.55    0.10
   6  -2 -12    0.92    0.27
  -2   6 -12    1.28    0.33
  -6  -2  12    0.83    0.31
   2   6  14    1.11    0.18
   2  -6 -14    1.18    0.31
   6  -2 -14    1.35    0.31
  -6  -2  14    1.47    0.39
   6   2  14    0.89    0.11
  -2   6 -14    1.02    0.33
  -2  -6  14    0.79    0.27
   2  -6 -16    1.42    0.36
  -6  -2  16    1.79    0.40
  -2   6 -16    1.90    0.43
   2   6  16    1.64    0.23
   6  -2 -16    1.95    0.39
   6  -2 -16    2.06    0.31
  -2  -6  16    1.50    0.33
  -6  -2  18    2.51    0.45
   6  -2 -18    2.28    0.44
  -2  -6  18    1.35    0.34
   2  -6 -18    2.27    0.45
  -2   6 -18    2.15    0.45
   6  -2 -18    2.69    0.37
   6  -2 -20    0.73    0.28
   2  -6 -20    0.90    0.40
  -2   6 -20    0.85    0.39
  -6  -2  20    0.84    0.31
   6  -2 -20    0.66    0.23
  -2  -6  20    1.01    0.30
  -2   6 -22    0.75    0.37
   6  -2 -22    1.29    0.41
  -6  -2  22    1.09    0.34
   2  -6 -22    1.09    0.38
   6  -2 -24    0.14    0.27
  -6  -2  24    0.22    0.31
   2  -6 -24    0.33    0.33
   3   6 -23    1.00    0.34
   6   3 -23    0.94    0.38
  -3  -6 -23    1.50    0.48
   6   3 -23    0.54    0.32
   3   6 -23    0.83    0.39
   3   6 -21   -0.12    0.29
   6   3 -21    0.00    0.23
   6   3 -21    0.37    0.29
   3   6 -21    0.15    0.19
   6   3 -19    1.17    0.33
   3   6 -19    1.44    0.32
   3   6 -19    1.46    0.40
   6   3 -19    1.20    0.29
   6   3 -17    1.83    0.33
   3   6 -17    2.13    0.34
   3   6 -17    2.51    0.45
  -3  -6 -17    2.24    0.26
   6   3 -17    2.16    0.39
   3   6 -15    1.72    0.29
   3   6 -15    2.13    0.41
  -3  -6 -15    2.02    0.28
   6   3 -15    1.73    0.38
   6   3 -15    2.25    0.35
   3   6 -13    0.46    0.16
  -3  -6 -13    0.65    0.20
   3   6 -13    0.46    0.27
   6   3 -13    0.15    0.15
   3   6 -11    1.61    0.21
   3   6 -11    1.72    0.34
  -3  -6 -11    1.57    0.24
   6   3 -11    1.06    0.22
   6   3  -9    1.82    0.25
   3   6  -9    2.00    0.19
  -3  -6  -9    2.31    0.26
   3   6  -7    9.54    0.57
  -6   3   7   10.18    0.39
   6  -3   7   10.05    0.39
   6   3  -7    9.94    0.50
   3   6  -7    9.18    0.34
   6   3  -5    2.93    0.26
  -3   6   5    3.07    0.34
  -3   6   5    2.41    0.13
  -3  -6  -5    3.02    0.34
   3   6  -5    2.06    0.11
   3  -6   5    2.96    0.32
   6  -3   5    3.13    0.31
  -3   6   3   42.44    1.26
   6  -3   3   43.11    1.27
  -6  -3  -3   45.64    1.27
   3  -6   3   43.63    1.12
   3  -6   3   43.25    1.28
  -3  -6  -3   45.18    1.32
   3  -6   3   42.92    1.22
   6   3  -3   42.91    1.16
  -3   6   3   44.18    1.27
  -6   3   3   43.92    1.05
  -6  -3  -3   41.31    1.20
  -6  -3  -3   42.80    1.17
   6  -3   1    0.36    0.16
  -6  -3  -1    0.78    0.16
   6   3  -1    0.27    0.11
  -6  -3  -1    0.61    0.14
  -3   6   1    0.50    0.14
   3  -6   1    0.72    0.16
  -6  -3  -1    0.53    0.18
   3  -6   1    0.62    0.13
  -3  -6  -1    0.59    0.19
   3  -6   1    0.46    0.18
   6   3  -1    0.52    0.12
  -3  -6   1    0.92    0.22
   6   3   1    0.49    0.17
   3  -6  -1    0.54    0.13
  -3  -6   1    0.55    0.09
   6   3   1    0.59    0.14
  -6  -3   1    0.55    0.18
  -3   6  -1    0.38    0.11
  -6  -3   1    0.59    0.14
   6  -3  -1    0.53    0.16
   3  -6  -1    0.37    0.13
  -3   6  -1    0.71    0.17
  -3  -6   3   40.55    1.27
   3  -6  -3   43.35    1.22
  -6  -3   3   41.66    1.31
   3  -6  -3   39.92    0.99
   3   6   3   41.09    1.17
  -3   6  -3   42.56    1.11
  -3  -6   3   41.12    1.28
   6   3   3   42.32    1.17
  -6  -3   3   42.69    1.13
  -6  -3   3   41.08    1.26
   6  -3  -3   41.20    1.25
  -3   6  -3   40.48    1.23
   3  -6  -5    2.80    0.30
   6   3   5    2.97    0.26
   3  -6  -5    2.64    0.30
  -3  -6   5    2.95    0.34
   3  -6  -5    2.07    0.14
  -6  -3   5    2.80    0.33
  -3   6  -5    3.01    0.28
   6  -3  -5    3.04    0.31
   6  -3  -5    3.12    0.23
  -6  -3   5    3.04    0.26
  -3   6  -5    2.67    0.23
  -6  -3   5    3.50    0.37
   3   6   5    2.61    0.26
   6   3   7    8.97    0.35
   3  -6  -7   10.18    0.58
  -6  -3   7    9.83    0.49
  -3  -6   7    9.40    0.58
  -3   6  -7    9.98    0.48
   3  -6  -7   10.55    0.62
  -6   3  -7    9.79    0.56
   6  -3  -7    9.85    0.48
  -6  -3   7   10.08    0.58
   6  -3  -7   10.09    0.60
  -3   6  -7   10.17    0.47
  -6  -3   7   10.13    0.65
  -3   6  -7   10.61    0.52
   6   3   7   10.18    0.45
   6  -3  -9    2.34    0.31
  -6  -3   9    2.41    0.36
  -3  -6   9    1.70    0.29
   6   3   9    1.81    0.20
  -3   6  -9    2.07    0.21
  -6  -3   9    2.39    0.27
  -3   6  -9    2.38    0.27
   3  -6  -9    2.60    0.36
  -3   6  -9    2.28    0.25
  -6  -3  11    1.48    0.34
  -3   6 -11    1.37    0.23
   6   3  11    1.40    0.18
  -3   6 -11    1.78    0.21
   3  -6 -11    1.83    0.34
   6  -3 -11    1.39    0.31
  -3   6 -11    1.74    0.24
   3   6  11    1.49    0.20
  -3  -6  11    1.70    0.31
  -3  -6  13    0.72    0.27
  -3   6 -13    0.35    0.18
  -6  -3  13    0.81    0.33
   6   3  13    0.20    0.11
   3   6  13    0.47    0.16
  -3   6 -13    0.12    0.29
   3  -6 -13    0.09    0.21
   6  -3 -13    0.25    0.22
  -3   6 -15    2.35    0.46
   6  -3 -15    2.20    0.28
   6  -3 -15    1.78    0.37
  -6  -3  15    1.32    0.38
   3  -6 -15    1.88    0.41
   6   3  15    1.29    0.17
  -3  -6  15    1.97    0.36
  -3   6 -15    1.60    0.26
   3   6  15    1.96    0.25
   6  -3 -17    2.36    0.32
  -3  -6  17    2.72    0.42
  -6  -3  17    2.30    0.43
   6  -3 -17    2.00    0.43
  -3   6 -17    3.12    0.52
   3  -6 -17    2.34    0.47
  -3  -6  19    1.80    0.39
   6  -3 -19    1.08    0.24
   3  -6 -19    1.00    0.33
  -6  -3  19    1.10    0.38
   6  -3 -19    0.49    0.28
  -3   6 -19    1.41    0.41
   6  -3 -21    0.62    0.32
  -3   6 -21    1.16    0.42
   3  -6 -21    1.35    0.43
  -6  -3  21    0.12    0.29
  -3  -6  21    0.19    0.27
  -6  -3  23    0.76    0.36
   3  -6 -23    0.23    0.31
   6  -3 -23    0.72    0.36
   6   4 -24    0.00    0.28
   6   4 -24    0.35    0.36
   4   6 -24   -0.13    0.36
   6   4 -22    1.40    0.37
   6   4 -22    2.92    0.51
   4   6 -22    2.76    0.51
   4   6 -22    2.73    0.45
   4   6 -20    0.77    0.27
   4   6 -20    1.22    0.41
   6   4 -20    0.71    0.33
   6   4 -20    0.91    0.28
   6   4 -18    0.92    0.29
   4   6 -18    0.77    0.29
   6   4 -18    1.50    0.36
   4   6 -18    1.05    0.26
   6   4 -16    1.02    0.32
   4   6 -16    0.67    0.27
   4   6 -16    0.91    0.23
   6   4 -16    0.22    0.19
   4   6 -14    6.29    0.47
   4   6 -14    7.74    0.65
   6   4 -14    6.48    0.53
   6   4 -12    1.23    0.24
   4   6 -12    1.60    0.23
   4   6 -12    1.85    0.35
   6   4 -10    5.26    0.40
   4   6 -10    4.95    0.33
   4   6  -8   38.81    1.01
  -6   4   8   40.15    0.93
   6   4  -8   39.57    1.16
   6  -4   6    5.92    0.34
   4   6  -6    5.03    0.24
   6   4  -6    5.30    0.34
  -6  -4  -4   23.04    0.83
  -4   6   4   23.35    0.85
   4  -6   4   24.60    0.79
  -6  -4  -4   22.09    0.80
   6  -4   4   22.56    0.85
  -4  -6  -4   25.04    0.92
   4  -6   4   23.61    0.90
   4  -6   4   22.84    0.81
   6  -4   4   24.22    0.90
   4   6  -4   21.30    0.56
   6   4  -4   23.09    0.74
   4  -6   2   70.51    1.78
  -6  -4  -2   72.74    1.74
  -4   6   2   69.11    1.73
   4  -6   2   66.98    1.74
   6  -4   2   66.32    1.76
   6   4  -2   68.32    1.64
  -4   6   2   69.55    1.78
  -4  -6  -2   68.26    1.79
  -6  -4  -2   70.22    1.69
  -6   4   2   71.78    1.60
  -6  -4  -2   66.56    1.76
   4  -6   2   69.09    1.68
  -6  -4   0   53.74    1.52
   6   4   0   52.30    1.37
   6   4   0   53.14    1.32
  -6  -4   0   56.93    1.39
   4   6   0   50.23    1.42
   4  -6   0   53.44    1.40
   4  -6   0   54.31    1.39
   6  -4   0   54.12    1.48
  -4  -6   0   52.57    1.52
  -4  -6   0   52.55    1.50
  -4   6   0   55.16    1.43
  -4  -6   0   55.79    1.26
  -6  -4   2   68.57    1.87
   6   4   2   72.48    1.79
  -6  -4   2   71.11    1.65
  -4   6  -2   71.19    1.71
  -6  -4   2   67.57    1.83
  -4  -6   2   68.94    1.84
   6  -4  -2   69.10    1.81
  -4  -6   2   68.43    1.46
  -4  -6   2   68.08    1.86
   4  -6  -2   68.48    1.60
   4  -6  -2   70.28    1.76
   4   6   2   66.76    1.77
  -6   4  -4   21.79    0.83
  -4  -6   4   20.19    0.54
   6  -4  -4   22.12    0.87
   4  -6  -4   21.91    0.85
  -4   6  -4   22.61    0.77
  -6  -4   4   21.23    0.87
   6   4   4   23.19    0.80
  -4  -6   4   21.24    0.90
   4  -6  -4   20.81    0.62
  -4  -6   4   21.94    0.90
  -6  -4   4   22.05    0.71
  -6  -4   4   20.95    0.90
   4   6   4   22.79    0.86
   4   6   4   20.87    0.75
  -4  -6   6    6.25    0.49
   4   6   6    5.59    0.36
  -6   4  -6    5.58    0.41
   4  -6  -6    6.23    0.44
  -4   6  -6    5.77    0.37
   6  -4  -6    6.06    0.37
  -6  -4   6    6.25    0.50
   6  -4  -6    6.04    0.46
   4  -6  -6    5.55    0.44
   6   4   6    5.93    0.38
  -6  -4   6    5.51    0.35
  -6  -4   6    5.64    0.45
  -4  -6   8   41.48    1.41
  -6  -4   8   37.83    1.41
   6  -4  -8   42.07    1.24
   4  -6  -8   41.45    1.34
  -4   6  -8   40.30    1.10
  -4   6  -8   41.85    1.24
  -6  -4   8   42.34    1.21
   6   4   8   42.03    1.17
   4  -6  -8   39.60    1.41
  -4   6  -8   42.12    1.21
  -6  -4   8   38.66    1.34
   6   4   8   37.56    1.00
   6  -4  -8   40.02    1.40
   4  -6 -10    5.13    0.48
  -6  -4  10    5.08    0.51
   6   4  10    5.28    0.35
  -4   6 -10    5.42    0.31
  -4  -6  10    5.42    0.50
  -4   6 -10    4.75    0.36
   4  -6 -10    3.78    0.17
   6  -4 -10    5.72    0.51
  -4   6 -10    4.53    0.37
  -4   6 -12    1.51    0.24
  -4   6 -12    1.46    0.19
  -6  -4  12    1.61    0.37
  -4  -6  12    1.97    0.37
   4  -6 -12    1.95    0.35
   6  -4 -12    1.45    0.33
   4  -6 -12    1.04    0.11
   6   4  12    1.49    0.21
  -4   6 -12    1.51    0.35
   4   6  12    1.62    0.24
   4  -6 -14    6.90    0.65
  -4  -6  14    5.73    0.58
   6   4  14    6.78    0.40
  -4   6 -14    6.42    0.43
   6  -4 -14    7.02    0.42
  -6  -4  14    5.77    0.59
  -4   6 -14    6.89    0.66
   6  -4 -14    6.99    0.64
   4   6  14    6.91    0.46
   4  -6 -14    4.97    0.27
   6  -4 -16    0.89    0.20
  -6  -4  16    0.64    0.33
  -4  -6  16    0.72    0.30
  -4   6 -16    0.90    0.38
   6  -4 -16    0.78    0.31
   4  -6 -16    0.90    0.33
   6  -4 -18    0.81    0.21
  -6  -4  18    0.50    0.30
   6  -4 -18    1.16    0.34
  -4  -6  18    0.54    0.28
   4  -6 -18    0.65    0.32
  -4  -6  20    0.34    0.26
   6  -4 -20    0.71    0.34
   4  -6 -20    1.10    0.35
  -6  -4  20    0.91    0.36
   6  -4 -22    1.87    0.48
  -4  -6  22    2.64    0.46
   4  -6 -22    2.56    0.53
  -6  -4  22    1.59    0.39
   6  -4 -24   -0.03    0.31
  -6  -4  24   -0.04    0.29
   4  -6 -24    0.08    0.36
   5   6 -23    1.53    0.40
   6   5 -23    1.78    0.46
   6   5 -23    1.02    0.32
   5   6 -21    0.78    0.28
   6   5 -21    1.15    0.32
   5   6 -21    0.79    0.36
   6   5 -21    1.08    0.37
   6   5 -19    0.50    0.23
   5   6 -19    0.22    0.19
   6   5 -19    0.59    0.27
   5   6 -19    0.30    0.26
   6   5 -17    4.60    0.48
   5   6 -17    3.96    0.44
   6   5 -17    5.25    0.56
   5   6 -17    5.47    0.60
   6   5 -15    0.06    0.16
   5   6 -15    0.18    0.24
   5   6 -15    0.24    0.16
   6   5 -15    0.49    0.27
   6   5 -13    4.55    0.41
   5   6 -13    5.49    0.55
   5   6 -13    4.61    0.39
   6   5 -11    8.18    0.50
   5   6 -11    7.46    0.44
   6   5  -9   10.18    0.51
   5   6  -9   10.39    0.47
   5   6  -7   34.33    0.91
   6   5  -7   34.80    1.00
  -6   5   7   33.87    0.79
   6  -5   7   33.08    0.99
  -5   6   5   32.19    1.07
   5  -6   5   31.11    1.02
  -6  -5  -5   31.98    1.10
   6  -5   5   30.91    1.06
   5   6  -5   32.83    0.83
   6   5  -5   32.40    0.92
   5  -6   5   31.41    1.01
  -5  -6  -5   33.68    1.15
   6  -5   5   31.81    0.98
  -6   5   3   74.44    1.77
   5  -6   3   74.65    1.84
   5   6  -3   72.21    1.60
  -5  -6  -3   76.68    1.94
  -6  -5  -3   71.51    1.89
  -6  -5  -3   76.30    1.86
  -5   6   3   72.24    1.93
  -5   6   3   75.31    1.85
   6  -5   3   73.19    1.93
   5  -6   3   73.28    1.84
   6   5  -3   71.26    1.69
   5  -6   3   75.82    1.94
   6  -5   3   72.93    1.88
  -6  -5  -3   75.22    1.87
   5  -6   1   35.75    1.09
  -5  -6  -1   38.10    1.02
  -5  -6  -1   34.90    1.18
  -5  -6  -1   34.11    1.17
   6   5  -1   34.82    1.02
   5  -6   1   37.47    1.11
  -6  -5  -1   36.81    1.06
   6  -5   1   34.47    1.12
  -5   6   1   37.37    1.15
  -6  -5  -1   34.21    1.16
   5  -6  -1   34.65    1.02
  -5  -6   1   36.06    0.92
  -5  -6   1   33.89    1.17
   6   5   1   33.70    1.03
  -6   5  -1   35.21    1.12
  -6  -5   1   35.42    0.98
  -5   6  -1   35.45    1.09
  -6  -5   1   34.78    1.18
   6   5   1   35.55    1.15
   6  -5  -1   32.49    1.10
   5  -6  -1   33.29    1.09
  -6  -5   1   35.45    1.19
   5   6   1   33.26    1.07
  -5  -6   1   33.70    1.18
   6   5   3   74.21    1.91
  -5   6  -3   75.85    1.87
  -5  -6   3   72.48    1.99
  -6  -5   3   71.83    1.97
   6  -5  -3   72.16    1.95
  -6   5  -3   75.17    1.91
  -6  -5   3   73.73    1.70
  -5  -6   3   72.59    2.02
  -5  -6   3   74.16    1.60
  -6  -5   3   72.79    2.02
   5  -6  -3   72.52    1.91
   5   6   3   77.77    1.97
  -5  -6   5   33.26    0.85
  -5  -6   5   32.98    1.21
   6  -5  -5   34.39    1.18
  -6  -5   5   31.67    1.17
  -6   5  -5   33.62    1.11
  -6  -5   5   31.70    1.22
  -5  -6   5   33.46    1.23
   5   6   5   31.58    0.99
   5  -6  -5   34.18    1.18
  -5   6  -5   34.17    1.08
  -6  -5   5   33.21    0.93
   6   5   5   33.82    1.09
   5   6   5   33.96    1.13
  -6  -5   7   34.09    1.30
   5   6   7   33.50    1.04
  -6  -5   7   35.72    1.28
   5  -6  -7   37.37    1.31
   6   5   7   32.73    0.98
   6  -5  -7   36.82    1.31
   6  -5  -7   38.47    1.16
  -5  -6   7   34.36    1.31
   5   6   7   37.53    1.20
  -6  -5   7   36.29    1.04
  -5  -6   7   37.49    0.98
   6   5   7   37.42    1.15
   5  -6  -7   37.23    1.21
  -5   6  -7   37.25    1.17
   6  -5  -9    9.58    0.58
  -5  -6   9    9.50    0.66
  -6  -5   9   10.35    0.52
   6   5   9   10.32    0.54
   5  -6  -9    9.94    0.67
  -6   5  -9    9.84    0.38
   6  -5  -9   10.76    0.69
  -6  -5   9   10.49    0.71
  -5   6  -9   10.11    0.44
  -5   6 -11    7.74    0.35
  -6  -5  11    7.35    0.63
   5  -6 -11    9.10    0.67
   6  -5 -11    8.02    0.65
   6   5  11    8.03    0.48
   5  -6 -11    7.49    0.30
  -5  -6  11    7.54    0.62
   5   6  13    4.88    0.41
  -5  -6  13    4.08    0.51
   6   5  13    4.79    0.38
  -6  -5  13    3.88    0.52
   6  -5 -13    4.85    0.32
   6  -5 -13    4.61    0.53
   5  -6 -13    4.43    0.25
   5  -6 -13    5.23    0.56
   5  -6 -15    0.35    0.27
  -5  -6  15    0.64    0.31
  -6  -5  15    0.51    0.31
   6  -5 -15    0.31    0.16
   6  -5 -15    0.46    0.23
   5  -6 -15    0.33    0.11
  -6  -5  17    3.98    0.54
   5  -6 -17    4.48    0.59
  -5  -6  17    4.29    0.55
   6  -5 -17    4.95    0.62
   6  -5 -17    4.59    0.36
  -5  -6  19    0.60    0.35
   5  -6 -19    0.65    0.33
  -6  -5  19    0.74    0.32
   6  -5 -19    0.48    0.35
   5  -6 -21    1.28    0.41
  -5  -6  21    0.58    0.31
  -6  -5  21    0.34    0.30
   6  -5 -21    0.65    0.33
  -5  -6  23    1.08    0.37
  -6  -5  23    1.43    0.43
   5  -6 -23    1.46    0.49
   6  -5 -23    2.25    0.56
   6   6 -24    0.35    0.34
   6   6 -22    2.71    0.54
   6   6 -20   -0.28    0.23
   6   6 -20    0.19    0.29
   6   6 -18    0.52    0.22
   6   6 -18    0.10    0.26
   6   6 -16    3.74    0.40
   6   6 -16    3.97    0.51
   6   6 -14    1.05    0.23
   6   6 -14    2.06    0.40
   6   6 -12    0.18    0.13
   6   6 -10    2.27    0.24
   6   6  -8   54.26    1.39
   6   6  -6   11.13    0.45
   6  -6   6   10.19    0.53
   6  -6   6   10.07    0.56
  -6  -6  -4   24.58    0.94
   6  -6   4   24.17    0.90
   6   6  -4   24.20    0.73
   6  -6   4   24.75    0.88
  -6   6   4   24.64    0.87
   6  -6   2   62.66    1.68
   6  -6   2   58.85    1.63
  -6  -6  -2   59.87    1.71
  -6  -6  -2   61.70    1.58
  -6   6   2   61.00    1.71
  -6   6   2   61.47    1.58
  -6  -6   0   80.16    2.13
   6  -6   0   79.29    1.96
  -6   6   0   80.28    2.04
   6  -6   0   76.65    2.01
   6   6   0   80.50    1.96
  -6  -6   0   77.16    2.10
  -6  -6   0   82.31    1.87
  -6   6  -2   62.29    1.69
  -6  -6   2   63.69    1.47
   6   6   2   62.72    1.74
  -6  -6   2   59.41    1.79
   6  -6  -2   60.65    1.71
  -6  -6   2   59.74    1.77
   6   6   2   59.82    1.65
   6  -6  -4   24.71    0.99
  -6  -6   4   25.13    1.05
   6   6   4   26.74    0.99
  -6  -6   4   25.33    0.74
  -6   6  -4   26.44    0.96
  -6  -6   4   24.75    1.03
  -6  -6   6   10.42    0.68
  -6   6  -6   11.17    0.60
   6   6   6   10.53    0.59
   6   6   6    9.31    0.48
  -6  -6   6    9.17    0.63
  -6  -6   6   10.32    0.44
   6  -6  -6   10.03    0.62
   6   6   8   49.31    1.38
   6  -6  -8   56.35    1.78
  -6  -6   8   53.62    1.79
   6   6   8   55.24    1.58
  -6  -6   8   56.70    1.42
   6  -6  -8   56.79    1.62
   6  -6 -10    3.25    0.42
   6   6  10    2.70    0.32
  -6  -6  10    2.72    0.39
  -6   6 -10    3.40    0.23
   6   6  12    0.19    0.19
  -6  -6  12   -0.05    0.29
  -6   6 -12    0.31    0.09
   6  -6 -12    0.51    0.24
  -6  -6  14    1.28    0.38
   6   6  14    1.32    0.26
   6  -6 -14    1.31    0.18
   6  -6 -14    1.00    0.31
   6  -6 -16    4.75    0.62
   6  -6 -16    4.25    0.29
  -6  -6  16    3.80    0.53
   6  -6 -18    0.95    0.33
  -6  -6  18    0.35    0.30
   6  -6 -20    0.16    0.28
  -6  -6  20    0.41    0.33
  -6  -6  22    2.40    0.48
   6  -6 -22    2.78    0.58
   6  -6 -24   -0.14    0.31
   0   7   1   14.17    0.53
   0  -7  -1   14.38    0.65
   0   7  -1   12.86    0.56
   7   0   1   14.00    0.64
   7   0  -1   14.72    0.64
   0  -7   1   13.99    0.43
   0   7  -1   15.64    0.65
   0  -7  -1   14.91    0.52
   0   7   1   15.57    0.60
  -7   0  -3   92.01    1.99
   0  -7  -3   95.75    2.06
   0  -7  -3   94.88    2.15
   0   7   3   89.19    1.83
   0   7  -3   86.03    2.10
   0   7  -3   79.54    1.68
   7   0  -3   90.95    2.12
   0  -7   3   80.09    1.67
   7   0   3   86.78    2.13
   0  -7  -5   48.98    1.46
   0  -7  -5   48.12    1.39
   0   7  -5   46.97    1.36
   0   7  -5   49.78    1.37
  -7   0   5   50.17    1.39
  -7   0  -5   47.00    1.13
   0  -7  -5   47.27    1.36
   0  -7  -5   47.41    1.14
   7   0  -5   48.20    1.38
  -7   0  -7    5.07    0.24
   0   7  -7    5.45    0.40
   0  -7  -7    5.03    0.41
  -7   0   7    4.73    0.36
   0  -7  -7    5.35    0.28
   7   0  -7    5.42    0.42
   0  -7  -7    5.62    0.46
  -7   0   7    5.18    0.41
   0   7  -7    4.64    0.23
   0  -7  -9   19.49    0.84
  -7   0   9   18.77    0.76
   0   7  -9   20.27    0.82
   7   0  -9   19.55    0.89
   0  -7  -9   20.22    0.98
   0  -7  11    3.34    0.36
   0   7 -11    2.49    0.32
   7   0 -11    3.61    0.41
   0  -7 -11    3.01    0.42
   0  -7 -13    1.30    0.33
   0   7 -13    1.23    0.35
   7   0 -13    0.95    0.27
   0  -7  13    0.73    0.23
   0  -7  15    3.53    0.41
   0  -7 -15    4.19    0.55
   7   0 -15    3.63    0.47
   0   7 -15    3.83    0.53
   0  -7  17    0.36    0.22
   0   7 -17   -0.01    0.31
   7   0 -17    0.57    0.28
   7   0 -17    0.48    0.24
   7   0 -19    2.27    0.39
   0  -7 -19    2.50    0.51
   0  -7  19    2.11    0.34
   7   0 -19    2.27    0.45
   0   7 -19    2.57    0.49
   0   7 -19    2.35    0.38
   0   7 -21    1.61    0.46
   7   0 -21    1.17    0.37
  -7   0  21    0.98    0.38
   0  -7 -21    0.50    0.32
   0   7 -21    0.84    0.29
   7   0 -21    0.85    0.29
   0   7 -23   -0.07    0.32
   0  -7 -23    0.66    0.33
  -7   0  23   -0.57    0.40
   7   0 -23    0.07    0.27
   7   1 -24   -0.20    0.30
   1   7 -24   -0.41    0.38
  -7   1  24    0.07    0.31
  -1  -7 -24    0.34    0.30
   7   1 -22    0.58    0.31
  -1  -7 -22    0.80    0.38
   1   7 -22    0.81    0.39
   1   7 -22    0.79    0.30
   7   1 -22    0.63    0.30
   1   7 -20    0.66    0.26
  -1  -7 -20    0.68    0.36
   1   7 -20    0.87    0.37
   7   1 -20    0.76    0.28
   7   1 -20    0.50    0.25
  -1  -7 -18    1.06    0.29
  -1  -7 -18    0.97    0.35
   1   7 -18    1.19    0.39
   7   1 -18    1.16    0.35
   7   1 -18    1.58    0.34
   1   7 -18    1.22    0.28
   1   7 -16    3.21    0.50
  -1  -7 -16    4.28    0.58
   1   7 -16    2.83    0.37
   7   1 -16    2.92    0.40
   7   1 -16    3.08    0.45
  -1  -7 -16    3.27    0.39
   1   7 -14    1.73    0.26
  -1  -7 -14    2.00    0.31
   1   7 -14    2.23    0.43
   7   1 -14    2.46    0.36
   1   7 -12    1.60    0.33
   7   1 -12    1.77    0.30
  -1  -7 -12    1.19    0.27
  -1  -7 -10    6.96    0.48
   7   1 -10    6.96    0.52
   1   7  -8   28.44    1.00
  -1  -7  -8   28.84    0.98
   7   1  -8   27.84    1.00
  -7   1   8   29.28    0.89
   7   1  -6   37.40    1.20
  -7   1   6   39.58    1.10
  -1  -7  -6   36.82    1.02
  -7  -1  -6   36.97    0.97
   1   7  -6   36.86    1.21
  -1  -7  -6   38.35    1.18
  -1  -7  -4   47.76    1.41
   7  -1   4   44.34    1.34
   7   1  -4   44.37    1.29
  -1   7   4   42.72    0.98
  -1  -7  -4   42.55    1.17
  -1  -7  -4   44.79    1.30
  -7  -1  -4   42.56    1.15
   1   7  -4   44.22    1.33
  -1   7   2   57.61    1.48
  -7  -1  -2   56.51    1.49
  -1   7   2   57.01    1.35
   1  -7   2   58.83    1.28
  -1   7   2   60.79    1.42
   7  -1   2   56.16    1.58
  -1  -7  -2   56.15    1.47
  -1  -7  -2   59.66    1.45
   7   1  -2   54.28    1.51
  -1   7   0   81.33    1.78
  -7  -1   0   80.93    1.98
   1  -7   0   79.38    1.98
   7  -1   0   77.93    1.97
   1   7   0   84.24    1.95
  -1   7   0   77.32    1.85
  -1  -7   0   80.30    1.69
   1  -7   0   81.28    1.75
   7   1   0   79.15    1.95
  -7  -1   0   74.78    1.59
   1  -7  -2   58.23    1.58
   1  -7  -2   59.84    1.47
   7   1   2   55.87    1.55
   1   7   2   58.37    1.47
  -7  -1   2   55.96    1.61
  -1   7  -2   53.33    1.51
   7  -1  -2   57.32    1.57
  -1   7  -2   58.29    1.30
  -7  -1   2   60.28    1.55
   7  -1  -4   44.30    1.34
  -1   7  -4   43.82    1.03
  -1   7  -4   45.53    1.33
   1  -7  -4   44.27    1.31
  -7  -1   4   45.89    1.31
   1  -7  -4   44.59    1.34
  -1   7  -4   46.75    1.34
  -1   7  -6   38.99    1.19
   1  -7  -6   38.79    1.26
  -1   7  -6   37.30    0.94
  -1   7  -6   38.19    1.20
   1  -7  -6   37.88    1.22
  -7   1  -6   38.43    0.93
  -7  -1   6   38.26    1.20
  -7  -1   6   37.47    1.17
   7  -1  -6   37.65    1.25
  -1   7  -8   27.41    0.96
   1  -7  -8   27.37    1.11
   7  -1  -8   28.94    1.09
  -1   7  -8   28.02    0.99
  -1  -7   8   28.82    1.04
  -1   7  -8   28.26    0.81
  -7  -1   8   28.85    1.04
   1  -7  -8   26.01    0.67
  -7  -1   8   28.23    0.99
   1  -7 -10    5.70    0.24
   7  -1 -10    6.65    0.52
  -1   7 -10    6.80    0.45
  -1   7 -10    5.93    0.36
   1  -7 -10    6.96    0.58
  -1  -7  10    6.31    0.48
   1   7  10    6.10    0.25
  -1  -7  12    1.07    0.27
  -1   7 -12    1.17    0.25
   1   7  12    1.17    0.13
   1  -7 -12    1.35    0.33
   7  -1 -12    1.27    0.27
  -1   7 -12    1.60    0.35
   1  -7 -14    2.31    0.41
  -1  -7  14    1.97    0.34
   7  -1 -14    2.32    0.39
  -1   7 -14    2.57    0.44
   7  -1 -16    4.17    0.53
  -7  -1  16    3.84    0.54
   1  -7 -16    3.62    0.52
  -1   7 -16    3.97    0.55
  -1  -7  16    3.10    0.40
   7  -1 -16    3.14    0.39
  -1  -7  18    0.69    0.27
  -1   7 -18    0.88    0.37
  -7  -1  18    1.09    0.36
   7  -1 -18    1.03    0.28
   1  -7 -18    0.94    0.36
   7  -1 -18    0.85    0.33
  -7  -1  20    0.41    0.33
   1  -7 -20    1.26    0.41
   7  -1 -20    0.53    0.29
  -1  -7  20    0.26    0.23
   7  -1 -20    1.16    0.31
  -1   7 -20    1.32    0.42
  -1   7 -22    0.68    0.36
   1  -7 -22    0.68    0.37
   7  -1 -22    0.82    0.38
  -1   7 -22    0.37    0.24
  -7  -1  22    0.71    0.37
   7  -1 -24    0.37    0.30
   1  -7 -24   -0.14    0.31
  -7  -1  24    1.02    0.40
  -1   7 -24   -0.08    0.41
   7   2 -23   -0.17    0.29
  -2  -7 -23   -0.01    0.29
   7   2 -23   -0.04    0.29
   2   7 -23    0.50    0.38
   7   2 -21    0.70    0.28
  -2  -7 -21    0.72    0.39
   7   2 -21    0.28    0.25
   2   7 -21    0.83    0.29
   2   7 -21    0.87    0.37
  -2  -7 -19    1.29    0.28
   2   7 -19    0.47    0.31
   2   7 -19    0.58    0.24
   7   2 -19    0.85    0.29
   7   2 -19    0.89    0.29
  -2  -7 -17    5.82    0.47
   2   7 -17    5.87    0.52
   7   2 -17    6.02    0.58
   7   2 -17    5.56    0.58
   2   7 -17    6.90    0.69
   2   7 -15    0.32    0.18
   7   2 -15    0.22    0.19
   2   7 -15    0.72    0.33
  -2  -7 -15    0.53    0.24
   2   7 -13    2.95    0.30
  -2  -7 -13    3.14    0.35
   2   7 -13    2.52    0.42
   7   2 -13    2.42    0.34
   2   7 -11    4.23    0.31
   2   7 -11    6.02    0.55
   7   2 -11    4.68    0.44
  -2  -7 -11    5.11    0.41
   7   2  -9    4.67    0.39
  -7   2   9    4.66    0.32
   2   7  -9    4.22    0.25
  -2  -7  -9    4.25    0.37
  -2  -7  -7   25.07    0.87
   2   7  -7   23.31    0.92
   7   2  -7   24.14    0.88
  -7   2   7   26.03    0.76
  -2  -7  -5   49.67    1.52
  -2  -7  -5   48.55    1.38
  -2  -7  -5   47.34    1.30
   2   7  -5   48.38    1.46
   2  -7   5   48.42    1.48
   7   2  -5   48.93    1.38
  -7  -2  -5   48.26    1.26
  -2   7   3   74.07    1.86
   7  -2   3   72.25    1.91
   2  -7   3   73.92    1.63
  -7  -2  -3   70.69    1.78
  -2   7   3   78.32    1.66
  -2   7   3   73.46    1.59
   2  -7   3   71.42    1.87
   2  -7   3   71.14    1.86
  -2  -7  -3   73.51    1.81
   7   2  -3   70.93    1.82
   2  -7   1   74.55    1.90
  -7  -2  -1   75.12    1.63
  -2   7   1   74.64    1.79
   7   2  -1   74.18    1.85
  -2  -7  -1   74.12    1.86
  -2   7   1   75.82    1.73
  -7  -2  -1   79.93    1.90
   2  -7   1   72.98    1.81
   2  -7   1   73.25    1.68
  -7  -2  -1   72.65    1.87
   7  -2   1   74.20    1.91
   2  -7  -1   74.72    1.76
  -2   7  -1   74.66    1.71
  -2   7  -1   72.53    1.81
   7   2   1   72.84    1.86
  -2  -7   1   72.60    1.90
  -7  -2   1   79.65    1.87
  -7  -2   1   74.07    1.93
   7  -2  -1   73.87    1.91
   2  -7  -1   76.25    1.72
  -2  -7   1   72.62    1.53
   2  -7  -1   75.37    1.92
  -7  -2   3   70.72    1.94
   2   7   3   72.36    1.83
  -2   7  -3   72.25    1.87
   7  -2  -3   70.45    1.88
  -7  -2   3   73.97    1.81
  -2   7  -3   71.54    1.62
   2  -7  -3   71.04    1.87
   2  -7  -3   71.81    1.80
   7  -2  -5   50.63    1.14
  -2   7  -5   51.33    1.44
   2  -7  -5   49.03    1.45
   7  -2  -5   47.87    1.48
  -2  -7   5   49.43    1.49
   2   7   5   46.82    1.38
  -7  -2   5   47.93    1.55
  -7  -2   5   46.09    1.41
  -7  -2   5   50.86    1.40
   7   2   5   49.85    1.29
  -2   7  -5   49.83    1.21
   2  -7  -5   50.18    1.48
  -2   7  -7   25.91    0.90
  -7  -2   7   25.18    1.06
   7   2   7   24.79    0.76
  -2   7  -7   26.84    0.93
  -2  -7   7   24.33    0.98
  -7  -2   7   25.55    0.95
  -7  -2   7   26.14    0.93
   7  -2  -7   23.95    0.98
   2  -7  -7   25.92    1.02
  -2   7  -7   24.77    0.77
  -7   2  -7   23.43    0.63
  -7  -2   9    4.12    0.40
   2  -7  -9    4.74    0.47
  -7  -2   9    4.25    0.38
   7   2   9    3.97    0.25
  -7  -2   9    4.03    0.48
  -2   7  -9    4.15    0.34
  -2   7  -9    4.55    0.32
  -2   7  -9    4.33    0.37
   7  -2  -9    3.86    0.41
  -2  -7   9    4.36    0.42
   7   2  11    3.73    0.23
  -2   7 -11    4.39    0.36
  -2   7 -11    5.01    0.40
  -7  -2  11    4.32    0.51
  -2   7 -11    4.51    0.35
   2  -7 -11    4.76    0.50
  -2  -7  11    4.02    0.43
   7  -2 -11    5.03    0.50
   2   7  11    4.79    0.27
  -2  -7  13    2.85    0.40
   7  -2 -13    3.01    0.41
   2  -7 -13    3.03    0.43
  -7  -2  13    3.04    0.45
  -2   7 -13    2.42    0.42
   7   2  13    1.80    0.14
  -2   7 -13    2.64    0.30
   2   7  13    3.10    0.24
  -2   7 -13    2.27    0.31
   2  -7 -15    0.61    0.28
   7  -2 -15    0.66    0.27
  -2   7 -15    0.30    0.31
  -7  -2  15   -0.09    0.26
  -2  -7  15    0.33    0.27
   2   7  15    0.22    0.13
  -2   7 -17    5.96    0.68
  -2  -7  17    4.44    0.52
  -7  -2  17    6.21    0.66
   2  -7 -17    6.14    0.69
   7  -2 -17    6.91    0.52
   7  -2 -17    6.17    0.65
  -7  -2  19    1.37    0.39
   7  -2 -19    0.86    0.24
   2  -7 -19    1.28    0.41
   7  -2 -19    1.52    0.37
  -2  -7  19    0.94    0.32
  -2   7 -19    0.79    0.37
  -7  -2  21   -0.13    0.32
   2  -7 -21   -0.05    0.26
  -2  -7  21    1.10    0.33
  -2   7 -21    0.91    0.38
   7  -2 -21    0.68    0.38
   7  -2 -23   -0.59    0.36
  -7  -2  23    0.20    0.31
   2  -7 -23   -0.18    0.32
  -2   7 -23   -0.13    0.32
   7   3 -24   -0.12    0.30
  -3  -7 -24    0.53    0.32
   7   3 -24    0.16    0.29
   3   7 -24    0.76    0.42
   7   3 -22    1.46    0.41
   3   7 -22    1.58    0.46
  -3  -7 -22    1.82    0.50
   7   3 -22    0.98    0.32
   3   7 -20   -0.06    0.35
   7   3 -20    0.72    0.29
   3   7 -20    0.00    0.18
   7   3 -20    0.57    0.30
   7   3 -18    1.40    0.31
   3   7 -18    1.41    0.40
   3   7 -18    0.98    0.26
  -3  -7 -18    1.58    0.26
  -3  -7 -16    0.43    0.19
   7   3 -16    0.90    0.28
   7   3 -16    0.28    0.19
   3   7 -16    0.39    0.19
   3   7 -14    0.33    0.27
   3   7 -14    0.04    0.14
  -3  -7 -14    0.42    0.20
   7   3 -14    0.08    0.16
   7   3 -12    1.42    0.27
   3   7 -12    1.02    0.18
   3   7 -12    0.86    0.30
  -3  -7 -12    1.47    0.27
   3   7 -10    1.32    0.17
  -3  -7 -10    1.23    0.24
   7   3 -10    1.17    0.23
  -7   3   8   13.33    0.51
   3   7  -8   11.79    0.41
   7  -3   8   13.97    0.47
   7   3  -8   13.37    0.64
   7   3  -6    1.47    0.21
  -7  -3  -4   21.30    0.80
   3  -7   4   22.82    0.86
   3  -7   4   23.79    0.75
  -3   7   4   23.66    0.90
   7   3  -4   22.65    0.82
  -3  -7  -4   22.72    0.85
  -3   7   4   24.44    0.92
  -3   7   4   24.51    0.66
   3  -7   4   23.15    0.91
  -7  -3  -4   24.00    0.90
  -3  -7  -4   23.84    0.95
   7  -3   4   22.52    0.89
   3  -7   2   22.01    0.84
  -7  -3  -2   22.98    0.73
   7  -3   2   21.71    0.86
  -7  -3  -2   24.37    0.86
  -7  -3  -2   22.63    0.84
  -3   7   2   23.02    0.82
   7   3  -2   22.57    0.80
   3  -7   2   23.00    0.73
  -3  -7  -2   21.57    0.84
  -3   7   2   21.89    0.86
   3  -7   2   23.14    0.86
   7   3  -2   23.12    0.64
  -7   3   2   22.86    0.63
   3  -7   0   13.33    0.64
   7   3   0   14.27    0.66
  -7  -3   0   14.53    0.61
  -3  -7   0   13.32    0.65
   7  -3   0   14.37    0.66
   3  -7   0   13.19    0.56
  -7  -3   0   13.57    0.66
   3  -7   0   13.73    0.56
   7   3   0   13.31    0.59
  -3   7   0   13.18    0.56
  -3   7   0   14.37    0.58
  -7  -3   2   22.49    0.91
   3   7   2   22.09    0.80
   7   3   2   24.76    0.84
   3  -7  -2   22.45    0.86
  -3  -7   2   21.78    0.87
   7  -3  -2   22.46    0.86
   3  -7  -2   21.94    0.67
  -3   7  -2   23.03    0.72
   3  -7  -2   22.84    0.78
  -7  -3   2   23.31    0.78
  -3   7  -2   23.23    0.82
   3   7   4   22.91    0.84
   7   3   4   24.27    0.83
   7  -3  -4   22.45    0.91
  -7  -3   4   23.37    0.97
  -7  -3   4   23.47    0.92
   3  -7  -4   23.46    0.63
  -3   7  -4   23.27    0.75
  -3   7  -4   23.67    0.92
  -3  -7   4   21.52    0.91
  -7  -3   4   23.65    0.81
   3  -7  -4   23.91    0.90
  -7  -3   6    1.07    0.18
   3   7   6    0.98    0.21
  -3   7  -6    0.91    0.21
   3  -7  -6    1.12    0.24
  -7  -3   6    0.97    0.26
   7  -3  -6    1.41    0.18
  -3   7  -6    1.08    0.16
   3  -7  -6    1.11    0.23
   7  -3  -6    1.16    0.25
   7   3   6    1.37    0.20
  -7  -3   6    1.01    0.27
  -3  -7   6    1.24    0.26
  -3   7  -8   12.86    0.59
   7  -3  -8   14.82    0.61
  -7  -3   8   12.36    0.75
  -3  -7   8   12.51    0.71
  -7  -3   8   14.22    0.65
  -3   7  -8   13.50    0.58
   7   3   8   12.68    0.53
   3  -7  -8   13.53    0.75
   7   3   8   11.00    0.40
  -7  -3   8   12.81    0.69
   7  -3  -8   12.91    0.72
  -3   7  -8   14.37    0.66
   7  -3 -10    1.79    0.34
  -3  -7  10    0.54    0.24
  -7  -3  10    0.93    0.32
  -3   7 -10    1.00    0.19
   3  -7 -10    1.48    0.31
  -3   7 -10    1.30    0.25
  -7  -3  10    1.31    0.25
  -3   7 -10    0.79    0.19
   7   3  10    1.33    0.18
  -3   7 -12    0.99    0.19
   3   7  12    1.26    0.18
  -3   7 -12    1.15    0.33
  -3  -7  12    1.74    0.34
  -7  -3  12    1.66    0.37
   7  -3 -12    1.53    0.32
  -3   7 -12    1.49    0.27
   3  -7 -12    1.46    0.34
   7   3  12    1.18    0.16
  -3  -7  14    0.01    0.25
   7   3  14    0.10    0.09
  -3   7 -14    0.02    0.19
   3  -7 -14    0.37    0.26
  -7  -3  14   -0.06    0.28
   3   7  14    0.26    0.14
   7  -3 -14   -0.12    0.22
  -3   7 -14    0.01    0.31
   7  -3 -16    0.35    0.25
   7  -3 -16    0.52    0.21
   3  -7 -16    0.87    0.36
  -3   7 -16    0.58    0.34
  -3  -7  16    0.65    0.28
  -7  -3  16    0.08    0.28
   7  -3 -18    1.55    0.29
   3  -7 -18    1.83    0.44
  -3  -7  18    1.25    0.35
   7  -3 -18    1.49    0.40
  -3   7 -18    1.65    0.44
  -7  -3  18    1.66    0.43
  -3  -7  20    0.54    0.26
   3  -7 -20    0.04    0.28
  -7  -3  20   -0.07    0.33
   7  -3 -20    0.52    0.32
  -3   7 -20    1.07    0.41
   3  -7 -22    0.61    0.32
   7  -3 -22    1.03    0.41
  -7  -3  22    0.72    0.34
   3  -7 -24    0.29    0.34
   7  -3 -24    0.02    0.27
  -7  -3  24   -0.02    0.31
   7   4 -23    0.94    0.40
   7   4 -23    0.74    0.31
   4   7 -23    0.13    0.33
   7   4 -21    0.37    0.22
   7   4 -21    0.12    0.27
   4   7 -21    0.44    0.29
   7   4 -19    0.57    0.29
   4   7 -19    0.72    0.35
   7   4 -19    0.58    0.24
   4   7 -19    0.62    0.22
   4   7 -17    2.34    0.34
   4   7 -17    2.11    0.41
   7   4 -17    1.76    0.34
   7   4 -17    1.77    0.38
   7   4 -15    0.83    0.22
   4   7 -15    1.17    0.23
   4   7 -15    1.29    0.35
   7   4 -13    1.19    0.25
   4   7 -13    1.45    0.35
   4   7 -13    0.95    0.20
   4   7 -11    1.20    0.17
   7   4 -11    1.15    0.23
   4   7 -11    1.33    0.31
  -7   4   9    7.31    0.33
   4   7  -9    6.77    0.33
   7   4  -9    7.25    0.46
   7  -4   7    7.73    0.39
   7   4  -7    7.94    0.45
   4   7  -7    6.83    0.27
   7  -4   5   11.08    0.59
  -7  -4  -5   12.71    0.62
  -4   7   5   10.72    0.60
   7   4  -5   10.99    0.51
   4  -7   5   10.98    0.55
   4  -7   5   11.27    0.50
   7   4  -3   61.02    1.56
  -7  -4  -3   62.13    1.59
  -7   4   3   62.82    1.46
   4  -7   3   61.38    1.66
  -7  -4  -3   61.33    1.66
  -4   7   3   62.19    1.69
   4  -7   3   62.21    1.56
  -4   7   3   60.44    1.69
  -4  -7  -3   61.82    1.69
  -7  -4  -3   64.01    1.69
   4  -7   3   63.30    1.72
   7  -4   3   61.06    1.70
  -4   7   1    2.52    0.25
  -7  -4  -1    2.39    0.25
   7   4  -1    2.21    0.21
   7   4  -1    2.12    0.23
   7  -4   1    2.22    0.27
   4  -7   1    2.39    0.25
  -7  -4  -1    1.83    0.27
  -4  -7  -1    2.21    0.30
   4  -7   1    2.80    0.28
   4  -7   1    2.16    0.29
   4  -7  -1    2.47    0.27
   4   7   1    2.06    0.29
   4  -7  -1    1.95    0.22
  -7  -4   1    2.14    0.30
   7   4   1    1.86    0.25
   7  -4  -1    1.68    0.25
  -4   7  -1    2.09    0.23
  -4  -7   1    2.17    0.16
  -7  -4   1    2.28    0.24
  -4  -7   1    2.05    0.31
   4   7   3   58.89    1.65
  -7  -4   3   62.12    1.50
  -7  -4   3   60.54    1.69
  -4  -7   3   59.61    1.70
   4   7   3   59.01    1.56
   7   4   3   63.06    1.60
   4   7   3   63.29    1.72
   7  -4  -3   62.35    1.69
  -4   7  -3   63.52    1.52
  -4   7  -3   61.76    1.63
  -7  -4   3   60.06    1.74
   4  -7  -3   59.86    1.61
   4  -7  -3   60.15    1.39
  -4  -7   3   60.85    1.72
   7   4   5   11.43    0.56
  -7  -4   5   11.26    0.69
  -4  -7   5   10.28    0.65
  -7  -4   5   11.06    0.64
   4  -7  -5   10.79    0.39
  -7  -4   5   11.82    0.53
   4   7   5   11.52    0.63
   4  -7  -5   10.96    0.62
   4   7   5   10.68    0.54
   7  -4  -5   12.26    0.67
  -4   7  -5   11.35    0.53
  -7  -4   7    7.45    0.60
  -4  -7   7    7.54    0.57
   7  -4  -7    7.73    0.44
  -4   7  -7    7.86    0.45
  -7  -4   7    8.98    0.59
   4   7   7    7.39    0.45
   7  -4  -7    8.58    0.58
   7   4   7    7.98    0.45
   4  -7  -7    8.05    0.57
  -7  -4   7    8.21    0.46
  -4   7  -9    7.38    0.48
   7  -4  -9    8.03    0.49
   4  -7  -9    7.53    0.59
   7   4   9    7.43    0.42
  -4   7  -9    7.88    0.43
  -4   7  -9    6.99    0.45
  -4  -7   9    7.24    0.59
   7   4   9    6.34    0.31
  -7  -4   9    7.05    0.62
  -7   4  -9    5.83    0.24
  -7  -4   9    7.13    0.46
   7  -4  -9    7.30    0.58
   7  -4 -11    1.15    0.29
   7   4  11    1.39    0.21
  -4  -7  11    1.10    0.30
  -4   7 -11    1.76    0.35
  -4   7 -11    1.20    0.19
   4  -7 -11    1.47    0.33
  -7  -4  11    0.81    0.30
  -4   7 -11    1.03    0.23
  -7  -4  11    1.25    0.23
   7  -4 -13    1.36    0.34
   7   4  13    1.04    0.19
   4  -7 -13    0.96    0.29
  -4  -7  13    1.12    0.33
   4   7  13    1.42    0.23
  -4   7 -13    1.01    0.24
  -4   7 -13    0.60    0.29
  -7  -4  13    0.55    0.30
  -4   7 -13    0.94    0.18
   7  -4 -15    1.38    0.37
   4  -7 -15    1.39    0.37
  -7  -4  15    0.53    0.31
  -4   7 -15    1.61    0.40
  -4  -7  15    1.11    0.34
   4   7  15    0.67    0.18
  -4   7 -15    1.16    0.27
   7  -4 -15    1.53    0.25
   7  -4 -17    2.06    0.42
   7  -4 -17    2.19    0.28
  -7  -4  17    2.40    0.45
  -4  -7  17    1.93    0.41
   4  -7 -17    1.91    0.41
  -4   7 -17    1.96    0.44
  -7  -4  19    0.28    0.29
   7  -4 -19    0.15    0.27
  -4  -7  19    0.24    0.25
   4  -7 -19    0.36    0.29
   7  -4 -21    0.75    0.36
  -7  -4  21    0.06    0.29
   4  -7 -21    0.46    0.35
  -4  -7  21    0.03    0.27
   4  -7 -23    0.46    0.30
   7  -4 -23    0.65    0.37
  -7  -4  23    0.59    0.36
   7   5 -22    1.73    0.45
   7   5 -22    1.68    0.38
   5   7 -22    2.23    0.50
   5   7 -20    0.08    0.19
   7   5 -20    0.08    0.28
   7   5 -20    0.32    0.23
   5   7 -20    0.25    0.31
   5   7 -18    0.66    0.31
   5   7 -18    0.55    0.23
   7   5 -18    0.83    0.33
   7   5 -18    0.22    0.21
   7   5 -16    0.88    0.32
   5   7 -16    1.01    0.35
   5   7 -16    1.41    0.27
   7   5 -16    0.97    0.27
   5   7 -14    0.97    0.21
   5   7 -14    0.69    0.31
   7   5 -14    0.98    0.24
   7   5 -12    1.64    0.26
   5   7 -12    1.85    0.23
   5   7 -10    0.40    0.12
   7   5 -10    0.20    0.14
   7   5  -8   20.71    0.78
  -7   5   8   20.89    0.58
   5   7  -8   20.46    0.63
   7  -5   8   20.93    0.73
   7   5  -6    0.95    0.16
   5  -7   6    1.15    0.21
   5  -7   6    0.86    0.21
   7  -5   6    0.88    0.20
  -7  -5  -6    1.26    0.27
   5   7  -6    0.76    0.10
   7  -5   6    1.31    0.21
   5  -7   4    3.17    0.29
  -7  -5  -4    3.00    0.32
  -5  -7  -4    3.32    0.36
   7  -5   4    3.12    0.33
  -5   7   4    2.69    0.32
  -7  -5  -4    2.84    0.30
  -7  -5  -4    2.75    0.31
   5  -7   4    2.83    0.31
  -7   5   4    3.29    0.29
   7   5  -4    2.61    0.24
  -5   7   2   41.16    1.28
  -7  -5  -2   39.42    1.29
  -5  -7  -2   39.38    1.30
   5  -7   2   39.74    1.19
   5  -7   2   40.67    1.26
   7   5  -2   41.28    1.15
  -7  -5  -2   42.16    1.23
  -7  -5  -2   40.39    1.18
   7   5  -2   38.61    1.10
  -5   7   2   39.77    1.23
   5  -7   2   39.77    1.25
  -7   5   2   41.43    1.12
   7  -5   2   39.16    1.26
   5   7   0   22.23    0.86
  -7  -5   0   23.39    0.81
   7   5   0   23.81    0.94
   7  -5   0   21.83    0.88
  -5  -7   0   21.30    0.91
   5  -7   0   23.45    0.83
   5  -7   0   22.07    0.84
  -5   7   0   23.16    0.86
  -7  -5   0   22.70    0.95
  -5  -7   0   23.92    0.72
   7   5   0   21.38    0.76
  -7  -5   2   38.52    1.34
  -7  -5   2   39.24    1.36
  -5   7  -2   40.44    1.23
  -5  -7   2   42.00    1.38
  -5  -7   2   40.50    0.99
   7  -5  -2   39.18    1.30
  -7   5  -2   41.31    1.30
   5  -7  -2   40.20    1.26
  -7  -5   2   41.84    1.15
   5  -7  -2   40.52    1.13
   5   7   2   38.82    1.27
   7   5   2   42.94    1.31
   5   7   2   42.81    1.36
  -5  -7   2   40.52    1.37
  -5  -7   4    3.05    0.37
   5  -7  -4    2.70    0.32
  -7  -5   4    2.90    0.38
  -5  -7   4    2.63    0.17
  -5   7  -4    3.43    0.31
  -5  -7   4    3.24    0.40
   5  -7  -4    2.80    0.23
   5   7   4    3.19    0.30
   5   7   4    3.29    0.36
  -7  -5   4    2.83    0.25
  -7  -5   4    3.06    0.38
   7   5   4    2.78    0.31
   7  -5  -4    2.72    0.31
  -5   7  -6    0.86    0.18
  -5  -7   6    1.07    0.27
   7   5   6    0.91    0.20
  -7  -5   6    1.16    0.29
   5   7   6    0.98    0.23
  -5  -7   6    1.03    0.12
  -7  -5   6    1.08    0.17
   5  -7  -6    0.82    0.12
   5  -7  -6    1.04    0.25
   5   7   6    1.28    0.22
  -7  -5   6    1.33    0.30
   7  -5  -6    1.06    0.25
  -5   7  -8   21.22    0.76
   5   7   8   20.94    0.90
  -5   7  -8   21.32    0.85
   7   5   8   18.35    0.67
  -7  -5   8   20.86    0.97
   7  -5  -8   22.85    1.03
   7  -5  -8   22.42    0.85
  -7  -5   8   21.93    0.80
   7   5   8   21.39    0.84
  -7  -5   8   20.01    1.02
  -5  -7   8   20.03    1.00
   5  -7  -8   21.71    1.00
   5   7   8   19.37    0.77
  -5   7 -10    0.27    0.12
  -7   5 -10    0.27    0.07
   7   5  10    0.10    0.14
  -7  -5  10    0.27    0.25
   7  -5 -10    0.53    0.22
   5  -7 -10   -0.06    0.22
   7  -5 -10    0.46    0.23
  -7  -5  10    0.31    0.17
  -5  -7  10    0.00    0.24
   5  -7 -12    1.60    0.36
   7   5  12    1.61    0.24
  -5   7 -12    1.68    0.20
  -7  -5  12    1.44    0.37
  -5  -7  12    1.39    0.34
   7  -5 -12    1.47    0.33
   5   7  14    0.91    0.22
   7  -5 -14    1.11    0.33
   5  -7 -14    1.52    0.40
  -7  -5  14    1.20    0.36
   7   5  14    0.90    0.22
  -5  -7  14    1.16    0.35
   7  -5 -16    1.41    0.22
   7  -5 -16    1.28    0.34
  -7  -5  16    1.34    0.38
  -5  -7  16    0.91    0.33
   5  -7 -16    1.58    0.39
  -5  -7  18    0.57    0.31
   5  -7 -18    0.88    0.34
   7  -5 -18    0.66    0.34
  -7  -5  18    0.94    0.37
  -7  -5  20    0.39    0.32
  -5  -7  20   -0.12    0.30
   5  -7 -20   -0.35    0.28
   7  -5 -20    0.56    0.30
   5  -7 -22    1.90    0.50
   7  -5 -22    1.83    0.49
  -7  -5  22    2.11    0.53
  -5  -7  22    1.70    0.43
   7   6 -23    1.23    0.45
   6   7 -23    0.52    0.39
   7   6 -21    0.99    0.38
   6   7 -21    0.95    0.38
   6   7 -19    0.53    0.22
   7   6 -19   -0.20    0.29
   7   6 -19    0.72    0.26
   6   7 -19   -0.36    0.47
   6   7 -17    1.33    0.27
   6   7 -17    2.44    0.46
   7   6 -17    1.53    0.30
   7   6 -17    1.51    0.35
   6   7 -15    1.33    0.26
   6   7 -15    1.15    0.31
   7   6 -15    1.39    0.26
   7   6 -13    1.62    0.27
   6   7 -13    1.58    0.24
   6   7 -11    2.65    0.26
   7   6 -11    2.48    0.29
   6   7  -9    9.41    0.44
   7   6  -9    9.55    0.50
   7  -6   7    5.94    0.40
   6  -7   7    5.28    0.40
   7   6  -7    5.33    0.34
   6   7  -7    5.50    0.30
  -6   7   5    6.02    0.44
   6   7  -5    5.96    0.30
   7  -6   5    5.50    0.44
   7   6  -5    5.63    0.34
   6  -7   5    5.74    0.43
   6  -7   5    5.50    0.41
   7  -6   5    6.11    0.42
   6  -7   3   54.23    1.56
   6  -7   3   54.54    1.59
   7  -6   3   55.23    1.62
  -7  -6  -3   57.58    1.61
   7   6  -3   57.20    1.43
  -6   7   3   58.39    1.59
  -7   6   3   58.10    1.52
  -7  -6  -3   54.48    1.65
  -7  -6  -3   58.85    1.59
  -6   7   1    1.86    0.25
   7  -6   1    1.32    0.24
  -6  -7  -1    1.55    0.32
   6  -7   1    1.69    0.24
   6   7  -1    1.27    0.24
  -7  -6  -1    1.31    0.20
  -6  -7  -1    1.60    0.19
   6  -7   1    1.44    0.23
  -7  -6  -1    1.50    0.28
   7   6  -1    1.76    0.24
  -6  -7  -1    1.10    0.27
   6  -7  -1    1.43    0.22
  -7  -6   1    1.66    0.20
  -6   7  -1    1.38    0.23
   6   7   1    1.47    0.25
   7   6   1    1.80    0.26
  -7  -6   1    1.36    0.29
  -6  -7   1    1.83    0.19
  -6  -7   1    1.57    0.28
  -7  -6   1    1.44    0.29
   7  -6  -1    1.70    0.25
   6  -7  -1    1.78    0.26
  -6  -7   1    1.90    0.32
  -6  -7   3   57.69    1.80
   6  -7  -3   58.57    1.70
  -6  -7   3   58.01    1.36
  -7  -6   3   56.75    1.76
  -7  -6   3   59.23    1.46
   7   6   3   58.79    1.70
  -6   7  -3   61.07    1.67
   7  -6  -3   58.08    1.71
   6  -7  -3   56.49    1.48
  -6  -7   3   56.80    1.76
  -7  -6   3   59.53    1.82
  -6  -7   5    6.18    0.54
  -7  -6   5    5.56    0.33
  -7  -6   5    5.20    0.50
   7   6   5    6.52    0.47
   6   7   5    5.53    0.39
  -7  -6   5    6.39    0.54
   7  -6  -5    5.59    0.46
   6  -7  -5    5.92    0.47
  -6  -7   5    5.88    0.53
  -6  -7   5    5.58    0.29
  -6   7  -5    5.73    0.42
   6   7   7    5.04    0.44
  -6  -7   7    5.39    0.54
  -6  -7   7    5.90    0.31
   7   6   7    4.92    0.35
   7   6   7    5.93    0.45
  -7  -6   7    5.56    0.35
  -7  -6   7    5.11    0.50
   6   7   7    5.04    0.38
   7  -6  -7    5.66    0.50
   6  -7  -7    5.25    0.48
  -7  -6   7    5.28    0.52
  -6  -7   9    9.40    0.70
  -7  -6   9    9.50    0.72
   6   7   9    9.06    0.59
  -7  -6   9   10.16    0.52
   7   6   9   10.01    0.59
   7   6   9    7.56    0.43
   7  -6  -9   11.35    0.74
   6  -7  -9   10.53    0.71
  -6   7  -9    9.39    0.47
   6  -7 -11    2.30    0.38
  -6   7 -11    2.21    0.21
  -7  -6  11    2.32    0.43
  -6  -7  11    2.67    0.43
   7  -6 -11    2.06    0.36
   7   6  11    2.07    0.28
  -7   6 -11    2.40    0.18
  -6  -7  13    1.64    0.38
   6  -7 -13    1.13    0.12
   7   6  13    1.56    0.28
   7  -6 -13    1.60    0.38
   6  -7 -13    1.61    0.35
  -6   7 -13    1.04    0.15
  -7  -6  13    1.47    0.38
  -7  -6  15    1.02    0.36
   6  -7 -15    0.89    0.36
   7  -6 -15    1.10    0.17
   7  -6 -15    1.25    0.35
  -6  -7  15    1.20    0.37
  -7  -6  17    1.34    0.40
   6  -7 -17    2.15    0.47
  -6  -7  17    1.46    0.38
   7  -6 -17    1.81    0.43
  -7  -6  19    0.12    0.30
  -6  -7  19    0.56    0.33
   7  -6 -19    0.68    0.37
   6  -7 -19    0.31    0.28
   7  -6 -21    0.61    0.39
  -6  -7  21    0.65    0.34
   6  -7 -21    0.46    0.30
  -7  -6  21    1.29    0.40
   6  -7 -23    1.05    0.45
  -6  -7  23    0.56    0.32
   7  -6 -23    0.12    0.31
  -7  -6  23    0.32    0.35
   7   7 -22    0.67    0.38
   7   7 -20    2.55    0.49
   7   7 -18   -0.02    0.17
   7   7 -18    0.33    0.27
   7   7 -16    2.56    0.46
   7   7 -16    1.95    0.30
   7   7 -14   11.73    0.65
   7   7 -12    5.10    0.39
   7   7 -10    5.58    0.37
   7   7  -8   37.44    1.07
   7  -7   8   36.86    1.18
   7  -7   6    1.47    0.25
   7   7  -6    1.53    0.18
   7  -7   6    1.35    0.24
   7  -7   4    7.39    0.50
  -7  -7  -4    7.79    0.50
   7   7  -4    7.73    0.38
   7  -7   4    7.93    0.50
  -7   7   4    7.44    0.49
   7   7  -2   59.07    1.62
  -7   7   2   59.79    1.63
  -7  -7  -2   63.19    1.64
   7  -7   2   59.55    1.70
   7  -7   0   16.09    0.72
   7   7   0   16.38    0.72
  -7  -7   0   16.72    0.65
  -7  -7   0   16.67    0.84
  -7  -7   0   16.22    0.83
   7  -7   0   15.12    0.74
  -7  -7   2   60.48    1.85
   7  -7  -2   60.00    1.77
  -7  -7   2   61.62    1.89
  -7  -7   2   61.23    1.51
  -7  -7   4    7.70    0.60
  -7  -7   4    8.10    0.39
  -7  -7   4    7.40    0.60
   7  -7  -4    7.56    0.55
  -7  -7   6    1.32    0.17
  -7  -7   6    1.83    0.37
   7  -7  -6    1.58    0.29
  -7  -7   6    1.48    0.32
   7   7   6    1.58    0.24
  -7  -7   8   37.25    1.48
  -7  -7   8   38.92    1.08
   7  -7  -8   38.01    1.45
   7   7   8   33.26    1.10
  -7   7 -10    6.07    0.36
   7  -7 -10    5.76    0.56
  -7  -7  10    5.50    0.58
  -7   7 -12    4.76    0.28
  -7  -7  12    5.26    0.61
   7  -7 -12    5.42    0.58
  -7  -7  14   10.06    0.84
   7  -7 -14   10.56    0.43
   7  -7 -16    2.03    0.42
  -7  -7  16    2.59    0.50
  -7  -7  18    0.06    0.28
   7  -7 -18    0.15    0.30
  -7  -7  20    2.48    0.51
   7  -7 -20    2.34    0.49
   7  -7 -22    1.90    0.52
  -7  -7  22    1.08    0.40
   0   8   0    1.83    0.23
   8   0   0    2.20    0.28
   0   8   0    2.19    0.27
   0  -8   0    2.20    0.18
   0  -8   2    2.48    0.15
   8   0   2    2.32    0.29
  -8   0  -2    2.27    0.28
   0  -8  -2    2.70    0.32
   0  -8  -2    2.60    0.24
   0   8  -2    2.28    0.27
   0   8   2    2.18    0.25
   0   8  -2    2.92    0.33
   0   8   2    2.30    0.22
   8   0  -2    2.15    0.28
   0   8  -4    5.86    0.44
   0  -8  -4    5.11    0.38
  -8   0  -4    5.49    0.34
   0  -8  -4    5.05    0.41
   0   8   4    4.82    0.25
   8   0   4    5.20    0.42
   8   0  -4    5.25    0.41
   0   8  -4    3.83    0.17
   0   8  -4    4.23    0.38
  -8   0   4    5.98    0.43
  -8   0  -6    1.27    0.16
   0   8  -6    0.90    0.09
   0   8   6    1.05    0.10
   0  -8  -6    1.13    0.17
   0  -8  -6    1.63    0.26
  -8   0   6    1.53    0.25
   0   8  -6    1.12    0.23
   8   0  -6    0.92    0.20
   0  -8  -6    1.39    0.26
   0   8  -8    1.87    0.28
   0  -8  -8    1.85    0.19
   8   0  -8    1.64    0.27
   0   8  -8    1.79    0.15
   0  -8  -8    1.77    0.31
  -8   0  -8    1.49    0.14
   0  -8  -8    1.46    0.26
  -8   0   8    1.65    0.27
   0  -8 -10   11.96    0.46
   0   8 -10   11.52    0.48
  -8   0  10   12.52    0.64
   0  -8 -10   11.84    0.68
   8   0 -10   12.68    0.73
   0  -8 -10   12.46    0.79
   0  -8 -12    2.58    0.41
   0   8 -12    3.42    0.47
   0  -8 -12    3.28    0.40
   8   0 -12    3.27    0.41
   0   8 -14    1.52    0.39
   8   0 -14    1.22    0.30
   0  -8 -14    1.57    0.34
   0  -8 -14    1.35    0.37
   0  -8 -16    2.28    0.47
   8   0 -16    2.51    0.39
   0  -8 -16    2.94    0.42
   0   8 -16    2.43    0.47
   0   8 -18    0.12    0.17
   0  -8 -18   -0.53    0.28
   0   8 -18    0.04    0.30
   8   0 -18    0.30    0.24
   8   0 -18    0.48    0.28
   0  -8 -18    0.25    0.30
   8   0 -20   -0.28    0.27
   0   8 -20    0.32    0.23
  -8   0  20    0.38    0.32
   8   0 -20    0.46    0.29
   0   8 -20    0.71    0.36
   0  -8 -20    0.19    0.27
   0  -8 -20    0.51    0.28
   8   0 -22    0.15    0.25
   0  -8 -22   -0.71    0.41
   8   0 -22    0.05    0.24
   0   8 -22    0.02    0.31
  -8   0  22   -0.26    0.35
   0  -8 -24   -0.11    0.29
  -8   0  24    0.72    0.38
   8   0 -24    0.06    0.25
   0   8 -24    0.45    0.37
  -1  -8 -23    0.39    0.30
   8   1 -23    0.70    0.35
   1   8 -23    1.00    0.41
   8   1 -23    1.20    0.37
  -8   1  23    0.15    0.32
   8   1 -21    0.74    0.34
   8   1 -21    0.53    0.28
   1   8 -21    1.17    0.42
  -1  -8 -21    0.53    0.32
   8   1 -19    0.23    0.21
   1   8 -19   -0.05    0.17
  -1  -8 -19    0.23    0.34
  -1  -8 -19    0.16    0.23
   1   8 -19    0.04    0.29
   8   1 -19   -0.29    0.26
   8   1 -17    4.30    0.52
   8   1 -17    4.57    0.49
   1   8 -17    4.19    0.58
   1   8 -17    3.58    0.40
  -1  -8 -17    3.58    0.42
  -1  -8 -17    3.88    0.57
  -1  -8 -15    5.85    0.65
   1   8 -15    5.38    0.45
   1   8 -15    6.70    0.66
  -1  -8 -15    6.33    0.53
   8   1 -15    5.76    0.57
  -1  -8 -13    3.47    0.48
   1   8 -13    2.77    0.30
  -1  -8 -13    3.47    0.41
   8   1 -13    3.41    0.42
   1   8 -13    3.87    0.53
  -1  -8 -11    3.60    0.48
   8   1 -11    2.74    0.35
   1   8 -11    3.12    0.43
   1   8 -11    2.53    0.24
  -1  -8 -11    2.65    0.34
   1   8  -9    2.81    0.19
   1   8  -9    2.92    0.20
  -1  -8  -9    2.83    0.35
  -1  -8  -9    3.98    0.45
   8   1  -9    3.38    0.36
  -8   1   9    3.26    0.32
   8  -1   9    2.75    0.14
  -1  -8  -7   30.24    1.00
   8   1  -7   27.62    0.99
  -1  -8  -7   27.98    1.08
  -8  -1  -7   27.93    0.74
  -8   1   7   29.31    0.90
  -1  -8  -7   27.77    0.81
   1   8  -5   36.38    1.21
  -1  -8  -5   34.98    1.17
  -8  -1  -5   35.55    1.00
  -1  -8  -5   35.85    1.03
  -1   8   5   31.25    0.78
  -1  -8  -5   34.96    1.16
   8   1  -5   36.52    1.18
  -1  -8  -3    2.92    0.28
   8  -1   3    2.23    0.29
   1   8  -3    2.43    0.30
   1  -8   3    2.64    0.18
  -1  -8  -3    2.46    0.31
  -1  -8  -3    2.47    0.27
   8   1  -3    2.59    0.29
  -8  -1  -3    2.31    0.27
  -1   8   3    2.52    0.24
  -1   8   3    2.22    0.19
   1   8  -1   35.86    1.15
  -8  -1  -1   33.78    1.11
  -1   8   1   32.37    0.98
  -1   8   1   36.27    1.06
  -1   8   1   33.15    0.99
   1  -8   1   33.39    0.88
  -1  -8  -1   36.20    0.95
   1  -8   1   33.33    1.13
   8  -1   1   33.61    1.15
   8   1  -1   33.21    1.11
  -1   8  -1   34.70    0.91
  -8  -1   1   33.47    1.16
   8   1   1   33.91    1.13
   1   8   1   35.93    1.08
   8  -1  -1   33.46    1.14
  -8  -1   1   35.77    1.13
  -1   8  -1   32.29    1.05
   1  -8  -1   35.16    1.16
  -1  -8   1   32.44    0.80
   1  -8  -1   34.06    0.97
   8   1   3    2.07    0.27
   1  -8  -3    2.32    0.26
   8  -1  -3    2.06    0.28
   1  -8  -3    2.28    0.32
  -1   8  -3    2.20    0.16
  -1   8  -3    2.42    0.30
  -8  -1   3    2.04    0.26
   1  -8  -5   34.77    1.20
  -1   8  -5   34.22    1.22
  -8   1  -5   36.83    0.99
   8  -1  -5   36.36    1.22
  -1   8  -5   35.20    0.86
  -1   8  -5   36.12    1.18
  -8  -1   5   38.01    1.19
   1  -8  -5   35.56    1.17
   8  -1  -5   31.82    0.77
  -1   8  -5   35.70    1.17
  -1   8  -7   28.82    1.03
   1  -8  -7   28.85    1.11
  -8   1  -7   27.38    0.75
   1  -8  -7   29.62    1.09
  -8  -1   7   27.44    1.01
   8  -1  -7   27.87    1.09
  -1   8  -7   28.65    0.78
  -1   8  -9    3.52    0.35
   1  -8  -9    3.27    0.39
   1  -8  -9    3.31    0.40
  -1   8  -9    3.13    0.23
  -8  -1   9    3.12    0.35
   8  -1  -9    3.38    0.38
   1   8   9    2.40    0.14
  -1   8 -11    2.72    0.32
   1  -8 -11    2.10    0.14
   8  -1 -11    2.51    0.36
  -1   8 -11    2.71    0.25
  -1  -8  11    2.32    0.36
  -1   8 -11    2.50    0.42
   1  -8 -11    3.29    0.44
   1   8  11    1.98    0.12
   8  -1 -13    2.95    0.42
  -1   8 -13    3.35    0.48
   1  -8 -13    2.83    0.45
   1  -8 -13    2.14    0.15
  -1  -8  13    3.32    0.41
   1  -8 -15    6.04    0.66
  -1   8 -15    5.65    0.64
  -1  -8  15    5.20    0.50
   8  -1 -15    5.78    0.60
   1  -8 -17    3.94    0.60
  -8  -1  17    4.11    0.55
   8  -1 -17    4.19    0.44
  -1   8 -17    4.10    0.58
  -1  -8  17    4.16    0.47
   8  -1 -17    3.70    0.52
   8  -1 -19    0.16    0.21
   1  -8 -19    0.09    0.27
  -1   8 -19   -0.01    0.33
  -8  -1  19    0.37    0.34
  -1  -8  19   -0.27    0.27
   8  -1 -19   -0.24    0.24
   8  -1 -21    0.72    0.34
   1  -8 -21    0.92    0.40
  -8  -1  21    0.63    0.32
  -1   8 -21    0.09    0.36
   8  -1 -21    0.89    0.31
  -8  -1  23    0.05    0.32
   8  -1 -23   -0.09    0.33
   1  -8 -23    0.79    0.34
  -1   8 -23    0.11    0.34
   2   8 -24    0.76    0.43
   8   2 -24    0.42    0.31
  -2  -8 -24    1.03    0.41
  -2  -8 -22   -0.02    0.29
   8   2 -22   -0.08    0.23
   2   8 -22    0.71    0.37
   8   2 -22    0.06    0.26
   8   2 -20    0.44    0.25
   2   8 -20    0.31    0.35
  -2  -8 -20    0.40    0.34
   8   2 -20    0.64    0.29
   2   8 -18    1.95    0.31
   8   2 -18    1.80    0.37
   2   8 -18    2.03    0.46
   8   2 -18    2.09    0.38
  -2  -8 -18    2.51    0.50
  -2  -8 -18    2.56    0.34
   2   8 -16    3.12    0.49
   2   8 -16    3.10    0.36
   8   2 -16    3.57    0.47
  -2  -8 -16    2.67    0.35
   8   2 -14    3.95    0.46
   2   8 -14    3.33    0.33
   2   8 -14    3.93    0.52
  -2  -8 -14    4.18    0.42
   2   8 -12    5.19    0.35
  -2  -8 -12    6.39    0.49
   2   8 -12    6.30    0.60
   8   2 -12    5.81    0.51
  -8   2  10   13.74    0.59
   2   8 -10   11.84    0.46
   8   2 -10   13.43    0.73
  -2  -8 -10   13.66    0.69
  -2  -8  -8   25.80    0.92
  -8   2   8   26.61    0.81
   8   2  -8   25.92    0.95
  -8  -2  -6    3.68    0.28
  -2  -8  -6    3.90    0.36
   8   2  -6    3.94    0.35
  -2  -8  -6    4.11    0.33
  -8  -2  -4   59.55    1.57
   2  -8   4   63.18    1.42
  -2  -8  -4   58.85    1.59
  -2   8   4   62.78    1.42
   8   2  -4   60.97    1.66
   8  -2   4   58.74    1.73
   2  -8   4   58.66    1.71
  -2   8   4   58.97    1.69
   2  -8   2   28.26    0.98
  -8  -2  -2   27.31    0.81
   2  -8   2   28.82    1.03
   2  -8   2   29.02    0.81
  -2   8   2   29.87    0.90
  -2  -8  -2   28.18    0.98
   2   8  -2   29.91    1.07
  -8  -2  -2   28.51    0.99
  -2   8   2   27.87    0.83
   8   2  -2   28.69    0.99
   8  -2   2   28.21    1.05
  -8  -2  -2   30.13    1.03
  -2   8   2   28.97    0.96
   2  -8   0    0.55    0.22
  -8  -2   0    0.78    0.20
  -2  -8   0    0.81    0.13
  -2  -8   0    0.80    0.23
   8   2   0    0.72    0.18
   2  -8   0    0.66    0.13
  -2   8   0    1.02    0.19
   8  -2   0    0.74    0.20
  -8  -2   0    0.71    0.17
  -2   8   0    0.66    0.14
   2   8   0    0.54    0.19
   8  -2  -2   29.07    1.06
  -2   8  -2   28.41    1.01
  -8  -2   2   30.66    1.02
   8   2   2   28.80    1.03
  -8  -2   2   29.86    1.11
   2  -8  -2   31.48    0.96
  -2   8  -2   29.17    0.85
   2  -8  -2   28.95    1.07
   2   8   4   60.19    1.67
  -8  -2   4   59.08    1.82
  -2   8  -4   61.37    1.44
   2  -8  -4   61.13    1.74
   8  -2  -4   60.56    1.75
   2  -8  -4   61.32    1.68
  -8  -2   4   62.71    1.66
  -2   8  -4   58.57    1.72
  -2   8  -4   64.59    1.73
  -8  -2   6    4.42    0.47
   8  -2  -6    4.13    0.24
  -2   8  -6    4.48    0.38
  -8  -2   6    3.90    0.39
   2  -8  -6    4.36    0.40
   2  -8  -6    4.10    0.41
   8  -2  -6    3.85    0.38
  -2   8  -6    4.57    0.40
  -2   8  -6    4.16    0.26
  -8  -2   6    4.10    0.35
  -8  -2   8   25.40    1.14
  -8   2  -8   23.56    0.63
  -2   8  -8   27.60    0.98
   2  -8  -8   27.91    1.12
  -2   8  -8   26.18    0.81
  -8  -2   8   27.00    1.03
   8  -2  -8   27.26    1.11
  -2  -8   8   25.07    1.05
  -2   8 -10   13.11    0.65
  -8  -2  10   13.20    0.72
  -8  -2  10   12.96    0.84
  -2   8 -10   12.13    0.56
  -2  -8  10   12.87    0.74
   8  -2 -10   13.14    0.79
   2  -8 -10   13.90    0.83
   2  -8 -12    6.43    0.61
  -2   8 -12    6.15    0.45
  -8  -2  12    5.79    0.62
  -2  -8  12    5.73    0.53
  -2   8 -12    5.82    0.41
   8  -2 -12    6.90    0.60
   2   8  12    5.99    0.30
  -2   8 -12    7.05    0.64
   8  -2 -14    4.56    0.53
   2   8  14    4.05    0.26
  -8  -2  14    4.31    0.56
   2  -8 -14    4.42    0.56
  -2   8 -14    3.63    0.37
  -2   8 -14    3.88    0.52
  -2  -8  14    3.79    0.47
   8  -2 -16    2.90    0.46
   2  -8 -16    3.08    0.51
  -2   8 -16    3.22    0.50
  -2  -8  16    2.81    0.42
  -8  -2  16    2.85    0.48
  -2  -8  18    2.12    0.39
   8  -2 -18    1.44    0.38
   2  -8 -18    2.47    0.51
   8  -2 -18    2.21    0.33
  -2   8 -18    2.68    0.52
  -8  -2  18    1.85    0.44
  -2   8 -20    1.43    0.43
  -8  -2  20    1.01    0.38
   2  -8 -20    0.50    0.31
   8  -2 -20    1.14    0.38
   8  -2 -20    1.41    0.31
  -2  -8  20    0.93    0.30
  -8  -2  22   -0.18    0.34
   8  -2 -22    0.33    0.28
   2  -8 -22    0.39    0.31
  -2   8 -22   -0.34    0.38
   8  -2 -24    0.00    0.29
  -2   8 -24    1.24    0.45
   2  -8 -24    0.37    0.36
  -8  -2  24    0.53    0.33
   8   3 -23    0.13    0.22
   3   8 -23   -0.50    0.41
   8   3 -23    0.15    0.26
  -3  -8 -23   -0.42    0.39
  -3  -8 -21    0.57    0.33
   8   3 -21    0.49    0.26
   3   8 -21    0.97    0.38
   8   3 -21    0.96    0.34
   8   3 -19   -0.01    0.22
   3   8 -19    0.36    0.21
   8   3 -19    0.72    0.27
   3   8 -19    0.16    0.28
   8   3 -17    2.80    0.42
   8   3 -17    3.89    0.49
   3   8 -17    2.70    0.33
   3   8 -17    2.91    0.52
  -3  -8 -17    3.70    0.38
   3   8 -15    2.98    0.32
   8   3 -15    3.10    0.42
  -3  -8 -15    3.33    0.36
   3   8 -15    3.26    0.49
  -3  -8 -13    5.74    0.46
   8   3 -13    5.00    0.48
   3   8 -13    5.00    0.36
   3   8 -13    6.20    0.62
   3   8 -11    1.61    0.33
  -3  -8 -11    1.33    0.27
   8   3 -11    1.36    0.26
   3   8 -11    1.22    0.16
  -8   3   9    7.64    0.40
   8   3  -9    7.82    0.52
   8  -3   9    7.45    0.33
   3   8  -9    6.01    0.26
   8   3  -7   22.18    0.88
  -3  -8  -5    8.46    0.51
   3  -8   5    9.17    0.43
   8  -3   5    9.13    0.57
  -3   8   5    9.74    0.60
  -3   8   5    8.91    0.35
   8   3  -5    9.29    0.52
  -8  -3  -5    8.93    0.49
   3  -8   3    3.71    0.37
   8  -3   3    3.95    0.38
  -8  -3  -3    4.09    0.36
   8   3  -3    4.23    0.23
   3  -8   3    4.11    0.28
   8   3  -3    3.69    0.33
  -3  -8  -3    3.84    0.35
  -3   8   3    4.21    0.39
   3  -8   3    4.06    0.37
  -8  -3  -3    3.74    0.30
  -3   8   3    3.82    0.33
  -8  -3  -3    3.97    0.34
   3  -8   1   14.41    0.65
  -3   8   1   16.18    0.67
  -8  -3  -1   15.49    0.56
   3  -8   1   16.56    0.62
   8  -3   1   15.66    0.74
  -8  -3  -1   16.56    0.74
  -8  -3  -1   16.40    0.71
  -3  -8  -1   16.01    0.73
   3   8  -1   16.45    0.76
   3  -8   1   16.28    0.75
  -3   8   1   15.99    0.61
   8   3  -1   15.23    0.68
   3  -8  -1   16.72    0.66
  -8  -3   1   15.53    0.77
   3  -8  -1   15.99    0.76
   8   3   1   15.72    0.70
  -3  -8   1   15.72    0.76
   8  -3  -1   15.74    0.75
  -8  -3   1   16.93    0.70
  -3   8  -1   15.93    0.62
   3  -8  -1   15.82    0.62
  -3   8  -1   16.42    0.68
   8   3   3    3.87    0.35
  -8  -3   3    3.70    0.41
   3  -8  -3    3.35    0.36
   3  -8  -3    3.95    0.25
  -8  -3   3    4.11    0.33
   8  -3  -3    3.15    0.34
   3   8   3    3.54    0.34
  -3   8  -3    3.77    0.36
   3  -8  -3    3.65    0.33
  -3   8  -3    4.07    0.28
   8   3   5    9.90    0.52
   3  -8  -5    9.75    0.58
  -8  -3   5    9.93    0.60
  -8  -3   5    9.20    0.63
  -3   8  -5    9.93    0.46
   8  -3  -5    8.66    0.58
  -3   8  -5    9.17    0.59
  -8  -3   5   10.03    0.53
  -3   8  -5    9.53    0.57
  -3  -8   5    9.63    0.62
   3   8   5    9.20    0.53
   8   3   7   22.13    0.79
   3  -8  -7   24.63    1.02
  -3   8  -7   23.54    0.93
  -3   8  -7   23.11    0.78
  -3  -8   7   20.44    0.97
   8  -3  -7   22.86    0.74
  -8  -3   7   20.50    0.93
   8  -3  -7   22.50    1.00
  -8  -3   7   21.12    1.05
  -8  -3   7   22.18    0.88
  -3   8  -7   22.82    0.88
  -3  -8   9    6.30    0.53
   8   3   9    7.50    0.41
   8  -3  -9    7.83    0.46
  -3   8  -9    7.88    0.44
  -8  -3   9    8.01    0.58
   8   3   9    5.77    0.27
  -8  -3   9    7.86    0.65
   8  -3  -9    7.19    0.57
   3  -8  -9    7.90    0.59
  -3   8  -9    7.64    0.47
   8   3  11    1.42    0.19
  -3   8 -11    1.10    0.19
  -3   8 -11    1.73    0.34
  -8  -3  11    1.48    0.41
  -3   8 -11    1.51    0.22
   8  -3 -11    1.89    0.34
   3  -8 -11    1.90    0.34
  -3  -8  11    1.44    0.33
  -8  -3  13    5.24    0.61
   3  -8 -13    6.28    0.63
  -3   8 -13    4.65    0.38
   8  -3 -13    6.91    0.64
   3   8  13    5.57    0.34
  -3  -8  13    5.64    0.55
  -3   8 -13    7.37    0.67
   8   3  13    4.63    0.29
   3  -8 -15    2.61    0.46
  -8  -3  15    3.02    0.50
   8  -3 -15    3.37    0.49
  -3   8 -15    3.09    0.51
  -3  -8  15    2.56    0.42
   8  -3 -17    2.73    0.48
  -3  -8  17    2.86    0.46
  -8  -3  17    2.94    0.50
   3  -8 -17    1.97    0.46
  -3   8 -17    3.61    0.55
   8  -3 -17    3.49    0.39
   8  -3 -19    0.13    0.18
   8  -3 -19    0.26    0.24
  -8  -3  19    0.23    0.30
  -3  -8  19   -0.22    0.26
  -3   8 -19    0.45    0.38
   3  -8 -19    0.11    0.29
  -3  -8  21    0.16    0.25
  -3   8 -21    0.27    0.35
  -8  -3  21    0.37    0.29
   3  -8 -21    0.20    0.31
   8  -3 -21    0.85    0.34
   8  -3 -23    0.53    0.32
   3  -8 -23    0.08    0.29
  -8  -3  23    0.23    0.32
   8   4 -22    0.18    0.24
   4   8 -22    0.19    0.34
   8   4 -22   -0.12    0.27
   8   4 -20    0.08    0.25
   4   8 -20    0.63    0.39
   8   4 -20    0.17    0.24
   8   4 -18    2.63    0.43
   4   8 -18    2.48    0.35
   4   8 -18    2.48    0.49
   8   4 -18    2.19    0.42
   8   4 -16    0.00    0.18
   4   8 -16   -0.06    0.16
   4   8 -14    0.79    0.18
   8   4 -14    0.70    0.22
   4   8 -14    0.76    0.33
   4   8 -12    6.12    0.60
   8   4 -12    6.33    0.51
   4   8 -12    5.54    0.35
   4   8 -10    2.28    0.37
   8   4 -10    1.50    0.25
   4   8 -10    1.50    0.15
   8  -4   8    3.47    0.27
  -8   4   8    4.21    0.28
   8   4  -8    3.81    0.34
   8  -4   6    0.97    0.22
  -4   8   6    0.76    0.25
   8   4  -6    0.83    0.17
  -4   8   6    0.60    0.08
  -8  -4  -4    1.77    0.26
  -8  -4  -4    1.87    0.25
  -4   8   4    1.62    0.28
   8  -4   4    1.91    0.28
   4  -8   4    1.91    0.22
   8   4  -4    2.00    0.24
   4  -8   4    1.69    0.27
  -4  -8  -4    1.80    0.28
   4  -8   2   12.38    0.55
  -4  -8  -2   11.71    0.64
   8   4  -2   12.21    0.47
   4  -8   2   12.87    0.66
   8   4  -2   12.57    0.59
  -8  -4  -2   12.91    0.64
   8  -4   2   12.26    0.66
  -8   4   2   12.94    0.48
  -4   8   2   11.95    0.62
  -8  -4  -2   12.11    0.54
   4  -8   2   12.10    0.63
  -4   8   2   12.97    0.65
  -8  -4  -2   12.55    0.66
   4   8   0    0.87    0.23
  -4   8   0    0.91    0.17
   8  -4   0    0.88    0.21
   4  -8   0    0.93    0.25
   8   4   0    1.23    0.26
   8   4   0    0.95    0.19
  -8  -4   0    1.08    0.18
  -8  -4   0    1.10    0.26
  -4  -8   0    1.25    0.27
   4  -8   0    1.00    0.20
   4  -8   0    0.93    0.18
   4   8   2   12.18    0.65
   4  -8  -2   12.51    0.68
   8   4   2   12.90    0.65
  -8  -4   2   12.91    0.59
  -4  -8   2   12.02    0.68
   4  -8  -2   12.22    0.60
   8  -4  -2   12.06    0.65
  -4   8  -2   12.74    0.57
   4  -8  -2   12.31    0.52
  -4   8  -2   13.01    0.62
  -4  -8   2   10.63    0.35
  -8  -4   2   11.97    0.70
  -8  -4   4    1.69    0.32
   4  -8  -4    1.88    0.27
   8   4   4    1.89    0.25
   4   8   4    1.65    0.30
   4  -8  -4    1.64    0.17
  -4   8  -4    1.55    0.26
  -8  -4   4    1.80    0.23
   8  -4  -4    2.01    0.30
  -4   8  -4    1.81    0.22
   4   8   4    1.86    0.25
  -8  -4   4    1.67    0.31
  -4  -8   4    1.82    0.31
   4  -8  -6    1.15    0.24
   8   4   6    0.74    0.19
   4  -8  -6    0.73    0.09
  -8  -4   6    1.10    0.30
  -8  -4   6    0.73    0.16
   8  -4  -6    0.98    0.23
  -4  -8   6    1.09    0.27
   4   8   6    0.78    0.19
  -4   8  -6    0.84    0.17
  -8  -4   6    0.37    0.22
  -4   8  -6    0.99    0.27
  -4   8  -8    3.76    0.33
   4  -8  -8    3.68    0.41
   8  -4  -8    3.12    0.39
  -8  -4   8    3.36    0.46
  -8  -4   8    3.25    0.39
   8   4   8    3.42    0.31
   8  -4  -8    3.86    0.33
  -4   8  -8    4.49    0.40
  -8  -4   8    3.59    0.33
  -4   8  -8    4.05    0.33
  -4  -8   8    3.68    0.44
  -4  -8  10    1.50    0.35
  -4   8 -10    1.96    0.36
  -4   8 -10    1.74    0.24
   4  -8 -10    1.85    0.35
   8   4  10    1.52    0.22
  -4   8 -10    1.66    0.29
  -8  -4  10    1.55    0.37
   8  -4 -10    1.87    0.29
   8   4  10    1.20    0.14
  -4   8 -10    1.60    0.24
   8  -4 -10    1.49    0.31
   8   4  12    5.73    0.38
  -4   8 -12    5.78    0.40
  -8  -4  12    5.14    0.59
   4  -8 -12    6.94    0.63
   8  -4 -12    6.56    0.61
  -4  -8  12    5.15    0.56
  -4   8 -12    6.92    0.67
  -4  -8  14    0.72    0.34
  -8  -4  14    0.98    0.37
  -4   8 -14    1.12    0.40
   8  -4 -14    0.64    0.29
   4   8  14    0.44    0.17
   4  -8 -14    0.60    0.27
   4  -8 -16    0.36    0.29
  -4   8 -16    0.06    0.30
  -8  -4  16   -0.46    0.34
   8  -4 -16   -0.37    0.28
  -4  -8  16    0.07    0.24
   8  -4 -16    0.03    0.16
   8  -4 -18    2.15    0.44
  -8  -4  18    1.92    0.47
   8  -4 -18    2.22    0.31
   4  -8 -18    2.11    0.47
  -4  -8  18    2.16    0.43
  -4   8 -18    2.67    0.55
   8  -4 -20    0.86    0.36
  -4  -8  20    0.44    0.32
  -8  -4  20    0.61    0.35
   4  -8 -20    0.43    0.34
  -4  -8  22   -0.14    0.29
  -8  -4  22    0.33    0.32
   4  -8 -22    0.17    0.30
   8  -4 -22    0.06    0.30
   8   5 -23    0.22    0.33
   5   8 -23   -0.30    0.38
   8   5 -21    0.30    0.23
   8   5 -21    0.35    0.32
   5   8 -21    0.75    0.38
   8   5 -19   -0.07    0.25
   8   5 -19    0.15    0.18
   5   8 -19    0.58    0.33
   8   5 -17    2.32    0.36
   5   8 -17    1.76    0.27
   5   8 -17    2.08    0.43
   8   5 -17    2.44    0.46
   5   8 -15    0.67    0.20
   8   5 -15    1.31    0.27
   5   8 -15    0.87    0.36
   5   8 -13    5.03    0.56
   8   5 -13    5.01    0.45
   5   8 -13    4.92    0.36
   8   5 -11    0.89    0.21
   5   8 -11    0.75    0.13
  -8   5   9    1.20    0.16
   5   8  -9    1.14    0.13
   8   5  -9    1.16    0.22
   8  -5   9    1.03    0.18
   8   5  -7   10.46    0.53
   8  -5   7    9.53    0.48
   5   8  -7    7.85    0.29
  -5   8   5    0.46    0.22
  -8  -5  -5    0.41    0.22
   5  -8   5    0.07    0.18
   5  -8   5    0.01    0.12
   8   5  -5    0.10    0.11
   8  -5   5    0.11    0.15
  -8  -5  -3    3.09    0.33
   8   5  -3    3.17    0.26
  -8  -5  -3    3.11    0.31
  -5   8   3    3.25    0.34
  -8  -5  -3    3.18    0.32
  -5  -8  -3    3.03    0.37
   8  -5   3    3.10    0.34
   8   5  -3    2.94    0.28
  -8   5   3    3.14    0.27
   5  -8   3    2.74    0.33
   5  -8   3    2.67    0.27
  -8  -5  -1    4.52    0.43
  -5  -8  -1    4.40    0.43
   8  -5   1    5.01    0.42
  -8  -5  -1    5.30    0.39
   8   5  -1    5.02    0.33
   5   8  -1    4.31    0.39
   8   5  -1    5.12    0.36
   5  -8   1    5.30    0.44
   5  -8   1    5.23    0.37
   5  -8   1    4.83    0.38
  -5   8   1    5.03    0.39
   5   8   1    5.09    0.42
  -8  -5   1    5.23    0.48
  -5  -8   1    5.35    0.28
  -5  -8   1    5.23    0.47
  -8  -5   1    5.22    0.37
   5  -8  -1    4.99    0.39
  -5   8  -1    5.28    0.39
   5  -8  -1    5.19    0.37
   8  -5  -1    4.92    0.43
  -5  -8   3    3.06    0.40
  -8  -5   3    3.29    0.40
   5   8   3    2.57    0.34
  -8  -5   3    2.85    0.27
  -5  -8   3    3.07    0.39
  -5   8  -3    3.53    0.31
   5  -8  -3    3.28    0.33
   8  -5  -3    2.92    0.35
   8   5   3    3.25    0.34
  -5  -8   3    2.82    0.17
   5  -8  -3    3.22    0.27
  -8  -5   3    3.33    0.41
   5  -8  -5    0.15    0.10
  -5  -8   5    0.09    0.05
  -5  -8   5    0.15    0.23
   8   5   5    0.32    0.19
   5  -8  -5    0.49    0.18
  -5  -8   5    0.13    0.24
  -8  -5   5   -0.07    0.23
  -5   8  -5    0.31    0.14
  -8  -5   5    0.09    0.23
   8  -5  -5    0.19    0.19
  -8  -5   5    0.12    0.11
   5   8   5    0.08    0.15
  -5  -8   7    9.66    0.70
  -8  -5   7   10.16    0.73
  -8  -5   7    9.79    0.52
  -8  -5   7    9.98    0.67
   5   8   7    8.65    0.52
   8   5   7   10.07    0.56
  -5   8  -7   10.08    0.67
   8  -5  -7   11.23    0.70
   5  -8  -7    8.46    0.33
   5  -8  -7   11.25    0.69
  -5   8  -7    9.93    0.55
  -5   8  -9    1.17    0.21
  -5  -8   9    1.22    0.35
   8  -5  -9    0.77    0.21
  -8  -5   9    0.61    0.30
  -8  -5   9    0.65    0.17
  -8  -5   9    1.23    0.33
   8   5   9    1.16    0.17
  -5   8  -9    1.02    0.31
   8   5   9    1.07    0.22
   5  -8  -9    1.68    0.35
   8  -5  -9    1.08    0.26
   5  -8 -11    1.13    0.30
  -5   8 -11    0.91    0.18
   8   5  11    0.97    0.21
  -8  -5  11    0.78    0.36
   8  -5 -11    0.72    0.25
  -5   8 -11    0.82    0.30
  -5  -8  11    0.67    0.31
   8   5  13    5.02    0.39
  -5   8 -13    4.58    0.34
  -5  -8  13    4.89    0.57
  -8  -5  13    4.57    0.59
  -5   8 -13    4.68    0.56
   8  -5 -13    4.92    0.57
   5  -8 -13    5.43    0.60
   8  -5 -15    1.27    0.38
   5  -8 -15    1.15    0.36
  -8  -5  15    0.85    0.35
  -5  -8  15    0.91    0.34
   8  -5 -17    3.08    0.53
  -5  -8  17    2.41    0.46
  -8  -5  17    2.35    0.51
   8  -5 -17    2.83    0.31
   5  -8 -17    2.29    0.46
   5  -8 -19    0.37    0.31
  -8  -5  19   -0.39    0.32
   8  -5 -19    0.20    0.27
  -5  -8  19   -0.01    0.30
   8  -5 -21    0.73    0.33
  -5  -8  21    0.58    0.36
   5  -8 -21    0.66    0.38
  -8  -5  21    0.73    0.37
  -8  -5  23    0.37    0.30
   8  -5 -23   -0.06    0.31
   5  -8 -23   -0.38    0.37
   6   8 -22    0.32    0.33
   8   6 -22    0.43    0.31
   8   6 -20    0.24    0.27
   8   6 -20    0.08    0.20
   8   6 -18    1.54    0.37
   6   8 -18    1.27    0.37
   8   6 -18    1.24    0.30
   6   8 -16    0.41    0.31
   6   8 -16    0.73    0.20
   8   6 -16    1.09    0.26
   6   8 -14    4.30    0.58
   6   8 -14    3.35    0.32
   8   6 -14    2.96    0.37
   8   6 -12    7.34    0.51
   6   8 -12    6.91    0.41
   6   8 -10    1.51    0.18
   8   6 -10    1.72    0.24
   8   6  -8    8.66    0.48
   8  -6   8    8.49    0.48
   6   8  -8    7.41    0.34
   6   8  -6    1.55    0.14
   6  -8   6    1.63    0.24
   8  -6   6    1.46    0.26
   8   6  -6    1.69    0.22
   6  -8   6    1.61    0.28
   8  -6   6    2.07    0.28
   8   6  -4    1.18    0.19
  -8  -6  -4    1.08    0.24
  -6   8   4    1.03    0.25
  -8   6   4    0.98    0.21
   8  -6   4    0.97    0.22
   6  -8   4    1.13    0.22
   6  -8   4    1.09    0.24
  -8  -6  -2   18.98    0.89
   6  -8   2   19.02    0.80
  -6  -8  -2   19.25    0.91
   8   6  -2   19.18    0.74
  -8  -6  -2   20.71    0.83
   8  -6   2   19.54    0.86
  -6   8   2   20.28    0.85
   8   6  -2   19.00    0.73
   6  -8   2   19.11    0.86
  -6  -8  -2   20.30    0.75
  -8   6   2   21.83    0.77
   6   8   0    0.84    0.22
  -8  -6   0    1.02    0.28
  -6  -8   0    0.95    0.15
   8   6   0    0.87    0.21
   8  -6   0    0.73    0.20
   6  -8   0    0.64    0.19
   6  -8   0    0.56    0.16
  -6  -8   0    0.82    0.26
  -8  -6   0    0.77    0.16
   6   8   2   18.77    0.85
  -6  -8   2   19.11    0.93
  -6  -8   2   19.02    0.61
  -8  -6   2   20.49    0.95
  -8  -6   2   20.54    0.75
   8  -6  -2   19.98    0.90
   6  -8  -2   19.87    0.86
  -8  -6   2   19.80    0.96
   6  -8  -2   18.70    0.74
  -6   8  -2   18.37    0.81
  -6  -8   2   18.41    0.94
  -6  -8   4    1.25    0.31
   6  -8  -4    1.07    0.19
  -8  -6   4    1.12    0.31
  -8  -6   4    1.09    0.17
  -6  -8   4    1.32    0.32
  -6  -8   4    1.20    0.13
  -8  -6   4    1.57    0.35
  -6   8  -4    1.13    0.21
   8  -6  -4    1.56    0.28
   6  -8  -4    1.40    0.25
  -6  -8   6    1.62    0.15
  -8  -6   6    1.73    0.22
  -8  -6   6    1.98    0.37
   6  -8  -6    1.60    0.18
  -6  -8   6    1.55    0.34
   6  -8  -6    2.12    0.32
  -8  -6   6    1.49    0.34
   8   6   6    1.19    0.23
   8  -6  -6    1.68    0.29
  -6  -8   6    1.95    0.36
   6  -8  -8    6.66    0.31
  -8  -6   8    7.69    0.68
   8   6   8    7.20    0.42
  -6  -8   8    8.02    0.66
  -8  -6   8    8.11    0.64
  -8  -6   8    8.08    0.46
   8  -6  -8    7.25    0.60
   6  -8  -8    8.51    0.64
   6   8   8    6.12    0.45
   8   6   8    8.29    0.54
  -6   8 -10    1.77    0.24
  -6  -8  10    2.06    0.44
  -8  -6  10    2.23    0.42
   8   6  10    1.75    0.27
   8  -6 -10    2.37    0.38
   6  -8 -10    2.31    0.38
  -8  -6  10    1.63    0.25
  -8   6 -10    1.50    0.16
   8   6  10    1.18    0.19
   8   6  12    6.33    0.47
  -6   8 -12    6.30    0.37
  -6  -8  12    6.00    0.63
  -8  -6  12    5.80    0.63
   8  -6 -12    6.95    0.66
   6  -8 -12    7.43    0.66
   8  -6 -14    3.13    0.49
   6  -8 -14    3.08    0.48
  -8  -6  14    2.32    0.45
  -6  -8  14    2.25    0.45
  -8  -6  16    0.46    0.33
   6  -8 -16    0.49    0.26
   8  -6 -16    0.75    0.34
  -6  -8  16    0.75    0.36
   6  -8 -18    1.51    0.40
  -6  -8  18    1.25    0.39
   8  -6 -18    1.79    0.41
  -8  -6  18    2.14    0.44
  -8  -6  20    0.12    0.30
   6  -8 -20    0.78    0.35
   8  -6 -20    0.60    0.33
  -6  -8  20    0.98    0.40
   6  -8 -22   -0.34    0.32
  -8  -6  22   -0.01    0.30
   8  -6 -22    0.29    0.38
  -6  -8  22   -0.24    0.32
   8   7 -21   -0.22    0.30
   7   8 -21    0.55    0.33
   8   7 -19    3.03    0.53
   7   8 -19    2.29    0.48
   8   7 -17    6.23    0.68
   7   8 -17    6.21    0.70
   7   8 -15    2.41    0.30
   8   7 -15    2.05    0.30
   7   8 -15    3.02    0.49
   7   8 -13   10.97    0.57
   8   7 -13   11.03    0.63
   7   8 -11   27.30    0.91
   8   7 -11   28.45    1.01
  -8   7   9    1.68    0.11
   7   8  -9    2.38    0.22
   8   7  -9    2.55    0.26
   8  -7   9    2.28    0.29
   7   8  -7   27.77    0.82
   8  -7   7   26.36    0.99
   7  -8   7   26.81    1.02
   8   7  -7   28.64    0.92
  -7   8   5   26.14    1.01
   7  -8   5   26.10    1.02
   8  -7   5   23.81    1.01
   7  -8   5   24.27    0.99
   8   7  -5   24.74    0.84
  -8   7   5   25.63    0.96
   8  -7   5   24.75    0.96
  -8  -7  -3   10.66    0.59
  -7   8   3   11.35    0.63
   8   7  -3   10.03    0.49
   8  -7   3    9.13    0.59
   7  -8   3   11.04    0.61
  -7  -8  -3    9.84    0.55
   7  -8   3   11.20    0.64
  -8   7   3   11.30    0.59
   7  -8   1   30.26    1.12
  -7  -8  -1   32.94    1.26
   8  -7   1   29.07    1.12
  -7  -8  -1   33.26    1.02
  -8  -7  -1   29.08    1.19
  -8  -7  -1   31.67    1.05
   8   7  -1   29.47    1.03
   7   8  -1   29.80    1.09
  -7  -8   1   30.84    1.26
  -8  -7   1   31.70    1.27
   8   7   1   30.52    1.08
  -7  -8   1   31.99    0.95
   7  -8  -1   31.18    1.07
  -7  -8   1   30.55    1.24
  -8  -7   1   29.83    1.23
   8  -7  -1   31.34    1.18
   7  -8  -1   29.34    1.12
  -8  -7   1   31.33    1.00
   7   8   1   30.61    1.12
  -8  -7   3   11.44    0.75
  -7  -8   3   10.27    0.71
  -8  -7   3    9.70    0.68
  -7  -8   3   10.62    0.45
   7  -8  -3   10.90    0.55
   8  -7  -3   10.78    0.66
  -8  -7   3   10.96    0.51
   7  -8  -3   10.52    0.64
  -7  -8   3   11.00    0.73
  -7  -8   5   25.09    1.17
   7  -8  -5   24.36    0.84
  -8  -7   5   25.75    0.84
   7  -8  -5   25.15    1.08
  -7  -8   5   24.53    1.15
  -8  -7   5   26.55    1.17
   8  -7  -5   24.85    1.10
  -8  -7   5   24.21    1.16
  -7  -8   5   26.06    0.76
  -8  -7   7   25.47    1.24
  -7  -8   7   28.18    0.82
  -7  -8   7   27.47    1.26
  -7  -8   7   26.32    1.22
  -8  -7   7   28.65    1.26
  -8  -7   7   27.65    0.90
   8  -7  -7   28.28    1.21
   7  -8  -7   30.00    1.24
   8   7   7   23.98    0.92
  -7  -8   9    2.03    0.41
  -8  -7   9    1.68    0.40
  -8  -7   9    2.01    0.24
   7   8   9    2.12    0.29
   7  -8  -9    2.18    0.37
   8   7   9    2.28    0.28
   8  -7  -9    2.20    0.37
  -8  -7  11   27.70    1.36
  -8   7 -11   26.84    0.81
  -7  -8  11   27.14    1.35
   8  -7 -11   28.83    1.34
   7  -8 -11   28.79    1.35
  -7   8 -11   27.15    0.90
  -8  -7  13   10.30    0.85
  -7  -8  13   10.15    0.83
   8  -7 -13   11.75    0.88
   7  -8 -13   11.17    0.85
   8  -7 -15    1.98    0.42
  -8  -7  15    2.77    0.49
   7  -8 -15    3.17    0.51
  -7  -8  15    2.89    0.50
   7  -8 -17    4.72    0.64
  -7  -8  17    3.60    0.56
  -8  -7  17    4.44    0.62
   8  -7 -17    3.75    0.58
   7  -8 -19    1.79    0.44
   8  -7 -19    3.03    0.57
  -8  -7  19    2.26    0.51
  -7  -8  19    2.17    0.49
  -7  -8  21    0.62    0.36
  -8  -7  21   -0.08    0.30
   8  -7 -21    0.79    0.37
   7  -8 -21   -0.13    0.32
   8   8 -22   -0.50    0.39
   8   8 -20    1.91    0.46
   8   8 -18    0.92    0.38
   8   8 -16    1.89    0.41
   8   8 -14   17.88    0.81
   8   8 -12    7.51    0.47
   8   8 -10   21.45    0.79
   8   8  -8   46.66    1.27
   8  -8   8   45.73    1.44
   8  -8   6    1.28    0.25
   8   8  -6    1.52    0.19
   8  -8   6    1.56    0.29
  -8   8   4   22.54    0.92
   8  -8   4   21.00    0.93
   8  -8   4   20.85    0.93
  -8  -8  -2   71.13    1.88
   8   8  -2   66.57    1.87
   8  -8   2   67.58    1.96
  -8   8   2   73.75    1.92
  -8  -8   0    1.36    0.35
   8   8   0    1.13    0.25
  -8  -8   0    1.02    0.19
   8  -8   0    1.01    0.24
  -8  -8   0    0.61    0.29
  -8  -8   2   70.73    1.74
  -8  -8   2   72.04    2.19
  -8  -8   2   68.89    2.14
   8  -8  -2   68.56    1.88
   8  -8  -2   69.10    2.03
  -8  -8   4   21.99    0.74
  -8  -8   4   23.02    1.12
   8  -8  -4   20.65    0.99
  -8  -8   4   22.08    1.11
  -8  -8   6    1.54    0.19
  -8  -8   6    1.25    0.33
   8  -8  -6    1.52    0.31
  -8  -8   6    1.48    0.36
  -8  -8   8   45.28    1.72
   8  -8  -8   49.85    1.75
  -8  -8   8   46.47    1.28
  -8  -8   8   45.91    1.78
  -8  -8  10   20.83    1.16
   8  -8 -10   21.84    1.14
  -8  -8  12    6.22    0.68
   8  -8 -12    7.43    0.70
  -8  -8  14   19.26    1.19
   8  -8 -14   21.31    1.25
   8  -8 -16    1.54    0.39
  -8  -8  16    2.03    0.47
   8  -8 -18    1.99    0.46
  -8  -8  18    1.38    0.44
   8  -8 -20    3.91    0.68
  -8  -8  20    3.19    0.56
   8  -8 -22    0.00    0.31
  -8  -8  22   -0.11    0.37
   9   0  -1    0.37    0.16
   0  -9  -1    0.53    0.13
  -9   0  -1    0.48    0.21
   0   9   1    0.52    0.16
   0  -9   1    0.44    0.10
   0  -9  -1    0.06    0.19
   9   0   1    0.59    0.18
   0   9  -1    0.51    0.19
   0   9  -1    0.75    0.23
   0   9   1    0.58    0.20
   0  -9  -3    8.08    0.45
  -9   0  -3    8.26    0.48
   9   0   3    6.89    0.51
   0  -9   3    6.31    0.25
   0   9   3    7.29    0.43
   0   9   3    7.17    0.37
   0   9  -3    6.51    0.48
   9   0  -3    7.85    0.52
   0  -9  -3    7.53    0.53
  -9   0  -5    3.09    0.27
   0   9  -5    1.83    0.11
   0  -9  -5    2.94    0.32
   0   9  -5    2.71    0.33
   0   9   5    2.74    0.19
   9   0  -5    2.58    0.31
   0  -9  -5    2.76    0.34
   0  -9  -7   25.15    1.03
  -9   0  -7   24.43    0.71
   0  -9  -7   24.74    0.74
  -9   0   7   25.08    0.91
   9   0  -7   23.95    0.99
   0   9  -7   24.02    1.04
   0  -9  -7   24.22    0.98
   0  -9  -9   17.01    0.91
   0  -9  -9   15.95    0.82
   0  -9  -9   16.62    0.57
   0   9  -9   14.82    0.50
  -9   0   9   15.90    0.75
   9   0  -9   16.53    0.85
   0   9  -9   15.11    0.88
   0   9 -11    2.60    0.23
   0  -9 -11    2.93    0.44
   0   9 -11    3.48    0.47
  -9   0  11    3.35    0.37
   9   0 -11    3.25    0.40
   0  -9 -11    3.19    0.41
   0  -9 -11    3.43    0.24
   0  -9 -13    3.69    0.51
   0  -9 -13    4.60    0.49
   0  -9 -13    3.67    0.26
   0   9 -13    4.82    0.57
   9   0 -13    3.89    0.47
   0   9 -13    3.15    0.28
   0  -9 -15   18.90    1.17
   0  -9 -15   19.23    0.97
   9   0 -15   20.89    1.13
   0   9 -15   20.09    1.17
   0   9 -17    0.01    0.30
   9   0 -17    0.01    0.23
   0  -9 -17    0.12    0.29
   0   9 -17   -0.09    0.18
   0  -9 -17    0.24    0.25
   9   0 -19    0.56    0.30
   9   0 -19   -0.07    0.22
  -9   0  19   -0.22    0.37
   0  -9 -19    0.46    0.27
   0   9 -19    0.30    0.32
   0  -9 -19    0.21    0.27
   0   9 -21    0.00    0.33
  -9   0  21    0.47    0.35
   9   0 -21    0.31    0.24
   9   0 -21    0.32    0.26
   0  -9 -23   -0.39    0.34
  -9   0  23    0.45    0.36
   9   0 -23    0.03    0.30
   0   9 -23    0.63    0.41
   9   1 -22   -0.09    0.29
   9   1 -22    0.12    0.24
  -9   1  22    0.06    0.34
   1   9 -22   -0.13    0.36
  -1  -9 -22    0.31    0.33
   9   1 -20    1.35    0.37
   9   1 -20    1.42    0.35
  -1  -9 -20    1.55    0.44
   1   9 -20    1.05    0.40
   9   1 -18    4.59    0.52
   1   9 -18    4.01    0.61
   1   9 -18    2.72    0.36
   9   1 -18    4.45    0.58
  -1  -9 -18    4.56    0.64
  -1  -9 -18    4.18    0.46
  -1  -9 -16    8.59    0.80
  -1  -9 -16    8.59    0.63
   1   9 -16    8.00    0.55
   9   1 -16    9.65    0.77
   1   9 -16   10.45    0.87
   1   9 -14    8.01    0.49
   9   1 -14    8.76    0.69
   1   9 -14    9.01    0.78
  -1  -9 -14    8.46    0.76
  -1  -9 -14    8.65    0.64
  -1  -9 -12   12.94    0.88
  -1  -9 -12   11.49    0.70
   1   9 -12   13.36    0.87
   9   1 -12   12.93    0.79
   1   9 -12   10.39    0.50
  -1  -9 -10   29.57    1.10
  -1  -9 -10   30.59    0.88
  -1  -9 -10   30.06    1.27
   1   9 -10   25.58    0.69
  -9   1  10   30.05    1.00
   1   9 -10   29.55    1.24
   9   1 -10   31.11    1.18
   1   9 -10   25.28    0.71
   9   1  -8    9.48    0.60
  -1  -9  -8   10.87    0.69
  -1  -9  -8   10.95    0.49
  -9  -1  -8   10.24    0.41
  -1  -9  -8   10.44    0.62
  -9   1   8   10.34    0.55
  -9  -1  -6    7.43    0.40
  -1  -9  -6    7.60    0.53
  -1  -9  -6    7.63    0.43
  -1   9   6    5.52    0.22
   1   9  -6    7.43    0.55
  -1  -9  -6    8.09    0.55
   9   1  -6    7.18    0.51
  -1  -9  -4   36.56    1.14
  -9  -1  -4   38.82    1.15
  -1  -9  -4   36.63    1.19
   9  -1   4   36.88    1.29
   9   1  -4   37.31    1.26
  -1   9   4   37.75    1.05
   1   9  -4   34.98    1.25
  -1   9   4   36.73    0.95
   1  -9   4   37.57    0.90
  -1  -9  -4   37.96    1.27
  -1  -9  -2   11.34    0.51
  -9  -1  -2   11.26    0.59
   1   9  -2   10.25    0.58
   9   1  -2   11.14    0.61
  -1   9   2   12.20    0.56
   1  -9   2   11.19    0.42
  -1   9   2   10.82    0.50
   1   9  -2   11.36    0.65
   9  -1   2   10.93    0.64
  -1   9   0    1.83    0.20
  -1  -9   0    1.97    0.17
   9   1   0    2.21    0.29
   9  -1   0    1.86    0.28
  -1   9   0    1.96    0.28
   1  -9   0    1.88    0.29
  -9  -1   0    1.94    0.30
   1  -9   0    1.96    0.20
   1   9   0    1.96    0.28
  -1   9   0    1.64    0.24
  -1   9  -2   11.28    0.42
  -9  -1   2   10.00    0.64
   9   1   2   10.85    0.61
   9  -1  -2   10.41    0.61
   1  -9  -2   11.12    0.64
   1   9   2   11.29    0.56
  -1  -9   2    8.40    0.29
  -1   9  -2    9.61    0.56
   1  -9  -2   11.30    0.52
  -9   1  -4   37.18    1.13
   1  -9  -4   37.86    1.29
   9  -1  -4   35.78    1.27
  -1   9  -4   35.06    1.25
  -1   9  -4   37.67    0.92
   1  -9  -4   37.87    1.20
  -9   1  -6    7.99    0.40
   9  -1  -6    7.46    0.54
  -9  -1   6    7.78    0.52
   9  -1  -6    6.76    0.26
  -1   9  -6    7.21    0.31
  -1   9  -6    7.19    0.55
   1  -9  -6    7.78    0.56
   1  -9  -6    7.65    0.52
   1  -9  -8   10.23    0.66
  -1   9  -8    9.93    0.40
  -9  -1   8   10.43    0.61
   9  -1  -8   10.23    0.67
  -9   1  -8    9.98    0.38
  -1   9  -8    9.70    0.68
   1  -9  -8   10.63    0.67
   1  -9 -10   29.61    1.29
  -1   9 -10   28.24    0.87
  -9  -1  10   29.79    1.13
   9  -1 -10   30.57    1.26
  -1   9 -10   30.72    1.31
   1  -9 -10   29.63    1.19
   1  -9 -12   11.63    0.83
   9  -1 -12   10.92    0.76
  -1   9 -12   10.53    0.52
   1  -9 -12   10.73    0.73
  -1   9 -12   11.75    0.84
  -1   9 -14    9.68    0.80
   1  -9 -14    8.55    0.78
   9  -1 -14    9.40    0.74
   1  -9 -14    8.65    0.68
   1  -9 -16    9.83    0.88
  -9  -1  16    8.65    0.83
   9  -1 -16    9.08    0.79
  -1   9 -16    9.33    0.83
   1  -9 -16    8.34    0.67
   1  -9 -18    4.30    0.53
   9  -1 -18    4.32    0.48
   1  -9 -18    5.01    0.65
  -9  -1  18    4.11    0.62
  -1   9 -18    3.98    0.59
   9  -1 -18    3.84    0.55
   1  -9 -20    1.45    0.44
   1  -9 -20    1.56    0.38
  -9  -1  20    2.11    0.52
  -1   9 -20    2.79    0.56
   9  -1 -20    1.57    0.34
   9  -1 -20    1.92    0.44
   9  -1 -22   -0.05    0.27
   1  -9 -22   -0.36    0.34
  -1   9 -22    0.29    0.37
  -9  -1  22   -0.19    0.30
  -2  -9 -23    0.29    0.32
   9   2 -23    0.57    0.33
   9   2 -23    0.24    0.32
   2   9 -23    0.32    0.39
   2   9 -21    0.55    0.39
   9   2 -21    0.32    0.28
  -2  -9 -21    0.98    0.36
   9   2 -21    0.61    0.29
   9   2 -19    0.05    0.23
   2   9 -19    0.21    0.32
  -2  -9 -19   -0.13    0.27
   9   2 -19   -0.08    0.22
   2   9 -17    1.51    0.25
  -2  -9 -17    1.98    0.32
  -2  -9 -17    2.61    0.49
   2   9 -17    3.24    0.55
   9   2 -17    2.48    0.42
   2   9 -15    7.24    0.48
  -2  -9 -15    8.52    0.61
   9   2 -15    8.92    0.70
   2   9 -15    9.94    0.82
   2   9 -13    4.85    0.34
   9   2 -13    4.79    0.50
   2   9 -13    5.99    0.62
  -2  -9 -13    6.51    0.53
   2   9 -11    2.05    0.18
   2   9 -11    2.75    0.42
  -9   2  11    2.77    0.31
  -2  -9 -11    3.24    0.38
   9   2 -11    2.49    0.34
   9  -2   9   14.22    0.43
  -9   2   9   15.00    0.63
  -2  -9  -9   14.35    0.62
   9   2  -9   14.23    0.73
  -2  -9  -9   15.27    0.74
   2   9  -9   14.79    0.83
  -9  -2  -7   31.75    0.98
   9   2  -7   33.32    1.19
  -2  -9  -7   32.09    1.05
  -2  -9  -7   34.33    1.19
  -2   9   5   38.47    1.35
   9  -2   5   35.35    1.29
   9   2  -5   38.03    1.25
   2   9  -5   35.75    1.29
  -2  -9  -5   35.64    1.14
  -9  -2  -5   35.26    1.11
  -9  -2  -3    4.75    0.38
  -2  -9  -3    4.60    0.35
  -2   9   3    4.20    0.37
   9  -2   3    4.77    0.42
   9   2  -3    4.44    0.38
  -2   9   3    4.51    0.32
  -2  -9  -3    4.45    0.38
   2  -9   3    4.02    0.26
  -2   9   3    4.36    0.28
  -9  -2  -1   27.43    0.76
  -2   9   1   27.58    0.93
   2  -9   1   28.04    1.06
   2   9  -1   28.38    1.05
   9   2  -1   27.39    1.02
  -2  -9  -1   26.13    1.00
  -2   9   1   28.85    0.96
   9  -2   1   25.38    1.03
  -2   9   1   26.81    0.88
  -2  -9  -1   28.88    0.84
   2  -9   1   27.29    0.83
  -9  -2  -1   26.39    1.01
  -9  -2   1   27.14    1.08
  -2   9  -1   27.47    0.97
   9  -2  -1   27.37    1.06
   9   2   1   26.47    1.02
   2   9   1   28.74    1.01
  -9  -2   1   28.56    1.03
   2  -9  -1   28.45    0.90
   2  -9  -1   27.98    1.07
  -2  -9   1   26.31    0.69
  -2   9  -1   28.48    0.87
   9  -2  -3    4.54    0.40
  -9  -2   3    4.12    0.37
  -9  -2   3    4.16    0.45
   2  -9  -3    4.59    0.36
  -2   9  -3    4.19    0.27
  -2   9  -3    4.06    0.38
   2  -9  -3    4.54    0.44
  -9  -2   5   35.95    1.38
  -9  -2   5   35.41    1.27
   2  -9  -5   36.91    1.31
   9  -2  -5   38.19    1.33
  -2   9  -5   37.69    0.99
  -2   9  -5   35.41    1.30
   2  -9  -5   36.60    1.26
  -9   2  -7   35.00    0.94
  -9  -2   7   32.50    1.35
  -9  -2   7   32.81    1.21
   2  -9  -7   33.22    1.26
  -2   9  -7   34.13    0.95
   2  -9  -7   32.73    1.25
   9  -2  -7   33.12    1.28
  -2   9  -7   32.68    1.30
   9  -2  -7   34.76    0.89
  -2   9  -9   15.03    0.87
  -9   2  -9   11.87    0.38
   2  -9  -9   14.98    0.85
  -9  -2   9   14.97    0.77
   9  -2  -9   15.19    0.60
   2  -9  -9   14.57    0.81
  -2   9  -9   14.73    0.57
  -9  -2   9   14.04    0.89
   9  -2  -9   14.70    0.83
  -2  -9  11    1.61    0.32
   9  -2 -11    2.45    0.39
  -9  -2  11    3.08    0.48
  -2   9 -11    2.02    0.23
  -2   9 -11    2.73    0.42
   2  -9 -11    2.05    0.36
   2   9  11    2.13    0.17
  -2  -9  13    5.90    0.57
  -9  -2  13    5.03    0.63
  -2   9 -13    5.07    0.40
   2  -9 -13    5.97    0.63
   2   9  13    5.13    0.26
   9  -2 -13    6.20    0.59
  -2   9 -13    5.62    0.62
  -2  -9  15    7.88    0.66
   2  -9 -15    8.62    0.79
  -9  -2  15    7.97    0.77
  -2   9 -15    9.54    0.82
   9  -2 -15    8.35    0.74
   9  -2 -17    1.65    0.40
  -2   9 -17    2.08    0.43
  -9  -2  17    2.42    0.52
  -2  -9  17    1.83    0.36
   2  -9 -17    2.62    0.52
   9  -2 -19    0.17    0.26
  -9  -2  19    0.02    0.34
  -2  -9  19    0.56    0.31
   9  -2 -19    0.19    0.24
  -2   9 -19    0.43    0.34
   2  -9 -19   -0.25    0.28
   9  -2 -21    0.85    0.34
   2  -9 -21    0.25    0.30
  -9  -2  21    0.79    0.39
  -2   9 -21    0.76    0.40
   2  -9 -23    0.00    0.28
  -9  -2  23   -0.13    0.34
  -2   9 -23   -0.23    0.39
   9  -2 -23    0.22    0.32
  -3  -9 -22    0.54    0.37
   3   9 -22    0.34    0.38
   9   3 -22   -0.04    0.26
   9   3 -22    0.41    0.28
   3   9 -20    0.55    0.35
   9   3 -20    0.62    0.25
   9   3 -20    0.33    0.24
  -3  -9 -20    0.70    0.37
   9   3 -18    2.24    0.40
  -3  -9 -18    2.29    0.33
   9   3 -18    3.26    0.47
   3   9 -18    2.12    0.49
   9   3 -16    0.72    0.26
  -3  -9 -16    0.43    0.21
   3   9 -16    0.22    0.13
   3   9 -16    0.97    0.35
   3   9 -14    1.06    0.18
   9   3 -14    0.78    0.23
  -3  -9 -14    0.85    0.26
  -3  -9 -12   12.70    0.69
   3   9 -12   13.00    0.87
   9   3 -12   12.08    0.73
   3   9 -12   10.41    0.45
  -9   3  10    9.12    0.47
   9   3 -10    8.30    0.58
   3   9 -10    6.62    0.27
   9  -3  10    8.51    0.35
   3   9 -10    9.63    0.70
   3   9  -8    0.76    0.27
  -3  -9  -8    0.50    0.21
   9   3  -8    0.54    0.19
  -9   3   8    0.48    0.18
  -9  -3  -6    7.05    0.44
  -3   9   6    8.24    0.61
  -3  -9  -6    7.20    0.48
   9   3  -6    7.07    0.49
   3  -9   4   14.54    0.56
  -9  -3  -4   12.92    0.65
  -3   9   4   14.27    0.76
   9   3  -4   13.67    0.67
   9   3  -4   12.93    0.43
  -3   9   4   14.84    0.54
  -3  -9  -4   12.82    0.66
   9  -3   4   12.93    0.72
   3  -9   2    1.66    0.25
  -3   9   2    1.19    0.27
  -9  -3  -2    1.61    0.27
  -9  -3  -2    1.36    0.19
   3  -9   2    1.25    0.27
   9  -3   2    1.29    0.25
  -3   9   2    1.33    0.22
   3  -9   2    1.55    0.19
  -3  -9  -2    1.33    0.27
  -9   3   2    1.33    0.13
   9   3  -2    1.57    0.24
  -9  -3   0    7.02    0.47
   9  -3   0    6.60    0.49
  -9  -3   0    7.24    0.52
  -3   9   0    6.80    0.41
   3  -9   0    7.67    0.45
   3  -9   0    7.63    0.42
  -3   9   0    7.61    0.44
   9   3   0    7.04    0.48
  -3  -9   0    7.36    0.53
   3  -9   0    7.20    0.52
  -3   9  -2    1.56    0.20
  -3   9  -2    1.24    0.21
  -3  -9   2    0.97    0.08
  -3  -9   2    0.91    0.08
  -9  -3   2    1.38    0.29
   3  -9  -2    1.37    0.30
   9  -3  -2    1.54    0.26
  -9  -3   2    1.52    0.24
   3  -9  -2    1.51    0.21
  -3   9  -4   13.45    0.71
  -9  -3   4   13.81    0.74
   9  -3  -4   13.50    0.74
  -9  -3   4   13.13    0.65
  -3   9  -4   13.79    0.56
   3  -9  -4   14.02    0.68
   3  -9  -4   14.24    0.76
  -9  -3   4   13.45    0.79
  -3   9  -6    6.41    0.54
   9  -3  -6    6.64    0.53
   3  -9  -6    7.09    0.58
  -9  -3   6    6.97    0.55
  -3   9  -6    7.53    0.40
  -9  -3   6    7.24    0.62
  -9  -3   6    7.31    0.48
   3  -9  -6    7.75    0.54
   9  -3  -8    0.56    0.16
  -9  -3   8    0.02    0.26
   9   3   8    0.52    0.17
  -3  -9   8    0.32    0.22
  -3   9  -8    0.66    0.25
  -3   9  -8    0.83    0.23
  -3   9  -8    0.69    0.16
  -9  -3   8    0.55    0.25
   9  -3  -8    0.27    0.18
   3  -9  -8    0.83    0.24
  -3   9 -10    7.46    0.50
  -9  -3  10    9.00    0.76
   9  -3 -10    8.20    0.49
   9   3  10    8.06    0.43
  -3   9 -10    8.25    0.47
  -9  -3  10    8.11    0.60
   3  -9 -10    9.81    0.70
   9   3  10    5.83    0.27
  -3  -9  10    8.10    0.64
   9  -3 -10    8.13    0.64
  -3   9 -10    9.36    0.71
  -3  -9  12   10.75    0.76
   3   9  12   12.53    0.50
  -9  -3  12   11.23    0.88
   3  -9 -12   12.51    0.86
  -3   9 -12   11.94    0.62
  -3   9 -12   12.80    0.88
   9  -3 -12   12.09    0.83
   9  -3 -14    1.57    0.35
  -9  -3  14    1.26    0.43
   3  -9 -14    1.51    0.36
  -3   9 -14    1.12    0.38
  -3  -9  14    1.07    0.32
   9  -3 -16    0.46    0.25
   3  -9 -16    0.64    0.30
  -3  -9  16    0.43    0.28
  -9  -3  16    0.53    0.35
  -3   9 -16    0.74    0.36
   9  -3 -18    1.99    0.46
   9  -3 -18    1.87    0.33
   3  -9 -18    2.46    0.52
  -3   9 -18    2.83    0.53
  -9  -3  18    3.04    0.55
  -3  -9  18    0.95    0.33
  -3  -9  20    1.14    0.35
   9  -3 -20    0.99    0.36
  -9  -3  20    1.27    0.42
  -3   9 -20    0.02    0.33
   3  -9 -20    0.67    0.35
   3  -9 -22    0.19    0.27
  -9  -3  22    0.28    0.34
   9  -3 -22    0.03    0.28
  -3   9 -22    0.80    0.38
   4   9 -23   -0.49    0.41
   9   4 -23    0.08    0.33
  -4  -9 -23    0.55    0.34
   9   4 -23   -0.09    0.24
   4   9 -21    0.50    0.34
   9   4 -21    0.40    0.29
   9   4 -21    0.32    0.24
   9   4 -19   -0.08    0.24
   9   4 -19    0.42    0.24
   4   9 -19    0.52    0.33
   4   9 -17    1.83    0.43
   9   4 -17    1.56    0.34
   4   9 -15    1.68    0.23
   4   9 -15    1.22    0.35
   9   4 -15    1.43    0.31
   4   9 -13    3.83    0.52
   4   9 -13    3.23    0.26
   9   4 -13    3.77    0.42
   4   9 -11    3.36    0.47
   4   9 -11    2.52    0.19
   9   4 -11    3.15    0.36
   9   4  -9    7.14    0.51
  -9   4   9    7.64    0.41
   9  -4   9    7.41    0.39
   9   4  -7    5.20    0.41
   4  -9   5    1.65    0.28
  -9  -4  -5    1.46    0.24
   9  -4   5    1.59    0.27
  -4   9   5    1.90    0.33
   4  -9   5    1.83    0.22
  -9  -4  -5    1.56    0.25
   9   4  -5    1.68    0.24
  -4   9   5    1.59    0.18
  -4  -9  -5    1.86    0.30
   4  -9   3    0.75    0.23
  -4   9   3    0.76    0.24
   9   4  -3    0.63    0.14
  -9   4   3    0.47    0.13
  -9  -4  -3    0.41    0.21
   9  -4   3    0.69    0.19
   9   4  -3    0.70    0.18
  -4  -9  -3    0.29    0.21
  -9  -4  -3    0.65    0.18
   4  -9   3    0.39    0.14
  -9  -4  -1    4.95    0.45
  -4   9   1    4.72    0.37
  -4  -9  -1    5.11    0.46
   4  -9   1    5.17    0.45
   9   4  -1    5.10    0.40
   9  -4   1    4.94    0.43
  -9  -4  -1    5.07    0.40
   4  -9   1    4.26    0.33
   4  -9   1    4.44    0.38
  -4   9  -1    4.58    0.37
  -9  -4   1    4.85    0.46
  -4  -9   1    4.22    0.22
  -4  -9   1    5.07    0.46
   9  -4  -1    4.38    0.42
  -9  -4   1    4.84    0.38
   4  -9  -1    4.55    0.44
   4   9   1    4.73    0.44
   4  -9  -1    4.67    0.36
   4  -9  -1    4.77    0.36
  -4   9  -1    4.67    0.35
  -9  -4   3    0.64    0.23
  -4   9  -3    0.42    0.13
   9   4   3    0.89    0.21
   4   9   3    0.58    0.24
   4  -9  -3    0.77    0.27
   4  -9  -3    0.63    0.18
   9  -4  -3    0.63    0.20
  -4   9  -3    0.55    0.21
   4  -9  -3    0.65    0.15
  -9  -4   3    0.57    0.16
  -4   9  -5    1.09    0.26
   9   4   5    1.79    0.27
  -9  -4   5    1.67    0.23
  -9  -4   5    1.19    0.31
   4  -9  -5    1.69    0.28
   9  -4  -5    1.24    0.25
  -4   9  -5    1.41    0.21
  -9  -4   5    1.51    0.33
  -4  -9   5    1.36    0.30
  -4  -9   7    3.69    0.46
   9   4   7    4.26    0.38
  -4   9  -7    4.85    0.49
  -9  -4   7    4.83    0.53
  -4   9  -7    5.13    0.37
   9  -4  -7    4.45    0.47
  -9  -4   7    4.62    0.48
   4  -9  -7    4.57    0.44
  -9  -4   7    4.15    0.36
  -4   9  -9    6.94    0.48
  -4   9  -9    7.25    0.62
  -9  -4   9    6.17    0.61
   9   4   9    7.31    0.45
   9  -4  -9    7.87    0.47
   9   4   9    5.56    0.32
   4  -9  -9    7.59    0.62
  -4   9  -9    7.39    0.46
  -9  -4   9    7.60    0.61
   9  -4  -9    7.06    0.60
  -4  -9   9    7.74    0.65
  -4   9 -11    3.02    0.46
   9   4  11    3.36    0.31
  -4   9 -11    2.85    0.32
   9  -4 -11    3.07    0.43
  -9  -4  11    2.96    0.48
   9  -4 -11    2.66    0.33
  -4  -9  11    3.32    0.46
   4  -9 -11    3.23    0.45
   4   9  13    3.72    0.31
  -4  -9  13    3.37    0.50
  -4   9 -13    3.08    0.33
  -9  -4  13    2.66    0.49
  -4   9 -13    4.59    0.57
   9  -4 -13    3.83    0.50
   4  -9 -13    3.75    0.51
   9  -4 -15    1.83    0.41
   4  -9 -15    1.76    0.43
  -4  -9  15    1.94    0.40
  -4   9 -15    1.72    0.41
  -9  -4  15    2.16    0.44
   9  -4 -17    2.11    0.46
  -4  -9  17    1.90    0.42
  -9  -4  17    2.27    0.47
  -4   9 -17    1.81    0.45
   4  -9 -17    2.00    0.45
   9  -4 -17    2.11    0.30
   9  -4 -19    0.16    0.24
  -9  -4  19   -0.29    0.35
   4  -9 -19    0.35    0.31
  -4  -9  19    0.83    0.37
  -4   9 -19   -0.41    0.39
  -4  -9  21   -0.19    0.30
   4  -9 -21    0.81    0.40
  -9  -4  21    0.53    0.33
   9  -4 -21    0.57    0.32
   9  -4 -23    0.02    0.33
   4  -9 -23   -0.54    0.39
   9   5 -22   -0.08    0.30
   5   9 -22    0.37    0.34
   9   5 -20    0.02    0.26
   5   9 -20    0.36    0.36
   9   5 -20    0.57    0.27
   9   5 -18    1.65    0.34
   9   5 -18    1.18    0.34
   5   9 -18    1.93    0.45
   9   5 -16    0.31    0.20
   5   9 -16    1.02    0.37
   5   9 -14    1.60    0.40
   9   5 -14    1.36    0.28
   5   9 -14    0.86    0.16
   5   9 -12    6.95    0.36
   5   9 -12    8.55    0.73
   9   5 -12    8.86    0.59
   9  -5  10    4.36    0.31
  -9   5  10    4.27    0.28
   5   9 -10    3.12    0.20
   9   5 -10    4.35    0.40
   9   5  -8    3.97    0.36
   9  -5   8    3.43    0.31
  -5   9   6   11.82    0.73
   9  -5   6   10.89    0.67
  -5   9   6   10.47    0.38
   9   5  -6   11.32    0.59
   5  -9   6   10.26    0.55
   5  -9   6   10.71    0.63
   5  -9   4    7.56    0.45
  -9  -5  -4    7.03    0.47
  -5   9   4    6.87    0.53
   9  -5   4    6.85    0.52
   9   5  -4    6.93    0.45
   5  -9   4    6.77    0.52
  -5  -9  -4    6.34    0.51
  -9  -5  -4    5.63    0.45
   5  -9   2    4.69    0.43
  -9  -5  -2    5.02    0.45
   9   5  -2    5.51    0.34
  -5   9   2    5.53    0.46
   9   5  -2    5.73    0.41
   9  -5   2    4.79    0.43
   5  -9   2    4.90    0.37
  -5  -9  -2    5.21    0.47
  -9   5   2    5.36    0.34
  -5  -9   0   16.49    0.57
  -9  -5   0   16.96    0.85
  -9  -5   0   16.93    0.75
   9  -5   0   15.56    0.79
   5  -9   0   16.24    0.72
   5  -9   0   15.53    0.71
  -5   9   0   16.03    0.73
   5  -9   0   15.74    0.79
   5   9   0   15.11    0.77
  -5  -9   0   15.48    0.83
  -9  -5   2    5.23    0.39
  -9  -5   2    5.23    0.50
  -5  -9   2    4.31    0.23
   9  -5  -2    5.29    0.47
  -5  -9   2    4.75    0.48
   5  -9  -2    4.91    0.41
   5  -9  -2    5.19    0.36
  -5   9  -2    5.11    0.39
   5  -9  -2    4.99    0.49
   5   9   2    4.56    0.44
  -5  -9   4    7.31    0.59
  -9  -5   4    6.97    0.59
   9   5   4    6.14    0.48
  -9  -5   4    6.83    0.44
  -5  -9   4    7.37    0.59
  -9  -5   4    6.55    0.55
   9  -5  -4    6.83    0.54
  -5   9  -4    7.33    0.47
   5  -9  -4    6.80    0.51
   5  -9  -4    6.94    0.37
   5   9   4    7.18    0.57
  -5   9  -6   10.91    0.71
   9   5   6   10.79    0.61
  -5   9  -6   10.67    0.57
  -9  -5   6   10.90    0.76
  -9  -5   6   11.03    0.73
  -5  -9   6    9.77    0.72
   9  -5  -6   11.41    0.72
   5  -9  -6   10.93    0.41
   5  -9  -6   11.46    0.70
  -9  -5   6   11.54    0.59
  -5   9  -8    3.13    0.34
  -5  -9   8    2.30    0.40
  -9  -5   8    3.24    0.48
  -9  -5   8    3.26    0.33
   9   5   8    3.35    0.35
   9  -5  -8    3.54    0.44
  -5   9  -8    3.36    0.32
  -5   9  -8    3.06    0.43
  -9  -5   8    3.21    0.44
   5  -9  -8    2.82    0.38
  -5   9 -10    4.15    0.37
  -9  -5  10    4.11    0.57
  -5   9 -10    4.00    0.51
   9   5  10    3.60    0.35
   5  -9 -10    3.92    0.48
  -9  -5  10    3.50    0.46
   9  -5 -10    4.70    0.53
  -5  -9  10    4.04    0.51
   9   5  10    2.83    0.24
   9  -5 -10    4.36    0.40
  -5  -9  12    7.42    0.68
  -5   9 -12    7.08    0.46
  -5   9 -12    8.73    0.75
  -9  -5  12    7.47    0.73
   9   5  12    7.08    0.47
   5  -9 -12    8.67    0.72
   9  -5 -12    8.19    0.72
   9  -5 -14    1.60    0.38
  -5  -9  14    1.53    0.39
  -9  -5  14    1.36    0.40
   5  -9 -14    1.98    0.42
  -5   9 -14    1.31    0.39
  -9  -5  16    0.48    0.36
  -5  -9  16    0.67    0.34
   5  -9 -16    0.90    0.36
   9  -5 -16    0.33    0.27
   5  -9 -18    1.12    0.38
  -9  -5  18    1.06    0.39
   9  -5 -18    0.98    0.36
  -5  -9  18    1.13    0.37
  -5  -9  20    0.22    0.32
   5  -9 -20    0.26    0.28
  -9  -5  20    0.50    0.36
   9  -5 -20    0.53    0.32
   9  -5 -22    0.44    0.35
   5  -9 -22   -0.13    0.32
  -9  -5  22    0.07    0.31
  -5  -9  22    0.58    0.35
   9   6 -21    0.48    0.37
   6   9 -21    0.30    0.32
   9   6 -19    0.45    0.29
   9   6 -19    0.45    0.21
   6   9 -17    1.42    0.41
   9   6 -17    1.39    0.30
   6   9 -15    0.34    0.31
   9   6 -15    0.34    0.17
   6   9 -13    3.22    0.49
   6   9 -13    2.84    0.25
   9   6 -13    3.40    0.38
   6   9 -11    1.46    0.17
   9   6 -11    1.75    0.28
   6   9  -9    2.93    0.19
  -9   6   9    3.63    0.25
   9   6  -9    3.94    0.36
   9  -6   9    3.43    0.33
   9   6  -7    6.85    0.44
  -6   9   7    4.89    0.21
   6  -9   7    5.55    0.46
   9  -6   7    5.82    0.42
   6  -9   5    0.27    0.21
   9  -6   5    0.44    0.18
   6  -9   5    0.36    0.16
   9   6  -5    0.21    0.13
  -6   9   5    0.33    0.24
  -9  -6  -3    0.18    0.21
   9   6  -3    0.29    0.17
  -9  -6  -3   -0.47    0.23
  -9   6   3    0.22    0.16
   9   6  -3    0.16    0.12
   9  -6   3    0.05    0.15
   6  -9   3    0.24    0.13
  -6   9   3    0.14    0.21
  -6  -9  -3    0.31    0.26
   6  -9   3    0.23    0.22
  -9  -6  -1    5.97    0.53
   9   6  -1    6.30    0.40
   9  -6   1    6.18    0.49
  -9  -6  -1    5.86    0.43
   6  -9   1    5.43    0.43
  -6  -9  -1    6.67    0.56
   6   9  -1    5.60    0.47
   6  -9   1    6.24    0.51
  -6  -9  -1    6.06    0.37
  -9  -6   1    6.00    0.53
   6   9   1    5.99    0.50
  -6  -9   1    5.66    0.53
   9  -6  -1    6.49    0.51
   6  -9  -1    6.58    0.48
  -9  -6   1    6.83    0.45
  -6  -9   1    5.85    0.32
   6  -9  -1    6.43    0.44
  -9  -6   3    0.41    0.25
   6  -9  -3   -0.14    0.14
  -6  -9   3    0.14    0.23
   6   9   3    0.47    0.24
  -6  -9   3    0.00    0.20
   9  -6  -3    0.25    0.19
  -6  -9   3    0.25    0.08
  -9  -6   3    0.26    0.14
   6  -9  -3    0.30    0.18
  -9  -6   3    0.30    0.30
   9  -6  -5    0.32    0.20
  -9  -6   5    0.20    0.25
   6  -9  -5    0.26    0.13
   6  -9  -5    0.27    0.19
  -6  -9   5    0.35    0.26
  -6  -9   5    0.37    0.28
  -9  -6   5    0.11    0.12
  -6  -9   5    0.20    0.06
  -9  -6   5    0.03    0.26
  -9  -6   7    5.48    0.58
  -9  -6   7    6.24    0.43
  -9  -6   7    5.71    0.56
   6  -9  -7    5.92    0.54
   6  -9  -7    5.38    0.29
  -6  -9   7    5.94    0.59
   9  -6  -7    6.29    0.56
  -9  -6   9    2.96    0.49
  -6  -9   9    3.32    0.48
   9   6   9    3.29    0.37
   9   6   9    3.14    0.29
  -9  -6   9    3.53    0.34
  -6   9  -9    3.54    0.35
  -9  -6   9    3.92    0.50
   6  -9  -9    2.54    0.14
   6  -9  -9    3.42    0.45
   9  -6  -9    2.84    0.41
   9  -6 -11    1.78    0.36
   6  -9 -11    1.82    0.37
  -6   9 -11    1.47    0.24
   9   6  11    1.54    0.28
  -9  -6  11    2.08    0.45
  -6  -9  11    1.71    0.42
  -9   6 -11    1.38    0.14
  -6  -9  13    2.76    0.46
  -9  -6  13    3.33    0.53
   9  -6 -13    3.41    0.52
   6  -9 -13    3.40    0.50
   9  -6 -15    0.93    0.32
  -6  -9  15    0.45    0.36
  -9  -6  15    0.74    0.33
   6  -9 -15    0.90    0.36
   6  -9 -17    1.66    0.45
   9  -6 -17    1.71    0.43
  -9  -6  17    1.42    0.42
  -6  -9  17    1.13    0.39
   9  -6 -19    0.09    0.27
  -9  -6  19    0.51    0.32
  -6  -9  19   -0.51    0.31
   6  -9 -19    0.21    0.28
   9  -6 -21    0.28    0.30
  -9  -6  21    0.06    0.32
   6  -9 -21   -0.19    0.29
  -6  -9  21   -0.14    0.33
   9   7 -22    1.17    0.38
   7   9 -22    0.33    0.35
   7   9 -20    1.24    0.40
   9   7 -20    0.72    0.40
   7   9 -18    0.50    0.36
   9   7 -18    0.40    0.32
   9   7 -16    0.41    0.19
   7   9 -16    0.41    0.34
   7   9 -14    6.73    0.69
   9   7 -14    6.32    0.50
   9   7 -12    6.20    0.47
   7   9 -12    5.13    0.34
   7   9 -10    6.62    0.35
   9   7 -10    7.07    0.47
   9   7  -8   12.74    0.61
   7   9  -8   11.29    0.44
   9  -7   8   12.29    0.64
   9  -7   6    1.81    0.30
   7  -9   6    1.21    0.24
   9   7  -6    2.03    0.24
   7  -9   6    1.59    0.31
  -7   9   6    2.04    0.38
   9  -7   6    1.63    0.28
  -7   9   4    6.29    0.52
   9   7  -4    5.95    0.40
   7  -9   4    4.84    0.42
  -7  -9  -4    5.69    0.55
  -9   7   4    5.48    0.43
   7  -9   4    5.29    0.48
   9  -7   4    6.00    0.50
  -9  -7  -2   16.26    0.87
   9   7  -2   17.01    0.73
  -7  -9  -2   17.63    0.73
  -9   7   2   17.81    0.74
   7  -9   2   16.57    0.79
  -7  -9  -2   17.18    0.92
   9  -7   2   15.28    0.82
  -7   9   2   16.58    0.81
   7  -9   2   16.65    0.84
   7   9  -2   16.61    0.80
  -9  -7   0    1.68    0.38
   9   7   0    1.55    0.26
  -9  -7   0    1.74    0.24
   9  -7   0    1.63    0.29
   7  -9   0    1.31    0.25
  -7  -9   0    1.51    0.19
   7   9   0    1.58    0.30
  -7  -9   0    1.63    0.35
  -9  -7   0    1.73    0.33
  -7  -9   2   15.91    0.93
  -9  -7   2   18.35    0.97
   7   9   2   16.83    0.84
  -9  -7   2   17.46    0.73
  -7  -9   2   17.47    0.95
  -7  -9   2   18.09    0.63
  -9  -7   2   16.42    0.92
   7  -9  -2   16.73    0.83
   7  -9  -2   18.17    0.77
   9  -7  -2   17.24    0.88
  -9  -7   4    4.95    0.54
   7  -9  -4    5.21    0.38
   9  -7  -4    5.83    0.52
  -7  -9   4    4.97    0.54
  -7  -9   4    4.70    0.54
   7  -9  -4    5.58    0.49
  -9  -7   4    5.38    0.38
  -9  -7   4    5.35    0.57
  -7  -9   4    5.42    0.28
  -9  -7   6    1.55    0.22
   7  -9  -6    1.85    0.32
  -9  -7   6    2.58    0.47
  -7  -9   6    2.38    0.44
  -7  -9   6    1.66    0.36
  -9  -7   6    1.70    0.39
   9  -7  -6    1.85    0.33
  -7  -9   6    1.57    0.16
   7  -9  -6    1.58    0.20
  -7  -9   8   12.59    0.87
  -9  -7   8   12.10    0.88
   9   7   8   10.28    0.56
  -9  -7   8   12.88    0.61
  -9  -7   8   12.18    0.83
   9  -7  -8   13.91    0.86
   7  -9  -8   11.91    0.47
   7  -9  -8   13.47    0.83
  -7   9 -10    8.03    0.49
  -7  -9  10    7.19    0.70
  -9  -7  10    6.65    0.71
  -9  -7  10    7.66    0.50
   9  -7 -10    7.96    0.69
   7  -9 -10    8.16    0.69
   9   7  10    5.61    0.40
   7  -9 -10    5.40    0.26
   9  -7 -12    6.40    0.66
   7  -9 -12    6.22    0.67
  -9  -7  12    5.14    0.64
  -7  -9  12    6.13    0.68
  -9  -7  14    6.58    0.72
  -7  -9  14    5.40    0.67
   9  -7 -14    6.97    0.72
   7  -9 -14    6.31    0.68
   9  -7 -16    0.82    0.33
   7  -9 -16    1.12    0.40
  -7  -9  16    0.56    0.33
  -9  -7  16    0.79    0.39
   9  -7 -18    0.25    0.30
  -7  -9  18   -0.21    0.33
  -9  -7  18    0.76    0.39
   7  -9 -18    0.51    0.38
   9  -7 -20    0.67    0.36
   7  -9 -20    1.25    0.40
  -7  -9  20    0.24    0.33
  -9  -7  20    0.67    0.36
  -7  -9  22    0.32    0.32
   7  -9 -22    0.97    0.39
  -9  -7  22   -0.27    0.36
   9  -7 -22   -0.10    0.29
   9   8 -21   -0.01    0.34
   8   9 -21    0.32    0.33
   9   8 -19    1.59    0.45
   8   9 -19    1.44    0.44
   9   8 -17    3.08    0.53
   8   9 -17    1.27    0.42
   8   9 -13    7.14    0.45
   9   8 -13    7.65    0.52
   8   9 -11    9.64    0.48
   9   8 -11   10.23    0.56
  -9   8   9    1.70    0.14
   8   9  -9    2.02    0.21
   9   8  -9    2.23    0.25
   9  -8   9    1.89    0.30
   8  -9   7   15.15    0.79
   9  -8   7   13.30    0.78
   8   9  -7   14.28    0.54
   9   8  -7   13.97    0.62
   8  -9   7   13.71    0.75
   9  -8   7   14.04    0.73
   9   8  -5   14.22    0.62
   9  -8   5   13.63    0.78
   8  -9   5   13.28    0.74
   8  -9   5   14.30    0.77
  -9   8   5   13.85    0.72
   9  -8   5   12.64    0.71
  -8   9   5   14.24    0.77
   9   8  -3    1.46    0.27
  -9   8   3    1.50    0.28
   8   9  -3    1.11    0.25
  -8   9   3    1.51    0.31
  -8  -9  -3    1.18    0.33
   9  -8   3    1.12    0.26
   8  -9   3    1.21    0.24
   8  -9   3    1.64    0.32
  -9  -8  -1   22.12    1.07
   8   9  -1   20.71    0.92
  -9  -8  -1   21.31    0.87
   9   8  -1   21.24    0.89
  -8  -9  -1   22.01    0.84
   9  -8   1   20.37    0.96
   8  -9   1   20.39    0.94
  -8  -9  -1   21.72    1.07
  -9  -8  -1   21.13    1.07
  -8  -9   1   19.97    1.07
  -9  -8   1   21.53    1.09
   8   9   1   21.59    0.96
  -8  -9   1   20.87    1.08
  -8  -9   1   22.65    0.80
  -9  -8   1   21.90    0.84
  -9  -8   1   21.64    1.09
   8  -9  -1   22.99    1.02
   9  -8  -1   22.21    1.02
  -8  -9   3    1.34    0.35
  -9  -8   3    1.14    0.36
   8  -9  -3    1.89    0.28
  -8  -9   3    1.54    0.39
   9  -8  -3    1.56    0.28
  -9  -8   3    2.06    0.43
   8  -9  -3    1.33    0.27
  -8  -9   3    1.15    0.17
  -9  -8   3    1.58    0.22
  -8  -9   5   13.63    0.90
  -9  -8   5   14.15    0.94
  -9  -8   5   13.48    0.90
   8  -9  -5   12.64    0.62
  -8  -9   5   14.74    0.92
   9  -8  -5   13.60    0.82
   8  -9  -5   14.25    0.82
  -9  -8   5   13.36    0.60
  -8  -9   5   14.36    0.54
  -8  -9   7   13.28    0.92
   8  -9  -7   12.52    0.58
  -9  -8   7   13.19    0.93
   8  -9  -7   14.38    0.87
  -8  -9   7   13.68    0.91
  -9  -8   7   12.69    0.89
   9  -8  -7   14.99    0.90
  -8  -9   7   13.99    0.54
  -9  -8   7   12.87    0.59
  -8  -9   9    2.45    0.48
  -9  -8   9    2.31    0.26
   8  -9  -9    1.93    0.22
   8  -9  -9    2.44    0.40
  -9  -8   9    2.12    0.47
   9  -8  -9    2.76    0.43
  -8  -9  11    8.49    0.80
  -9  -8  11   10.58    0.87
   9  -8 -11   10.55    0.82
   8  -9 -11   11.59    0.86
  -9  -8  13    6.97    0.75
  -8  -9  13    7.04    0.75
   9  -8 -13    7.71    0.74
   8  -9 -13    9.70    0.83
   9  -8 -15    2.39    0.46
   8  -9 -15    2.98    0.54
  -8  -9  15    2.80    0.53
  -9  -8  15    3.06    0.52
   8  -9 -17    1.80    0.43
  -8  -9  17    1.80    0.48
  -9  -8  17    1.77    0.48
   9  -8 -17    2.00    0.47
   9  -8 -19    1.66    0.44
  -9  -8  19    0.36    0.34
   8  -9 -19    1.30    0.42
  -8  -9  19    1.18    0.44
   9  -8 -21   -0.11    0.36
   8  -9 -21   -0.55    0.39
  -8  -9  21   -0.54    0.38
  -9  -8  21   -0.38    0.36
   9   9 -20    0.28    0.32
   9   9 -18    0.41    0.35
   9   9 -12    1.62    0.22
   9   9 -10    2.91    0.27
   9  -9   8    6.26    0.52
   9   9  -8    6.30    0.39
   9  -9   6    0.22    0.24
   9  -9   6    0.02    0.16
   9   9  -4    2.07    0.32
  -9   9   4    1.95    0.32
   9  -9   4    2.02    0.32
   9  -9   4    2.08    0.34
   9   9  -2    4.95    0.46
   9  -9   2    4.53    0.45
  -9   9   2    4.70    0.44
  -9  -9  -2    4.63    0.55
  -9  -9   0   11.03    0.80
  -9  -9   0   11.56    0.60
  -9  -9   0   10.67    0.78
   9  -9   0   11.66    0.73
   9   9   0   11.99    0.69
   9  -9  -2    4.69    0.47
  -9  -9   2    4.43    0.34
  -9  -9   2    4.21    0.54
  -9  -9   2    3.81    0.52
  -9  -9   4    2.39    0.43
  -9  -9   4    1.83    0.21
   9  -9  -4    1.89    0.27
  -9  -9   4    1.96    0.41
   9  -9  -4    2.45    0.37
  -9  -9   6    0.31    0.27
  -9  -9   6   -0.04    0.11
  -9  -9   6    0.36    0.34
   9  -9  -6    0.27    0.25
  -9  -9   8    5.33    0.63
  -9  -9   8    6.07    0.38
  -9  -9   8    5.48    0.64
   9  -9  -8    7.44    0.67
   9  -9 -10    3.16    0.47
  -9  -9  10    2.37    0.50
   9  -9 -12    1.21    0.37
  -9  -9  12    0.97    0.35
  -9  -9  14    4.76    0.67
   9  -9 -14    3.97    0.60
   9  -9 -16    0.25    0.29
  -9  -9  16    0.01    0.32
   9  -9 -18   -0.22    0.33
  -9  -9  18    1.11    0.44
   9  -9 -20   -0.36    0.37
  -9  -9  20    0.05    0.34
   0 -10   0    1.19    0.16
  10   0   0    0.97    0.23
   0  10   0    0.97    0.25
   0  10   0    1.19    0.22
   0 -10  -2    0.30    0.13
   0 -10  -2    0.39    0.24
 -10   0  -2    0.24    0.18
   0  10   2    0.12    0.14
   0  10  -2    0.51    0.20
  10   0  -2    0.27    0.16
   0 -10   2    0.29    0.08
  10   0   2    0.26    0.15
   0  10   2    0.58    0.21
   0 -10  -4   27.90    1.11
  10   0   4   27.84    1.12
  10   0  -4   28.68    1.12
 -10   0  -4   28.08    0.99
   0  10   4   25.56    0.81
   0  10  -4   26.66    1.07
   0 -10  -4   28.18    1.01
   0 -10  -6   10.75    0.64
 -10   0  -6   10.99    0.52
  10   0  -6   11.55    0.69
   0  10   6   10.00    0.38
   0  10  -6   11.34    0.70
   0 -10  -6   11.73    0.69
 -10   0  -8    1.70    0.18
   0 -10  -8    1.96    0.34
   0  10  -8    1.12    0.10
  10   0  -8    1.45    0.29
 -10   0   8    1.74    0.32
   0  10  -8    1.74    0.36
   0 -10  -8    1.34    0.32
 -10   0  10   27.94    1.08
   0 -10 -10   30.17    0.85
  10   0 -10   32.70    1.29
   0 -10 -10   30.35    1.32
   0  10 -10   29.16    1.30
   0 -10 -10   30.27    1.21
   0  10 -12    4.97    0.57
   0 -10 -12    4.86    0.51
   0 -10 -12    4.30    0.53
   0  10 -12    3.70    0.27
   0 -10 -12    4.34    0.28
  10   0 -12    4.37    0.50
   0 -10 -14    3.35    0.52
  10   0 -14    4.47    0.53
   0  10 -14    4.53    0.62
   0 -10 -14    4.10    0.48
   0 -10 -16    7.20    0.74
   0  10 -16    5.99    0.47
  10   0 -16    7.49    0.71
   0  10 -16    7.82    0.76
   0 -10 -16    7.15    0.63
   0 -10 -18    1.47    0.34
   0 -10 -18    1.13    0.40
   0  10 -18    2.36    0.50
  10   0 -18    2.03    0.43
  10   0 -20    0.55    0.27
   0 -10 -20    1.30    0.36
 -10   0  20    0.55    0.36
  10   0 -20    1.25    0.38
   0 -10 -20    0.93    0.42
   0  10 -20    0.50    0.38
  10   0 -22    0.26    0.32
   0  10 -22    0.21    0.37
 -10   0  22    0.03    0.35
   0 -10 -22   -0.23    0.30
   1  10 -23    0.39    0.34
  -1 -10 -23   -0.15    0.30
  10   1 -23   -0.06    0.28
  10   1 -21    0.89    0.32
  10   1 -21    0.93    0.34
  -1 -10 -21    1.15    0.43
   1  10 -21    1.70    0.50
  10   1 -19   -0.13    0.22
  -1 -10 -19    0.09    0.28
   1  10 -19    0.69    0.37
  10   1 -19    0.14    0.22
  -1 -10 -19    0.16    0.23
  -1 -10 -17    1.10    0.41
   1  10 -17    2.12    0.48
  10   1 -17    0.95    0.30
  -1 -10 -17    1.40    0.33
   1  10 -15   16.32    0.73
  -1 -10 -15   18.47    1.18
  10   1 -15   19.56    1.08
   1  10 -15   20.21    1.20
  -1 -10 -15   20.08    0.99
   1  10 -13    2.89    0.26
  -1 -10 -13    4.03    0.53
  -1 -10 -13    3.69    0.31
  10   1 -13    3.46    0.46
   1  10 -13    4.62    0.59
  -1 -10 -13    3.34    0.44
   1  10 -11    3.08    0.21
  -1 -10 -11    4.68    0.54
   1  10 -11    2.95    0.20
  -1 -10 -11    4.75    0.34
  -1 -10 -11    4.25    0.46
 -10   1  11    4.25    0.39
  10   1 -11    4.63    0.49
   1  10 -11    4.20    0.53
  -1 -10  -9   19.00    1.00
  -1 -10  -9   19.33    0.73
  10   1  -9   19.68    0.96
 -10   1   9   19.02    0.83
   1  10  -9   18.69    1.00
  -1 -10  -9   19.34    0.93
 -10  -1  -7   18.66    0.70
 -10   1   7   18.91    0.83
  -1 -10  -7   19.32    0.91
  -1 -10  -7   19.08    0.75
  -1 -10  -7   19.82    0.93
  10   1  -7   19.10    0.91
   1  10  -7   18.30    0.95
  -1 -10  -5   11.25    0.58
  -1 -10  -5   10.77    0.62
  10   1  -5   11.16    0.66
  -1  10   5   10.96    0.41
 -10  -1  -5   11.28    0.57
   1  10  -5   10.31    0.65
  -1 -10  -5   10.68    0.66
  -1 -10  -3    8.86    0.49
 -10  -1  -3    8.46    0.53
  10  -1   3    8.16    0.58
   1 -10   3    8.43    0.35
  10   1  -3    7.97    0.54
  -1  10   3    9.21    0.49
   1  10  -3    8.06    0.54
  -1  10   3    8.32    0.42
 -10  -1  -1    4.52    0.24
  10   1  -1    5.65    0.46
  -1  10   1    4.68    0.39
  10  -1   1    4.77    0.43
   1 -10   1    4.84    0.29
   1  10  -1    4.77    0.39
  -1  10   1    4.47    0.35
  -1 -10  -1    4.97    0.31
 -10  -1  -1    5.30    0.45
  -1  10  -1    5.14    0.32
 -10  -1   1    5.08    0.47
  10   1   1    5.32    0.45
  10  -1  -1    5.23    0.45
  -1  10  -1    5.10    0.43
   1 -10  -1    5.07    0.47
   1  10   1    5.78    0.45
   1  10   1    4.61    0.36
  -1 -10   1    4.83    0.24
   1 -10  -1    5.33    0.34
  -1  10  -1    4.37    0.39
  10   1   3    7.91    0.56
  -1  10  -3    7.93    0.35
   1 -10  -3    8.02    0.58
  10  -1  -3    8.25    0.57
  -1  10  -3    7.30    0.53
   1 -10  -3    7.78    0.48
 -10  -1   3    8.96    0.64
 -10   1  -5   11.06    0.55
  -1  10  -5    9.96    0.38
  10  -1  -5   11.64    0.69
  -1  10  -5    9.93    0.66
   1 -10  -5   11.75    0.71
   1 -10  -5   11.81    0.64
 -10   1  -7   18.24    0.64
  -1  10  -7   16.21    0.52
 -10  -1   7   18.30    0.85
  10  -1  -7   19.04    0.93
  -1  10  -7   17.35    0.92
   1 -10  -7   18.85    0.91
  10  -1  -7   15.80    0.47
   1 -10  -7   19.42    0.91
   1 -10  -9   18.48    0.97
 -10   1  -9   18.15    0.56
   1 -10  -9   20.46    0.98
  -1  10  -9   18.13    0.60
 -10  -1   9   18.22    0.87
  10  -1  -9   19.40    0.98
  -1  10  -9   18.94    1.01
   1 -10 -11    4.33    0.51
  -1  10 -11    4.06    0.53
  -1  10 -11    4.26    0.29
 -10  -1  11    4.61    0.47
   1 -10 -11    4.51    0.50
  10  -1 -11    5.26    0.52
  10  -1 -13    3.68    0.48
   1 -10 -13    3.63    0.50
 -10  -1  13    3.55    0.54
  -1  10 -13    3.86    0.54
   1 -10 -13    3.01    0.44
   1 -10 -15   19.41    1.21
 -10  -1  15   18.08    1.19
  10  -1 -15   19.88    1.13
  -1  10 -15   19.80    1.20
   1 -10 -15   17.12    0.98
   1 -10 -17    1.31    0.38
 -10  -1  17    1.66    0.47
  10  -1 -17    1.19    0.34
  -1  10 -17    1.80    0.45
   1 -10 -17    1.78    0.38
  10  -1 -19    0.01    0.22
   1 -10 -19    0.14    0.28
 -10  -1  19    0.13    0.30
   1 -10 -19    0.24    0.27
  -1  10 -19    0.38    0.34
  10  -1 -19    0.26    0.29
   1 -10 -21    0.64    0.37
 -10  -1  21    0.49    0.36
  10  -1 -21    0.90    0.35
  -1  10 -21    0.90    0.44
  -1  10 -23    0.33    0.39
  10  -1 -23    0.01    0.29
 -10  -1  23    0.62    0.40
   1 -10 -23   -0.49    0.40
  -2 -10 -22    0.10    0.29
  10   2 -22   -0.47    0.30
  10   2 -22   -0.18    0.28
  10   2 -20    0.78    0.33
   2  10 -20    0.40    0.38
  -2 -10 -20    0.63    0.36
  10   2 -20    0.75    0.28
   2  10 -18    1.29    0.39
  -2 -10 -18    1.57    0.45
  -2 -10 -18    0.70    0.25
  10   2 -18    0.85    0.31
  -2 -10 -16    2.94    0.39
   2  10 -16    2.33    0.45
  -2 -10 -16    2.03    0.46
  10   2 -16    2.96    0.44
  -2 -10 -14    2.79    0.46
   2  10 -14    2.78    0.25
  -2 -10 -14    3.77    0.43
   2  10 -14    4.49    0.56
  10   2 -14    3.72    0.46
   2  10 -12    4.52    0.27
  -2 -10 -12    6.19    0.64
  -2 -10 -12    6.62    0.55
  -2 -10 -12    6.46    0.45
  10   2 -12    6.78    0.57
   2  10 -12    5.88    0.62
  10  -2  10   14.04    0.47
  -2 -10 -10   13.82    0.89
 -10   2  10   14.57    0.69
  -2 -10 -10   14.34    0.68
  10   2 -10   16.25    0.86
   2  10 -10   14.35    0.90
  -2 -10 -10   15.96    0.82
  -2 -10  -8    0.93    0.27
   2  10  -8    0.69    0.28
  -2 -10  -8    0.91    0.27
  -2 -10  -8    0.74    0.20
  10   2  -8    1.01    0.25
 -10   2   8    1.09    0.25
 -10  -2  -8    0.78    0.18
   2  10  -6    2.78    0.38
  -2 -10  -6    3.49    0.37
  -2  10   6    3.53    0.46
  -2 -10  -6    3.18    0.33
  10   2  -6    2.87    0.35
 -10  -2  -6    3.13    0.31
  -2  10   4   19.38    0.64
  -2  10   4   20.50    0.97
  -2 -10  -4   19.71    0.82
  10  -2   4   19.92    0.94
   2 -10   4   20.65    0.65
  -2 -10  -4   19.93    0.84
  10   2  -4   19.83    0.88
  -2  10   4   20.31    0.72
   2  10  -4   19.56    0.91
 -10  -2  -4   19.07    0.82
  -2  10   2    8.07    0.43
 -10  -2  -2    7.18    0.37
 -10  -2  -2    7.05    0.51
  10  -2   2    7.78    0.57
  10   2  -2    7.97    0.54
  -2 -10  -2    7.98    0.55
  -2  10   2    7.11    0.47
   2 -10   2    8.20    0.39
  -2 -10  -2    8.60    0.45
  -2  10   2    8.35    0.48
  -2 -10   0    1.06    0.14
 -10  -2   0    0.79    0.26
  10  -2   0    1.06    0.24
  -2  10   0    1.09    0.18
  10   2   0    1.11    0.24
  -2  10   0    0.95    0.21
  -2  10   0    1.21    0.26
   2 -10   0    1.00    0.17
   2 -10   0    1.23    0.27
 -10  -2   2    9.02    0.62
  10   2   2    7.02    0.52
  -2  10  -2    8.03    0.40
  10  -2  -2    7.41    0.53
   2 -10  -2    7.82    0.45
  -2  10  -2    7.31    0.50
   2 -10  -2    8.24    0.58
 -10  -2   4   19.03    0.98
   2 -10  -4   20.24    0.96
  10  -2  -4   21.29    0.97
  -2  10  -4   20.98    0.68
   2 -10  -4   21.48    0.87
  -2  10  -4   19.21    0.91
 -10   2  -6    3.89    0.32
 -10  -2   6    3.74    0.47
  -2  10  -6    3.49    0.44
  -2  10  -6    3.50    0.24
  10  -2  -6    3.30    0.39
   2 -10  -6    3.65    0.39
   2 -10  -6    4.17    0.46
 -10  -2   6    3.78    0.42
   2 -10  -8    0.87    0.25
 -10   2  -8    0.71    0.14
 -10  -2   8    0.87    0.30
  -2  10  -8    0.51    0.25
  10  -2  -8    0.76    0.14
  -2  10  -8    0.67    0.13
 -10  -2   8    1.03    0.29
  10  -2  -8    0.61    0.23
   2 -10  -8    0.63    0.28
 -10  -2  10   13.75    0.96
   2 -10 -10   15.26    0.89
 -10  -2  10   14.13    0.80
  10  -2 -10   15.27    0.90
  10  -2 -10   14.29    0.61
   2 -10 -10   15.39    0.90
  -2  10 -10   14.46    0.59
  -2  10 -10   14.93    0.92
   2 -10 -12    6.08    0.59
  -2  10 -12    6.81    0.68
 -10  -2  12    6.56    0.68
  -2  10 -12    5.63    0.39
   2 -10 -12    7.55    0.67
  10  -2 -12    7.52    0.65
   2  10  12    4.73    0.22
   2 -10 -14    4.30    0.57
 -10  -2  14    2.92    0.51
  -2  10 -14    4.43    0.59
  10  -2 -14    3.69    0.51
   2 -10 -14    4.51    0.52
  -2  10 -16    2.34    0.48
  10  -2 -16    2.95    0.46
   2 -10 -16    2.83    0.51
 -10  -2  16    2.65    0.50
   2 -10 -16    2.51    0.45
   2 -10 -18    1.18    0.38
 -10  -2  18    1.20    0.40
  10  -2 -18    1.26    0.39
   2 -10 -18    1.20    0.43
  -2  10 -18    0.68    0.38
   2 -10 -20    0.97    0.37
   2 -10 -20    1.22    0.43
 -10  -2  20    1.82    0.45
  10  -2 -20    1.08    0.39
  -2  10 -20    0.91    0.42
  10  -2 -22    0.01    0.27
 -10  -2  22   -0.13    0.34
   2 -10 -22    0.13    0.37
  -2  10 -22    0.56    0.38
   3  10 -21    0.61    0.39
  10   3 -21    0.78    0.34
  -3 -10 -21    0.74    0.36
  10   3 -21    0.27    0.24
  10   3 -19    0.83    0.31
   3  10 -19    0.37    0.32
  -3 -10 -19    0.10    0.31
  10   3 -19    0.23    0.26
  -3 -10 -17    0.52    0.31
   3  10 -17    0.95    0.38
  10   3 -17    0.54    0.25
   3  10 -15    3.54    0.53
  10   3 -15    2.35    0.36
   3  10 -13    1.30    0.15
   3  10 -13    1.43    0.38
  10   3 -13    1.62    0.31
   3  10 -11    0.67    0.31
   3  10 -11    0.22    0.05
 -10   3  11    0.57    0.22
  10   3 -11    0.37    0.19
   3  10 -11    0.21    0.05
  -3 -10  -9    8.88    0.55
 -10   3   9    8.27    0.49
  10   3  -9    8.42    0.59
  10  -3   9    7.63    0.39
   3  10  -9    8.56    0.68
 -10  -3  -7    3.24    0.32
  10   3  -7    3.67    0.38
   3  10  -7    4.00    0.45
  -3 -10  -7    3.96    0.38
 -10  -3  -5    2.93    0.33
   3 -10   5    3.58    0.27
  10  -3   5    3.40    0.40
  10   3  -5    3.31    0.36
  -3  10   5    3.30    0.25
  -3  10   5    3.29    0.43
  -3 -10  -5    3.32    0.36
  10   3  -5    2.48    0.17
 -10  -3  -3    1.80    0.29
  -3  10   3    2.36    0.37
  -3  10   3    1.87    0.28
 -10  -3  -3    1.88    0.23
   3 -10   3    2.33    0.23
  10  -3   3    2.32    0.33
  10   3  -3    1.69    0.26
  -3  10   3    2.28    0.26
  -3 -10  -3    2.14    0.32
   3 -10   3    2.37    0.34
  -3  10   1    2.39    0.27
   3 -10   1    2.41    0.35
  -3 -10  -1    2.66    0.24
 -10  -3  -1    2.09    0.30
  -3  10   1    2.18    0.27
  10   3  -1    2.40    0.31
  10  -3   1    2.67    0.35
  -3 -10  -1    1.96    0.31
   3 -10   1    2.10    0.23
 -10  -3   1    2.65    0.35
  10   3   1    2.23    0.29
  -3  10  -1    2.49    0.29
  -3  10  -1    2.39    0.25
  10  -3  -1    1.84    0.30
   3 -10  -1    2.41    0.26
  -3 -10   1    2.26    0.16
   3  10   1    2.31    0.34
   3 -10  -1    2.28    0.35
 -10  -3   3    1.99    0.33
   3 -10  -3    2.29    0.37
  -3  10  -3    2.02    0.31
   3 -10  -3    2.78    0.30
  10  -3  -3    1.94    0.30
  -3  10  -3    2.49    0.24
 -10  -3   5    3.57    0.45
 -10  -3   5    3.55    0.44
  -3  10  -5    3.13    0.26
  10  -3  -5    2.71    0.37
   3 -10  -5    3.51    0.37
  -3  10  -5    2.93    0.38
   3 -10  -5    2.68    0.39
   3 -10  -7    4.33    0.49
 -10  -3   7    3.19    0.46
  -3  10  -7    3.72    0.46
  -3  10  -7    4.50    0.31
  10  -3  -7    4.37    0.46
 -10  -3   7    4.95    0.50
   3 -10  -7    4.21    0.44
 -10   3  -9    8.02    0.34
 -10  -3   9    8.03    0.72
  10  -3  -9    7.90    0.42
 -10  -3   9    8.50    0.64
  -3  10  -9    8.39    0.46
  10  -3  -9    8.19    0.65
  -3  10  -9    9.05    0.71
   3 -10  -9    9.03    0.70
   3 -10  -9    8.51    0.66
  -3 -10  11    0.03    0.25
  -3  10 -11   -0.03    0.28
  10  -3 -11    0.22    0.26
   3 -10 -11    0.65    0.26
 -10  -3  11    0.35    0.28
 -10  -3  11    0.27    0.30
  10   3  11    0.34    0.07
  10  -3 -11    0.29    0.18
  -3  10 -11    0.42    0.14
   3 -10 -13    2.11    0.43
  -3 -10  13    1.11    0.33
  -3  10 -13    2.18    0.45
  10  -3 -13    1.67    0.35
 -10  -3  13    2.44    0.48
  -3 -10  15    3.36    0.49
  -3  10 -15    3.51    0.55
   3 -10 -15    3.46    0.53
  10  -3 -15    2.93    0.48
 -10  -3  15    3.25    0.55
  -3 -10  17    0.56    0.32
  10  -3 -17    0.86    0.33
   3 -10 -17    0.55    0.31
 -10  -3  17    1.19    0.43
  -3  10 -17    1.47    0.43
   3 -10 -19    0.65    0.32
 -10  -3  19    0.41    0.35
  -3  10 -19    1.07    0.44
  -3 -10  19    0.30    0.26
  10  -3 -19    0.74    0.32
  10  -3 -21    0.96    0.38
   3 -10 -21    0.73    0.37
 -10  -3  21   -0.20    0.40
  -3  10 -21    0.36    0.36
   4  10 -22   -0.08    0.34
  -4 -10 -22    0.04    0.31
  10   4 -22   -0.47    0.35
  10   4 -22    0.37    0.23
  10   4 -20    0.86    0.33
   4  10 -20    1.68    0.48
  10   4 -20    1.36    0.32
  10   4 -18    1.07    0.33
   4  10 -18    0.49    0.33
   4  10 -16    0.69    0.32
  10   4 -16    0.90    0.28
  10   4 -14    6.44    0.58
   4  10 -14    5.89    0.65
   4  10 -12    4.34    0.54
  10   4 -12    4.58    0.45
 -10   4  10    7.65    0.45
  10   4 -10    9.06    0.62
   4  10 -10    7.44    0.66
  10  -4  10    7.91    0.40
  10   4  -8   16.10    0.80
  -4 -10  -8   15.91    0.79
 -10  -4  -6    1.49    0.25
  10  -4   6    1.49    0.28
  -4  10   6    1.57    0.34
  10   4  -6    1.18    0.23
  -4 -10  -6    1.53    0.29
  -4  10   6    1.34    0.16
  10   4  -4   15.75    0.54
 -10  -4  -4   16.76    0.80
  -4  10   4   17.23    0.88
 -10  -4  -4   15.48    0.70
   4 -10   4   17.01    0.68
  10   4  -4   16.47    0.77
  -4  10   4   18.41    0.66
  10  -4   4   16.32    0.85
  -4 -10  -4   16.27    0.81
   4 -10   4   15.60    0.81
 -10   4   2   21.23    0.64
 -10  -4  -2   20.47    0.94
  10   4  -2   21.02    0.90
   4 -10   2   20.81    0.96
  10  -4   2   20.65    0.96
   4 -10   2   20.67    0.78
  -4 -10  -2   20.60    0.94
 -10  -4  -2   21.18    0.76
  -4  10   2   22.60    0.98
   4  10   0    0.28    0.22
 -10  -4   0    0.70    0.23
   4 -10   0    0.54    0.19
  -4  10   0    0.54    0.16
  10   4   0    0.62    0.20
  10  -4   0    0.47    0.21
  -4 -10   0    0.41    0.27
   4 -10   0    0.51    0.25
   4 -10   0    0.37    0.15
   4  10   2   19.42    0.92
  -4  10  -2   21.15    0.87
 -10  -4   2   21.17    0.99
  -4 -10   2   20.79    0.97
  10  -4  -2   20.69    0.95
   4 -10  -2   20.36    0.95
   4 -10  -2   21.94    0.76
   4 -10  -2   20.42    0.83
  -4  10  -2   21.35    0.79
 -10  -4   4   16.56    0.93
   4  10   4   16.44    0.88
  10  -4  -4   15.25    0.85
 -10  -4   4   16.00    0.88
  -4  10  -4   15.63    0.82
  -4  10  -4   16.04    0.68
   4 -10  -4   17.60    0.81
   4 -10  -4   15.43    0.85
   4 -10  -6    1.68    0.28
 -10  -4   6    1.78    0.40
  10   4   6    1.44    0.27
   4 -10  -6    1.59    0.34
  10  -4  -6    1.64    0.32
 -10  -4   6    1.28    0.33
  -4  10  -6    1.52    0.21
  -4  10  -6    1.63    0.33
  -4  10  -8   13.33    0.86
 -10  -4   8   13.19    0.91
  10   4   8   13.80    0.68
 -10  -4   8   14.53    0.85
  -4  10  -8   14.18    0.65
  -4 -10   8   14.70    0.89
  10  -4  -8   14.00    0.86
   4 -10  -8   13.63    0.82
  -4  10 -10    7.85    0.70
 -10   4 -10    6.25    0.26
  10   4  10    5.22    0.30
 -10  -4  10    6.03    0.66
 -10  -4  10    7.38    0.64
  -4  10 -10    7.58    0.48
  10  -4 -10    6.62    0.44
  10   4  10    7.47    0.47
  -4 -10  10    7.52    0.67
  10  -4 -10    7.20    0.64
   4 -10 -10    8.10    0.66
  -4 -10  12    3.24    0.50
  -4  10 -12    3.49    0.52
 -10  -4  12    3.64    0.57
  10  -4 -12    4.16    0.40
   4 -10 -12    4.58    0.54
  -4  10 -14    6.67    0.70
 -10  -4  14    6.19    0.69
   4 -10 -14    6.77    0.69
  10  -4 -14    6.94    0.70
  -4 -10  14    4.99    0.60
   4 -10 -16    0.55    0.31
  -4 -10  16    0.51    0.33
 -10  -4  16    0.95    0.39
  10  -4 -16    1.05    0.35
  -4  10 -16    1.00    0.37
  -4 -10  18    0.56    0.32
   4 -10 -18    0.92    0.39
  10  -4 -18    1.21    0.39
 -10  -4  18    0.49    0.36
  -4  10 -18    1.38    0.45
  10  -4 -20    1.62    0.44
  -4 -10  20    1.14    0.36
  -4  10 -20    1.76    0.49
   4 -10 -20    0.80    0.38
 -10  -4  20    1.45    0.47
   4 -10 -22   -0.03    0.30
 -10  -4  22    0.35    0.34
  10  -4 -22    0.82    0.39
  10   5 -21    0.54    0.35
   5  10 -21    1.01    0.43
  10   5 -19    0.12    0.27
  10   5 -19   -0.10    0.20
   5  10 -19   -0.14    0.28
   5  10 -17    3.61    0.57
  10   5 -17    2.91    0.43
   5  10 -15    1.86    0.41
  10   5 -15    1.13    0.27
   5  10 -13    4.16    0.56
  10   5 -13    4.89    0.48
  10   5 -11   11.22    0.67
 -10   5  11   10.81    0.47
   5  10 -11   10.32    0.78
  10  -5   9    7.21    0.44
 -10   5   9    7.25    0.42
  10   5  -9    7.23    0.53
  10   5  -7   11.51    0.64
  -5 -10  -7   11.12    0.69
 -10  -5  -5   25.95    1.05
  -5  10   5   27.22    1.14
 -10  -5  -5   24.51    0.99
  10  -5   5   26.15    1.12
   5 -10   5   25.31    0.93
  10   5  -5   27.22    1.02
  -5  10   5   26.57    0.80
  -5 -10  -5   25.86    1.08
   5 -10   5   24.58    1.06
 -10  -5  -3    1.94    0.31
 -10  -5  -3    1.93    0.28
  -5  10   3    2.55    0.37
  10   5  -3    2.02    0.22
 -10   5   3    2.41    0.24
  10   5  -3    2.66    0.31
  10  -5   3    2.34    0.35
   5 -10   3    2.00    0.25
  -5 -10  -3    1.68    0.32
   5 -10   3    2.15    0.34
 -10  -5  -1   21.71    1.01
  10   5  -1   21.44    0.90
  10  -5   1   20.92    0.98
  -5 -10  -1   22.09    1.01
   5 -10   1   22.53    0.87
   5  10  -1   19.78    0.94
   5 -10   1   21.46    0.99
   5  10   1   21.27    0.98
 -10  -5   1   22.81    1.06
  -5 -10   1   21.95    1.04
  -5 -10   1   22.15    0.66
  10  -5  -1   22.05    1.01
   5 -10  -1   23.18    0.92
   5 -10  -1   21.60    0.85
  -5  10  -1   23.19    0.92
   5 -10  -1   21.20    1.00
 -10  -5   3    2.09    0.36
  -5  10  -3    1.90    0.26
   5 -10  -3    2.55    0.40
   5 -10  -3    2.10    0.30
   5 -10  -3    1.99    0.24
   5  10   3    1.46    0.33
 -10  -5   3    1.79    0.38
  -5 -10   3    2.21    0.39
  10  -5  -3    2.32    0.34
 -10  -5   5   24.93    1.22
  -5  10  -5   24.65    1.10
 -10  -5   5   25.13    1.15
  10  -5  -5   25.44    1.16
   5 -10  -5   26.83    0.79
  -5  10  -5   26.76    0.97
   5 -10  -5   25.96    1.09
 -10  -5   7    9.83    0.77
  10   5   7   10.26    0.63
  -5  10  -7   10.54    0.74
 -10  -5   7   10.47    0.74
  -5 -10   7   10.92    0.78
  -5  10  -7   10.75    0.58
  10  -5  -7    9.48    0.70
   5 -10  -7   11.20    0.73
 -10  -5   9    6.48    0.68
  10   5   9    6.66    0.48
 -10  -5   9    7.77    0.67
  -5  10  -9    6.77    0.64
  10  -5  -9    7.18    0.63
   5 -10  -9    7.07    0.62
  -5 -10   9    7.46    0.66
  -5 -10  11   11.53    0.83
  -5  10 -11   11.20    0.83
 -10  -5  11    9.19    0.80
  10   5  11    9.31    0.55
  10  -5 -11   10.29    0.60
   5 -10 -11   11.35    0.82
  10  -5 -11   11.95    0.84
   5 -10 -13    4.69    0.58
 -10  -5  13    3.81    0.57
  -5  10 -13    4.60    0.61
  10  -5 -13    4.91    0.60
  -5 -10  13    3.96    0.56
  -5 -10  15    1.24    0.37
 -10  -5  15    1.41    0.43
  10  -5 -15    1.27    0.36
  -5  10 -15    1.14    0.40
   5 -10 -15    0.91    0.36
   5 -10 -17    2.48    0.50
 -10  -5  17    3.64    0.59
  -5 -10  17    2.66    0.48
  10  -5 -17    3.15    0.53
  -5 -10  19    0.23    0.28
   5 -10 -19    0.39    0.34
 -10  -5  19   -0.28    0.33
  10  -5 -19    0.13    0.28
  10  -5 -21    0.79    0.39
  -5 -10  21    0.54    0.34
   5 -10 -21    1.47    0.42
 -10  -5  21    1.27    0.45
  10   6 -20    0.27    0.30
   6  10 -20    0.34    0.35
   6  10 -18    0.51    0.35
  10   6 -18    0.59    0.25
   6  10 -16    0.83    0.40
  10   6 -16    0.50    0.22
   6  10 -14    0.77    0.31
  10   6 -14    1.43    0.29
  10   6 -12    5.56    0.48
   6  10 -12    4.98    0.60
  10  -6  10    3.87    0.34
 -10   6  10    4.18    0.28
  10   6 -10    4.48    0.41
  10   6  -8    5.04    0.42
  10  -6   8    4.43    0.39
   6 -10   6    1.04    0.27
  10  -6   6    1.02    0.28
   6 -10   6    0.84    0.22
  -6 -10  -6    1.06    0.31
  -6  10   6    1.54    0.36
  10   6  -6    1.31    0.23
  -6  10   6    1.29    0.16
 -10  -6  -4   11.35    0.65
  10   6  -4   12.15    0.56
  10   6  -4   11.78    0.63
  10  -6   4   11.33    0.72
   6 -10   4   11.95    0.63
  -6  10   4   13.25    0.76
  -6 -10  -4   12.11    0.76
 -10  -6  -4   11.82    0.72
   6 -10   4   11.30    0.69
 -10  -6  -2    9.24    0.65
  10   6  -2    8.26    0.47
  10   6  -2    9.15    0.55
  10  -6   2    8.49    0.61
   6 -10   2    8.76    0.54
  -6 -10  -2    8.78    0.66
   6 -10   2    8.73    0.63
  -6  10   2    8.71    0.61
 -10   6   2    9.57    0.48
 -10  -6   0    5.05    0.52
   6  10   0    5.10    0.49
   6 -10   0    4.67    0.47
  -6 -10   0    5.02    0.32
  10  -6   0    5.55    0.49
   6 -10   0    5.09    0.42
  -6 -10   0    4.56    0.51
   6 -10   0    5.40    0.44
 -10  -6   2    9.19    0.70
  -6 -10   2    8.17    0.35
   6  10   2    9.18    0.64
   6 -10  -2    9.62    0.67
  -6 -10   2    7.97    0.64
  10  -6  -2    8.65    0.63
 -10  -6   2    8.70    0.68
 -10  -6   2    8.45    0.52
   6 -10  -2    7.92    0.55
   6 -10  -2    7.90    0.49
  -6 -10   4   11.61    0.81
 -10  -6   4   11.03    0.77
  -6 -10   4   11.89    0.80
 -10  -6   4   11.21    0.77
  10  -6  -4   12.55    0.76
 -10  -6   4   11.54    0.60
   6 -10  -4   11.90    0.69
   6 -10  -4   11.85    0.53
  -6 -10   6    1.08    0.34
   6 -10  -6    1.24    0.17
 -10  -6   6    1.29    0.38
  10  -6  -6    1.27    0.30
 -10  -6   6    1.54    0.36
   6 -10  -6    1.16    0.29
 -10  -6   6    1.10    0.22
   6 -10  -8    4.09    0.46
  -6 -10   8    3.67    0.52
 -10  -6   8    3.53    0.53
   6 -10  -8    3.45    0.19
 -10  -6   8    3.72    0.52
  10  -6  -8    4.07    0.48
 -10  -6  10    3.37    0.55
  10  -6 -10    4.10    0.50
 -10  -6  10    3.87    0.53
  -6 -10  10    3.70    0.51
   6 -10 -10    4.66    0.54
  10   6  10    2.96    0.28
  -6 -10  12    4.72    0.59
 -10  -6  12    4.19    0.59
  10  -6 -12    5.26    0.59
   6 -10 -12    5.16    0.59
   6 -10 -14    0.94    0.34
  10  -6 -14    0.96    0.34
 -10  -6  14    1.75    0.44
  -6 -10  14    1.83    0.42
  -6 -10  16    0.17    0.30
   6 -10 -16    0.96    0.36
 -10  -6  16    0.98    0.39
  10  -6 -16    0.66    0.28
 -10  -6  18    0.27    0.32
  10  -6 -18    0.88    0.36
  -6 -10  18    0.40    0.33
   6 -10 -18    0.44    0.34
  10  -6 -20    0.50    0.38
  -6 -10  20    0.10    0.29
   6 -10 -20    0.60    0.36
 -10  -6  20    0.05    0.34
  10   7 -21    0.20    0.31
   7  10 -21    0.23    0.36
  10   7 -19    0.60    0.31
   7  10 -19   -0.02    0.34
   7  10 -17    0.41    0.31
   7  10 -15    0.61    0.34
  10   7 -15    0.53    0.21
  10   7 -13    2.84    0.35
  10   7 -11    0.37    0.18
  10   7  -9    2.39    0.30
 -10   7   9    2.46    0.23
  10  -7   9    2.44    0.31
   7 -10   7    4.08    0.40
  10   7  -7    3.88    0.36
  10  -7   7    3.90    0.44
  -7  10   7    3.03    0.20
   7 -10   7    2.99    0.40
  10  -7   7    3.93    0.40
   7 -10   5    2.43    0.31
  -7  10   5    1.70    0.35
   7 -10   5    2.16    0.34
  10  -7   5    2.49    0.37
  10   7  -5    2.16    0.27
  -7 -10  -5    2.17    0.40
 -10  -7  -3    0.06    0.23
  -7  10   3    0.14    0.23
  10   7  -3    0.15    0.18
 -10   7   3   -0.01    0.19
  -7 -10  -3    0.05    0.12
  10   7  -3    0.03    0.13
  10  -7   3   -0.22    0.18
   7 -10   3   -0.05    0.16
  -7 -10  -3   -0.10    0.29
   7 -10   3    0.28    0.25
 -10  -7  -1    0.62    0.27
   7  10  -1    0.20    0.22
  -7 -10  -1    0.47    0.16
  10   7  -1    0.41    0.21
  10  -7   1    0.49    0.20
   7 -10   1    0.66    0.26
   7 -10   1    0.28    0.17
  -7 -10  -1    0.60    0.30
   7 -10  -1    0.47    0.18
 -10  -7   1    0.39    0.27
   7  10   1    0.71    0.28
   7 -10  -1    0.66    0.28
  -7 -10   1    0.49    0.13
  10  -7  -1    0.42    0.22
 -10  -7   1    0.38    0.15
  -7 -10   1    0.19    0.27
   7 -10  -1    0.45    0.20
 -10  -7   1    0.32    0.32
  -7 -10   3    0.25    0.30
   7 -10  -3    0.11    0.15
   7  10   3    0.17    0.24
  -7 -10   3   -0.30    0.31
  10  -7  -3   -0.12    0.21
  -7 -10   3   -0.03    0.07
 -10  -7   3    0.05    0.14
   7 -10  -3    0.40    0.20
 -10  -7   3    0.03    0.29
 -10  -7   3    0.21    0.28
   7 -10  -5    1.81    0.23
 -10  -7   5    1.86    0.26
 -10  -7   5    2.84    0.46
  -7 -10   5    1.67    0.40
  -7 -10   5    1.57    0.41
 -10  -7   5    1.68    0.39
  10  -7  -5    2.01    0.35
   7 -10  -5    2.61    0.37
  -7 -10   5    1.51    0.14
  -7 -10   7    3.12    0.49
 -10  -7   7    3.25    0.48
   7 -10  -7    3.43    0.43
 -10  -7   7    3.87    0.53
   7 -10  -7    3.37    0.26
  10  -7  -7    4.28    0.49
 -10  -7   7    3.40    0.33
  -7 -10   9    2.85    0.49
 -10  -7   9    1.95    0.44
  10   7   9    1.57    0.26
 -10  -7   9    2.84    0.51
   7 -10  -9    2.41    0.41
   7 -10  -9    1.85    0.15
  10  -7  -9    2.96    0.44
 -10  -7   9    2.30    0.28
   7 -10 -11    0.45    0.27
  -7 -10  11    0.41    0.31
 -10  -7  11    0.52    0.33
  10  -7 -11    0.35    0.26
   7 -10 -13    2.22    0.42
  -7 -10  13    3.01    0.54
 -10  -7  13    2.01    0.48
  10  -7 -13    2.57    0.46
   7 -10 -15    0.51    0.32
  -7 -10  15    0.38    0.31
 -10  -7  15    1.23    0.47
  10  -7 -15    0.99    0.36
  10  -7 -17    0.81    0.37
   7 -10 -17    0.67    0.35
  -7 -10  17    0.15    0.30
 -10  -7  17    0.12    0.29
   7 -10 -19    0.44    0.33
 -10  -7  19    0.18    0.34
  -7 -10  19    0.38    0.36
  10  -7 -19   -0.34    0.33
  10  -7 -21    0.31    0.35
  -7 -10  21    0.06    0.32
 -10  -7  21   -0.56    0.43
   7 -10 -21    0.07    0.35
  10   8 -20    0.98    0.37
   8  10 -20    0.77    0.39
  10   8 -18    0.72    0.40
   8  10 -18    0.72    0.40
   8  10 -16   -0.01    0.30
  10   8 -14    1.54    0.27
  10   8 -12    2.50    0.31
   8  10 -10    1.53    0.17
  10   8 -10    1.71    0.25
  10  -8  10    1.73    0.29
  10   8  -8    3.06    0.31
   8 -10   8    3.39    0.42
  10  -8   8    3.31    0.38
  10  -8   6    0.24    0.20
  10   8  -6    0.41    0.15
   8 -10   6    0.34    0.26
  -8  10   6   -0.11    0.26
   8 -10   6    0.25    0.18
  10  -8   6    0.11    0.23
  10   8  -4    1.52    0.28
 -10   8   4    1.33    0.26
  -8  10   4    1.88    0.35
   8 -10   4    1.40    0.33
  10  -8   4    1.32    0.30
   8 -10   4    1.70    0.28
  -8 -10  -4    1.67    0.37
 -10   8   2    1.38    0.28
   8  10  -2    1.66    0.33
   8 -10   2    1.36    0.32
  10   8  -2    1.10    0.25
  -8 -10  -2    1.16    0.21
  10  -8   2    1.24    0.27
   8 -10   2    1.45    0.27
 -10  -8  -2    0.97    0.31
  -8  10   2    1.17    0.30
  -8 -10  -2    1.05    0.35
   8  10   0    2.97    0.40
  -8 -10   0    3.30    0.30
  10  -8   0    3.13    0.40
   8 -10   0    3.15    0.38
  -8 -10   0    3.52    0.50
 -10  -8   0    3.30    0.50
 -10  -8   0    3.77    0.48
  -8 -10   2    1.42    0.37
 -10  -8   2    1.18    0.32
   8  10   2    1.73    0.33
  10  -8  -2    1.47    0.30
  -8 -10   2    0.95    0.33
  -8 -10   2    1.25    0.18
 -10  -8   2    1.15    0.21
   8 -10  -2    1.45    0.28
 -10  -8   2    0.76    0.33
 -10  -8   4    1.78    0.38
  -8 -10   4    1.76    0.18
  -8 -10   4    2.44    0.45
   8 -10  -4    1.61    0.25
  -8 -10   4    1.93    0.42
  10  -8  -4    1.95    0.34
 -10  -8   4    1.41    0.39
   8 -10  -4    1.70    0.34
 -10  -8   4    1.63    0.23
 -10  -8   6    0.29    0.14
   8 -10  -6    0.36    0.23
 -10  -8   6    0.46    0.33
  -8 -10   6    0.07    0.08
  -8 -10   6    0.20    0.32
   8 -10  -6    0.47    0.18
 -10  -8   6    0.18    0.32
  -8 -10   6   -0.04    0.31
  10  -8  -6    0.65    0.28
   8 -10  -8    3.31    0.44
 -10  -8   8    3.53    0.55
   8 -10  -8    2.89    0.25
 -10  -8   8    3.15    0.51
  10  -8  -8    2.93    0.44
  -8 -10   8    3.38    0.52
 -10  -8   8    3.22    0.32
  -8 -10  10    1.38    0.42
 -10  -8  10    1.63    0.42
  10  -8 -10    1.80    0.37
   8 -10 -10    2.20    0.41
  -8 -10  12    2.75    0.52
 -10  -8  12    2.56    0.49
   8 -10 -12    3.19    0.49
  10  -8 -12    2.42    0.46
   8 -10 -14    1.55    0.41
  -8 -10  14    1.27    0.42
 -10  -8  14    2.10    0.50
  10  -8 -14    1.28    0.37
   8 -10 -16    0.17    0.28
  -8 -10  16    0.27    0.34
  10  -8 -16   -0.29    0.26
 -10  -8  16    0.08    0.35
   8 -10 -18    1.21    0.46
  -8 -10  18    0.98    0.39
 -10  -8  18    1.54    0.46
  10  -8 -18    0.63    0.35
  -8 -10  20    0.61    0.44
 -10  -8  20    0.32    0.36
  10  -8 -20    1.01    0.44
   8 -10 -20    0.89    0.40
  10   9 -19    0.48    0.32
   9  10 -19    0.46    0.35
   9  10 -17    1.07    0.40
  10   9 -11    1.35    0.22
   9  10  -9    0.11    0.10
  10   9  -9    0.30    0.15
  10  -9   9    0.18    0.19
   9 -10   7    1.49    0.29
  10  -9   7    1.72    0.32
  10   9  -7    1.82    0.24
   9 -10   7    1.22    0.29
  10  -9   7    1.63    0.32
  -9  10   5    6.17    0.55
 -10   9   5    5.27    0.49
  10  -9   5    5.54    0.54
   9 -10   5    6.27    0.54
   9 -10   5    6.02    0.56
  10  -9   5    6.29    0.54
   9  10  -3    2.87    0.39
  10   9  -3    2.61    0.35
  -9  10   3    2.87    0.40
 -10   9   3    3.03    0.38
  10  -9   3    2.91    0.39
   9 -10   3    3.02    0.39
  -9 -10  -3    3.98    0.54
   9 -10   3    3.38    0.44
   9  10  -1    6.38    0.54
  10   9  -1    6.75    0.52
  -9 -10  -1    6.03    0.44
  10  -9   1    6.56    0.56
   9 -10   1    6.33    0.54
 -10  -9  -1    5.75    0.59
  -9 -10  -1    5.97    0.62
 -10  -9  -1    6.43    0.65
  -9 -10   1    6.71    0.64
 -10  -9   1    6.47    0.63
   9  10   1    6.70    0.57
  -9 -10   1    6.20    0.42
  -9 -10   1    7.30    0.69
  10  -9  -1    7.28    0.59
 -10  -9   1    6.01    0.44
   9 -10  -1    7.08    0.57
 -10  -9   1    5.99    0.65
 -10  -9   3    2.46    0.45
  -9 -10   3    3.08    0.49
  -9 -10   3    3.01    0.27
 -10  -9   3    2.96    0.31
  -9 -10   3    2.12    0.43
  10  -9  -3    2.47    0.39
   9 -10  -3    3.18    0.42
 -10  -9   3    2.71    0.49
  -9 -10   5    5.49    0.62
 -10  -9   5    4.68    0.58
   9 -10  -5    5.47    0.43
  10  -9  -5    5.60    0.56
   9 -10  -5    6.48    0.58
  -9 -10   5    5.72    0.65
 -10  -9   5    5.12    0.62
 -10  -9   5    5.66    0.39
  -9 -10   5    5.32    0.33
  -9 -10   7    1.14    0.34
   9 -10  -7    1.50    0.23
 -10  -9   7    1.23    0.41
  -9 -10   7    1.88    0.46
 -10  -9   7    1.76    0.44
  10  -9  -7    1.74    0.34
   9 -10  -7    1.68    0.34
  -9 -10   9    0.14    0.28
 -10  -9   9    0.01    0.31
 -10  -9   9    0.04    0.32
  10  -9  -9   -0.03    0.23
   9 -10  -9    0.28    0.24
  -9 -10  11    2.02    0.49
 -10  -9  11    1.74    0.44
   9 -10 -11    1.70    0.38
  10  -9 -11    2.44    0.44
  -9 -10  13    0.70    0.38
 -10  -9  13   -0.28    0.35
  10  -9 -13    0.49    0.30
   9 -10 -13    0.01    0.24
  -9 -10  15    1.00    0.38
 -10  -9  15    1.44    0.46
  10  -9 -15    0.83    0.33
   9 -10 -15    1.73    0.43
   9 -10 -17    1.05    0.37
  -9 -10  17    0.83    0.40
 -10  -9  17    1.25    0.47
  10  -9 -17    1.11    0.40
  10  -9 -19    0.35    0.28
   9 -10 -19   -0.21    0.29
  -9 -10  19    0.04    0.32
 -10  -9  19    0.63    0.41
  10  10 -18   -0.20    0.32
  10 -10   8    7.80    0.61
  10 -10   6    2.43    0.37
  10 -10   6    2.02    0.38
  10 -10   4   13.07    0.81
 -10  10   4   14.38    0.79
  10 -10   4   11.65    0.77
 -10 -10  -4   11.82    0.87
  10  10  -4   11.93    0.73
  10  10  -2   14.10    0.80
  10 -10   2   16.32    0.92
 -10  10   2   16.92    0.87
  10 -10   2   15.49    0.88
 -10 -10  -2   16.08    1.01
 -10 -10   0   31.65    1.44
  10  10   0   29.43    1.21
  10 -10   0   30.56    1.29
 -10 -10   0   31.97    1.45
 -10 -10   2   16.94    1.05
 -10 -10   2   16.93    1.05
  10 -10  -2   16.87    0.96
 -10 -10   2   15.54    0.71
 -10 -10   4   12.87    0.94
 -10 -10   4   13.03    0.93
  10 -10  -4   12.34    0.83
 -10 -10   4   11.85    0.57
 -10 -10   6    2.32    0.47
  10 -10  -6    1.94    0.30
 -10 -10   6    2.78    0.52
  10 -10  -6    2.09    0.40
 -10 -10   8    6.35    0.70
 -10 -10   8    7.81    0.76
  10 -10  -8    8.77    0.75
 -10 -10  10    7.61    0.78
  10 -10 -10    8.81    0.78
  10 -10 -12    0.29    0.26
 -10 -10  12    0.76    0.35
  10 -10 -14    1.85    0.46
 -10 -10  14    1.93    0.49
 -10 -10  16    0.95    0.39
  10 -10 -16    0.58    0.34
 -10 -10  18    0.41    0.41
  10 -10 -18    0.16    0.27
  11   0   1    4.50    0.44
 -11   0  -1    4.98    0.45
  11   0  -1    4.69    0.45
   0  11   1    4.64    0.41
   0 -11   1    4.64    0.27
   0  11   1    4.77    0.38
   0  11  -1    4.15    0.40
   0 -11  -1    4.83    0.33
   0  11   3    0.31    0.18
 -11   0  -3    0.67    0.22
  11   0   3    0.59    0.21
   0 -11   3    0.67    0.09
   0  11   3    0.55    0.17
  11   0  -3    1.06    0.25
   0  11  -3    0.72    0.21
   0 -11  -3    0.92    0.27
   0 -11  -3    0.71    0.17
   0  11   5   11.57    0.77
 -11   0  -5   11.90    0.61
   0 -11  -5   12.34    0.75
  11   0  -5   11.40    0.72
   0  11   5   11.59    0.48
   0  11  -5   11.17    0.72
   0 -11  -5   11.39    0.65
   0 -11  -7    7.11    0.55
 -11   0  -7    6.71    0.41
   0 -11  -7    6.79    0.57
 -11   0   7    6.42    0.54
  11   0  -7    5.90    0.53
   0  11  -7    5.75    0.55
   0  11   7    4.99    0.24
 -11   0  -9    7.59    0.36
 -11   0   9    7.79    0.56
   0 -11  -9    8.39    0.64
  11   0  -9    8.01    0.62
   0 -11  -9    7.95    0.62
   0  11  -9    8.20    0.67
   0  11 -11    3.47    0.50
   0 -11 -11    3.42    0.48
 -11   0  11    4.02    0.46
  11   0 -11    3.55    0.45
   0 -11 -11    2.97    0.44
   0  11 -13    0.78    0.35
  11   0 -13    0.18    0.20
   0 -11 -13    0.43    0.29
   0  11 -13    0.36    0.12
   0 -11 -13    0.48    0.26
   0 -11 -15    6.68    0.64
   0 -11 -15    7.06    0.74
  11   0 -15    8.15    0.72
   0  11 -15    8.42    0.80
  11   0 -17   -0.19    0.24
   0  11 -17    0.41    0.34
   0 -11 -17   -0.21    0.28
   0 -11 -17   -0.03    0.28
   0 -11 -19    0.26    0.30
  11   0 -19    0.07    0.24
 -11   0  19   -0.43    0.39
   0 -11 -19   -0.18    0.28
   0  11 -19    0.90    0.42
   0  11 -21   -0.04    0.41
   0 -11 -21    0.54    0.33
 -11   0  21    0.15    0.37
  11   0 -21    0.00    0.27
  -1 -11 -22    0.55    0.34
 -11   1  22    0.38    0.34
  11   1 -22   -0.13    0.26
   1  11 -22    0.72    0.42
  11   1 -20    1.40    0.38
  11   1 -20    2.23    0.47
  -1 -11 -20    1.77    0.48
   1  11 -20    2.15    0.52
  -1 -11 -18    0.42    0.35
   1  11 -18    0.09    0.31
  11   1 -18    0.14    0.25
  -1 -11 -18    0.27    0.26
  -1 -11 -16    1.74    0.43
   1  11 -16    1.56    0.42
  11   1 -16    1.49    0.34
  -1 -11 -16    0.92    0.29
  -1 -11 -14    4.63    0.51
   1  11 -14    5.09    0.64
  -1 -11 -14    4.95    0.62
  11   1 -14    4.66    0.54
  -1 -11 -12    2.15    0.38
   1  11 -12    0.94    0.12
 -11   1  12    2.47    0.35
  -1 -11 -12    1.90    0.25
  -1 -11 -12    1.72    0.39
  11   1 -12    2.20    0.38
   1  11 -12    1.93    0.39
  -1 -11 -10   11.46    0.79
  -1 -11 -10   10.80    0.54
 -11   1  10   10.66    0.65
  11   1 -10   11.53    0.76
   1  11 -10   10.43    0.80
  -1 -11 -10   10.70    0.74
 -11  -1  -8    2.56    0.26
  -1 -11  -8    2.70    0.40
  -1 -11  -8    2.80    0.31
   1  11  -8    2.47    0.43
  11   1  -8    2.82    0.38
 -11   1   8    3.15    0.39
  -1 -11  -8    2.44    0.38
 -11  -1  -6    1.29    0.22
  -1  11   6    0.77    0.11
  -1 -11  -6    0.93    0.23
   1  11  -6    0.80    0.27
  -1  11   6    0.92    0.36
  11   1  -6    1.02    0.23
  -1 -11  -6    0.79    0.29
  -1 -11  -4   10.68    0.59
  -1  11   4   11.58    0.75
  11   1  -4    9.71    0.64
 -11  -1  -4   10.78    0.60
  11  -1   4   10.97    0.70
  -1  11   4   10.32    0.54
   1  11  -4    9.22    0.63
  -1  11   4    9.93    0.46
   1 -11   4   10.34    0.39
 -11  -1  -2    8.77    0.57
  11  -1   2    8.23    0.60
  11   1  -2    8.47    0.59
  -1 -11  -2    8.40    0.46
  -1  11   2    8.20    0.51
   1 -11   2    8.19    0.37
   1  11  -2    7.73    0.53
  -1  11   2    7.62    0.46
 -11  -1   0   15.91    0.84
  11   1   0   15.08    0.81
  11  -1   0   15.69    0.84
   1  11   0   14.81    0.71
   1 -11   0   16.43    0.62
  -1  11   0   15.36    0.72
  -1 -11   0   16.19    0.57
 -11  -1   2    7.09    0.58
  11   1   2    8.08    0.59
  11  -1  -2    7.91    0.58
   1  11   2    8.30    0.54
  -1 -11   2    7.26    0.28
   1  11   2    8.56    0.49
  -1  11  -2    8.24    0.56
   1 -11  -2    7.97    0.47
   1 -11  -2    7.79    0.59
  -1  11  -4   10.05    0.39
 -11   1  -4   10.42    0.60
 -11  -1   4    9.84    0.72
  11  -1  -4    9.91    0.66
   1  11   4    9.47    0.49
  -1  11  -4    9.28    0.64
   1 -11  -4    9.66    0.67
   1 -11  -4   10.86    0.60
  -1  11  -6    1.14    0.30
  -1  11  -6    0.86    0.11
   1 -11  -6    0.94    0.23
 -11   1  -6    1.17    0.22
 -11  -1   6    1.09    0.34
   1  11   6    1.34    0.38
   1 -11  -6    1.12    0.32
  11  -1  -6    0.51    0.23
   1  11   6    0.71    0.15
 -11  -1   6    1.07    0.31
 -11   1  -8    2.79    0.25
  -1  11  -8    2.70    0.42
   1 -11  -8    2.56    0.37
   1  11   8    2.00    0.16
  -1  11  -8    1.87    0.16
 -11  -1   8    1.80    0.40
  11  -1  -8    2.30    0.37
 -11  -1   8    2.55    0.38
   1 -11  -8    2.47    0.40
  11  -1 -10   10.03    0.45
 -11  -1  10    9.64    0.81
 -11  -1  10   10.33    0.69
  -1  11 -10    9.34    0.41
   1 -11 -10   11.88    0.81
  11  -1 -10   11.29    0.77
  -1  11 -10   10.26    0.79
   1 -11 -10   10.47    0.74
  -1  11 -12    1.75    0.40
   1 -11 -12    2.52    0.44
 -11  -1  12    1.51    0.44
 -11  -1  12    1.66    0.34
  11  -1 -12    2.01    0.38
   1 -11 -12    1.71    0.41
 -11  -1  14    4.17    0.57
  -1  11 -14    3.83    0.57
   1 -11 -14    4.42    0.58
  11  -1 -14    4.62    0.56
   1 -11 -14    5.02    0.56
   1 -11 -16    0.98    0.38
 -11  -1  16    1.72    0.46
  11  -1 -16    1.28    0.36
  -1  11 -16    1.73    0.45
   1 -11 -16    1.31    0.37
   1 -11 -18    0.48    0.31
  11  -1 -18    0.20    0.25
   1 -11 -18   -0.14    0.28
 -11  -1  18    0.43    0.36
  -1  11 -18    1.08    0.44
  11  -1 -20    1.33    0.40
   1 -11 -20    1.16    0.45
  -1  11 -20    0.54    0.36
 -11  -1  20    1.84    0.49
   1 -11 -20    1.71    0.40
   1 -11 -22   -0.39    0.38
 -11  -1  22    0.29    0.34
  -1  11 -22    0.53    0.41
  11  -1 -22    0.64    0.32
  11   2 -21   -0.16    0.24
  -2 -11 -21   -0.01    0.29
   2  11 -21   -0.75    0.40
  11   2 -21   -0.23    0.30
   2  11 -19    1.49    0.47
  -2 -11 -19    1.10    0.42
  11   2 -19    1.14    0.36
   2  11 -17   -0.21    0.33
  -2 -11 -17    0.14    0.25
  -2 -11 -17    0.43    0.27
  11   2 -17    0.39    0.24
  -2 -11 -15    1.78    0.34
  -2 -11 -15    2.01    0.44
  11   2 -15    1.63    0.35
   2  11 -15    1.04    0.35
  -2 -11 -13    1.08    0.36
   2  11 -13    0.69    0.31
  -2 -11 -13    1.16    0.25
  11   2 -13    0.87    0.29
  -2 -11 -13    1.24    0.30
  -2 -11 -11    6.76    0.65
 -11   2  11    6.67    0.49
  -2 -11 -11    6.36    0.46
  11   2 -11    7.01    0.60
   2  11 -11    6.33    0.64
  -2 -11 -11    6.41    0.57
  11  -2  11    5.20    0.25
  -2 -11  -9    0.91    0.28
   2  11  -9    0.58    0.28
  -2 -11  -9    0.45    0.21
  11   2  -9    0.56    0.21
 -11   2   9    0.61    0.26
  -2 -11  -9    0.84    0.30
 -11  -2  -7    0.70    0.20
   2  11  -7    0.14    0.21
  -2 -11  -7    0.68    0.25
  -2 -11  -7    0.54    0.23
  11   2  -7    0.49    0.20
 -11  -2  -5   12.24    0.66
  11  -2   5   13.09    0.79
   2 -11   5   14.07    0.51
  -2 -11  -5   12.67    0.68
  11   2  -5   12.77    0.73
  -2  11   5   12.78    0.81
   2  11  -5   11.53    0.75
  -2 -11  -5   13.33    0.71
  -2 -11  -3    3.13    0.31
 -11  -2  -3    3.31    0.28
   2  11  -3    2.89    0.37
 -11  -2  -3    3.08    0.36
  -2  11   3    2.74    0.41
   2 -11   3    3.18    0.24
  11   2  -3    3.07    0.37
  -2  11   3    2.92    0.27
  -2  11   3    2.78    0.31
  11  -2   3    2.98    0.38
 -11  -2  -1    6.38    0.51
  -2  11   1    6.16    0.42
  11   2  -1    5.49    0.48
  11  -2   1    5.73    0.50
   2 -11   1    6.36    0.54
  -2  11   1    5.84    0.45
  -2  11   1    6.09    0.42
  -2  11   1    5.91    0.53
  -2 -11  -1    5.87    0.35
   2 -11   1    5.72    0.36
  -2  11  -1    6.27    0.39
 -11  -2   1    6.34    0.54
  11   2   1    5.94    0.50
  11  -2  -1    6.11    0.51
   2 -11  -1    6.22    0.54
   2 -11  -1    5.92    0.39
  -2 -11   1    5.47    0.27
  -2  11  -1    6.18    0.46
 -11  -2   3    3.17    0.43
  11   2   3    3.06    0.38
  -2  11  -3    2.91    0.37
  -2  11  -3    3.23    0.25
   2 -11  -3    3.14    0.34
  11  -2  -3    3.43    0.40
   2 -11  -3    3.54    0.44
   2  11   5   14.38    0.85
  11  -2  -5   12.31    0.77
  -2  11  -5   12.70    0.50
   2 -11  -5   11.88    0.68
  -2  11  -5   11.96    0.75
   2 -11  -5   12.59    0.78
 -11  -2   5   11.38    0.80
  -2  11  -7    0.44    0.11
   2 -11  -7    0.56    0.21
   2 -11  -7    0.24    0.25
 -11  -2   7   -0.19    0.28
  -2  11  -7    0.34    0.26
 -11   2  -7    0.33    0.15
  11  -2  -7    0.43    0.22
 -11  -2   7    0.41    0.28
  11  -2  -9    0.75    0.14
 -11   2  -9    0.62    0.13
   2 -11  -9    0.87    0.26
   2 -11  -9    0.30    0.28
  -2  11  -9    0.29    0.26
 -11  -2   9    0.71    0.30
  -2  11  -9    0.81    0.14
  11  -2  -9    0.74    0.26
 -11  -2   9    0.33    0.33
  11  -2 -11    6.29    0.40
 -11  -2  11    5.79    0.68
 -11  -2  11    6.82    0.59
  -2  11 -11    5.77    0.64
  11  -2 -11    7.16    0.66
   2 -11 -11    6.64    0.62
   2 -11 -11    7.22    0.65
 -11  -2  13    0.84    0.37
  -2  11 -13    0.96    0.34
  11  -2 -13    1.08    0.30
   2 -11 -13    1.05    0.34
   2 -11 -13    1.16    0.35
   2 -11 -15    2.11    0.43
  -2  11 -15    1.90    0.42
   2 -11 -15    1.94    0.41
 -11  -2  15    1.19    0.39
  11  -2 -15    1.94    0.40
   2 -11 -17    0.95    0.36
  -2  11 -17    0.30    0.34
 -11  -2  17    0.69    0.43
  11  -2 -17    0.44    0.28
   2 -11 -17    0.59    0.33
   2 -11 -19    0.77    0.38
 -11  -2  19    0.77    0.39
  -2  11 -19    1.10    0.44
  11  -2 -19    0.92    0.37
   2 -11 -19    1.64    0.44
   2 -11 -21    0.06    0.30
 -11  -2  21    0.03    0.32
  -2  11 -21   -0.35    0.39
  11  -2 -21   -0.13    0.28
   2 -11 -21    0.17    0.29
  11   3 -22    0.23    0.30
  11   3 -22    0.13    0.28
   3  11 -22    0.83    0.41
  -3 -11 -22   -0.50    0.41
   3  11 -20    0.71    0.38
  -3 -11 -20    0.53    0.39
  11   3 -20    0.52    0.26
  11   3 -20    0.32    0.25
   3  11 -18    0.27    0.34
  -3 -11 -18    0.38    0.28
  11   3 -18    0.36    0.23
  -3 -11 -16    0.65    0.34
   3  11 -16   -0.23    0.30
  11   3 -16    0.29    0.20
  -3 -11 -14    1.14    0.36
   3  11 -14    0.94    0.36
  11   3 -14    0.48    0.24
  -3 -11 -14    0.43    0.22
   3  11 -12    1.45    0.36
 -11   3  12    1.52    0.26
  11   3 -12    1.44    0.31
  -3 -11 -12    1.25    0.28
   3  11 -10    3.10    0.46
 -11   3  10    3.01    0.35
  11   3 -10    3.35    0.42
  -3 -11 -10    3.15    0.37
  11  -3  10    3.18    0.26
 -11   3   8    2.46    0.33
  11   3  -8    2.08    0.32
  -3 -11  -8    2.26    0.32
   3  11  -8    2.50    0.40
 -11  -3  -6    5.24    0.43
  11  -3   6    5.58    0.52
  -3 -11  -6    5.83    0.47
  11   3  -6    5.56    0.48
  -3  11   6    5.60    0.56
   3  11  -6    5.55    0.53
  11   3  -6    4.40    0.22
  -3  11   4    9.30    0.69
 -11  -3  -4    8.96    0.58
 -11  -3  -4    8.03    0.48
  -3 -11  -4    9.04    0.57
  11  -3   4    8.76    0.64
  11   3  -4    9.69    0.62
  -3 -11  -4    9.08    0.61
  -3  11   4    9.60    0.50
   3 -11   4    9.46    0.46
  -3  11   2    6.40    0.42
 -11  -3  -2    6.49    0.52
  -3  11   2    6.28    0.46
 -11  -3  -2    6.69    0.38
  11  -3   2    6.36    0.54
  11   3  -2    6.59    0.51
  -3 -11  -2    6.71    0.52
  -3  11   2    7.00    0.47
  -3 -11  -2    6.51    0.41
   3 -11   2    6.27    0.38
   3 -11   2    5.65    0.52
  -3  11   2    6.93    0.58
  -3  11   0   15.09    0.69
 -11  -3   0   14.92    0.83
  11   3   0   15.44    0.80
  11  -3   0   14.26    0.81
  -3  11   0   14.62    0.69
   3 -11   0   15.03    0.66
   3 -11   0   14.61    0.82
   3  11   0   13.76    0.81
  -3 -11   0   15.35    0.54
   3  11   2    6.25    0.55
 -11  -3   2    6.12    0.55
  -3  11  -2    6.25    0.39
  11   3   2    6.23    0.50
  11  -3  -2    5.84    0.52
   3 -11  -2    5.95    0.42
   3 -11  -2    7.14    0.57
  -3  11  -2    6.30    0.48
 -11  -3   4    9.45    0.72
   3  11   4    9.28    0.69
  11  -3  -4    9.72    0.68
   3 -11  -4    8.55    0.57
  -3  11  -4    9.26    0.47
   3 -11  -4    9.26    0.68
  -3  11  -4    8.75    0.62
 -11  -3   6    5.27    0.60
   3 -11  -6    6.17    0.58
 -11  -3   6    6.18    0.57
  11  -3  -6    5.66    0.53
  -3  11  -6    5.74    0.36
   3 -11  -6    6.19    0.51
  -3  11  -6    5.68    0.53
  -3  11  -8    1.92    0.38
   3 -11  -8    2.06    0.35
 -11  -3   8    1.61    0.40
 -11   3  -8    2.36    0.24
 -11  -3   8    2.01    0.38
  11  -3  -8    2.26    0.36
  -3  11  -8    2.04    0.22
   3 -11  -8    2.65    0.45
   3 -11 -10    3.84    0.51
 -11   3 -10    2.79    0.18
  -3  11 -10    4.03    0.55
  11  -3 -10    3.14    0.29
   3 -11 -10    3.95    0.49
 -11  -3  10    2.55    0.52
  -3  11 -10    3.13    0.29
 -11  -3  10    3.10    0.44
  11  -3 -10    4.08    0.51
   3 -11 -12    1.24    0.38
  -3  11 -12    1.91    0.41
   3 -11 -12    1.27    0.34
 -11  -3  12    0.90    0.36
  11  -3 -12    1.67    0.37
 -11  -3  12    1.47    0.36
   3 -11 -14    0.68    0.36
   3 -11 -14    0.93    0.34
 -11  -3  14    1.30    0.40
  -3  11 -14    0.83    0.40
  11  -3 -14    0.58    0.27
   3 -11 -16    0.72    0.35
   3 -11 -16    0.66    0.36
  11  -3 -16    0.07    0.26
 -11  -3  16    0.45    0.32
  -3  11 -16    0.55    0.38
  -3  11 -18    0.29    0.35
   3 -11 -18    0.32    0.30
 -11  -3  18   -0.23    0.35
   3 -11 -18   -0.65    0.37
  11  -3 -18    0.35    0.29
 -11  -3  20    0.13    0.32
   3 -11 -20    0.60    0.34
  11  -3 -20    0.60    0.29
  -3  11 -20    0.36    0.33
   3 -11 -20    0.46    0.31
   3 -11 -22    0.09    0.32
 -11  -3  22    0.68    0.41
  -3  11 -22   -0.02    0.43
  11  -3 -22   -0.05    0.31
   4  11 -21    1.42    0.48
  11   4 -21    0.66    0.33
  -4 -11 -21    0.40    0.32
  11   4 -21    0.34    0.23
  -4 -11 -19    1.30    0.39
  11   4 -19    0.94    0.29
   4  11 -19    0.96    0.42
   4  11 -17    1.46    0.45
  11   4 -17    1.35    0.34
   4  11 -15    0.06    0.29
  11   4 -15   -0.13    0.18
   4  11 -13    4.76    0.59
  11   4 -13    5.72    0.54
   4  11 -11    5.56    0.62
 -11   4  11    4.99    0.39
  -4 -11 -11    5.79    0.51
  11   4 -11    5.37    0.51
  11  -4  11    5.46    0.32
   4  11  -9    0.23    0.26
  11   4  -9    0.21    0.18
  -4 -11  -9    0.12    0.24
 -11   4   9    0.36    0.20
  11  -4   9    0.40    0.17
 -11  -4  -7   15.76    0.76
  11   4  -7   16.61    0.84
  -4 -11  -7   17.85    0.86
  11   4  -5   23.83    0.71
 -11  -4  -5   27.48    1.07
 -11  -4  -5   24.14    0.96
  11  -4   5   25.53    1.15
   4 -11   5   26.55    0.90
  -4  11   5   27.60    1.21
  11   4  -5   26.53    1.07
  -4 -11  -5   27.63    1.10
  -4  11   5   26.46    0.83
  -4  11   3    5.96    0.54
 -11  -4  -3    6.61    0.54
 -11  -4  -3    5.83    0.40
  11  -4   3    7.59    0.59
  11   4  -3    6.77    0.51
   4 -11   3    6.21    0.41
  -4  11   3    7.10    0.45
  -4 -11  -3    6.33    0.54
   4 -11   3    4.80    0.49
 -11  -4  -1   24.17    1.08
  11   4  -1   23.17    1.00
  11  -4   1   23.55    1.07
  -4 -11  -1   23.18    1.06
   4 -11   1   23.91    0.88
   4 -11   1   23.95    1.08
   4  11  -1   22.20    1.03
   4  11   1   22.85    1.06
  -4 -11   1   22.63    0.65
 -11  -4   1   23.56    1.09
  -4  11  -1   23.23    0.95
  11   4   1   22.06    0.99
  -4 -11   1   21.43    0.62
  -4  11  -1   23.37    0.90
  11  -4  -1   23.63    1.07
   4 -11  -1   22.75    0.90
   4 -11  -1   22.02    1.04
  -4  11  -3    6.96    0.53
   4  11   3    6.44    0.57
 -11  -4   3    6.57    0.62
  11  -4  -3    6.88    0.58
   4 -11  -3    6.16    0.48
  -4  11  -3    6.70    0.44
   4 -11  -3    7.72    0.63
  -4  11  -5   24.58    1.12
 -11  -4   5   24.87    1.23
   4  11   5   26.61    1.21
 -11  -4   5   27.04    1.19
  11  -4  -5   24.70    1.16
  -4  11  -5   26.16    0.93
   4 -11  -5   26.91    1.12
   4 -11  -5   25.75    1.17
  -4  11  -7   15.76    0.93
 -11  -4   7   13.22    0.94
   4 -11  -7   16.70    0.95
 -11  -4   7   14.54    0.88
  11  -4  -7   15.95    0.92
  -4  11  -7   16.04    0.69
   4 -11  -7   16.74    0.89
   4 -11  -9    0.41    0.32
   4 -11  -9    0.75    0.27
 -11   4  -9    0.11    0.12
 -11  -4   9    0.34    0.34
 -11  -4   9    0.04    0.31
  -4  11  -9    0.69    0.32
  -4  11  -9    0.26    0.14
  11  -4  -9    0.40    0.24
  -4 -11  11    5.06    0.58
 -11  -4  11    5.53    0.66
 -11  -4  11    5.46    0.58
  -4  11 -11    6.04    0.66
  11  -4 -11    5.46    0.59
   4 -11 -11    6.77    0.65
   4 -11 -13    5.35    0.63
 -11  -4  13    4.83    0.63
  -4 -11  13    4.05    0.56
  11  -4 -13    5.74    0.64
  -4  11 -13    5.24    0.64
   4 -11 -15    0.23    0.25
  11  -4 -15    0.23    0.26
  -4  11 -15   -0.05    0.29
  -4 -11  15    0.14    0.27
 -11  -4  15    0.28    0.35
   4 -11 -17    0.95    0.33
 -11  -4  17    1.97    0.50
  -4 -11  17    0.75    0.32
  -4  11 -17    2.25    0.49
  11  -4 -17    1.71    0.44
  -4 -11  19    0.92    0.33
   4 -11 -19    1.64    0.46
 -11  -4  19    1.31    0.44
  11  -4 -19    1.14    0.35
  -4  11 -19    0.97    0.40
   4 -11 -21   -0.35    0.30
 -11  -4  21    0.43    0.38
  -4  11 -21   -0.13    0.41
  11  -4 -21    0.13    0.27
  -4 -11  21    0.52    0.32
  11   5 -20    1.90    0.43
   5  11 -20    2.46    0.54
   5  11 -18    0.13    0.33
  11   5 -18    0.41    0.24
   5  11 -16    1.26    0.42
  11   5 -16    1.71    0.34
   5  11 -14    4.77    0.60
  11   5 -14    5.16    0.53
   5  11 -12    0.70    0.31
  11   5 -12    0.46    0.20
  11  -5  10    8.76    0.48
 -11   5  10    9.51    0.51
  11   5 -10    9.34    0.64
  -5 -11 -10   10.31    0.70
   5  11 -10    8.96    0.76
  11  -5   8   13.93    0.67
  11   5  -8   13.92    0.76
  -5 -11  -8   15.11    0.83
 -11  -5  -6    1.62    0.29
   5 -11   6    1.95    0.26
  11  -5   6    1.95    0.34
  -5  11   6    1.89    0.39
  11   5  -6    1.47    0.27
  -5  11   6    1.88    0.19
  -5 -11  -6    2.23    0.38
 -11  -5  -4   27.30    1.03
 -11  -5  -4   28.40    1.16
  -5  11   4   29.84    1.24
  11   5  -4   28.37    0.85
  11  -5   4   28.44    1.22
  11   5  -4   27.96    1.10
   5 -11   4   28.38    1.01
  -5  11   4   30.34    0.97
  -5 -11  -4   28.56    1.19
   5 -11   4   28.56    1.19
   5 -11   2   31.48    1.27
 -11   5   2   32.23    0.91
  11   5  -2   31.03    1.18
  11  -5   2   30.95    1.28
   5 -11   2   31.14    1.08
  -5 -11  -2   30.00    1.26
 -11  -5  -2   31.97    1.28
  -5  11   2   31.80    1.27
   5 -11   0    1.77    0.35
 -11  -5   0    1.87    0.37
   5  11   0    1.24    0.32
   5 -11   0    1.34    0.25
  11   5   0    1.20    0.25
  -5 -11   0    1.65    0.18
  11  -5   0    0.95    0.25
  -5 -11   0    2.03    0.41
   5 -11   0    1.47    0.25
   5  11   2   30.09    1.23
 -11  -5   2   31.73    1.33
  -5 -11   2   26.18    0.69
   5 -11  -2   32.43    1.28
  -5 -11   2   30.98    1.29
  11  -5  -2   30.49    1.24
   5 -11  -2   31.00    1.01
   5 -11  -2   30.98    1.11
 -11  -5   4   27.69    1.29
  -5  11  -4   29.33    1.19
   5  11   4   28.45    1.26
 -11  -5   4   27.74    1.25
  11  -5  -4   27.78    1.24
   5 -11  -4   29.61    0.92
   5 -11  -4   28.06    1.24
   5 -11  -4   29.17    1.15
  -5  11  -4   27.78    1.03
   5 -11  -6    1.79    0.40
  -5  11  -6    2.28    0.40
 -11  -5   6    1.53    0.37
  -5  11  -6    1.88    0.26
  11  -5  -6    1.77    0.33
 -11  -5   6    1.74    0.39
   5 -11  -6    1.87    0.32
  -5 -11   8   13.37    0.91
  -5  11  -8   15.09    0.93
 -11  -5   8   12.93    0.87
 -11  -5   8   12.83    0.93
  -5  11  -8   13.30    0.68
  11  -5  -8   13.92    0.89
   5 -11  -8   14.37    0.89
  -5 -11  10    8.24    0.74
 -11  -5  10    8.73    0.79
  11   5  10    7.96    0.56
 -11  -5  10    8.18    0.72
  -5  11 -10    9.32    0.78
  11  -5 -10    8.67    0.73
   5 -11 -10    9.81    0.77
  -5 -11  12    0.32    0.31
   5 -11 -12    0.72    0.31
 -11  -5  12    0.79    0.36
  11  -5 -12    0.69    0.28
  -5  11 -12    1.11    0.39
  -5 -11  14    3.90    0.56
  11  -5 -14    4.66    0.60
   5 -11 -14    3.98    0.57
 -11  -5  14    3.93    0.62
  -5  11 -14    4.78    0.63
   5 -11 -16    1.71    0.42
  -5  11 -16    2.43    0.52
 -11  -5  16    2.55    0.54
  -5 -11  16    1.61    0.42
  11  -5 -16    1.68    0.38
  -5 -11  18    0.26    0.29
   5 -11 -18   -0.07    0.37
 -11  -5  18    0.77    0.39
  11  -5 -18    0.39    0.26
 -11  -5  20    1.19    0.44
  -5 -11  20    0.50    0.32
  11  -5 -20    0.90    0.36
   5 -11 -20    1.17    0.44
  11   6 -21    0.38    0.34
   6  11 -21    0.20    0.33
   6  11 -19    0.30    0.37
   6  11 -17    1.26    0.39
  11   6 -17    0.60    0.25
   6  11 -15    0.31    0.32
  11   6 -15    0.26    0.19
   6  11 -13    2.79    0.49
  11   6 -13    2.42    0.36
 -11   6  11    5.68    0.35
  11   6 -11    6.17    0.52
  11  -6  11    5.74    0.40
 -11   6   9    0.90    0.21
  11  -6   9    0.56    0.20
  11   6  -9    0.73    0.20
  -6 -11  -9    0.76    0.27
  11   6  -7    7.80    0.54
  -6  11   7    5.66    0.27
  -6 -11  -7    7.15    0.60
  11  -6   7    6.79    0.58
 -11  -6  -5   11.34    0.72
  -6  11   5   11.47    0.77
  11  -6   5   10.68    0.73
   6 -11   5   12.47    0.65
  11   6  -5   11.73    0.67
  -6 -11  -5   10.73    0.73
   6 -11   5   11.35    0.74
  11   6  -5   11.21    0.53
 -11  -6  -3    0.39    0.27
  -6  11   3    0.26    0.28
 -11   6   3    0.70    0.20
  11   6  -3    0.40    0.18
  11  -6   3    0.31    0.21
   6 -11   3    0.10    0.14
   6 -11   3    0.19    0.25
  -6 -11  -3    0.38    0.29
  11   6  -3    0.34    0.18
 -11  -6  -1   10.54    0.74
   6 -11   1   10.21    0.71
  -6 -11  -1    9.28    0.47
  11  -6   1    9.93    0.69
   6  11  -1    9.57    0.68
  -6 -11  -1    9.68    0.71
   6 -11   1   10.04    0.60
   6  11   1    8.95    0.67
 -11  -6   1    9.45    0.74
  -6 -11   1    9.16    0.40
  -6 -11   1    9.52    0.72
  11  -6  -1    9.87    0.69
   6 -11  -1    9.54    0.61
   6 -11  -1    8.37    0.55
   6 -11  -1   10.24    0.71
   6 -11  -3    0.17    0.27
 -11  -6   3    0.35    0.30
 -11  -6   3    0.23    0.29
   6 -11  -3    0.37    0.17
   6  11   3   -0.04    0.25
  -6 -11   3    0.26    0.31
  11  -6  -3    0.38    0.22
   6 -11  -3    0.16    0.15
  -6 -11   3    0.15    0.05
 -11  -6   5   12.57    0.88
 -11  -6   5   10.68    0.80
  11  -6  -5   12.06    0.80
   6 -11  -5   12.73    0.54
   6 -11  -5   12.15    0.76
  -6 -11   7    6.35    0.67
 -11  -6   7    6.40    0.68
 -11  -6   7    7.08    0.67
  11  -6  -7    6.92    0.64
   6 -11  -7    6.65    0.59
   6 -11  -9    0.94    0.30
  -6 -11   9    0.42    0.28
 -11  -6   9    0.82    0.35
 -11  -6   9    0.69    0.35
  11  -6  -9    0.65    0.26
 -11  -6  11    5.83    0.69
  -6 -11  11    6.14    0.67
 -11  -6  11    5.99    0.64
  11  -6 -11    6.70    0.68
   6 -11 -11    6.40    0.64
   6 -11 -13    3.30    0.51
  -6 -11  13    2.05    0.42
 -11  -6  13    2.02    0.46
  11  -6 -13    2.56    0.47
  -6 -11  15   -0.02    0.27
   6 -11 -15   -0.10    0.27
 -11  -6  15    0.31    0.32
  11  -6 -15    0.26    0.24
   6 -11 -17    1.73    0.42
  -6 -11  17    0.57    0.37
 -11  -6  17    1.64    0.48
  11  -6 -17    0.87    0.36
  -6 -11  19    0.28    0.31
  11  -6 -19    0.53    0.35
 -11  -6  19    0.86    0.38
   6 -11 -19    1.07    0.42
  -6 -11  21   -0.33    0.32
 -11  -6  21   -0.63    0.42
   6 -11 -21   -0.30    0.35
  11  -6 -21    0.42    0.32
  11   7 -20    0.14    0.33
   7  11 -20    0.60    0.37
   7  11 -18    0.17    0.35
   7  11 -16    0.42    0.29
   7  11 -14    0.32    0.31
  11   7 -14    0.29    0.19
  11   7 -12    1.45    0.27
  11   7 -10    1.77    0.28
 -11   7  10    1.80    0.20
  11  -7  10    1.60    0.28
  -7 -11  -8    0.75    0.32
  11   7  -8    0.65    0.21
  11  -7   8    0.74    0.24
  11  -7   6    0.50    0.22
   7 -11   6    0.82    0.22
  11   7  -6    0.89    0.22
  -7  11   6    1.28    0.38
  -7 -11  -6    0.56    0.31
   7 -11   6    0.77    0.31
 -11  -7  -4    1.07    0.30
  11   7  -4    0.65    0.20
  -7  11   4    0.51    0.25
  11   7  -4    0.57    0.18
  11  -7   4    0.41    0.21
 -11   7   4    0.73    0.22
   7 -11   4    0.81    0.23
   7 -11   4    0.61    0.28
  -7 -11  -4    0.45    0.30
 -11  -7  -2    1.06    0.30
 -11   7   2    1.52    0.26
   7 -11   2    0.82    0.30
  -7  11   2    1.35    0.32
   7  11  -2    1.12    0.31
  -7 -11  -2    1.20    0.19
  11   7  -2    1.10    0.23
  11  -7   2    1.23    0.29
   7 -11   2    1.02    0.24
  -7 -11  -2    1.19    0.35
   7  11   0    3.06    0.42
 -11  -7   0    2.12    0.44
  -7 -11   0    2.50    0.24
  11  -7   0    2.18    0.36
   7 -11   0    2.76    0.36
  -7 -11   0    2.73    0.45
   7 -11   0    2.46    0.41
   7 -11  -2    0.86    0.29
   7  11   2    0.85    0.31
 -11  -7   2    0.94    0.34
  -7 -11   2    0.83    0.34
  11  -7  -2    1.04    0.28
  -7 -11   2    0.89    0.13
   7 -11  -2    1.00    0.23
   7 -11  -2    0.74    0.22
 -11  -7   2    1.85    0.41
  -7 -11   4    0.48    0.08
 -11  -7   4    0.53    0.32
  -7 -11   4    0.63    0.35
  11  -7  -4    0.89    0.28
   7 -11  -4    0.54    0.19
 -11  -7   4    1.01    0.36
   7 -11  -4    0.85    0.24
 -11  -7   6    0.71    0.35
  -7 -11   6    1.17    0.39
   7 -11  -6    0.77    0.18
 -11  -7   6    0.85    0.38
  11  -7  -6    1.01    0.30
   7 -11  -6    0.98    0.30
  -7 -11   8    0.15    0.32
 -11  -7   8    0.53    0.37
   7 -11  -8    0.45    0.10
   7 -11  -8    0.97    0.30
 -11  -7   8    1.09    0.41
  11  -7  -8    0.44    0.24
  -7 -11  10    1.46    0.41
 -11  -7  10    1.65    0.41
   7 -11 -10    2.75    0.43
 -11  -7  10    2.05    0.44
  11  -7 -10    1.64    0.37
  -7 -11  12    1.21    0.35
 -11  -7  12    0.77    0.34
  11  -7 -12    1.64    0.38
   7 -11 -14    0.70    0.36
  -7 -11  14    0.09    0.27
 -11  -7  14    0.45    0.36
  11  -7 -14    0.37    0.29
 -11  -7  16   -0.56    0.32
   7 -11 -16   -0.06    0.33
  11  -7 -16   -0.16    0.26
   7 -11 -18    0.07    0.32
  -7 -11  18   -0.34    0.35
 -11  -7  18   -0.94    0.43
  11  -7 -18   -0.20    0.26
   7 -11 -20    0.04    0.36
  -7 -11  20   -0.06    0.32
 -11  -7  20   -0.40    0.40
  11  -7 -20    0.02    0.31
  11   8 -19    0.57    0.38
   8  11 -19    0.23    0.30
   8  11 -17    0.87    0.33
   8  11 -15    1.36    0.42
  11   8 -13    0.35    0.18
  11   8 -11    0.67    0.18
  11  -8   9    0.28    0.21
  11   8  -9    0.34    0.18
   8 -11   7    1.57    0.29
  11  -8   7    1.59    0.33
  11   8  -7    1.38    0.24
  -8 -11  -7    1.18    0.36
   8 -11   7    0.85    0.29
  11  -8   7    1.38    0.31
   8 -11   5    5.55    0.56
  11   8  -5    5.00    0.41
  11  -8   5    4.73    0.51
   8 -11   5    5.33    0.48
  -8  11   5    5.48    0.55
  11   8  -5    5.08    0.43
  -8 -11  -5    4.57    0.55
 -11  -8  -3    3.74    0.48
   8  11  -3    2.81    0.41
  -8  11   3    3.74    0.47
 -11   8   3    3.50    0.38
  11   8  -3    3.51    0.37
  11  -8   3    3.35    0.44
   8 -11   3    3.09    0.37
  -8 -11  -3    3.72    0.52
   8 -11   3    3.34    0.48
 -11  -8  -1    3.65    0.49
   8  11  -1    3.31    0.43
  -8 -11  -1    3.37    0.32
   8 -11   1    3.86    0.41
  11  -8   1    3.80    0.45
  -8 -11  -1    4.15    0.54
   8 -11   1    3.40    0.46
 -11  -8   1    3.30    0.46
   8  11   1    3.04    0.43
  -8 -11   1    3.72    0.30
  11  -8  -1    2.95    0.41
   8 -11  -1    3.20    0.47
  -8 -11   1    3.62    0.52
   8 -11  -1    3.42    0.41
 -11  -8   1    2.94    0.49
 -11  -8   3    3.34    0.50
   8 -11  -3    3.47    0.36
  -8 -11   3    3.05    0.23
  -8 -11   3    2.99    0.48
  11  -8  -3    3.65    0.48
   8 -11  -3    3.94    0.45
 -11  -8   3    3.94    0.56
  -8 -11   5    5.43    0.63
 -11  -8   5    4.93    0.60
  11  -8  -5    5.91    0.59
  -8 -11   5    5.33    0.62
   8 -11  -5    6.05    0.55
 -11  -8   5    5.50    0.65
   8 -11  -5    4.75    0.39
  -8 -11   5    3.99    0.24
 -11  -8   7    1.37    0.43
  -8 -11   7    0.99    0.38
 -11  -8   7    1.14    0.40
  11  -8  -7    1.32    0.33
   8 -11  -7    1.15    0.19
   8 -11  -7    1.40    0.33
  -8 -11   9    0.95    0.38
 -11  -8   9    0.19    0.31
 -11  -8   9    0.46    0.36
   8 -11  -9    0.35    0.24
  11  -8  -9    0.00    0.22
  -8 -11  11    1.16    0.42
 -11  -8  11    0.87    0.34
  11  -8 -11    0.83    0.33
   8 -11 -11    1.62    0.40
  -8 -11  13    0.67    0.38
 -11  -8  13    0.23    0.34
   8 -11 -13    0.25    0.27
  11  -8 -13    0.19    0.26
   8 -11 -15    0.83    0.36
 -11  -8  15    0.38    0.41
  -8 -11  15    0.41    0.30
  11  -8 -15    1.14    0.38
   8 -11 -17    0.74    0.36
  -8 -11  17   -0.18    0.34
 -11  -8  17    0.26    0.33
  11  -8 -17    0.72    0.28
   8 -11 -19   -0.25    0.44
  -8 -11  19   -0.04    0.33
 -11  -8  19    0.12    0.38
  11  -8 -19    0.26    0.28
   9  11 -18    0.27    0.32
   9  11 -16    0.13    0.32
  11  -9  10    2.68    0.37
  11   9 -10    2.87    0.32
   9 -11   8    3.57    0.45
  11  -9   8    3.41    0.40
  11   9  -8    4.15    0.37
  -9  11   6    6.19    0.60
  11  -9   6    6.08    0.54
  11   9  -6    5.88    0.43
  11  -9   6    5.02    0.53
   9 -11   6    5.44    0.50
  -9 -11  -6    6.65    0.66
   9 -11   6    5.68    0.55
   9  11  -4    1.33    0.33
  11   9  -4    0.46    0.22
 -11   9   4    1.30    0.29
  11  -9   4    1.16    0.29
  11  -9   4    0.36    0.24
   9 -11   4    1.01    0.27
  -9  11   4    0.94    0.29
  -9 -11  -4    0.15    0.31
   9 -11   4    1.35    0.34
 -11  -9  -2    4.87    0.58
  11   9  -2    5.45    0.47
  -9  11   2    4.87    0.53
  11  -9   2    4.87    0.51
   9 -11   2    5.06    0.49
   9  11  -2    4.37    0.50
 -11  -9  -2    4.47    0.62
  -9 -11  -2    4.16    0.58
 -11   9   2    5.75    0.49
   9 -11   2    5.17    0.55
 -11  -9   0   26.29    1.29
   9  11   0   23.97    1.11
  -9 -11   0   24.05    0.90
  11  -9   0   23.94    1.16
   9 -11   0   24.16    1.11
  -9 -11   0   24.35    1.25
 -11  -9   0   23.86    1.25
   9 -11   0   24.94    1.20
 -11  -9   2    6.07    0.66
  11  -9  -2    5.91    0.58
   9 -11  -2    5.12    0.51
  -9 -11   2    4.90    0.35
   9  11   2    5.06    0.54
  -9 -11   2    3.72    0.55
 -11  -9   2    5.93    0.65
  -9 -11   4    1.52    0.41
  -9 -11   4    1.24    0.38
  11  -9  -4    1.06    0.32
 -11  -9   4    0.49    0.34
   9 -11  -4    1.21    0.32
 -11  -9   4    0.80    0.19
 -11  -9   4    1.26    0.42
  -9 -11   6    6.35    0.70
 -11  -9   6    5.61    0.69
   9 -11  -6    5.08    0.41
  -9 -11   6    5.57    0.64
  11  -9  -6    5.78    0.60
   9 -11  -6    5.87    0.57
 -11  -9   6    5.60    0.66
  -9 -11   8    3.73    0.58
 -11  -9   8    3.35    0.54
 -11  -9   8    4.47    0.58
  11  -9  -8    4.04    0.52
   9 -11  -8    4.07    0.51
  -9 -11  10    3.28    0.56
 -11  -9  10    2.43    0.50
  11  -9 -10    2.91    0.49
   9 -11 -10    2.88    0.47
  -9 -11  12    1.61    0.42
 -11  -9  12    1.38    0.44
   9 -11 -12    2.02    0.45
  11  -9 -12    1.82    0.41
 -11  -9  14    0.88    0.39
   9 -11 -14    1.49    0.41
  -9 -11  14    1.00    0.43
  11  -9 -14    1.02    0.35
  -9 -11  16    0.43    0.42
 -11  -9  16    0.01    0.34
   9 -11 -16    0.44    0.35
  11  -9 -16    0.39    0.31
   9 -11 -18    0.28    0.35
  11  -9 -18    0.96    0.38
  -9 -11  18    0.12    0.40
 -11  -9  18    0.53    0.40
  10  11 -17    2.15    0.50
  10 -11   9    0.49    0.23
  11 -10   9    0.09    0.20
  10 -11   7    6.20    0.56
  11 -10   7    7.60    0.64
  11 -10   7    6.29    0.56
  10 -11   7    5.91    0.57
 -10  11   5   22.22    1.07
 -11  10   5   23.65    1.04
  11 -10   5   20.30    1.07
  10 -11   5   21.69    1.08
  11 -10   5   22.98    1.09
 -10 -11  -5   20.94    1.19
  10 -11   5   19.73    1.05
  10  11  -5   20.63    1.02
  11  10  -5   20.27    0.97
  11 -10   3    4.51    0.51
 -11  10   3    5.14    0.50
  10  11  -3    4.73    0.50
 -10  11   3    4.82    0.52
  11  10  -3    4.10    0.43
  10 -11   3    4.46    0.49
  11 -10   3    3.80    0.47
 -10 -11  -3    4.03    0.56
 -11 -10  -3    4.78    0.60
  10 -11   3    4.25    0.50
 -11 -10  -1   20.25    1.14
  11  10  -1   18.68    0.92
  11 -10   1   18.18    1.00
  10 -11   1   18.87    0.99
  10  11  -1   19.27    0.98
 -10 -11  -1   16.90    1.07
 -11 -10  -1   17.86    1.10
  10 -11   1   18.57    1.04
 -10  11   1   20.93    1.00
 -11  10   1   18.84    0.91
  10  11   1   18.28    0.98
  11 -10  -1   19.46    1.05
 -10 -11   1   17.99    1.11
  10 -11  -1   18.89    1.02
 -11 -10   1   17.02    1.10
 -11 -10   1   19.28    1.14
 -10 -11   3    4.55    0.61
 -11 -10   3    5.19    0.61
  11 -10  -3    5.51    0.58
 -10 -11   3    4.80    0.61
  10 -11  -3    4.45    0.51
 -11 -10   3    4.30    0.59
 -10 -11   5   20.61    1.23
 -11 -10   5   21.38    1.28
 -10 -11   5   21.03    1.23
 -11 -10   5   20.61    1.23
  11 -10  -5   20.37    1.13
  10 -11  -5   24.25    1.21
 -11 -10   7    7.14    0.75
 -10 -11   7    6.25    0.71
  11 -10  -7    6.84    0.68
 -11 -10   7    7.15    0.74
  10 -11  -7    6.75    0.67
 -10 -11   7    6.03    0.72
 -10 -11   9    0.11    0.29
 -11 -10   9    0.21    0.32
 -11 -10   9   -0.10    0.35
  11 -10  -9    0.20    0.26
  10 -11  -9    0.03    0.22
 -11 -10  11    6.39    0.79
 -10 -11  11    5.27    0.73
  11 -10 -11    7.91    0.77
  10 -11 -11    7.83    0.75
 -11 -10  13    1.15    0.43
  10 -11 -13    1.59    0.41
 -10 -11  13    0.80    0.44
  11 -10 -13    2.10    0.44
 -10 -11  15    0.34    0.40
 -11 -10  15    1.51    0.48
  11 -10 -15    1.67    0.42
  10 -11 -15    1.88    0.48
 -10 -11  17    1.08    0.48
 -11 -10  17    2.28    0.57
  11 -10 -17    1.25    0.42
  10 -11 -17    2.70    0.57
  11  11 -18    0.49    0.33
  11 -11   8    7.78    0.63
  11  11  -6    3.67    0.45
  11 -11   6    4.10    0.49
  11 -11   6    3.80    0.48
  11  11  -4   14.22    0.82
  11 -11   4   13.03    0.86
 -11 -11  -4   12.73    0.95
  11 -11   4   14.48    0.88
 -11  11   2   14.03    0.82
  11  11  -2   12.82    0.79
  11 -11   2   13.08    0.85
 -11 -11  -2   12.94    0.97
  11 -11   2   13.19    0.86
  11  11   0   17.38    0.95
  11 -11   0   18.88    1.04
 -11 -11   0   17.16    1.09
 -11 -11   2   12.47    0.95
 -11 -11   2   14.06    1.00
  11 -11  -2   13.28    0.88
 -11 -11   4   14.26    1.04
 -11 -11   4   13.58    1.01
  11 -11  -4   14.31    0.94
 -11 -11   6    4.09    0.61
 -11 -11   6    3.34    0.57
  11 -11  -6    3.51    0.50
 -11 -11   8    7.66    0.81
 -11 -11   8    7.00    0.76
  11 -11  -8    8.62    0.78
 -11 -11  10    5.69    0.72
  11 -11 -10    6.13    0.68
 -11 -11  12    1.01    0.41
  11 -11 -12    0.54    0.29
 -11 -11  14    3.43    0.65
  11 -11 -14    3.88    0.61
 -11 -11  16    1.88    0.56
  11 -11 -16    1.25    0.39
  11 -11 -18    1.24    0.47
 -11 -11  18   -0.53    0.52
 -12   0   0   46.08    1.59
  12   0   0   44.91    1.59
   0 -12   0   44.86    1.19
   0  12   0   41.32    1.39
   0 -12  -2    2.47    0.27
   0  12   2    3.15    0.45
 -12   0  -2    2.93    0.38
  12   0   2    2.27    0.35
   0 -12   2    2.26    0.18
  12   0  -2    2.13    0.33
   0  12   2    2.52    0.29
   0  12  -2    2.25    0.33
   0 -12  -4    0.89    0.20
 -12   0  -4    1.07    0.25
   0  12   4    0.86    0.30
  12   0   4    1.09    0.27
  12   0  -4    0.88    0.25
   0  12   4    1.06    0.20
   0  12  -4    0.78    0.25
   0 -12  -4    1.39    0.32
 -12   0  -6   16.04    0.74
   0  12   6   17.65    1.00
   0 -12  -6   17.85    0.86
  12   0  -6   15.63    0.89
   0  12  -6   14.99    0.89
   0  12   6   14.43    0.55
   0 -12  -6   16.27    0.91
   0  12   8    0.63    0.08
 -12   0  -8    0.93    0.19
   0 -12  -8    0.70    0.22
   0  12  -8    1.80    0.39
  12   0  -8    0.86    0.26
 -12   0   8    1.36    0.32
   0 -12  -8    1.33    0.35
   0 -12 -10    3.91    0.51
   0  12 -10    4.24    0.55
   0 -12 -10    4.50    0.53
  12   0 -10    4.77    0.53
 -12   0  10    4.28    0.48
   0  12 -12    0.25    0.29
   0 -12 -12    0.98    0.30
 -12   0  12    0.65    0.28
  12   0 -12    0.38    0.24
   0 -12 -12    0.26    0.27
   0  12 -14    0.77    0.38
   0 -12 -14    1.50    0.38
   0 -12 -14    0.68    0.31
  12   0 -14    0.73    0.29
   0 -12 -16    0.68    0.31
 -12   0  16    0.23    0.31
   0  12 -16    0.71    0.38
  12   0 -16    1.09    0.34
   0 -12 -16    0.26    0.28
   0 -12 -18   -0.24    0.37
 -12   0  18   -0.24    0.34
   0  12 -18   -0.23    0.33
  12   0 -18   -0.11    0.27
   0 -12 -18   -0.30    0.28
   0 -12 -20    0.61    0.39
 -12   0  20    0.49    0.41
   0  12 -20    0.30    0.32
  12   0 -20    0.78    0.38
  12   1 -21   -0.04    0.26
  -1 -12 -21    0.25    0.33
 -12   1  21    0.41    0.38
   1  12 -21    0.07    0.33
  12   1 -21   -0.24    0.29
  -1 -12 -19    2.58    0.54
   1  12 -19    3.15    0.59
  12   1 -19    1.80    0.45
  -1 -12 -19    2.24    0.44
   1  12 -17    1.15    0.39
  -1 -12 -17    1.75    0.42
  12   1 -17    0.88    0.30
  -1 -12 -17    1.31    0.36
   1  12 -15    1.41    0.41
  -1 -12 -15    2.39    0.47
  12   1 -15    1.62    0.36
  -1 -12 -15    2.18    0.41
   1  12 -13    1.89    0.41
  -1 -12 -13    1.32    0.37
  12   1 -13    1.97    0.37
  -1 -12 -13    2.01    0.40
  -1 -12 -11    7.88    0.71
  -1 -12 -11    8.87    0.49
 -12   1  11    8.07    0.60
  12   1 -11    9.32    0.73
   1  12 -11    8.42    0.75
  -1 -12 -11    9.05    0.69
 -12  -1  -9    1.26    0.20
  -1 -12  -9    1.39    0.31
  -1 -12  -9    1.61    0.36
   1  12  -9    1.99    0.41
  12   1  -9    1.49    0.32
 -12   1   9    1.02    0.27
 -12  -1  -7    2.03    0.28
  -1 -12  -7    2.08    0.39
  -1 -12  -7    1.76    0.33
   1  12  -7    2.57    0.41
  12   1  -7    1.82    0.34
 -12  -1  -5   19.15    0.85
  -1  12   5   19.18    1.04
  12  -1   5   18.83    0.99
  12   1  -5   20.00    0.98
  -1 -12  -5   18.68    0.86
   1  12  -5   18.52    0.97
  -1  12   5   18.45    0.64
 -12  -1  -3    5.94    0.50
  -1  12   3    5.50    0.56
  12  -1   3    5.41    0.52
  -1 -12  -3    5.31    0.40
   1 -12   3    5.60    0.29
  12   1  -3    6.46    0.54
  -1  12   3    5.59    0.44
   1  12  -3    4.63    0.47
  -1  12   3    4.73    0.36
 -12  -1  -1   16.49    0.86
  12  -1   1   15.52    0.87
  12   1  -1   14.96    0.84
   1 -12   1   15.79    0.59
   1  12  -1   14.97    0.77
  -1  12   1   15.47    0.72
  -1 -12  -1   16.21    0.63
 -12  -1  -1   12.32    0.44
  -1  12   1   15.98    0.89
 -12  -1   1   15.80    0.89
  12   1   1   15.65    0.86
  12  -1  -1   15.80    0.87
   1  12   1   14.47    0.71
  -1 -12   1   14.50    0.51
   1 -12  -1   15.30    0.65
  -1  12  -1   15.18    0.76
   1  12   1   15.67    0.90
 -12   1  -3    5.67    0.48
   1 -12  -3    5.53    0.54
 -12  -1   3    5.61    0.57
   1  12   3    4.20    0.49
  12   1   3    5.50    0.52
  12  -1  -3    5.77    0.53
   1  12   3    5.25    0.40
  -1  12  -3    5.47    0.50
   1 -12  -3    5.91    0.43
  -1  12  -5   16.15    0.54
 -12   1  -5   20.65    0.86
 -12  -1   5   17.59    1.03
  12  -1  -5   18.43    0.97
   1  12   5   18.02    0.69
  -1  12  -5   16.72    0.93
   1 -12  -5   19.04    0.99
   1 -12  -5   19.23    0.88
   1  12   5   21.86    1.08
  -1  12  -7    1.46    0.35
   1 -12  -7    2.22    0.35
 -12   1  -7    2.26    0.27
 -12  -1   7    1.74    0.42
   1  12   7    1.64    0.18
  12  -1  -7    2.05    0.35
  -1  12  -7    1.25    0.12
   1 -12  -7    1.94    0.38
 -12  -1   7    2.12    0.39
 -12   1  -9    1.60    0.20
   1 -12  -9    1.27    0.32
  -1  12  -9    0.94    0.36
 -12  -1   9    0.74    0.37
  -1  12  -9    0.75    0.10
   1 -12  -9    1.21    0.34
   1  12   9    0.63    0.09
 -12  -1   9    1.55    0.36
  12  -1  -9    1.40    0.32
 -12  -1  11    8.33    0.82
   1 -12 -11    8.71    0.74
 -12  -1  11    9.20    0.68
  12  -1 -11    8.92    0.73
  -1  12 -11    9.38    0.80
   1 -12 -11    8.30    0.70
   1 -12 -13    1.85    0.38
 -12  -1  13    0.77    0.39
  -1  12 -13    1.05    0.35
  12  -1 -13    2.11    0.42
   1 -12 -13    1.81    0.42
   1 -12 -15    2.50    0.48
 -12  -1  15    1.40    0.50
  12  -1 -15    2.32    0.41
  -1  12 -15    2.50    0.50
   1 -12 -15    1.85    0.40
   1 -12 -17    1.21    0.39
 -12  -1  17    1.32    0.43
  -1  12 -17    0.94    0.40
  12  -1 -17    1.25    0.37
   1 -12 -17    1.35    0.40
  -1  12 -19    1.36    0.48
   1 -12 -19    1.27    0.43
 -12  -1  19    2.22    0.54
  12  -1 -19    0.96    0.36
   1 -12 -19    1.66    0.41
   1 -12 -21    0.13    0.29
 -12  -1  21    0.14    0.33
  12  -1 -21    0.09    0.24
  -1  12 -21   -0.56    0.42
  -2 -12 -20    1.88    0.52
   2  12 -20    1.62    0.52
  12   2 -20    2.01    0.44
   2  12 -18    0.29    0.30
  -2 -12 -18    0.75    0.38
  12   2 -18    0.55    0.31
  -2 -12 -18    0.53    0.29
   2  12 -16    1.27    0.44
  -2 -12 -16    0.80    0.36
  12   2 -16    0.79    0.30
  -2 -12 -16    0.74    0.31
  -2 -12 -14    1.36    0.39
  12   2 -14    1.47    0.35
  -2 -12 -14    1.33    0.32
   2  12 -14    1.50    0.43
  -2 -12 -12    2.83    0.45
 -12   2  12    2.50    0.37
  -2 -12 -12    3.22    0.34
   2  12 -12    3.38    0.51
  12   2 -12    3.59    0.47
  -2 -12 -12    3.62    0.46
  -2 -12 -10    3.10    0.45
   2  12 -10    2.99    0.47
  -2 -12 -10    3.13    0.35
  12   2 -10    3.23    0.42
 -12   2  10    3.00    0.38
 -12  -2  -8    2.49    0.27
  -2 -12  -8    2.58    0.39
   2  12  -8    2.31    0.40
  -2 -12  -8    2.44    0.33
  12   2  -8    2.94    0.40
 -12   2   8    2.83    0.37
 -12  -2  -6   22.46    0.93
  -2 -12  -6   23.41    1.03
  -2  12   6   23.25    1.17
  -2 -12  -6   24.20    0.98
  12   2  -6   23.89    1.09
   2  12  -6   21.83    1.08
 -12  -2  -4    0.40    0.21
   2  12  -4    0.28    0.18
  -2 -12  -4    0.01    0.16
  -2  12   4    0.48    0.30
  12  -2   4    0.06    0.18
   2 -12   4    0.10    0.10
  12   2  -4    0.32    0.20
  -2  12   4    0.03    0.13
  -2  12   4    0.48    0.20
  12   2  -2    7.38    0.58
 -12  -2  -2    7.16    0.56
 -12  -2  -2    6.55    0.35
  12  -2   2    7.20    0.60
  -2 -12  -2    6.83    0.42
  -2  12   2    6.59    0.50
   2 -12   2    7.12    0.39
  -2  12   2    6.64    0.44
   2  12  -2    6.04    0.52
  -2  12   2    8.11    0.66
 -12  -2   0   56.70    1.83
  -2  12   0   54.60    1.55
   2  12   0   52.54    1.81
  12   2   0   53.41    1.77
  12  -2   0   53.99    1.81
   2 -12   0   55.95    1.83
   2  12   0   52.18    1.64
   2 -12   0   55.34    1.49
  -2 -12   0   54.76    1.34
  -2  12   0   56.64    1.64
   2  12   2    6.28    0.58
  -2  12  -2    6.86    0.40
 -12  -2   2    7.74    0.66
  12   2   2    6.54    0.55
  12  -2  -2    6.07    0.55
   2 -12  -2    6.96    0.46
   2 -12  -2    7.00    0.59
  -2  12  -2    6.38    0.52
   2 -12  -4    0.41    0.20
  -2  12  -4    0.28    0.11
 -12  -2   4    0.56    0.32
   2  12   4    0.44    0.30
  -2  12  -4    0.34    0.22
  12  -2  -4    0.38    0.23
   2 -12  -4    0.44    0.29
   2  12   6   21.25    1.13
 -12   2  -6   22.22    0.89
 -12  -2   6   20.07    1.13
  12  -2  -6   23.08    1.11
 -12  -2   6   22.03    1.06
   2 -12  -6   22.70    1.03
  -2  12  -6   22.30    0.71
  -2  12  -6   21.50    1.07
   2 -12  -6   21.49    1.09
   2 -12  -8    2.82    0.39
 -12   2  -8    2.46    0.25
 -12  -2   8    1.83    0.43
  -2  12  -8    2.01    0.40
  -2  12  -8    2.03    0.20
  12  -2  -8    2.64    0.41
 -12  -2   8    2.17    0.39
   2 -12  -8    2.70    0.46
 -12   2 -10    2.79    0.21
   2 -12 -10    2.62    0.41
 -12  -2  10    2.34    0.48
  -2  12 -10    3.26    0.50
 -12  -2  10    3.17    0.44
  12  -2 -10    3.10    0.45
   2 -12 -10    3.51    0.49
   2 -12 -12    4.01    0.54
 -12  -2  12    3.91    0.59
 -12  -2  12    3.26    0.47
  -2  12 -12    3.17    0.53
  12  -2 -12    3.82    0.52
   2 -12 -12    3.38    0.49
   2 -12 -14    1.71    0.41
 -12  -2  14    0.40    0.32
  12  -2 -14    1.35    0.36
  -2  12 -14    1.98    0.45
   2 -12 -14    1.81    0.43
  -2  12 -16    0.48    0.31
   2 -12 -16    1.04    0.37
 -12  -2  16    0.13    0.32
   2 -12 -16    0.51    0.33
  12  -2 -16    0.57    0.29
   2 -12 -18    0.08    0.28
 -12  -2  18    0.30    0.30
  -2  12 -18    0.92    0.38
   2 -12 -18    0.57    0.34
  12  -2 -18   -0.02    0.30
   2 -12 -20    1.46    0.41
   2 -12 -20    1.48    0.42
 -12  -2  20    1.29    0.43
  -2  12 -20    0.56    0.42
  12  -2 -20    0.88    0.35
  12   3 -21    0.38    0.33
   3  12 -21    0.71    0.40
  -3 -12 -21    0.25    0.36
  12   3 -21    0.04    0.23
   3  12 -19    1.50    0.47
  -3 -12 -19    1.87    0.51
  12   3 -19    2.01    0.41
  -3 -12 -17    0.16    0.28
  12   3 -17    0.41    0.24
   3  12 -17    0.54    0.33
  -3 -12 -15    0.13    0.25
   3  12 -15    0.40    0.34
  12   3 -15    0.25    0.22
  -3 -12 -13    1.36    0.37
   3  12 -13    1.88    0.42
  -3 -12 -13    1.76    0.29
  12   3 -13    2.40    0.39
  -3 -12 -11    2.16    0.38
   3  12 -11    2.34    0.43
 -12   3  11    2.70    0.35
  -3 -12 -11    2.71    0.36
  12   3 -11    2.61    0.39
  12  -3  11    2.44    0.21
   3  12  -9    3.00    0.46
  -3 -12  -9    2.48    0.38
  12   3  -9    2.77    0.39
  -3 -12  -9    2.80    0.36
 -12   3   9    1.95    0.32
 -12  -3  -7    4.19    0.39
  -3 -12  -7    4.66    0.47
  -3  12   7    4.86    0.57
   3  12  -7    4.39    0.52
  12   3  -7    4.25    0.44
  12   3  -7    3.29    0.17
 -12  -3  -5   17.67    0.84
  -3  12   5   16.93    0.97
 -12  -3  -5   15.73    0.73
  -3 -12  -5   16.96    0.83
  12  -3   5   17.22    0.95
   3 -12   5   17.80    0.66
  12   3  -5   16.57    0.88
  -3 -12  -5   17.08    0.86
  -3  12   5   16.46    0.67
   3  12  -5   17.35    0.94
  -3  12   3   26.61    1.21
 -12  -3  -3   24.93    0.86
  -3 -12  -3   25.91    0.96
 -12  -3  -3   26.40    1.11
  12  -3   3   25.50    1.18
  12   3  -3   26.72    1.13
   3 -12   3   25.98    0.86
  -3 -12  -3   25.43    1.11
  -3  12   3   26.44    0.97
  -3  12   1   15.42    0.70
 -12   3   1   11.57    0.37
  -3 -12  -1   14.87    0.59
 -12  -3  -1   14.49    0.83
  -3  12   1   14.23    0.71
  12   3  -1   14.73    0.81
  12  -3   1   14.56    0.84
   3 -12   1   14.94    0.64
   3 -12   1   13.41    0.82
  -3  12   1   16.28    0.90
  -3  12  -1   15.10    0.68
 -12  -3   1   14.08    0.86
  12   3   1   15.21    0.83
  12  -3  -1   14.68    0.85
   3  12   1   14.54    0.87
   3 -12  -1   14.73    0.68
  -3 -12   1   12.51    0.44
   3 -12  -1   13.28    0.81
  -3  12  -1   14.60    0.74
   3  12   3   26.11    1.19
  12  -3  -3   25.56    1.17
   3 -12  -3   26.68    1.02
 -12  -3   3   25.43    1.21
  -3  12  -3   24.87    1.09
   3 -12  -3   26.37    1.19
  -3  12  -3   24.57    0.88
  -3  12  -5   16.43    0.93
   3  12   5   16.52    0.97
 -12  -3   5   16.25    1.01
  12  -3  -5   17.26    0.97
 -12  -3   5   16.45    0.95
   3 -12  -5   17.67    0.87
  -3  12  -5   17.17    0.67
   3 -12  -5   16.85    0.97
  -3  12  -7    4.98    0.54
 -12   3  -7    5.32    0.40
   3 -12  -7    5.60    0.57
 -12  -3   7    4.36    0.57
  12  -3  -7    4.98    0.53
  -3  12  -7    4.75    0.33
 -12  -3   7    4.21    0.49
   3 -12  -7    5.20    0.51
  -3  12  -9    2.41    0.44
 -12   3  -9    2.79    0.25
   3 -12  -9    3.81    0.47
 -12  -3   9    2.41    0.49
 -12  -3   9    2.67    0.44
  12  -3  -9    2.86    0.44
   3 -12  -9    1.96    0.41
  -3  12 -11    1.97    0.41
   3 -12 -11    2.60    0.43
 -12  -3  11    2.24    0.49
 -12  -3  11    2.18    0.42
  12  -3 -11    3.26    0.49
   3 -12 -11    2.57    0.46
   3 -12 -13    2.29    0.44
 -12  -3  13    2.28    0.51
  -3  12 -13    2.43    0.49
  12  -3 -13    2.04    0.39
   3 -12 -13    2.53    0.46
   3 -12 -15   -0.46    0.35
   3 -12 -15    0.08    0.28
 -12  -3  15    0.13    0.33
  -3  12 -15    0.05    0.29
  12  -3 -15    0.27    0.26
   3 -12 -17    0.29    0.28
 -12  -3  17   -0.08    0.32
   3 -12 -17    0.55    0.34
  -3  12 -17    0.39    0.36
  12  -3 -17    0.17    0.24
   3 -12 -19    1.32    0.40
 -12  -3  19    1.23    0.43
  -3  12 -19    2.22    0.52
  12  -3 -19    0.78    0.34
   3 -12 -19    1.59    0.44
  -3  12 -21    0.53    0.41
   3 -12 -21    0.57    0.35
 -12  -3  21   -0.26    0.40
  12  -3 -21    0.20    0.27
   3 -12 -21    0.04    0.33
   4  12 -20    1.48    0.49
  -4 -12 -20    1.14    0.48
  12   4 -20    0.87    0.31
  -4 -12 -18    0.82    0.43
  12   4 -18    0.57    0.27
   4  12 -18    1.19    0.43
  -4 -12 -16    1.02    0.39
   4  12 -16    1.50    0.46
  12   4 -16    0.92    0.29
   4  12 -14    0.54    0.28
  12   4 -14    1.34    0.34
  -4 -12 -14    1.28    0.30
   4  12 -12    0.49    0.29
 -12   4  12    0.87    0.22
  12   4 -12    0.90    0.26
  -4 -12 -12    0.91    0.27
   4  12 -10    0.90    0.31
  12   4 -10    1.83    0.35
 -12   4  10    1.36    0.27
  -4 -12 -10    1.78    0.33
  12  -4  10    1.23    0.20
   4  12  -8    3.61    0.50
  12   4  -8    3.75    0.42
  -4 -12  -8    4.35    0.46
 -12  -4  -6   14.12    0.75
  12   4  -6   12.18    0.43
  -4  12   6   14.76    0.90
  12  -4   6   13.13    0.84
  12   4  -6   13.99    0.78
  -4 -12  -6   13.03    0.76
  -4  12   6   13.42    0.54
 -12  -4  -4   11.10    0.60
  -4  12   4   12.78    0.83
 -12  -4  -4   12.15    0.74
  12  -4   4   11.34    0.77
   4 -12   4   11.60    0.58
  12   4  -4   12.18    0.73
  -4 -12  -4   12.32    0.76
  -4  12   4   12.38    0.60
 -12  -4  -2   13.75    0.81
  -4 -12  -2   13.09    0.62
  -4 -12  -2   13.51    0.82
  12   4  -2   12.81    0.75
  12  -4   2   11.97    0.79
  -4  12   2   13.90    0.71
   4 -12   2   13.07    0.62
   4 -12   2   13.17    0.81
  -4  12   2   13.36    0.83
  -4 -12   0   28.00    0.84
 -12  -4   0   28.37    1.25
  12   4   0   28.48    1.18
  12  -4   0   28.43    1.24
   4 -12   0   29.45    1.25
   4 -12   0   28.95    1.03
  -4  12   0   27.40    1.05
   4  12   0   28.46    1.25
   4  12   2   12.13    0.78
  -4  12  -2   12.86    0.72
 -12  -4   2   12.17    0.82
  12  -4  -2   14.70    0.84
  -4  12  -2   12.33    0.61
   4 -12  -2   13.28    0.67
   4 -12  -2   12.90    0.80
  -4  12  -4   12.13    0.76
   4  12   4   11.35    0.82
 -12  -4   4   11.99    0.86
  12  -4  -4   11.87    0.79
 -12  -4   4   12.46    0.82
   4 -12  -4   11.94    0.71
  -4  12  -4   11.65    0.60
   4 -12  -4   11.77    0.80
  -4  12  -6   14.29    0.88
 -12  -4   6   14.84    0.90
  12  -4  -6   14.21    0.89
  -4  12  -6   14.38    0.66
   4 -12  -6   15.19    0.85
   4 -12  -6   14.43    0.90
 -12  -4   6   13.96    0.95
   4 -12  -8    3.36    0.45
 -12  -4   8    3.91    0.56
  -4  12  -8    3.42    0.32
  -4  12  -8    3.78    0.53
 -12  -4   8    4.37    0.53
  12  -4  -8    3.94    0.50
   4 -12  -8    3.86    0.51
   4 -12 -10    0.82    0.35
   4 -12 -10    1.22    0.31
 -12   4 -10    1.00    0.15
 -12  -4  10    0.52    0.35
 -12  -4  10    1.27    0.36
  -4  12 -10    1.44    0.39
  12  -4 -10    1.06    0.33
   4 -12 -12    1.41    0.37
 -12  -4  12    0.33    0.31
   4 -12 -12    1.23    0.38
  -4  12 -12    1.04    0.39
 -12  -4  12    1.11    0.36
  12  -4 -12    1.70    0.39
   4 -12 -14    0.70    0.34
   4 -12 -14    0.75    0.32
  -4  12 -14    0.78    0.37
 -12  -4  14    0.43    0.36
  12  -4 -14    0.28    0.24
   4 -12 -16    1.13    0.39
 -12  -4  16    0.89    0.38
  12  -4 -16    0.80    0.31
  -4  12 -16    0.23    0.32
   4 -12 -16    0.69    0.38
   4 -12 -18    0.26    0.32
   4 -12 -18    0.86    0.33
 -12  -4  18    0.32    0.33
  -4  12 -18    0.90    0.39
  12  -4 -18    0.69    0.32
   4 -12 -20    1.47    0.43
  -4  12 -20    1.75    0.52
   4 -12 -20    0.75    0.35
 -12  -4  20    1.19    0.45
  12  -4 -20    1.27    0.44
  -5 -12 -19    0.01    0.29
   5  12 -19   -0.03    0.33
  12   5 -19    0.72    0.29
   5  12 -17    1.26    0.41
  12   5 -17    1.00    0.29
   5  12 -15    0.39    0.28
  12   5 -15   -0.20    0.23
   5  12 -13    1.29    0.37
  12   5 -13    1.45    0.32
  -5 -12 -13    2.02    0.36
   5  12 -11    4.30    0.56
 -12   5  11    4.31    0.36
  12   5 -11    4.04    0.46
  -5 -12 -11    4.20    0.46
  12  -5  11    4.40    0.33
   5  12  -9    0.09    0.24
  12  -5   9    0.15    0.18
  12   5  -9    0.53    0.22
 -12   5   9    0.15    0.20
  -5  12   7    7.11    0.66
  12   5  -7    5.58    0.50
  -5 -12  -7    5.79    0.54
 -12  -5  -5   13.97    0.79
  12   5  -5   12.87    0.51
  -5  12   5   14.24    0.88
  12  -5   5   13.46    0.85
   5 -12   5   13.47    0.66
  12   5  -5   13.80    0.77
  -5  12   5   14.21    0.60
  -5 -12  -5   13.38    0.82
 -12  -5  -3    2.33    0.38
  12   5  -3    2.22    0.33
  12  -5   3    2.24    0.38
   5 -12   3    1.78    0.25
  -5  12   3    1.92    0.37
  -5 -12  -3    1.62    0.37
   5 -12   3    2.07    0.40
 -12  -5  -1   11.06    0.76
  12   5  -1   10.84    0.69
  12  -5   1   11.15    0.76
 -12   5   1   11.01    0.47
  -5 -12  -1   11.48    0.77
   5 -12   1   11.24    0.62
   5 -12   1   11.80    0.78
   5  12  -1   10.35    0.74
   5  12   1   12.20    0.80
 -12  -5   1   11.31    0.79
  -5 -12   1   10.77    0.43
  -5 -12   1   10.03    0.40
  -5 -12   1   11.89    0.81
  12  -5  -1   11.03    0.75
   5 -12  -1   13.54    0.84
   5 -12  -1   12.38    0.67
   5 -12  -1   11.39    0.63
 -12  -5   3    1.67    0.38
   5  12   3    1.65    0.39
   5 -12  -3    2.62    0.46
  12  -5  -3    2.03    0.34
   5 -12  -3    2.39    0.33
  -5  12  -5   13.81    0.85
 -12  -5   5   13.00    0.92
 -12  -5   5   13.42    0.88
  12  -5  -5   13.88    0.88
   5 -12  -5   13.09    0.79
  -5  12  -5   13.11    0.67
   5 -12  -5   12.92    0.86
   5 -12  -7    5.40    0.59
 -12  -5   7    4.78    0.61
  -5  12  -7    4.58    0.56
  12  -5  -7    6.17    0.61
  -5  12  -7    5.58    0.43
 -12  -5   7    5.57    0.60
   5 -12  -7    5.82    0.55
   5 -12  -9    0.30    0.22
 -12  -5   9    0.68    0.35
  -5  12  -9   -0.19    0.30
   5 -12  -9    0.39    0.32
 -12  -5   9    0.16    0.31
  12  -5  -9    0.49    0.27
   5 -12 -11    4.96    0.58
 -12  -5  11    4.29    0.60
  -5  12 -11    4.48    0.58
 -12  -5  11    4.92    0.58
  12  -5 -11    4.10    0.54
  -5 -12  13    1.30    0.40
   5 -12 -13    1.71    0.40
 -12  -5  13    1.84    0.46
  -5  12 -13    1.52    0.38
  12  -5 -13    1.33    0.38
  -5 -12  15    0.94    0.37
   5 -12 -15   -0.19    0.26
 -12  -5  15   -0.05    0.31
  -5  12 -15   -0.16    0.31
  12  -5 -15    0.02    0.26
   5 -12 -17    0.90    0.34
  -5 -12  17    1.10    0.41
 -12  -5  17    1.08    0.41
  -5  12 -17    0.86    0.41
  12  -5 -17    1.00    0.35
  -5 -12  19    0.64    0.34
   5 -12 -19    0.59    0.40
 -12  -5  19    0.35    0.33
  12  -5 -19    0.75    0.33
  12   6 -20    0.52    0.39
   6  12 -20    0.04    0.43
   6  12 -18   -0.36    0.33
   6  12 -16    0.44    0.33
  12   6 -16    0.42    0.23
   6  12 -14    1.08    0.40
  12   6 -14    1.15    0.29
   6  12 -12    1.76    0.40
  12   6 -12    1.48    0.29
  -6 -12 -12    2.15    0.40
  12   6 -10    4.04    0.44
 -12   6  10    4.19    0.34
  -6 -12 -10    4.47    0.51
  12  -6  10    4.07    0.36
  12  -6   8    1.89    0.30
  12   6  -8    2.38    0.35
  -6 -12  -8    2.10    0.39
 -12  -6  -6    0.41    0.23
  12   6  -6    0.76    0.19
  12  -6   6    0.75    0.26
   6 -12   6    0.56    0.18
  -6  12   6    1.09    0.36
  12   6  -6    0.44    0.20
  -6  12   6    0.55    0.16
  -6 -12  -6    0.86    0.32
  12   6  -4    3.91    0.31
 -12  -6  -4    3.61    0.45
  -6  12   4    4.65    0.53
  12   6  -4    4.25    0.43
  12  -6   4    4.48    0.50
   6 -12   4    3.86    0.37
  -6 -12  -4    3.64    0.49
   6 -12   4    3.19    0.44
 -12   6   2    4.42    0.33
 -12  -6  -2    3.17    0.44
   6  12  -2    3.55    0.46
  -6  12   2    4.39    0.51
  12  -6   2    4.11    0.48
  12   6  -2    3.47    0.39
   6 -12   2    4.04    0.48
   6 -12   2    3.79    0.38
  -6 -12  -2    3.92    0.52
 -12  -6   0    0.64    0.33
   6  12   0    0.76    0.29
   6 -12   0    0.74    0.30
  -6 -12   0    0.56    0.13
  12  -6   0    0.98    0.31
  -6 -12   0    0.91    0.34
   6 -12   0    0.76    0.21
 -12  -6   2    3.54    0.49
   6  12   2    3.53    0.47
  -6 -12   2    2.60    0.18
  -6 -12   2    3.67    0.51
   6 -12  -2    3.95    0.40
  12  -6  -2    3.65    0.45
   6 -12  -2    3.70    0.37
   6 -12  -2    4.05    0.49
 -12  -6   4    3.31    0.49
   6 -12  -4    3.35    0.46
   6  12   4    3.96    0.52
   6 -12  -4    3.74    0.32
   6 -12  -4    4.07    0.44
  12  -6  -4    3.97    0.48
 -12  -6   4    4.00    0.56
   6 -12  -6    0.01    0.31
 -12  -6   6    0.51    0.35
   6 -12  -6    0.66    0.26
  12  -6  -6    0.61    0.28
 -12  -6   6    0.95    0.38
   6 -12  -8    1.74    0.34
 -12  -6   8    1.52    0.42
 -12  -6   8    1.43    0.39
  12  -6  -8    1.41    0.35
   6 -12 -10    4.52    0.56
  -6 -12  10    3.50    0.54
 -12  -6  10    3.57    0.57
 -12  -6  10    3.46    0.51
  12  -6 -10    4.56    0.56
   6 -12 -12    2.08    0.41
  -6 -12  12    1.84    0.46
 -12  -6  12    2.09    0.50
  12  -6 -12    2.12    0.43
  -6 -12  14    1.04    0.41
   6 -12 -14    1.19    0.37
 -12  -6  14    0.54    0.36
  12  -6 -14    0.87    0.36
  -6 -12  16   -0.01    0.31
   6 -12 -16   -0.07    0.29
 -12  -6  16    0.14    0.32
  12  -6 -16    0.47    0.30
  -6 -12  18   -0.02    0.28
   6 -12 -18    0.27    0.29
 -12  -6  18   -0.08    0.37
  12  -6 -18   -0.15    0.29
   6 -12 -20    0.36    0.39
  12  -6 -20    0.87    0.40
  -6 -12  20    1.21    0.42
   7  12 -19    0.14    0.36
   7  12 -17    0.01    0.32
   7  12 -15    0.59    0.33
   7  12 -13    0.75    0.35
  12   7 -13    0.57    0.21
  12  -7  11    0.56    0.19
  12   7 -11    0.44    0.21
  -7 -12 -11    0.16    0.28
  -7 -12  -9    1.41    0.36
  12   7  -9    1.79    0.30
  12  -7   9    1.63    0.28
  12  -7   7    3.03    0.38
   7 -12   7    3.19    0.37
  12  -7   7    3.03    0.44
  12   7  -7    3.22    0.37
  -7 -12  -7    3.68    0.52
 -12  -7  -5    2.12    0.38
  12   7  -5    1.66    0.26
  -7  12   5    1.95    0.41
  12  -7   5    1.93    0.37
  12   7  -5    1.94    0.30
   7 -12   5    2.03    0.30
   7 -12   5    1.91    0.37
  -7 -12  -5    2.14    0.41
 -12  -7  -3    0.17    0.27
   7  12  -3    0.71    0.28
  -7  12   3    0.77    0.27
  -7 -12  -3    0.37    0.16
  12   7  -3    0.43    0.18
 -12   7   3    0.52    0.21
  12  -7   3    0.29    0.19
  12   7  -3    0.53    0.19
   7 -12   3    0.46    0.19
  -7 -12  -3    1.22    0.40
   7 -12   3    0.71    0.29
 -12  -7  -1    0.57    0.32
 -12   7   1    0.73    0.21
   7  12  -1    0.69    0.31
  -7 -12  -1    0.75    0.17
  12  -7   1    0.48    0.27
   7 -12   1    0.82    0.24
  -7 -12  -1    0.75    0.36
   7 -12   1    0.78    0.32
 -12  -7   1    0.26    0.25
   7  12   1    1.15    0.36
   7 -12  -1    0.32    0.29
  -7 -12   1    0.56    0.13
  12  -7  -1    0.25    0.20
  -7 -12   1    1.12    0.40
   7 -12  -1    0.47    0.19
 -12  -7   1    0.72    0.40
 -12  -7   3    0.64    0.35
   7 -12  -3    0.37    0.31
   7 -12  -3    0.20    0.17
   7  12   3    0.54    0.34
  -7 -12   3    0.52    0.36
  12  -7  -3    0.38    0.24
   7 -12  -3    0.46    0.21
  -7 -12   3    0.34    0.08
 -12  -7   3    0.47    0.35
   7 -12  -5    2.92    0.48
 -12  -7   5    2.32    0.49
   7 -12  -5    1.92    0.25
  12  -7  -5    2.24    0.39
 -12  -7   5    2.07    0.44
   7 -12  -5    2.25    0.37
 -12  -7   7    2.77    0.50
   7 -12  -7    3.22    0.43
 -12  -7   7    2.56    0.51
  12  -7  -7    3.74    0.49
  -7 -12   9    1.71    0.39
 -12  -7   9    1.42    0.48
 -12  -7   9    1.65    0.42
  12  -7  -9    2.06    0.41
   7 -12  -9    1.60    0.35
   7 -12 -11    0.36    0.29
 -12  -7  11   -0.12    0.31
 -12  -7  11    0.63    0.35
  -7 -12  11    0.38    0.31
  12  -7 -11    0.28    0.23
   7 -12 -13    0.70    0.33
  -7 -12  13    0.80    0.35
 -12  -7  13    0.50    0.40
  12  -7 -13    0.67    0.27
   7 -12 -15    0.79    0.32
  -7 -12  15    1.12    0.40
 -12  -7  15    0.91    0.42
  12  -7 -15    0.51    0.34
   7 -12 -17    0.12    0.28
  -7 -12  17    0.31    0.30
 -12  -7  17   -0.06    0.38
  12  -7 -17    0.19    0.28
  -7 -12  19    0.45    0.32
 -12  -7  19   -0.12    0.32
  12  -7 -19   -0.42    0.35
   8  12 -18   -0.62    0.40
   8  12 -16   -0.10    0.32
   8  12 -14    1.23    0.42
  12   8 -12    0.64    0.18
  -8 -12 -10    1.70    0.40
  12   8 -10    2.13    0.30
  12  -8  10    1.65    0.28
  12   8  -8    0.74    0.21
  -8 -12  -8    0.88    0.36
  12  -8   8    1.24    0.29
  12   8  -6    0.27    0.19
  12  -8   6    0.51    0.25
  12  -8   6    0.14    0.20
   8 -12   6    0.52    0.21
  12   8  -6    0.33    0.17
  -8  12   6    0.91    0.35
  -8 -12  -6    0.54    0.30
   8 -12   6    0.62    0.29
  -8  12   4    4.37    0.52
  12   8  -4    3.54    0.36
  12   8  -4    3.21    0.37
  12  -8   4    2.90    0.43
 -12   8   4    3.76    0.38
   8 -12   4    3.72    0.41
 -12  -8  -4    3.39    0.47
  -8 -12  -4    3.79    0.53
   8 -12   4    3.10    0.45
 -12  -8  -2    0.09    0.24
  -8  12   2    0.73    0.33
   8  12  -2    1.46    0.37
 -12   8   2    1.33    0.27
  -8 -12  -2    1.22    0.23
  12  -8   2    0.98    0.27
   8 -12   2    0.90    0.26
  -8 -12  -2    1.49    0.42
   8 -12   2    1.11    0.34
 -12  -8   0    2.34    0.47
   8 -12   0    2.14    0.42
   8  12   0    1.95    0.38
 -12  -8   0    2.49    0.50
  -8 -12   0    1.86    0.23
  12  -8   0    1.62    0.34
   8 -12   0    1.69    0.31
  -8 -12   0    2.34    0.47
   8 -12  -2    1.10    0.36
 -12  -8   2    0.87    0.37
   8  12   2    1.29    0.34
  -8 -12   2    1.24    0.39
  12  -8  -2    0.70    0.25
   8 -12  -2    1.39    0.30
 -12  -8   2    0.70    0.36
 -12  -8   4    3.55    0.51
  -8 -12   4    3.30    0.54
  12  -8  -4    3.88    0.50
   8 -12  -4    3.50    0.36
 -12  -8   4    3.94    0.56
   8 -12  -4    3.50    0.45
  -8 -12   6    0.28    0.31
 -12  -8   6    0.61    0.32
 -12  -8   6   -0.16    0.35
  12  -8  -6    0.71    0.32
   8 -12  -6    0.69    0.27
  -8 -12   8    0.62    0.34
 -12  -8   8    1.56    0.43
 -12  -8   8    0.57    0.33
  12  -8  -8    0.75    0.31
   8 -12  -8    0.75    0.28
  -8 -12  10    1.68    0.47
 -12  -8  10    1.15    0.45
   8 -12 -10    2.06    0.41
 -12  -8  10    1.84    0.44
  12  -8 -10    2.18    0.43
  -8 -12  12    1.06    0.43
 -12  -8  12   -0.28    0.35
  12  -8 -12    0.64    0.31
   8 -12 -12    0.49    0.29
   8 -12 -14    0.88    0.35
  -8 -12  14    0.79    0.36
 -12  -8  14    0.75    0.36
  12  -8 -14    1.52    0.42
   8 -12 -16    0.35    0.38
  -8 -12  16    0.63    0.37
 -12  -8  16   -0.08    0.34
  12  -8 -16   -0.02    0.31
   8 -12 -18    0.33    0.37
  -8 -12  18   -0.15    0.33
 -12  -8  18    0.39    0.37
  12  -8 -18   -0.10    0.28
   9  12 -17    0.50    0.36
   9  12 -15    0.82    0.39
  12   9  -9    0.92    0.21
  -9 -12  -9    1.14    0.40
  12  -9   9    0.98    0.29
  12   9  -7    0.45    0.22
  12  -9   7    0.43    0.24
   9 -12   7    0.52    0.22
  12  -9   7    0.31    0.20
  12   9  -7    0.37    0.15
  -9 -12  -7    0.09    0.30
   9 -12   7    0.04    0.25
  12   9  -5    6.42    0.50
  -9  12   5    6.85    0.63
  12  -9   5    6.95    0.61
  12  -9   5    5.74    0.58
   9 -12   5    6.73    0.57
  -9 -12  -5    7.57    0.71
   9 -12   5    6.66    0.61
   9  12  -3    1.79    0.36
  -9  12   3    1.95    0.38
 -12   9   3    1.58    0.32
  12   9  -3    2.04    0.32
  12  -9   3    1.33    0.31
   9 -12   3    1.97    0.35
  -9 -12  -3    1.74    0.42
   9 -12   3    1.97    0.40
 -12  -9  -1    3.07    0.49
  -9  12   1    2.82    0.42
 -12   9   1    2.93    0.36
   9  12  -1    3.05    0.43
  12  -9   1    3.18    0.45
   9 -12   1    2.52    0.36
  -9 -12  -1    2.84    0.48
 -12  -9  -1    2.29    0.46
   9 -12   1    2.81    0.46
 -12  -9   1    3.01    0.48
   9  12   1    2.33    0.42
  12  -9  -1    2.44    0.39
   9 -12  -1    2.61    0.37
  -9 -12   1    2.40    0.48
 -12  -9   1    1.95    0.44
   9 -12  -1    2.60    0.44
 -12  -9   3    1.24    0.43
  -9 -12   3    1.44    0.39
  12  -9  -3    1.55    0.35
   9 -12  -3    1.66    0.34
 -12  -9   3    2.03    0.49
  -9 -12   5    7.34    0.75
 -12  -9   5    6.59    0.71
 -12  -9   5    6.99    0.75
  12  -9  -5    7.17    0.67
  -9 -12   5    7.16    0.74
   9 -12  -5    6.94    0.64
 -12  -9   7    0.36    0.33
  -9 -12   7   -0.18    0.31
 -12  -9   7    0.19    0.32
  12  -9  -7    0.20    0.22
   9 -12  -7    0.55    0.25
  -9 -12   9    1.14    0.39
 -12  -9   9    0.46    0.33
 -12  -9   9    0.36    0.37
  12  -9  -9    0.91    0.34
   9 -12  -9    0.90    0.33
  -9 -12  11    1.92    0.46
 -12  -9  11    1.87    0.44
  12  -9 -11    2.60    0.51
   9 -12 -11    2.12    0.44
  -9 -12  13    0.07    0.30
 -12  -9  13    0.05    0.36
  12  -9 -13   -0.51    0.35
   9 -12 -13    0.12    0.28
  -9 -12  15    0.46    0.34
 -12  -9  15    0.69    0.40
   9 -12 -15    1.13    0.37
  12  -9 -15    1.55    0.43
   9 -12 -17    0.30    0.32
  -9 -12  17    0.27    0.38
 -12  -9  17    0.70    0.45
  12  -9 -17    0.70    0.37
  10  12 -18   -0.57    0.38
  10  12 -16    1.03    0.41
  12 -10  10    5.92    0.54
  10 -12   8    2.34    0.39
 -10 -12  -8    2.43    0.48
  12 -10   8    2.03    0.36
  12  10  -6    1.35    0.30
  12 -10   6    1.66    0.36
  10 -12   6    1.48    0.30
 -10  12   6    1.37    0.35
 -10 -12  -6    1.53    0.43
  10 -12   6    1.45    0.36
  12 -10   6    1.52    0.34
  12  10  -4    6.90    0.54
 -10  12   4    7.99    0.67
 -12  10   4    7.54    0.58
  12 -10   4    7.75    0.67
  10 -12   4    7.51    0.64
 -10 -12  -4    7.61    0.73
  10 -12   4    9.23    0.72
  12 -10   4    7.14    0.63
  10  12  -4    7.67    0.64
  10  12  -2    5.48    0.55
 -12  10   2    6.10    0.51
  12  10  -2    5.77    0.51
  12 -10   2    5.42    0.55
  10 -12   2    5.73    0.55
  10 -12   2    5.07    0.56
 -10 -12  -2    5.32    0.64
 -12 -10  -2    5.00    0.64
 -10  12   2    6.08    0.58
 -12 -10   0    6.06    0.65
  12 -10   0    5.91    0.60
  10 -12   0    6.01    0.58
  10  12   0    4.65    0.52
  10 -12   0    6.12    0.61
 -10 -12   0    5.08    0.61
 -12 -10   0    5.51    0.64
 -12 -10   2    4.87    0.64
  12 -10  -2    4.98    0.56
  10 -12  -2    5.12    0.54
 -10 -12   2    6.28    0.69
 -12 -10   2    5.07    0.63
 -10 -12   4    8.24    0.80
 -12 -10   4    8.49    0.80
 -10 -12   4    8.32    0.80
  12 -10  -4    8.18    0.74
  10 -12  -4    8.61    0.72
 -12 -10   4    7.34    0.76
 -10 -12   6    1.15    0.37
 -12 -10   6    1.53    0.41
 -10 -12   6    0.76    0.38
 -12 -10   6    1.22    0.46
  12 -10  -6    0.94    0.31
  10 -12  -6    2.12    0.41
 -10 -12   8    1.36    0.47
 -12 -10   8    1.79    0.48
 -12 -10   8    1.92    0.47
  12 -10  -8    2.60    0.45
  10 -12  -8    2.66    0.48
 -10 -12  10    4.91    0.68
 -12 -10  10    5.97    0.76
  12 -10 -10    6.68    0.72
  10 -12 -10    7.09    0.73
 -10 -12  12   -0.15    0.33
 -12 -10  12    0.21    0.31
  12 -10 -12   -0.10    0.28
  10 -12 -12   -0.16    0.24
 -10 -12  14    0.56    0.38
 -12 -10  14    0.80    0.46
  10 -12 -14    1.19    0.40
  12 -10 -14    0.89    0.35
 -10 -12  16    0.66    0.40
 -12 -10  16    0.95    0.50
  12 -10 -16    1.67    0.46
  10 -12 -16    0.95    0.37
 -10 -12  18   -0.08    0.37
 -12 -10  18    0.46    0.42
  12 -10 -18    0.75    0.41
  10 -12 -18    0.20    0.33
  11  12 -17    0.91    0.43
  11 -12   9    2.72    0.41
  12 -11   9    2.63    0.42
  12  11  -7    4.70    0.49
  12 -11   7    5.36    0.57
  11 -12   7    4.38    0.51
 -11 -12  -7    5.11    0.65
  11 -12   7    5.35    0.56
  12 -11   7    5.43    0.56
  12  11  -5   11.04    0.73
 -12  11   5   12.00    0.77
  12 -11   5   11.03    0.81
  11 -12   5    9.43    0.73
 -11 -12  -5   10.72    0.89
 -12 -11  -5   10.89    0.92
 -11  12   5   10.53    0.77
  11 -12   5   10.38    0.78
  12 -11   5   10.36    0.77
  11  12  -5    8.69    0.71
  12 -11   3   -0.05    0.26
 -11  12   3    0.06    0.25
  11 -12   3   -0.02    0.28
 -12  11   3    0.42    0.28
  11  12  -3    0.27    0.25
  12  11  -3    0.45    0.25
  12 -11   3    0.09    0.22
  11 -12   3    0.54    0.25
 -11 -12  -3   -0.26    0.38
 -12 -11  -3    0.28    0.31
  11  12  -1    6.22    0.58
  12 -11   1    7.33    0.66
  11 -12   1    7.31    0.64
 -11 -12  -1    6.99    0.74
  12  11  -1    7.46    0.62
 -12 -11  -1    6.78    0.73
  11 -12   1    7.41    0.69
 -12  11   1    7.81    0.61
 -11  12   1    9.31    0.68
 -12 -11   1    6.48    0.71
  12 -11  -1    7.73    0.68
  11 -12  -1    7.53    0.66
 -11 -12   1    6.90    0.74
 -12 -11   1    6.16    0.72
 -11 -12   3    0.04    0.27
 -12 -11   3    0.18    0.29
 -11 -12   3    0.24    0.32
  12 -11  -3    0.25    0.22
  11 -12  -3    0.50    0.28
 -12 -11   3    0.38    0.34
 -11 -12   5    8.80    0.87
 -12 -11   5    8.60    0.86
 -11 -12   5    9.52    0.88
 -12 -11   5    8.67    0.85
  12 -11  -5   10.43    0.85
  11 -12  -5   10.27    0.82
 -11 -12   7    5.78    0.74
 -12 -11   7    4.76    0.68
 -11 -12   7    5.15    0.68
 -12 -11   7    5.43    0.69
  12 -11  -7    4.96    0.62
  11 -12  -7    5.17    0.62
 -11 -12   9    1.48    0.46
 -12 -11   9    2.05    0.49
 -12 -11   9    2.31    0.55
  12 -11  -9    3.33    0.52
  11 -12  -9    2.18    0.45
 -11 -12  11    2.04    0.53
 -12 -11  11    1.37    0.46
  12 -11 -11    2.01    0.44
  11 -12 -11    2.65    0.50
 -11 -12  13    0.67    0.43
 -12 -11  13    0.55    0.40
  12 -11 -13    0.91    0.38
  11 -12 -13    1.45    0.42
 -11 -12  15    1.29    0.50
 -12 -11  15    1.27    0.46
  12 -11 -15    1.66    0.47
  11 -12 -15    1.86    0.46
 -11 -12  17   -0.15    0.39
 -12 -11  17    0.80    0.46
  11 -12 -17    0.82    0.38
  12 -11 -17    0.29    0.32
  12  12  -8    0.23    0.26
  12 -12   8   -0.07    0.24
  12  12  -6    1.03    0.30
  12 -12   6    0.47    0.25
 -12 -12  -6    1.07    0.46
  12 -12   6    0.97    0.34
  12  12  -4   11.55    0.79
 -12  12   4   12.83    0.83
  12 -12   4   12.30    0.87
 -12 -12  -4   11.84    0.96
  12 -12   4   12.18    0.88
  12 -12   2    2.37    0.45
 -12  12   2    2.93    0.44
  12  12  -2    2.96    0.43
  12 -12   2    2.92    0.44
 -12 -12  -2    2.51    0.53
  12 -12   0   -0.07    0.20
 -12 -12   0    0.80    0.37
 -12 -12   2    2.18    0.49
  12 -12  -2    2.50    0.41
 -12 -12   2    3.39    0.59
 -12 -12   4   10.84    0.96
 -12 -12   4   11.08    0.98
  12 -12  -4   12.39    0.91
 -12 -12   6    1.03    0.38
 -12 -12   6    0.87    0.44
  12 -12  -6    0.76    0.32
 -12 -12   8    0.67    0.37
 -12 -12   8    0.88    0.43
  12 -12  -8    0.67    0.35
 -12 -12  10    8.72    0.93
  12 -12 -10    9.57    0.90
 -12 -12  12    1.56    0.49
  12 -12 -12    0.87    0.37
 -12 -12  14   -0.19    0.36
  12 -12 -14    0.28    0.28
 -12 -12  16    0.92    0.52
  12 -12 -16    1.64    0.50
   0  13   1    4.51    0.53
 -13   0  -1    4.73    0.51
 -13   0   1    4.71    0.52
  13   0   1    3.83    0.46
  13   0  -1    3.81    0.45
   0 -13   1    4.46    0.28
   0  13  -1    3.92    0.42
   0 -13  -1    3.93    0.31
   0  13   1    3.99    0.39
 -13   0  -1    2.82    0.16
 -13   0  -3    1.73    0.32
   0  13   3    1.67    0.42
 -13   0   3    2.03    0.42
   0 -13   3    1.30    0.12
  13   0   3    2.10    0.35
  13   0  -3    1.64    0.32
   0  13  -3    1.43    0.33
   0  13   3    1.15    0.22
   0 -13  -3    1.99    0.27
   0  13   5   12.48    0.88
 -13   0  -5   13.92    0.74
   0 -13  -5   13.20    0.74
  13   0  -5   12.92    0.83
   0  13  -5   12.80    0.83
   0  13   5   11.93    0.55
   0 -13  -5   13.95    0.88
 -13   0  -7    0.32    0.18
   0 -13  -7    0.72    0.26
   0  13   7    0.31    0.11
  13   0  -7    0.09    0.19
   0  13  -7    0.13    0.24
   0 -13  -7    1.07    0.34
 -13   0   7    0.46    0.32
   0  13  -9    0.45    0.29
 -13   0  -9    0.50    0.17
   0 -13  -9    0.32    0.23
  13   0  -9    0.24    0.24
 -13   0   9    0.69    0.27
   0 -13  -9    0.14    0.26
   0  13 -11    3.45    0.56
   0 -13 -11    3.35    0.50
 -13   0  11    3.01    0.42
  13   0 -11    3.22    0.47
   0 -13 -11    3.26    0.49
   0  13 -13    0.60    0.33
   0 -13 -13    0.45    0.30
 -13   0  13    0.40    0.26
  13   0 -13    0.58    0.29
   0 -13 -13    0.33    0.28
   0 -13 -15   -0.21    0.28
 -13   0  15   -0.07    0.40
   0  13 -15   -0.13    0.33
  13   0 -15    0.00    0.22
   0 -13 -15    0.41    0.31
   0 -13 -17    0.23    0.28
   0 -13 -17    0.29    0.28
 -13   0  17    0.73    0.43
   0  13 -17    0.58    0.35
  13   0 -17    0.42    0.29
   0 -13 -19    1.43    0.37
   0 -13 -19    1.59    0.47
 -13   0  19    1.78    0.49
   0  13 -19    2.00    0.52
  13   0 -19    1.60    0.43
  -1 -13 -20    1.00    0.45
 -13   1  20    1.33    0.44
   1  13 -20    1.14    0.46
  13   1 -20    0.53    0.32
  -1 -13 -18    1.14    0.35
  -1 -13 -18    1.08    0.40
   1  13 -18    0.98    0.42
  13   1 -18    0.36    0.31
   1  13 -16    0.15    0.30
  -1 -13 -16    0.73    0.34
  -1 -13 -16    0.96    0.34
  13   1 -16    0.86    0.32
   1  13 -14    2.68    0.52
  -1 -13 -14    3.37    0.48
  -1 -13 -14    2.67    0.48
  13   1 -14    2.63    0.48
  -1 -13 -12    0.94    0.30
 -13   1  12    1.17    0.30
   1  13 -12    0.54    0.33
  13   1 -12    0.70    0.26
  -1 -13 -12    0.72    0.28
  -1 -13 -10    5.22    0.57
  -1 -13 -10    4.28    0.53
  13   1 -10    4.22    0.50
 -13   1  10    3.72    0.44
   1  13 -10    4.00    0.53
  -1 -13  -8    4.34    0.49
 -13  -1  -8    4.43    0.39
  13   1  -8    4.17    0.49
   1  13  -8    4.24    0.52
 -13   1   8    3.62    0.45
  -1 -13  -8    4.37    0.51
 -13  -1  -6    8.19    0.55
  -1  13   6    8.15    0.73
  -1  13   6    6.64    0.36
  13   1  -6    7.43    0.62
   1  13  -6    7.10    0.65
  -1 -13  -6    8.34    0.60
  -1 -13  -4    1.84    0.27
 -13  -1  -4    1.88    0.33
   1 -13   4    1.59    0.15
  -1  13   4    1.74    0.38
  13  -1   4    1.95    0.34
  -1  13   4    1.66    0.24
   1  13  -4    1.63    0.33
  13   1  -4    1.99    0.33
 -13  -1  -2    3.20    0.24
  -1  13   2    5.06    0.55
  -1  13   2    3.61    0.35
 -13  -1  -2    3.55    0.43
  13  -1   2    3.95    0.47
   1  13  -2    3.30    0.40
   1 -13   2    3.94    0.27
  13   1  -2    4.34    0.47
  -1 -13  -2    3.97    0.34
 -13  -1   0   15.23    0.89
  13   1   0   15.02    0.88
  13  -1   0   14.78    0.88
   1 -13   0   13.83    0.60
   1  13   0   13.18    0.74
  -1 -13   0   15.01    0.57
  -1  13   0   14.32    0.75
   1  13   0   13.50    0.88
  -1  13  -2    3.74    0.42
   1  13   2    4.18    0.52
 -13  -1   2    3.79    0.49
 -13   1  -2    4.38    0.47
  13   1   2    4.12    0.47
  -1 -13   2    3.31    0.19
  13  -1  -2    4.24    0.47
   1  13   2    4.42    0.39
   1 -13  -2    3.96    0.35
   1 -13  -4    1.77    0.27
  -1  13  -4    1.25    0.31
 -13   1  -4    1.53    0.33
 -13  -1   4    1.40    0.38
   1  13   4    1.20    0.22
   1  13   4    1.68    0.39
  13  -1  -4    1.06    0.29
   1 -13  -4    1.74    0.38
 -13   1  -6    8.01    0.53
   1  13   6    8.38    0.75
 -13  -1   6    7.34    0.72
  13  -1  -6    7.57    0.65
   1  13   6    7.38    0.42
  -1  13  -6    8.09    0.67
   1 -13  -6    7.59    0.68
   1 -13  -6    8.09    0.61
 -13   1  -8    3.95    0.34
   1 -13  -8    3.50    0.45
  -1  13  -8    4.12    0.54
 -13  -1   8    4.55    0.60
   1 -13  -8    4.83    0.56
  13  -1  -8    3.95    0.49
   1  13   8    3.09    0.22
 -13  -1   8    4.67    0.52
 -13   1 -10    4.41    0.29
   1 -13 -10    4.56    0.54
 -13  -1  10    4.44    0.59
  -1  13 -10    4.77    0.61
 -13  -1  10    4.05    0.49
  13  -1 -10    4.56    0.55
   1 -13 -10    4.78    0.55
   1 -13 -12    0.51    0.28
 -13  -1  12    1.15    0.39
  -1  13 -12    0.79    0.33
 -13  -1  12    0.60    0.30
  13  -1 -12    0.72    0.29
   1 -13 -12    0.47    0.29
   1 -13 -14    2.06    0.47
 -13  -1  14    2.81    0.55
  -1  13 -14    3.05    0.53
  13  -1 -14    1.92    0.41
   1 -13 -14    3.16    0.50
   1 -13 -16    0.89    0.37
 -13  -1  16    0.46    0.38
  -1  13 -16    0.48    0.35
  13  -1 -16    1.45    0.41
   1 -13 -16    1.43    0.40
  -1  13 -18    1.05    0.42
   1 -13 -18    0.65    0.37
 -13  -1  18    0.27    0.32
  13  -1 -18    1.54    0.41
   1 -13 -18    1.13    0.39
   1 -13 -20    0.63    0.41
 -13  -1  20    0.95    0.38
  -1  13 -20    1.02    0.43
  13  -1 -20    0.98    0.39
   1 -13 -20    1.45    0.40
  -2 -13 -19    2.13    0.46
   2  13 -19    2.71    0.56
  13   2 -19    3.09    0.51
   2  13 -17    0.11    0.35
  -2 -13 -17    0.33    0.29
  13   2 -17    0.39    0.25
  -2 -13 -15    0.07    0.28
  13   2 -15    0.16    0.22
   2  13 -15   -0.06    0.29
  -2 -13 -13    1.69    0.42
 -13   2  13    2.24    0.36
  13   2 -13    2.39    0.42
   2  13 -13    2.19    0.46
  -2 -13 -11    5.15    0.58
  -2 -13 -11    4.25    0.40
   2  13 -11    5.12    0.62
 -13   2  11    4.65    0.46
  13   2 -11    4.22    0.51
 -13  -2  -9    1.82    0.26
  -2 -13  -9    1.29    0.31
  -2 -13  -9    1.79    0.30
   2  13  -9    1.44    0.37
  13   2  -9    1.67    0.33
 -13   2   9    2.15    0.35
 -13  -2  -7    4.09    0.40
  -2 -13  -7    3.48    0.44
   2  13  -7    3.66    0.50
  -2  13   7    3.61    0.54
  13   2  -7    3.19    0.42
  -2 -13  -5   15.82    0.81
 -13  -2  -5   15.40    0.81
  -2  13   5   15.91    0.97
  13  -2   5   15.05    0.92
  13   2  -5   15.67    0.90
   2  13  -5   14.77    0.88
  -2  13   3   17.14    1.01
 -13  -2  -3   16.44    0.63
 -13  -2  -3   17.86    0.92
  13  -2   3   16.29    0.94
  13   2  -3   17.33    0.93
   2 -13   3   17.73    0.63
  -2  13   3   16.11    0.78
   2  13  -3   15.80    0.89
  -2 -13  -3   17.49    0.76
  -2  13   3   16.15    0.70
 -13  -2  -1   14.66    0.86
  13   2  -1   13.54    0.82
  13  -2   1   13.05    0.84
   2 -13   1   13.49    0.60
   2  13  -1   12.49    0.74
  -2  13   1   13.36    0.69
  -2 -13  -1   13.89    0.58
  -2  13   1   14.65    0.90
 -13  -2   1   13.88    0.86
  13   2   1   14.31    0.85
  13  -2  -1   14.26    0.87
   2  13   1   13.10    0.72
   2 -13  -1   13.11    0.64
  -2 -13   1   11.89    0.44
   2 -13  -1   13.77    0.86
  -2  13  -1   13.47    0.75
   2  13   1   13.41    0.88
   2  13   3   17.40    1.00
  -2  13  -3   16.75    0.65
 -13  -2   3   17.83    1.02
   2 -13  -3   17.36    0.99
  13   2   3   16.39    0.93
  13  -2  -3   17.21    0.96
   2  13   3   15.69    0.75
   2 -13  -3   16.45    0.79
  -2  13  -3   17.01    0.89
  -2  13  -5   13.50    0.54
   2  13   5   13.98    0.91
 -13  -2   5   16.08    1.01
 -13   2  -5   15.80    0.79
  13  -2  -5   15.25    0.93
   2  13   5   13.74    0.66
   2 -13  -5   14.55    0.79
   2 -13  -5   15.63    0.94
  -2  13  -5   14.07    0.87
   2 -13  -7    3.95    0.45
   2 -13  -7    3.41    0.49
 -13   2  -7    3.45    0.34
 -13  -2   7    3.50    0.56
  -2  13  -7    3.55    0.48
   2  13   7    3.50    0.30
  13  -2  -7    4.11    0.50
 -13  -2   7    4.07    0.51
   2 -13  -9    1.69    0.33
   2  13   9    0.97    0.15
 -13   2  -9    1.67    0.22
 -13  -2   9    1.63    0.46
  -2  13  -9    1.34    0.37
  13  -2  -9    1.58    0.36
 -13  -2   9    1.03    0.33
   2 -13  -9    2.06    0.42
   2 -13 -11    5.03    0.57
 -13  -2  11    4.13    0.64
  13  -2 -11    5.35    0.60
 -13  -2  11    4.17    0.52
  -2  13 -11    4.25    0.58
   2 -13 -11    5.39    0.60
   2 -13 -13    2.05    0.43
 -13  -2  13    3.23    0.57
 -13  -2  13    1.77    0.40
  13  -2 -13    3.01    0.47
  -2  13 -13    2.38    0.49
   2 -13 -13    2.50    0.46
  -2  13 -15   -0.05    0.33
   2 -13 -15   -0.19    0.27
 -13  -2  15   -0.15    0.32
  13  -2 -15    0.51    0.31
   2 -13 -15    0.03    0.31
   2 -13 -17    0.13    0.26
 -13  -2  17    0.78    0.42
  -2  13 -17    0.03    0.32
  13  -2 -17    0.51    0.32
   2 -13 -17    0.86    0.40
   2 -13 -19    1.99    0.50
 -13  -2  19    2.25    0.54
  -2  13 -19    3.07    0.61
  13  -2 -19    2.46    0.49
   2 -13 -19    1.97    0.45
   3  13 -20    0.60    0.43
  -3 -13 -20    0.51    0.37
  13   3 -20    0.20    0.24
   3  13 -18    0.86    0.37
  -3 -13 -18    0.29    0.35
  13   3 -18    1.02    0.33
  -3 -13 -16    0.29    0.26
   3  13 -16    0.48    0.35
  13   3 -16    0.72    0.27
  -3 -13 -14    0.33    0.25
   3  13 -14    0.63    0.33
  13   3 -14    0.49    0.25
  -3 -13 -12    4.71    0.61
 -13   3  12    5.42    0.46
  -3 -13 -12    5.49    0.48
  13   3 -12    5.40    0.56
   3  13 -12    5.95    0.67
  -3 -13 -10    1.65    0.38
   3  13 -10    1.30    0.37
  -3 -13 -10    1.18    0.25
  13   3 -10    1.47    0.33
 -13   3  10    1.51    0.30
 -13  -3  -8    4.04    0.39
  -3 -13  -8    4.09    0.49
   3  13  -8    4.67    0.56
  13   3  -8    4.75    0.50
  -3 -13  -8    4.53    0.47
 -13  -3  -6   28.77    1.15
  -3 -13  -6   29.05    1.20
  -3  13   6   27.89    1.33
  13  -3   6   28.33    1.32
  -3 -13  -6   29.73    1.20
  13   3  -6   28.75    1.25
   3  13  -6   28.41    1.31
   3  13  -4    1.56    0.32
 -13  -3  -4    1.89    0.34
  -3 -13  -4    2.08    0.29
 -13  -3  -4    1.76    0.26
  -3  13   4    2.55    0.46
   3 -13   4    2.40    0.24
  13  -3   4    2.30    0.37
  13   3  -4    2.28    0.35
  -3  13   4    2.00    0.30
  -3  13   2    9.58    0.55
 -13  -3  -2   10.19    0.72
  -3  13   2   11.06    0.80
  13  -3   2   10.94    0.78
  13   3  -2   10.19    0.70
   3 -13   2    9.35    0.50
   3  13  -2    9.72    0.68
  -3 -13  -2    9.98    0.52
 -13  -3   0   59.28    1.97
  -3  13   0   55.92    1.66
   3 -13   0   59.05    1.95
  13   3   0   57.79    1.90
  13  -3   0   57.12    1.95
   3 -13   0   59.42    1.62
  -3 -13   0   54.16    1.37
  -3  13   0   56.55    1.69
   3  13   0   57.71    1.97
   3  13   2    9.45    0.75
  -3  13  -2    9.78    0.54
 -13  -3   2   10.49    0.79
  13   3   2    9.28    0.69
  13  -3  -2    8.90    0.70
   3 -13  -2    9.95    0.59
   3 -13  -2   10.06    0.75
  -3  13  -2    9.60    0.65
  -3  13  -4    1.66    0.35
  -3  13  -4    2.42    0.26
 -13  -3   4    2.13    0.44
   3  13   4    2.16    0.45
  13  -3  -4    2.84    0.42
   3 -13  -4    2.77    0.47
   3 -13  -4    2.49    0.33
   3  13   6   28.07    1.36
  -3  13  -6   28.62    1.30
 -13  -3   6   29.22    1.42
 -13   3  -6   30.46    1.12
  13  -3  -6   28.56    1.33
 -13  -3   6   27.75    1.30
   3 -13  -6   29.59    1.23
  -3  13  -6   28.36    0.92
   3 -13  -6   30.03    1.35
  -3  13  -8    4.57    0.55
   3 -13  -8    4.50    0.50
 -13   3  -8    4.80    0.38
 -13  -3   8    4.55    0.60
  13  -3  -8    4.86    0.55
 -13  -3   8    4.19    0.53
   3 -13  -8    4.43    0.53
  -3  13 -10    0.98    0.33
   3 -13 -10    1.26    0.33
 -13  -3  10    1.01    0.41
 -13  -3  10    1.06    0.33
  13  -3 -10    1.81    0.38
   3 -13 -10    1.06    0.38
  -3  13 -12    5.66    0.68
 -13  -3  12    5.07    0.68
 -13  -3  12    4.56    0.55
  13  -3 -12    6.09    0.66
   3 -13 -12    6.34    0.66
   3 -13 -12    6.17    0.66
   3 -13 -14    0.59    0.31
 -13  -3  14    0.60    0.34
   3 -13 -14    0.51    0.33
  -3  13 -14    0.29    0.32
  13  -3 -14    0.66    0.30
   3 -13 -16    0.99    0.38
 -13  -3  16    0.84    0.45
  -3  13 -16    0.98    0.41
  13  -3 -16    1.19    0.41
   3 -13 -16    0.74    0.38
  -3  13 -18    0.63    0.34
   3 -13 -18    1.15    0.41
 -13  -3  18    0.60    0.37
   3 -13 -18    0.63    0.35
  13  -3 -18    0.62    0.30
   3 -13 -20    0.89    0.42
 -13  -3  20   -0.03    0.45
   3 -13 -20   -0.22    0.35
  -3  13 -20    0.75    0.41
  13  -3 -20    0.67    0.36
  13   4 -19    0.44    0.25
   4  13 -19    0.43    0.35
  -4 -13 -17   -0.25    0.39
  13   4 -17   -0.25    0.23
   4  13 -17    0.66    0.41
  -4 -13 -15    0.20    0.29
   4  13 -15   -0.20    0.33
  13   4 -15    0.07    0.21
  -4 -13 -13    0.69    0.31
   4  13 -13    0.82    0.35
  13   4 -13    1.24    0.31
  -4 -13 -13    0.91    0.28
   4  13 -11    0.92    0.31
  -4 -13 -11    1.55    0.37
  13   4 -11    1.20    0.30
 -13   4  11    1.69    0.29
  -4 -13 -11    1.28    0.29
  -4 -13  -9    5.98    0.60
   4  13  -9    4.49    0.56
  -4 -13  -9    6.03    0.53
  13   4  -9    5.14    0.53
 -13   4   9    5.35    0.46
 -13  -4  -7    1.33    0.29
   4  13  -7    1.17    0.35
  -4 -13  -7    1.03    0.28
  13   4  -7    0.71    0.10
  -4  13   7    1.55    0.44
  13   4  -7    1.07    0.27
  -4 -13  -7    0.78    0.29
 -13  -4  -5   13.29    0.78
 -13  -4  -5   10.20    0.62
  -4  13   5   13.40    0.89
  -4 -13  -5   12.79    0.73
  13  -4   5   13.69    0.88
   4 -13   5   13.42    0.61
  13   4  -5   12.65    0.78
  -4 -13  -5   12.97    0.80
  -4  13   5   12.44    0.59
  -4  13   3   23.29    1.17
 -13  -4  -3   22.88    1.09
  -4 -13  -3   22.74    0.92
  13  -4   3   23.49    1.17
  13   4  -3   23.71    1.09
   4 -13   3   23.11    0.87
  -4 -13  -3   25.01    1.15
  -4  13   3   22.74    0.94
 -13  -4  -3   21.12    0.82
  -4 -13  -1   11.53    0.53
 -13   4   1   10.09    0.38
 -13  -4  -1   12.36    0.82
  13   4  -1   11.39    0.74
  13  -4   1   10.96    0.77
   4 -13   1   12.21    0.62
   4 -13   1   11.95    0.82
   4  13  -1   11.29    0.80
  -4  13   1   12.27    0.82
   4  13   1   11.99    0.84
  -4  13  -1   10.94    0.66
 -13  -4   1   11.58    0.82
  13   4   1   11.21    0.74
  -4 -13   1    9.27    0.36
  13  -4  -1   11.53    0.79
   4 -13  -1   11.49    0.64
  -4 -13   1    8.93    0.36
   4 -13  -1   12.51    0.83
  -4  13  -3   22.49    1.05
   4  13   3   21.26    1.13
 -13  -4   3   22.65    1.20
  13  -4  -3   24.66    1.19
   4 -13  -3   23.49    1.01
   4 -13  -3   23.23    1.18
  -4  13  -3   21.87    0.89
  -4  13  -5   12.55    0.84
 -13  -4   5   12.81    0.93
   4  13   5   13.28    0.91
  13  -4  -5   13.71    0.89
 -13  -4   5   13.07    0.89
   4 -13  -5   13.54    0.79
  -4  13  -5   13.22    0.64
   4 -13  -5   13.83    0.91
   4 -13  -7    1.48    0.33
 -13  -4   7    1.53    0.40
  13  -4  -7    1.11    0.33
  -4  13  -7    1.31    0.36
 -13  -4   7    1.35    0.38
   4 -13  -7    1.14    0.37
 -13   4  -9    5.83    0.39
 -13  -4   9    5.40    0.65
 -13  -4   9    5.19    0.59
  -4  13  -9    4.60    0.59
  13  -4  -9    5.18    0.59
   4 -13  -9    5.57    0.59
   4 -13  -9    5.01    0.61
   4 -13 -11    1.57    0.39
 -13  -4  11    0.97    0.38
 -13  -4  11    1.28    0.39
  13  -4 -11    1.53    0.37
  -4  13 -11    1.07    0.38
   4 -13 -11    1.05    0.38
  -4  13 -13    0.48    0.33
 -13  -4  13   -0.38    0.36
   4 -13 -13    0.36    0.27
  13  -4 -13    0.41    0.26
   4 -13 -13    0.79    0.35
   4 -13 -15    0.66    0.35
 -13  -4  15    0.43    0.35
  -4  13 -15    0.22    0.30
  13  -4 -15   -0.26    0.31
   4 -13 -15   -0.11    0.30
   4 -13 -17    0.33    0.32
   4 -13 -17   -0.26    0.32
 -13  -4  17    0.31    0.36
  13  -4 -17   -0.01    0.27
  -4  13 -17    0.36    0.37
   4 -13 -19    1.23    0.44
 -13  -4  19    0.65    0.46
  -4  13 -19    1.28    0.50
  13  -4 -19    0.73    0.37
   4 -13 -19    0.53    0.37
  -5 -13 -18   -0.14    0.32
   5  13 -18    0.03    0.31
  13   5 -18    0.35    0.26
  -5 -13 -16    0.01    0.29
   5  13 -16   -0.32    0.36
  13   5 -16    0.49    0.28
   5  13 -14    0.12    0.28
  13   5 -14    0.26    0.21
   5  13 -12    0.19    0.25
  13   5 -12   -0.04    0.19
  -5 -13 -12   -0.09    0.25
   5  13 -10    0.44    0.26
  13   5 -10    1.30    0.28
  -5 -13 -10    1.28    0.30
 -13   5  10    0.52    0.21
  13  -5  10    1.71    0.26
   5  13  -8    4.86    0.56
  13   5  -8    4.73    0.49
  -5 -13  -8    4.50    0.51
  13   5  -8    3.88    0.28
 -13  -5  -6    3.11    0.41
  13   5  -6    2.49    0.21
   5 -13   6    3.43    0.33
  13  -5   6    2.87    0.45
  -5  13   6    3.15    0.49
  13   5  -6    3.24    0.41
  -5 -13  -6    3.70    0.48
 -13  -5  -4    1.19    0.26
  -5  13   4    1.38    0.41
  13  -5   4    0.77    0.29
  13   5  -4    1.22    0.28
   5 -13   4    1.09    0.22
  -5 -13  -4    1.67    0.38
  -5  13   4    1.43    0.27
 -13  -5  -4    1.18    0.31
 -13  -5  -2    5.98    0.58
 -13   5   2    5.48    0.30
  -5 -13  -2    5.59    0.41
  -5  13   2    6.46    0.62
  13   5  -2    5.72    0.52
  13  -5   2    6.08    0.59
   5 -13   2    5.67    0.44
  -5 -13  -2    6.00    0.60
   5  13  -2    5.71    0.58
   5 -13   2    5.79    0.58
   5  13   0   17.78    1.01
 -13  -5   0   18.18    1.04
  13   5   0   20.08    0.99
  -5 -13   0   16.63    0.61
  13  -5   0   18.56    1.02
  -5 -13   0   20.76    1.10
   5 -13   0   18.95    0.85
   5 -13   0   18.57    1.03
  -5 -13   0   17.53    0.64
 -13  -5   2    5.76    0.62
   5  13   2    4.99    0.56
  13  -5  -2    5.38    0.56
   5 -13  -2    5.96    0.49
   5 -13  -2    6.23    0.62
 -13  -5   4    0.52    0.32
   5  13   4    0.79    0.36
  -5  13  -4    1.41    0.36
  13  -5  -4    1.36    0.33
   5 -13  -4    1.38    0.29
 -13  -5   4    1.54    0.43
   5 -13  -4    1.27    0.34
 -13  -5   6    3.05    0.51
  13  -5  -6    3.16    0.47
  -5  13  -6    3.28    0.46
 -13  -5   6    3.09    0.51
   5 -13  -6    3.62    0.44
   5 -13  -6    3.50    0.53
 -13  -5   8    4.50    0.62
  -5  13  -8    3.63    0.53
   5 -13  -8    4.18    0.50
  13  -5  -8    5.04    0.58
 -13  -5   8    4.30    0.58
   5 -13  -8    3.53    0.52
   5 -13 -10    0.71    0.38
   5 -13 -10    1.68    0.37
  -5  13 -10    0.52    0.32
 -13  -5  10    0.79    0.36
 -13  -5  10    0.95    0.37
  13  -5 -10    1.27    0.35
   5 -13 -12    0.15    0.30
   5 -13 -12    0.62    0.30
 -13  -5  12   -0.51    0.37
  -5  13 -12    0.27    0.30
 -13  -5  12   -0.37    0.30
  13  -5 -12   -0.22    0.27
   5 -13 -14   -0.55    0.42
  -5  13 -14   -0.07    0.35
   5 -13 -14    0.63    0.31
 -13  -5  14    0.14    0.36
  13  -5 -14   -0.22    0.28
   5 -13 -16   -0.50    0.38
   5 -13 -16   -0.47    0.35
 -13  -5  16   -0.13    0.32
  -5  13 -16    0.47    0.37
  13  -5 -16    0.16    0.26
   5 -13 -18   -0.06    0.34
   5 -13 -18    0.30    0.31
 -13  -5  18    0.94    0.48
  13  -5 -18    0.16    0.29
   6  13 -19    0.21    0.33
   6  13 -17    1.02    0.43
   6  13 -15    1.13    0.39
  13   6 -15    0.59    0.24
   6  13 -13    1.14    0.38
  13   6 -13    1.67    0.32
  -6 -13 -13    0.92    0.31
   6  13 -11    0.34    0.27
  13   6 -11    0.61    0.21
  -6 -13 -11    0.56    0.30
  13   6  -9    0.72    0.24
  -6 -13  -9    0.08    0.25
  13  -6   9    0.19    0.18
  13   6  -7    2.02    0.23
  13  -6   7    1.82    0.37
  13   6  -7    2.63    0.36
  -6  13   7    1.83    0.43
  -6 -13  -7    1.61    0.36
 -13  -6  -5    3.10    0.42
   6 -13   5    3.14    0.35
  -6  13   5    3.82    0.52
  13  -6   5    3.29    0.44
  13   6  -5    2.76    0.37
  -6 -13  -5    3.60    0.48
 -13  -6  -3    1.42    0.33
  -6  13   3    2.10    0.43
  13   6  -3    1.40    0.29
  13  -6   3    1.22    0.31
   6 -13   3    1.18    0.24
  -6 -13  -3    1.55    0.38
   6 -13   3    1.27    0.35
   6 -13   1    0.70    0.30
  -6  13   1    1.26    0.35
 -13  -6  -1    1.03    0.35
 -13   6   1    0.84    0.19
   6  13  -1    0.67    0.31
  -6 -13  -1    0.88    0.17
  13  -6   1    0.82    0.28
  -6 -13  -1    1.12    0.35
   6 -13   1    0.83    0.22
 -13  -6   1    0.67    0.33
  -6 -13   1    0.79    0.13
   6  13   1    1.24    0.37
  -6 -13   1    0.57    0.11
  -6 -13   1    1.03    0.37
  13  -6  -1    0.76    0.28
   6 -13  -1    1.36    0.26
   6 -13  -1    1.30    0.36
 -13  -6   3    1.40    0.40
   6  13   3    1.16    0.35
  13  -6  -3    1.24    0.32
   6 -13  -3    1.51    0.29
 -13  -6   3    1.37    0.40
   6 -13  -3    2.08    0.43
 -13  -6   5    3.39    0.52
  13  -6  -5    2.32    0.42
 -13  -6   5    2.25    0.46
   6 -13  -5    3.38    0.44
   6 -13  -5    3.42    0.53
 -13  -6   7    2.04    0.44
   6 -13  -7    1.92    0.36
   6 -13  -7    2.04    0.43
  13  -6  -7    1.62    0.36
 -13  -6   7    1.48    0.42
   6 -13  -9   -0.08    0.33
 -13  -6   9   -0.07    0.33
 -13  -6   9    0.09    0.35
  13  -6  -9    0.17    0.25
   6 -13  -9    0.27    0.21
   6 -13 -11    0.55    0.31
   6 -13 -11    0.83    0.35
 -13  -6  11    0.20    0.30
 -13  -6  11    0.28    0.37
  13  -6 -11    0.74    0.30
   6 -13 -13    1.09    0.43
   6 -13 -13    1.31    0.38
 -13  -6  13    1.18    0.43
  13  -6 -13    1.41    0.42
   6 -13 -15    0.85    0.34
 -13  -6  15    0.75    0.37
  13  -6 -15    0.42    0.25
   6 -13 -17    0.05    0.31
 -13  -6  17   -0.43    0.37
  13  -6 -17   -0.33    0.33
   6 -13 -19    0.76    0.44
   6 -13 -19    0.45    0.30
 -13  -6  19    0.27    0.41
  13  -6 -19    0.69    0.40
   7  13 -18    0.80    0.39
   7  13 -16    0.11    0.32
   7  13 -14    0.99    0.35
  13   7 -14    0.56    0.24
  -7 -13 -14    1.04    0.37
  13   7 -12    0.43    0.19
  -7 -13 -12    0.56    0.29
  13   7 -10    3.38    0.42
  -7 -13 -10    3.27    0.48
  13  -7  10    2.64    0.34
  13   7  -8    4.28    0.45
  -7 -13  -8    4.52    0.55
  13   7  -8    3.87    0.34
  13  -7   8    4.04    0.43
  13   7  -6    0.40    0.17
  13  -7   6    0.35    0.25
   7 -13   6    0.47    0.21
  13   7  -6    0.70    0.22
  -7  13   6    0.64    0.34
  -7 -13  -6    0.40    0.29
 -13  -7  -4    9.90    0.75
  -7  13   4    9.06    0.74
  13   7  -4    9.21    0.64
  13  -7   4    8.75    0.72
   7 -13   4    8.31    0.59
  -7 -13  -4    8.93    0.75
   7 -13   4    8.42    0.70
 -13   7   2    6.31    0.42
 -13  -7  -2    6.82    0.64
  -7  13   2    5.64    0.59
  13  -7   2    5.68    0.58
   7 -13   2    5.91    0.50
  -7 -13  -2    5.63    0.61
   7 -13   2    6.22    0.61
   7  13  -2    6.19    0.61
 -13  -7   0    4.08    0.54
   7  13   0    4.66    0.56
   7 -13   0    4.92    0.46
  13  -7   0    3.90    0.49
  -7 -13   0    4.67    0.59
   7 -13   0    4.99    0.58
   7  13   2    5.93    0.63
 -13  -7   2    5.84    0.65
  13  -7  -2    5.61    0.58
 -13  -7   2    7.14    0.72
   7 -13  -2    6.65    0.56
  -7 -13   2    6.11    0.66
   7 -13  -2    7.47    0.69
 -13  -7   4    8.78    0.81
  13  -7  -4    9.30    0.75
 -13  -7   4    8.64    0.79
   7 -13  -4    8.47    0.53
   7 -13  -4    9.61    0.70
   7 -13  -4    9.07    0.77
   7 -13  -6    0.42    0.31
 -13  -7   6    0.38    0.31
  13  -7  -6    0.40    0.27
 -13  -7   6    0.38    0.35
   7 -13  -6    0.39    0.22
   7 -13  -8    3.12    0.52
 -13  -7   8    3.32    0.55
 -13  -7   8    3.69    0.58
  13  -7  -8    4.46    0.56
   7 -13  -8    4.36    0.54
 -13  -7  10    1.81    0.48
 -13  -7  10    3.36    0.57
  13  -7 -10    2.84    0.50
   7 -13 -10    3.20    0.50
   7 -13 -12    0.53    0.28
  -7 -13  12    0.92    0.41
 -13  -7  12    0.97    0.41
  13  -7 -12    0.80    0.29
   7 -13 -14    0.78    0.35
 -13  -7  14    0.83    0.43
  -7 -13  14    0.86    0.42
  13  -7 -14    0.91    0.39
   7 -13 -16    1.04    0.37
  -7 -13  16    0.54    0.35
 -13  -7  16    1.19    0.46
  13  -7 -16    0.52    0.34
   7 -13 -18    0.23    0.33
  -7 -13  18   -0.52    0.46
 -13  -7  18    0.52    0.40
  13  -7 -18    0.46    0.36
   8  13 -17    0.24    0.30
   8  13 -15   -0.05    0.34
  -8 -13 -13    0.89    0.34
   8  13 -13    1.21    0.39
  13   8 -11    1.11    0.26
  -8 -13 -11    1.20    0.37
  13   8  -9    0.44    0.20
  -8 -13  -9    0.29    0.30
  13  -8   9    0.22    0.20
   8 -13   7    4.68    0.46
  13  -8   7    5.54    0.59
  13   8  -7    4.92    0.47
  13   8  -7    4.38    0.39
  -8 -13  -7    4.56    0.55
  13  -8   7    5.16    0.50
  13   8  -5    9.06    0.55
  -8  13   5    9.69    0.77
   8 -13   5    9.71    0.76
  13   8  -5    9.87    0.65
  13  -8   5    8.94    0.74
   8 -13   5    9.58    0.66
  -8 -13  -5   10.35    0.80
 -13  -8  -3    1.65    0.37
   8  13  -3    1.98    0.37
  -8  13   3    2.18    0.40
 -13   8   3    2.03    0.29
  13  -8   3    2.34    0.41
   8 -13   3    1.77    0.31
  -8 -13  -3    1.95    0.44
   8 -13   3    1.54    0.37
 -13  -8  -1    8.95    0.76
   8  13  -1    7.90    0.69
  13  -8   1    7.82    0.69
   8 -13   1    9.22    0.65
  -8 -13  -1    9.53    0.80
   8 -13   1    8.88    0.74
  -8  13   1    8.82    0.72
 -13   8   1    9.32    0.56
 -13  -8   1    8.71    0.78
   8  13   1    9.24    0.73
  -8 -13   1    9.11    0.80
  13  -8  -1    8.84    0.74
   8 -13  -1    8.53    0.64
 -13  -8   1    9.02    0.83
   8 -13  -1    8.03    0.70
   8 -13  -3    2.00    0.44
 -13  -8   3    2.04    0.44
   8  13   3    1.34    0.37
  -8 -13   3    1.35    0.40
  13  -8  -3    2.17    0.40
   8 -13  -3    1.54    0.31
 -13  -8   3    1.17    0.44
 -13  -8   5    8.95    0.83
 -13  -8   5    9.59    0.83
  13  -8  -5    9.27    0.79
   8 -13  -5    9.67    0.74
   8 -13  -5   10.35    0.82
 -13  -8   7    4.83    0.69
 -13  -8   7    3.88    0.59
  13  -8  -7    5.00    0.61
   8 -13  -7    4.63    0.54
  -8 -13   9    0.68    0.36
 -13  -8   9    0.48    0.37
 -13  -8   9    0.62    0.39
  13  -8  -9    0.44    0.30
   8 -13  -9    0.23    0.25
  -8 -13  11    0.29    0.30
 -13  -8  11    0.29    0.35
 -13  -8  11    1.33    0.40
  13  -8 -11    1.32    0.42
   8 -13 -11    0.72    0.32
  -8 -13  13    0.64    0.35
 -13  -8  13    1.88    0.50
   8 -13 -13    1.69    0.44
  13  -8 -13    0.81    0.34
   8 -13 -15    0.40    0.26
  -8 -13  15    0.63    0.40
 -13  -8  15    0.48    0.36
  13  -8 -15    0.69    0.37
   8 -13 -17    0.47    0.30
  -8 -13  17   -0.04    0.32
 -13  -8  17    0.49    0.39
  13  -8 -17    0.63    0.39
   9  13 -16    0.43    0.36
   9  13 -14    0.51    0.32
  -9 -13 -12    0.25    0.35
  -9 -13 -10    0.65    0.32
  13  -9  10    0.78    0.28
  13   9  -8    1.15    0.26
  13   9  -8    1.04    0.24
  -9 -13  -8    1.14    0.37
  13  -9   8    0.98    0.29
  13  -9   6    5.11    0.52
  13   9  -6    4.20    0.42
  13   9  -6    4.96    0.46
  13  -9   6    4.84    0.58
   9 -13   6    5.41    0.53
  -9  13   6    5.83    0.63
  -9 -13  -6    5.29    0.63
   9 -13   6    4.02    0.51
   9  13  -4    1.18    0.33
  -9  13   4    1.70    0.38
  13   9  -4    1.06    0.26
  13  -9   4    1.71    0.38
   9 -13   4    1.10    0.27
 -13   9   4    1.25    0.29
  -9 -13  -4    0.36    0.30
   9 -13   4    1.62    0.41
 -13  -9  -2    1.71    0.37
 -13   9   2    2.21    0.31
  -9  13   2    2.32    0.41
   9  13  -2    1.86    0.38
  13  -9   2    1.72    0.38
   9 -13   2    2.06    0.34
  -9 -13  -2    1.76    0.45
   9 -13   2    2.35    0.43
   9  13   0    8.70    0.72
  13  -9   0    9.34    0.76
  -9 -13   0    8.95    0.80
   9 -13   0    8.17    0.65
 -13  -9   0    9.24    0.82
 -13  -9   0    8.92    0.81
   9 -13   0    9.62    0.78
 -13  -9   2    1.56    0.41
   9 -13  -2    2.32    0.44
   9  13   2    1.52    0.35
  -9 -13   2    1.44    0.42
  13  -9  -2    2.53    0.43
   9 -13  -2    2.12    0.38
 -13  -9   2    1.77    0.47
   9 -13  -4    1.16    0.38
 -13  -9   4    1.10    0.35
  -9 -13   4    0.52    0.34
  13  -9  -4    1.47    0.37
   9 -13  -4    1.38    0.34
 -13  -9   4    1.04    0.40
 -13  -9   6    4.14    0.63
  13  -9  -6    5.64    0.64
   9 -13  -6    5.70    0.60
 -13  -9   6    5.77    0.70
  -9 -13   8    1.26    0.41
 -13  -9   8    1.16    0.42
 -13  -9   8    1.38    0.44
  13  -9  -8    0.47    0.25
   9 -13  -8    1.35    0.35
  -9 -13  10    0.31    0.31
 -13  -9  10    0.22    0.42
 -13  -9  10    0.64    0.40
  13  -9 -10    0.72    0.26
   9 -13 -10    1.15    0.34
  -9 -13  12    0.57    0.36
 -13  -9  12    0.02    0.37
   9 -13 -12   -0.07    0.24
  13  -9 -12    0.29    0.26
  -9 -13  14    0.14    0.32
 -13  -9  14    0.69    0.40
   9 -13 -14    0.46    0.29
  13  -9 -14    0.18    0.29
  -9 -13  16   -0.39    0.38
 -13  -9  16    0.00    0.34
   9 -13 -16    0.21    0.26
  13  -9 -16   -0.36    0.37
  10  13 -15   -0.42    0.37
 -10 -13 -11    0.95    0.39
 -10 -13  -9    0.12    0.30
  13 -10   9    0.44    0.25
  13 -10   7    0.24    0.27
  13  10  -7    0.46    0.22
  10 -13   7    0.25    0.21
  13 -10   7    0.35    0.21
 -10 -13  -7    0.41    0.35
  10 -13   7    0.43    0.29
  13 -10   5    4.26    0.52
  10  13  -5    3.99    0.51
  13  10  -5    4.03    0.43
  13 -10   5    3.58    0.49
 -10  13   5    3.57    0.53
  10 -13   5    3.80    0.46
 -10 -13  -5    3.47    0.51
  10 -13   5    4.16    0.51
  10  13  -3    1.24    0.35
 -10  13   3    1.57    0.39
 -13  10   3    1.25    0.29
  13 -10   3    1.43    0.36
  13  10  -3    0.80    0.26
  10 -13   3    1.00    0.27
 -13 -10  -3    1.30    0.43
 -10 -13  -3    1.02    0.38
  10 -13   3    0.84    0.30
 -13 -10  -1    2.31    0.48
 -10  13   1    2.28    0.43
 -13  10   1    2.57    0.38
  10  13  -1    1.42    0.35
  13 -10   1    1.99    0.38
  10 -13   1    2.43    0.38
 -10 -13  -1    2.17    0.47
 -13 -10  -1    1.90    0.48
  10 -13   1    2.15    0.43
 -13 -10   1    1.49    0.43
  10  13   1    2.35    0.43
  13 -10  -1    2.25    0.40
  10 -13  -1    1.89    0.34
 -10 -13   1    1.91    0.48
  10 -13  -1    2.06    0.41
 -13 -10   1    2.45    0.51
 -13 -10   3    0.75    0.36
 -10 -13   3    0.65    0.37
  13 -10  -3    1.06    0.30
  10 -13  -3    1.47    0.38
  10 -13  -3    1.33    0.34
 -13 -10   3    0.83    0.37
 -13 -10   5    3.99    0.66
 -10 -13   5    4.01    0.63
  13 -10  -5    4.63    0.58
 -13 -10   5    3.97    0.62
  10 -13  -5    3.30    0.50
 -10 -13   7   -0.03    0.32
 -13 -10   7    0.44    0.36
 -13 -10   7    0.05    0.35
  13 -10  -7    0.03    0.23
  10 -13  -7    0.37    0.28
 -10 -13   9    0.52    0.36
 -13 -10   9   -0.29    0.38
 -13 -10   9    0.43    0.39
  13 -10  -9    0.98    0.34
  10 -13  -9    1.02    0.37
 -10 -13  11    0.38    0.31
 -13 -10  11    0.17    0.33
  13 -10 -11    0.60    0.32
  10 -13 -11    0.37    0.30
 -10 -13  13   -0.12    0.35
 -13 -10  13    0.52    0.38
  13 -10 -13    0.00    0.31
  10 -13 -13    0.25    0.28
 -10 -13  15    0.40    0.40
 -13 -10  15    0.68    0.43
  13 -10 -15   -0.08    0.37
  10 -13 -15    1.31    0.44
  11  13 -16    0.29    0.33
  13 -11  10    2.18    0.37
 -11 -13 -10    2.00    0.46
 -11 -13  -8    0.27    0.35
  11 -13   8    0.46    0.26
  13 -11   8    0.02    0.23
  11  13  -6    0.43    0.27
  13  11  -6    0.28    0.23
  13 -11   6    0.48    0.25
  11 -13   6    0.33    0.20
 -11  13   6    0.30    0.27
 -11 -13  -6    0.20    0.31
  11 -13   6    0.76    0.31
  13 -11   6    0.33    0.28
  13 -11   4    2.39    0.44
  11  13  -4    2.51    0.43
 -13 -11  -4    2.76    0.52
 -11  13   4    3.27    0.47
  13  11  -4    2.41    0.38
 -13  11   4    2.39    0.36
  13 -11   4    2.64    0.44
  11 -13   4    3.08    0.44
 -11 -13  -4    3.30    0.55
  11 -13   4    2.90    0.47
 -11  13   2    0.36    0.30
 -13  11   2    0.08    0.24
  11  13  -2    0.43    0.31
  13 -11   2    0.52    0.27
  11 -13   2    0.51    0.26
 -11 -13  -2   -0.26    0.34
 -13 -11  -2    0.32    0.37
  11 -13   2    0.20    0.28
  11 -13   0    0.86    0.35
 -13 -11   0    1.32    0.40
 -13  11   0    0.94    0.29
  11  13   0    0.75    0.31
  13 -11   0    1.26    0.33
  11 -13   0    1.09    0.31
 -11 -13   0    0.88    0.38
 -13 -11   0    1.58    0.44
  11 -13  -2    0.43    0.33
 -13 -11   2    0.03    0.32
  13 -11  -2    0.13    0.25
  11 -13  -2    0.03    0.22
 -11 -13   2    0.21    0.34
 -13 -11   2   -0.59    0.41
 -13 -11   4    2.22    0.49
 -11 -13   4    3.28    0.59
  13 -11  -4    2.50    0.43
 -13 -11   4    1.85    0.51
  11 -13  -4    2.61    0.45
 -11 -13   6    0.27    0.34
 -13 -11   6    0.77    0.44
 -11 -13   6    0.47    0.36
 -13 -11   6    0.43    0.38
  13 -11  -6    0.90    0.35
  11 -13  -6    0.57    0.31
 -11 -13   8    0.24    0.32
 -13 -11   8   -0.22    0.37
 -13 -11   8    0.48    0.37
  13 -11  -8    0.32    0.24
  11 -13  -8   -0.02    0.22
 -11 -13  10    1.62    0.55
 -13 -11  10    2.48    0.58
  13 -11 -10    2.87    0.52
  11 -13 -10    2.97    0.53
 -11 -13  12    1.24    0.45
 -13 -11  12   -0.04    0.39
  13 -11 -12    0.90    0.37
  11 -13 -12    0.21    0.27
 -11 -13  14   -0.25    0.40
 -13 -11  14    0.46    0.40
  13 -11 -14    0.20    0.30
  11 -13 -14    0.96    0.40
 -11 -13  16    0.35    0.41
 -13 -11  16   -0.24    0.40
  13 -11 -16   -0.17    0.34
  11 -13 -16    0.75    0.39
  12 -13   9    5.46    0.59
  13 -12   9    6.46    0.63
 -12 -13  -9    6.92    0.79
  12  13  -7    1.03    0.32
  12 -13   7    0.95    0.36
  12 -13   7    1.52    0.35
  13 -12   7    1.45    0.35
 -12 -13  -7    1.69    0.48
 -13 -12  -7    1.10    0.43
  13 -12   7    1.22    0.34
  12  13  -5    0.38    0.29
  13  12  -5    0.46    0.25
  13 -12   5    0.60    0.29
  12 -13   5    1.18    0.32
 -12  13   5    0.71    0.30
 -12 -13  -5    0.73    0.40
 -13 -12  -5   -0.27    0.38
  12 -13   5    0.65    0.31
  13 -12   5    0.35    0.29
  13 -12   3    3.92    0.53
 -12  13   3    4.50    0.52
 -13  12   3    3.62    0.49
  12  13  -3    4.07    0.52
  13  12  -3    3.87    0.49
  13 -12   3    3.56    0.50
  12 -13   3    4.04    0.52
 -12 -13  -3    4.02    0.61
 -13 -12  -3    4.36    0.66
  12 -13   3    4.25    0.57
  13 -12   1    0.30    0.29
 -12  13   1    0.18    0.29
 -13  12   1    0.08    0.24
  12  13  -1    0.09    0.24
  13 -12   1   -0.18    0.26
  12 -13   1    0.18    0.22
 -12 -13  -1   -0.17    0.36
 -13 -12  -1   -0.38    0.39
  12 -13   1    0.04    0.29
  12 -13  -1   -0.01    0.28
  13 -12  -1   -0.06    0.20
  12 -13  -1    0.57    0.28
 -12 -13   1    0.57    0.38
 -13 -12   1    0.11    0.32
 -13 -12   3    3.20    0.60
  13 -12  -3    3.71    0.54
 -12 -13   3    3.44    0.61
  12 -13  -3    4.60    0.57
 -13 -12   3    3.98    0.61
 -12 -13   5    0.25    0.31
 -13 -12   5    0.04    0.35
 -12 -13   5    1.17    0.47
 -13 -12   5    0.45    0.38
  13 -12  -5    1.04    0.37
  12 -13  -5    0.82    0.30
 -12 -13   7    0.58    0.36
 -13 -12   7    1.57    0.52
 -13 -12   7    0.66    0.43
  13 -12  -7    1.34    0.39
  12 -13  -7    1.04    0.36
 -12 -13   9    6.20    0.81
 -13 -12   9    5.21    0.78
  12 -13  -9    6.62    0.75
  13 -12  -9    5.63    0.69
 -12 -13  11    1.36    0.47
 -13 -12  11    0.69    0.39
  13 -12 -11    0.43    0.28
 -12 -13  13    0.13    0.38
 -13 -12  13    0.07    0.35
  13 -12 -13    0.29    0.31
  12 -13 -13    1.09    0.39
 -13 -13 -10    4.64    0.69
 -13 -13  -8    2.15    0.53
  13 -13   8    2.12    0.43
  13  13  -6    2.09    0.40
  13 -13   6    2.56    0.43
 -13 -13  -6    2.59    0.56
  13 -13   6    1.52    0.39
  13  13  -4    3.76    0.50
 -13  13   4    4.76    0.56
  13 -13   4    4.20    0.55
 -13 -13  -4    3.73    0.62
  13 -13   4    3.84    0.56
 -13  13   2    2.75    0.42
  13 -13   2    2.72    0.44
  13  13  -2    2.34    0.41
 -13 -13  -2    2.51    0.52
  13 -13   2    2.44    0.45
  13 -13   0    1.26    0.37
 -13  13   0    1.53    0.37
  13 -13   0    0.96    0.28
 -13 -13   0    1.36    0.48
  13 -13  -2    2.67    0.45
 -13 -13   2    2.86    0.60
 -13 -13   4    4.74    0.68
 -13 -13   4    4.33    0.67
  13 -13  -4    3.95    0.57
 -13 -13   6    2.93    0.60
 -13 -13   6    4.23    0.69
  13 -13  -6    3.01    0.50
 -13 -13   8    2.14    0.56
 -13 -13   8    1.71    0.54
  13 -13  -8    2.04    0.43
 -13 -13  10    3.24    0.64
  13 -13 -10    5.90    0.72
 -13 -13  12    1.63    0.56
  13 -13 -12    2.63    0.57
   0  14   0   -0.17    0.31
 -14   0   0    0.42    0.31
  14   0   0    0.00    0.19
   0  14   0    0.05    0.19
   0 -14   0    0.28    0.12
   0  14   2    0.01    0.17
   0  14   2    0.42    0.30
 -14   0  -2    0.31    0.27
 -14   0   2   -0.33    0.34
 -14   0  -2    0.13    0.10
  14   0   2    0.04    0.20
  14   0  -2    0.01    0.19
   0 -14   2    0.09    0.07
   0  14  -2    0.21    0.23
   0 -14  -2    0.15    0.14
 -14   0  -4    6.00    0.52
 -14   0   4    4.89    0.59
  14   0   4    5.16    0.56
   0  14   4    4.87    0.59
  14   0  -4    5.87    0.58
   0  14   4    4.63    0.38
   0 -14  -4    4.90    0.44
   0  14  -4    4.70    0.53
   0 -14  -6    0.01    0.27
   0 -14  -6   -0.07    0.18
 -14   0  -6   -0.09    0.18
   0  14   6    0.05    0.12
 -14   0   6    0.32    0.36
   0  14  -6    0.10    0.23
   0  14   6    0.52    0.34
  14   0  -6    0.17    0.23
   0  14  -8    0.31    0.28
 -14   0  -8    0.28    0.16
   0 -14  -8    0.36    0.25
   0 -14  -8    0.04    0.27
  14   0  -8   -0.32    0.23
 -14   0   8   -0.04    0.25
   0 -14 -10    7.78    0.70
 -14   0  10    7.84    0.65
  14   0 -10    8.22    0.72
   0  14 -10    8.12    0.76
   0 -14 -10    7.28    0.68
   0  14 -12    0.81    0.35
   0 -14 -12    1.08    0.34
 -14   0  12    1.23    0.46
 -14   0  12    1.20    0.33
  14   0 -12    1.04    0.30
   0 -14 -12    1.61    0.41
   0 -14 -14   -0.05    0.27
 -14   0  14    0.09    0.35
   0  14 -14   -0.10    0.32
  14   0 -14    0.26    0.27
   0 -14 -14   -0.40    0.31
   0 -14 -16    0.85    0.37
 -14   0  16    1.13    0.40
   0  14 -16    0.39    0.35
  14   0 -16    0.16    0.25
   0 -14 -16    0.86    0.36
   0 -14 -18    0.10    0.27
 -14   0  18    0.33    0.38
   0  14 -18   -0.18    0.32
  14   0 -18    0.55    0.27
   0 -14 -18    0.20    0.32
  -1 -14 -19   -0.22    0.37
 -14   1  19    0.16    0.38
   1  14 -19    0.45    0.34
  14   1 -19   -0.05    0.31
  -1 -14 -17    0.67    0.38
   1  14 -17    0.89    0.41
  14   1 -17    0.23    0.28
  -1 -14 -17    0.82    0.32
   1  14 -15    1.01    0.35
  -1 -14 -15    0.84    0.36
  -1 -14 -15    1.25    0.37
   1  14 -13    0.89    0.35
  -1 -14 -13    1.37    0.36
 -14   1  13    0.51    0.27
  14   1 -13    1.01    0.30
  -1 -14 -13    0.90    0.32
   1  14 -11    2.44    0.48
  -1 -14 -11    2.45    0.45
 -14   1  11    2.45    0.40
  14   1 -11    2.37    0.42
  -1 -14 -11    2.93    0.46
  -1 -14  -9    5.35    0.56
 -14  -1  -9    5.19    0.40
  14   1  -9    5.21    0.58
   1  14  -9    4.68    0.58
 -14   1   9    5.46    0.54
 -14  -1  -7    1.73    0.28
  -1 -14  -7    1.82    0.33
  -1  14   7    1.69    0.41
  14   1  -7    1.81    0.36
   1  14  -7    1.83    0.40
 -14  -1  -5    5.49    0.50
  14   1  -5    5.09    0.53
  -1  14   5    5.01    0.61
   1  14  -5    4.89    0.55
  -1 -14  -5    4.70    0.44
  -1  14   5    4.08    0.32
  -1 -14  -3    2.06    0.28
 -14  -1  -3    2.00    0.35
  -1  14   3    1.67    0.39
   1 -14   3    1.84    0.18
 -14  -1  -3    1.77    0.22
  14  -1   3    1.54    0.33
  -1  14   3    1.97    0.27
  14   1  -3    1.93    0.35
   1  14  -3    1.17    0.31
  -1  14   1    4.28    0.56
 -14  -1  -1    3.81    0.49
  14   1  -1    4.63    0.50
  14  -1   1    3.65    0.49
   1 -14   1    3.96    0.30
   1  14  -1    3.35    0.41
  -1 -14  -1    3.74    0.31
  -1  14   1    4.10    0.41
  -1  14  -1    3.50    0.41
   1  14   1    3.52    0.50
 -14  -1   1    3.80    0.52
 -14   1  -1    3.76    0.50
  14   1   1    3.57    0.45
   1  14   1    3.05    0.37
  14  -1  -1    3.54    0.46
  -1 -14   1    3.42    0.23
   1 -14  -1    3.67    0.33
  -1  14  -3    1.74    0.36
 -14   1  -3    2.41    0.38
 -14  -1   3    2.27    0.45
   1  14   3    1.99    0.45
   1 -14  -3    2.02    0.29
  14   1   3    2.05    0.37
   1  14   3    1.75    0.29
  14  -1  -3    2.05    0.37
   1  14   5    6.07    0.67
 -14   1  -5    5.36    0.48
 -14  -1   5    4.85    0.59
   1 -14  -5    5.20    0.59
  14  -1  -5    4.20    0.51
   1  14   5    4.62    0.36
   1 -14  -5    5.01    0.47
  -1  14  -5    5.05    0.55
   1 -14  -7    1.72    0.33
 -14   1  -7    1.92    0.30
  -1  14  -7    1.68    0.37
 -14  -1   7    1.92    0.46
  14  -1  -7    1.88    0.38
   1  14   7    1.35    0.19
 -14  -1   7    1.54    0.35
   1 -14  -7    1.70    0.39
 -14   1  -9    5.54    0.39
 -14  -1   9    4.83    0.63
  -1  14  -9    5.47    0.63
   1 -14  -9    5.21    0.57
 -14  -1   9    6.25    0.60
  14  -1  -9    6.83    0.66
   1 -14  -9    5.41    0.62
   1 -14 -11    2.97    0.47
 -14  -1  11    2.12    0.50
  -1  14 -11    2.85    0.50
   1 -14 -11    2.78    0.48
 -14  -1  11    2.61    0.44
  14  -1 -11    2.50    0.44
   1 -14 -13    1.00    0.35
 -14  -1  13    0.58    0.36
  -1  14 -13    0.72    0.33
 -14  -1  13    0.91    0.32
  14  -1 -13    0.60    0.31
   1 -14 -13    1.32    0.38
   1 -14 -15    1.36    0.41
 -14  -1  15    2.02    0.51
  -1  14 -15    1.26    0.42
  14  -1 -15    1.79    0.44
   1 -14 -15    2.20    0.46
   1 -14 -17    1.38    0.39
   1 -14 -17    0.73    0.37
 -14  -1  17    0.59    0.40
  -1  14 -17    1.13    0.41
  14  -1 -17    0.86    0.36
  -1  14 -19   -0.10    0.37
   1 -14 -19    0.67    0.36
   1 -14 -19   -0.35    0.33
 -14  -1  19    0.63    0.42
  14  -1 -19   -0.18    0.30
   2  14 -18    0.27    0.32
  -2 -14 -18    0.08    0.32
  14   2 -18    0.29    0.25
   2  14 -16    1.65    0.48
  -2 -14 -16    0.70    0.34
  14   2 -16    1.44    0.40
  -2 -14 -14    1.26    0.39
   2  14 -14    2.11    0.47
  14   2 -14    2.21    0.41
  -2 -14 -12    0.31    0.25
 -14   2  12    0.52    0.26
  14   2 -12    0.62    0.27
   2  14 -12    0.18    0.27
  -2 -14 -10    2.94    0.45
  14   2 -10    3.15    0.46
   2  14 -10    3.29    0.52
 -14   2  10    2.80    0.40
 -14  -2  -8    3.29    0.36
  -2 -14  -8    3.04    0.42
 -14   2   8    3.01    0.44
   2  14  -8    3.08    0.50
  14   2  -8    3.18    0.46
  -2 -14  -6    4.41    0.46
 -14  -2  -6    4.49    0.46
  14   2  -6    4.66    0.51
   2  14  -6    4.37    0.52
  -2  14   6    5.64    0.65
  -2 -14  -4    0.99    0.23
 -14  -2  -4    1.13    0.30
  -2  14   4    0.84    0.35
 -14  -2  -4    1.39    0.23
  14  -2   4    1.01    0.28
   2  14  -4    1.79    0.35
   2 -14   4    1.28    0.17
  14   2  -4    1.30    0.31
  -2  14   4    1.23    0.21
 -14  -2  -2    5.12    0.54
  -2  14   2    4.70    0.59
  14   2  -2    5.34    0.56
   2 -14   2    4.67    0.33
  14  -2   2    4.72    0.53
   2  14  -2    4.78    0.49
  -2 -14  -2    4.45    0.36
  -2  14   2    3.88    0.38
 -14  -2   0    8.70    0.71
  14   2   0    9.96    0.74
  14  -2   0   10.22    0.77
   2 -14   0   10.35    0.55
   2  14   0    9.47    0.66
  -2 -14   0    9.23    0.43
  -2  14   0    9.84    0.63
   2  14   0    9.74    0.79
 -14  -2   2    5.50    0.60
   2  14   2    4.80    0.57
  14   2   2    4.08    0.49
  14  -2  -2    3.76    0.48
   2  14   2    4.06    0.41
  -2  14  -2    4.31    0.47
   2 -14  -2    4.14    0.37
   2 -14  -2    4.81    0.57
   2  14   4    1.29    0.24
 -14  -2   4    1.24    0.36
 -14   2  -4    1.15    0.29
   2  14   4    1.64    0.41
  -2  14  -4    0.81    0.27
   2 -14  -4    1.43    0.38
  14  -2  -4    1.09    0.28
   2 -14  -4    1.43    0.27
 -14   2  -6    5.26    0.47
 -14  -2   6    5.41    0.65
   2  14   6    5.61    0.65
  -2  14  -6    5.06    0.57
   2  14   6    4.31    0.36
  14  -2  -6    4.23    0.52
   2 -14  -6    4.59    0.48
 -14  -2   6    5.05    0.58
   2 -14  -6    5.82    0.61
 -14   2  -8    3.57    0.35
   2 -14  -8    3.55    0.46
 -14  -2   8    3.51    0.55
  -2  14  -8    2.89    0.48
   2  14   8    2.94    0.25
  14  -2  -8    3.98    0.52
 -14  -2   8    2.61    0.46
   2 -14  -8    3.34    0.52
   2 -14 -10    3.17    0.45
 -14  -2  10    2.67    0.57
 -14  -2  10    2.82    0.46
  -2  14 -10    3.52    0.55
  14  -2 -10    3.36    0.49
   2 -14 -10    3.43    0.52
   2 -14 -12    0.12    0.26
 -14  -2  12    0.63    0.38
 -14  -2  12    0.63    0.31
  14  -2 -12    0.39    0.27
  -2  14 -12    0.52    0.34
   2 -14 -12    0.09    0.29
  -2  14 -14    2.19    0.48
   2 -14 -14    2.27    0.48
 -14  -2  14    0.94    0.44
  14  -2 -14    1.09    0.32
   2 -14 -14    1.46    0.38
   2 -14 -16    0.70    0.31
  -2  14 -16    1.31    0.43
 -14  -2  16    1.13    0.49
  14  -2 -16    0.67    0.30
   2 -14 -16    1.49    0.44
   2 -14 -18    0.09    0.33
 -14  -2  18   -0.49    0.43
  -2  14 -18   -0.21    0.36
  14  -2 -18    0.08    0.24
   2 -14 -18   -0.26    0.30
   3  14 -19   -0.03    0.35
  -3 -14 -19    0.40    0.32
  14   3 -19    0.25    0.23
   3  14 -17    1.28    0.39
  -3 -14 -17    1.00    0.31
  14   3 -17    0.92    0.36
  -3 -14 -15    0.42    0.26
  14   3 -15    0.72    0.30
   3  14 -15    0.53    0.32
  -3 -14 -13    0.15    0.29
  14   3 -13   -0.35    0.26
   3  14 -13   -0.04    0.27
  -3 -14 -11    3.86    0.52
   3  14 -11    4.29    0.60
  -3 -14 -11    4.62    0.45
  14   3 -11    4.34    0.53
 -14   3  11    4.24    0.45
  -3 -14  -9    0.36    0.21
   3  14  -9    0.94    0.35
  -3 -14  -9    0.82    0.29
  14   3  -9    0.64    0.26
 -14   3   9    0.98    0.30
 -14  -3  -7    0.46    0.22
  -3 -14  -7    0.78    0.25
   3  14  -7    0.20    0.24
  -3 -14  -7    0.95    0.26
  -3  14   7    0.24    0.31
  14   3  -7    0.52    0.23
  -3 -14  -5   12.97    0.74
 -14  -3  -5   11.92    0.76
 -14  -3  -5   10.71    0.60
  -3  14   5   14.09    0.95
   3 -14   5   13.57    0.56
  14  -3   5   12.05    0.85
  14   3  -5   12.80    0.83
   3  14  -5   12.17    0.84
  -3  14   3    8.64    0.75
 -14  -3  -3    8.88    0.68
  -3 -14  -3    7.94    0.51
  14  -3   3    7.85    0.68
  14   3  -3    9.93    0.72
   3 -14   3    8.60    0.47
   3  14  -3    8.41    0.68
 -14  -3  -3    7.39    0.43
  -3  14   1    5.24    0.44
 -14  -3  -1    5.71    0.59
   3  14  -1    4.88    0.58
  -3  14   1    5.68    0.62
  14   3  -1    5.07    0.53
  14  -3   1    5.84    0.59
   3 -14   1    5.01    0.39
   3  14  -1    5.16    0.50
  -3 -14  -1    5.31    0.35
  -3  14  -1    5.25    0.43
 -14  -3   1    5.55    0.60
   3  14   1    5.90    0.63
  14   3   1    5.30    0.54
  14  -3  -1    5.46    0.57
  -3  14  -1    4.79    0.46
   3 -14  -1    5.57    0.43
  -3 -14   1    4.06    0.22
   3 -14  -1    6.77    0.66
   3  14   3    8.69    0.75
 -14  -3   3    8.27    0.74
  14  -3  -3    9.24    0.73
   3 -14  -3    9.22    0.60
   3 -14  -3    8.19    0.72
  -3  14  -3    8.73    0.66
   3  14   5   12.11    0.90
 -14  -3   5   11.32    0.88
 -14   3  -5   13.07    0.75
  -3  14  -5   12.61    0.83
  14  -3  -5   11.72    0.84
 -14  -3   5   12.57    0.88
   3 -14  -5   12.53    0.76
   3 -14  -5   12.68    0.89
   3 -14  -7    0.43    0.21
  -3  14  -7    0.48    0.30
 -14  -3   7    0.14    0.30
 -14   3  -7    0.38    0.21
   3 -14  -7    0.68    0.32
  14  -3  -7    0.59    0.26
 -14  -3   7    0.19    0.31
   3 -14  -9    1.17    0.30
  -3  14  -9    0.61    0.30
 -14  -3   9    0.21    0.33
  14  -3  -9    0.91    0.33
 -14  -3   9    1.12    0.37
   3 -14  -9    0.93    0.38
   3 -14 -11    4.32    0.57
  -3  14 -11    4.08    0.59
 -14  -3  11    3.74    0.59
 -14  -3  11    4.65    0.57
  14  -3 -11    3.93    0.56
   3 -14 -11    4.18    0.57
   3 -14 -13    0.40    0.27
 -14  -3  13    0.64    0.39
  -3  14 -13    0.22    0.31
 -14  -3  13    0.24    0.29
  14  -3 -13    0.11    0.25
   3 -14 -13   -0.30    0.33
   3 -14 -15    0.23    0.28
 -14  -3  15    0.40    0.37
   3 -14 -15    0.83    0.36
  -3  14 -15    1.11    0.38
  14  -3 -15    0.70    0.36
   3 -14 -17    0.51    0.38
 -14  -3  17    0.68    0.37
  14  -3 -17    1.24    0.39
  -3  14 -17    1.08    0.45
   3 -14 -17    1.02    0.43
   3 -14 -19    0.22    0.36
 -14  -3  19    0.14    0.36
  -3  14 -19    0.55    0.37
  14  -3 -19   -0.44    0.37
   3 -14 -19    0.45    0.35
   4  14 -18    0.00    0.36
  -4 -14 -18    0.15    0.32
  14   4 -18    0.11    0.22
  -4 -14 -16   -0.07    0.29
  14   4 -16    0.42    0.26
   4  14 -16   -0.46    0.39
  -4 -14 -14    0.46    0.26
   4  14 -14    1.16    0.42
  14   4 -14    0.83    0.30
  -4 -14 -12    1.18    0.35
   4  14 -12    1.45    0.39
  14   4 -12    1.87    0.36
  -4 -14 -12    0.58    0.26
  -4 -14 -10    1.23    0.34
   4  14 -10    0.64    0.31
  14   4 -10    0.82    0.28
  -4 -14 -10    1.27    0.33
 -14   4  10    0.96    0.27
 -14  -4  -8    3.02    0.38
   4  14  -8    2.75    0.46
  -4 -14  -8    3.06    0.43
  14   4  -8    2.93    0.41
  -4 -14  -8    3.10    0.42
 -14  -4  -6    2.83    0.39
   4  14  -6    2.12    0.39
  -4 -14  -6    2.48    0.37
  14  -4   6    2.01    0.39
  -4  14   6    2.20    0.44
  14   4  -6    2.60    0.39
  -4 -14  -6    2.37    0.40
   4  14  -4    0.10    0.22
 -14  -4  -4    0.06    0.23
 -14  -4  -4   -0.01    0.18
  -4 -14  -4    0.10    0.16
  -4  14   4   -0.04    0.29
  14  -4   4   -0.16    0.20
   4 -14   4    0.25    0.14
  14   4  -4    0.25    0.21
  -4 -14  -4    0.05    0.26
  -4 -14  -2    3.21    0.31
   4  14  -2    2.24    0.42
 -14  -4  -2    3.14    0.46
  -4  14   2    2.95    0.49
  14   4  -2    2.66    0.39
  14  -4   2    2.56    0.42
   4 -14   2    2.91    0.30
   4  14   0   15.34    0.97
 -14  -4   0   15.31    0.96
  -4  14   0   13.74    0.77
  14   4   0   14.84    0.89
  14  -4   0   15.26    0.95
   4 -14   0   15.72    0.75
   4 -14   0   15.28    0.95
  -4 -14   0   13.59    0.53
 -14   4   0   13.57    0.47
 -14  -4   2    3.48    0.52
   4  14   2    3.26    0.51
  14  -4  -2    2.89    0.44
  -4  14  -2    2.47    0.37
   4 -14  -2    2.70    0.34
   4 -14  -2    2.77    0.47
  -4  14  -4    0.16    0.25
 -14  -4   4    0.19    0.30
   4  14   4   -0.63    0.34
  14  -4  -4    0.31    0.26
   4 -14  -4    0.51    0.21
   4 -14  -4    0.36    0.28
 -14  -4   6    2.22    0.46
  14  -4  -6    2.46    0.43
 -14  -4   6    2.92    0.51
  -4  14  -6    3.00    0.46
   4 -14  -6    2.62    0.45
   4 -14  -6    2.48    0.39
   4 -14  -8    3.24    0.44
 -14  -4   8    3.64    0.57
 -14   4  -8    3.32    0.35
  14  -4  -8    3.98    0.52
 -14  -4   8    2.97    0.49
  -4  14  -8    2.84    0.48
   4 -14  -8    3.22    0.48
   4 -14 -10    0.66    0.32
 -14  -4  10    0.78    0.42
 -14  -4  10    0.67    0.35
  14  -4 -10    1.17    0.34
  -4  14 -10    1.13    0.37
   4 -14 -10    0.90    0.39
  -4  14 -12    1.46    0.40
   4 -14 -12    1.45    0.38
 -14  -4  12    1.50    0.46
 -14  -4  12    0.86    0.37
  14  -4 -12    0.99    0.34
   4 -14 -12    0.94    0.37
   4 -14 -14    0.89    0.34
 -14  -4  14    0.72    0.39
  -4  14 -14    0.79    0.37
  14  -4 -14    1.33    0.42
   4 -14 -14    0.79    0.39
   4 -14 -16    0.22    0.30
 -14  -4  16    0.97    0.42
  -4  14 -16   -0.40    0.40
  14  -4 -16    0.33    0.35
   4 -14 -16    0.13    0.33
   4 -14 -18    0.08    0.28
 -14  -4  18    0.25    0.39
  -4  14 -18    0.25    0.36
  14  -4 -18    0.25    0.28
   4 -14 -18    0.50    0.34
  -5 -14 -17    0.78    0.35
  14   5 -17    0.70    0.27
   5  14 -17    0.90    0.42
  -5 -14 -15    2.21    0.45
   5  14 -15    2.28    0.53
  14   5 -15    2.12    0.41
  -5 -14 -13    0.72    0.32
   5  14 -13    0.48    0.33
  14   5 -13    0.81    0.27
   5  14 -11    1.40    0.40
  -5 -14 -11    0.85    0.34
  14   5 -11    1.60    0.34
  -5 -14 -11    1.25    0.32
   5  14  -9    1.17    0.34
  -5 -14  -9    1.17    0.34
  14   5  -9    0.93    0.27
  -5 -14  -9    1.19    0.35
 -14  -5  -7    4.43    0.47
   5  14  -7    5.04    0.60
  14   5  -7    4.95    0.52
  -5 -14  -7    3.87    0.47
  -5  14   7    5.34    0.63
  -5 -14  -7    5.21    0.55
 -14  -5  -5    3.42    0.45
   5 -14   5    3.53    0.35
  14   5  -5    4.53    0.50
  -5 -14  -5    3.74    0.43
  -5  14   5    3.92    0.54
  14  -5   5    3.31    0.47
  -5 -14  -5    3.75    0.49
 -14  -5  -3    1.13    0.33
  -5  14   3    1.02    0.33
  -5 -14  -3    1.19    0.24
  14   5  -3    0.98    0.27
  14  -5   3    0.97    0.30
   5 -14   3    0.80    0.19
  -5 -14  -3    0.75    0.32
   5 -14   3    0.58    0.32
  -5  14   1    0.65    0.34
 -14  -5  -1    0.81    0.33
   5  14  -1    0.85    0.31
  -5 -14  -1    1.16    0.20
 -14   5   1    0.96    0.14
  14   5  -1    1.17    0.29
  14  -5   1    0.63    0.24
   5 -14   1    1.06    0.22
   5 -14   1    1.49    0.37
  -5 -14   1    0.81    0.11
 -14  -5   1    0.65    0.34
   5  14   1    0.84    0.35
  14  -5  -1    0.74    0.27
   5 -14  -1    1.42    0.27
   5 -14  -1    0.97    0.38
 -14  -5   3    1.67    0.42
   5  14   3    0.67    0.33
  14  -5  -3    0.92    0.29
   5 -14  -3    0.84    0.22
   5 -14  -3    1.14    0.34
 -14  -5   5    4.00    0.56
   5  14   5    4.59    0.58
  -5  14  -5    3.87    0.50
  14  -5  -5    3.68    0.50
   5 -14  -5    4.40    0.47
 -14  -5   5    3.70    0.57
   5 -14  -5    3.98    0.54
 -14  -5   7    4.95    0.66
   5 -14  -7    5.66    0.64
  -5  14  -7    5.18    0.58
  14  -5  -7    5.15    0.61
   5 -14  -7    4.81    0.52
 -14  -5   7    4.31    0.58
   5 -14  -9    1.51    0.34
 -14  -5   9    0.66    0.36
  -5  14  -9    1.14    0.35
 -14  -5   9    1.59    0.43
  14  -5  -9    0.95    0.33
   5 -14  -9    1.20    0.39
   5 -14 -11    1.13    0.34
 -14  -5  11    1.30    0.44
  -5  14 -11    1.43    0.40
 -14  -5  11    0.91    0.36
  14  -5 -11    0.81    0.31
   5 -14 -11    0.41    0.33
   5 -14 -13    1.51    0.38
 -14  -5  13    0.80    0.41
 -14  -5  13   -0.01    0.33
  -5  14 -13    1.14    0.41
  14  -5 -13    0.89    0.36
   5 -14 -13    1.27    0.45
   5 -14 -15    1.98    0.45
 -14  -5  15    2.58    0.58
  -5  14 -15    1.35    0.42
  14  -5 -15    1.72    0.42
   5 -14 -15    2.31    0.51
   5 -14 -17    0.52    0.30
 -14  -5  17    0.23    0.36
  -5  14 -17    0.38    0.36
  14  -5 -17    0.66    0.32
   5 -14 -17    0.96    0.41
  -6 -14 -18    1.38    0.46
   6  14 -18    1.34    0.46
   6  14 -16    1.18    0.47
   6  14 -14    0.36    0.29
  14   6 -14    1.41    0.32
   6  14 -12    3.46    0.57
  14   6 -12    4.49    0.51
  -6 -14 -12    4.04    0.52
   6  14 -10    5.77    0.66
  14   6 -10    6.01    0.57
  -6 -14 -10    5.76    0.59
  14   6  -8    5.55    0.54
  -6 -14  -8    4.63    0.55
 -14  -6  -6    3.99    0.48
   6 -14   6    4.02    0.38
  14   6  -6    4.35    0.48
  14  -6   6    4.02    0.52
  -6  14   6    3.39    0.54
  -6 -14  -6    3.82    0.52
 -14  -6  -4    7.31    0.65
  -6  14   4    8.32    0.74
  14   6  -4    7.84    0.63
  14  -6   4    6.86    0.66
   6 -14   4    7.86    0.54
  -6 -14  -4    7.73    0.69
   6 -14   4    7.47    0.69
 -14  -6  -2    5.30    0.60
 -14   6   2    4.78    0.30
  -6 -14  -2    4.44    0.38
   6  14  -2    4.30    0.55
  -6  14   2    5.05    0.58
  14   6  -2    5.42    0.53
  14  -6   2    4.86    0.57
   6 -14   2    5.07    0.44
  -6 -14  -2    4.98    0.58
   6 -14   2    4.67    0.56
 -14  -6   0    0.60    0.34
  -6 -14   0    0.19    0.12
   6  14   0    0.11    0.28
   6 -14   0    0.57    0.32
  14  -6   0   -0.20    0.21
  -6 -14   0   -0.48    0.35
   6 -14   0    0.06    0.15
 -14  -6   2    4.81    0.61
   6  14   2    4.65    0.58
  14  -6  -2    5.53    0.61
   6 -14  -2    4.93    0.48
   6 -14  -2    4.76    0.58
 -14  -6   4    7.65    0.76
   6  14   4    7.53    0.71
  14  -6  -4    7.91    0.70
 -14  -6   4    7.52    0.73
   6 -14  -4    8.12    0.64
   6 -14  -4    8.06    0.73
 -14  -6   6    4.00    0.63
  14  -6  -6    3.79    0.52
 -14  -6   6    3.52    0.56
   6 -14  -6    4.17    0.48
   6 -14  -6    4.15    0.57
 -14  -6   8    3.37    0.57
 -14  -6   8    4.11    0.58
  14  -6  -8    4.43    0.57
   6 -14  -8    4.49    0.56
   6 -14  -8    4.27    0.61
 -14  -6  10    4.94    0.72
 -14  -6  10    6.36    0.70
  14  -6 -10    5.85    0.66
   6 -14 -10    5.97    0.65
   6 -14 -10    5.36    0.66
   6 -14 -12    4.09    0.61
   6 -14 -12    4.21    0.58
 -14  -6  12    4.18    0.64
 -14  -6  12    4.15    0.62
  14  -6 -12    4.51    0.62
   6 -14 -14    2.29    0.52
   6 -14 -14    2.10    0.50
 -14  -6  14    1.31    0.45
  14  -6 -14    1.57    0.47
   6 -14 -16    0.95    0.45
 -14  -6  16    0.13    0.37
   6 -14 -16    0.64    0.35
  14  -6 -16    0.53    0.30
   6 -14 -18    1.12    0.41
 -14  -6  18    1.26    0.50
   6 -14 -18    2.52    0.60
  14  -6 -18    1.94    0.48
   7  14 -17    1.76    0.50
   7  14 -15    1.28    0.42
   7  14 -13    2.30    0.50
  14   7 -13    3.51    0.46
  -7 -14 -13    3.30    0.50
   7  14 -11    4.27    0.63
  14   7 -11    3.70    0.45
  -7 -14 -11    3.92    0.52
  14   7  -9    2.79    0.39
  -7 -14  -9    2.57    0.44
  14  -7   9    2.71    0.36
  -7  14   7   11.22    0.88
  14  -7   7    9.82    0.82
  14   7  -7   11.94    0.77
  -7 -14  -7   11.76    0.87
 -14  -7  -5    9.16    0.72
  -7  14   5   11.68    0.88
  14   7  -5   10.28    0.72
  14  -7   5   10.11    0.81
   7 -14   5   10.85    0.67
  -7 -14  -5   11.62    0.85
   7 -14   5    9.36    0.77
 -14  -7  -3    0.48    0.26
   7  14  -3    0.31    0.26
  -7  14   3    0.69    0.32
  14   7  -3    0.14    0.17
  14  -7   3    0.28    0.23
   7 -14   3    0.87    0.24
  -7 -14  -3   -0.10    0.33
   7 -14   3    0.63    0.31
   7  14  -1   15.61    0.98
 -14  -7  -1   14.76    0.99
  14  -7   1   14.62    0.97
  -7 -14  -1   14.90    0.99
   7 -14   1   14.56    0.81
   7 -14   1   14.95    0.96
  -7  14   1   16.21    0.99
 -14   7   1   15.42    0.67
 -14  -7   1   14.20    1.00
   7  14   1   12.60    0.90
  -7 -14   1   13.92    0.98
  14  -7  -1   16.44    1.02
   7 -14  -1   16.05    0.87
   7 -14  -1   15.43    0.99
 -14  -7   3    0.40    0.30
   7  14   3    0.70    0.35
  14  -7  -3    0.61    0.27
   7 -14  -3    0.38    0.19
 -14  -7   3    0.57    0.32
   7 -14  -3    0.32    0.28
 -14  -7   5    9.67    0.90
  14  -7  -5   10.68    0.86
 -14  -7   5    9.70    0.85
   7 -14  -5   10.95    0.80
   7 -14  -5    9.49    0.83
 -14  -7   7   10.52    0.94
 -14  -7   7   10.78    0.91
  14  -7  -7   13.48    0.98
   7 -14  -7   11.69    0.85
   7 -14  -7   10.33    0.87
   7 -14  -9    2.81    0.52
 -14  -7   9    2.20    0.51
   7 -14  -9    2.43    0.42
 -14  -7   9    2.91    0.54
  14  -7  -9    2.08    0.43
   7 -14 -11    4.04    0.63
 -14  -7  11    3.52    0.67
 -14  -7  11    2.93    0.56
  14  -7 -11    4.12    0.60
   7 -14 -11    4.47    0.59
   7 -14 -13    3.22    0.54
   7 -14 -13    2.50    0.56
 -14  -7  13    2.53    0.56
  14  -7 -13    4.20    0.61
   7 -14 -15    1.58    0.44
   7 -14 -15    2.06    0.44
 -14  -7  15    1.40    0.48
  14  -7 -15    2.31    0.50
   7 -14 -17    1.44    0.49
   7 -14 -17    1.58    0.47
 -14  -7  17    0.28    0.43
  14  -7 -17    1.90    0.50
   8  14 -16   -0.22    0.43
   8  14 -14    2.17    0.51
   8  14 -12    0.65    0.36
  -8 -14 -12    0.56    0.32
  14   8 -10    4.42    0.47
  -8 -14 -10    4.04    0.56
  14   8  -8    8.06    0.62
  -8 -14  -8    6.73    0.69
  14  -8   8    7.29    0.58
  14  -8   6    0.12    0.22
   8 -14   6    0.15    0.19
  14   8  -6    0.06    0.17
  -8  14   6    0.14    0.30
  -8 -14  -6   -0.56    0.39
   8 -14   6    0.19    0.25
 -14  -8  -4   11.24    0.85
  -8  14   4   12.01    0.88
  14  -8   4   12.01    0.89
   8 -14   4   12.41    0.75
  -8 -14  -4   11.56    0.89
   8 -14   4   12.28    0.87
   8  14  -4   10.63    0.83
 -14  -8  -2   14.15    0.96
 -14   8   2   13.49    0.66
   8  14  -2   12.46    0.89
  14  -8   2   12.85    0.91
   8 -14   2   12.24    0.76
  -8 -14  -2   11.62    0.91
   8 -14   2   11.88    0.87
  -8  14   2   13.69    0.93
 -14  -8   0    0.73    0.37
   8  14   0    0.43    0.31
  14  -8   0    0.47    0.25
  -8 -14   0    0.48    0.35
   8 -14   0    0.44    0.21
 -14  -8   0    0.55    0.39
   8 -14   0    0.37    0.32
 -14  -8   2   12.51    0.99
   8  14   2   12.34    0.90
  -8 -14   2   12.51    0.95
  14  -8  -2   13.15    0.93
 -14  -8   2   12.54    0.97
   8 -14  -2   13.59    0.86
   8 -14  -2   13.42    0.95
 -14  -8   4   11.25    0.94
  14  -8  -4   12.28    0.93
 -14  -8   4   11.87    0.95
   8 -14  -4   12.51    0.85
   8 -14  -4   12.11    0.92
   8 -14  -6    0.12    0.30
 -14  -8   6    0.00    0.31
  14  -8  -6    0.25    0.24
 -14  -8   6    0.22    0.33
   8 -14  -6    0.08    0.23
 -14  -8   8    6.77    0.83
 -14  -8   8    7.95    0.83
  14  -8  -8    7.89    0.78
   8 -14  -8    7.55    0.72
   8 -14  -8    9.23    0.85
   8 -14 -10    5.01    0.67
 -14  -8  10    3.67    0.64
 -14  -8  10    3.76    0.58
  14  -8 -10    5.00    0.65
   8 -14 -10    4.27    0.57
 -14  -8  12    0.69    0.35
  14  -8 -12    1.16    0.38
   8 -14 -12    0.63    0.32
 -14  -8  14    1.87    0.50
  14  -8 -14    2.60    0.51
   8 -14 -14    2.80    0.51
   8 -14 -16    0.97    0.37
 -14  -8  16    0.09    0.35
  14  -8 -16    0.32    0.32
   9  14 -15    0.09    0.29
   9  14 -13    0.60    0.33
  -9 -14 -13    0.71    0.33
  -9 -14 -11    1.61    0.42
  -9 -14  -9   -0.01    0.29
  14  -9   9   -0.02    0.21
  14   9  -7    4.10    0.43
   9 -14   7    3.65    0.45
  14  -9   7    3.65    0.51
  -9 -14  -7    4.00    0.60
  14  -9   7    3.93    0.46
   9  14  -5    5.70    0.63
  14  -9   5    5.50    0.62
   9 -14   5    6.02    0.55
   9 -14   5    6.33    0.64
  -9  14   5    5.43    0.63
  -9 -14  -5    5.97    0.68
 -14  -9  -3    1.85    0.41
   9  14  -3    2.16    0.42
  -9  14   3    3.07    0.49
 -14   9   3    2.82    0.34
  14  -9   3    2.52    0.44
   9 -14   3    2.36    0.37
  -9 -14  -3    2.51    0.48
   9 -14   3    2.13    0.42
 -14  -9  -1    6.27    0.71
   9  14  -1    7.60    0.70
  14  -9   1    6.07    0.64
   9 -14   1    7.41    0.63
  -9 -14  -1    5.79    0.69
   9 -14   1    6.50    0.68
 -14  -9  -1    7.23    0.76
  -9  14   1    7.04    0.67
 -14   9   1    6.98    0.52
 -14  -9   1    6.61    0.74
   9  14   1    6.55    0.67
  14  -9  -1    6.73    0.67
  -9 -14   1    7.88    0.79
   9 -14  -1    6.19    0.59
 -14  -9   1    6.77    0.73
   9 -14  -1    6.63    0.69
 -14  -9   3    2.48    0.51
  -9 -14   3    2.03    0.49
  14  -9  -3    2.38    0.44
   9 -14  -3    2.49    0.40
 -14  -9   3    2.88    0.55
   9 -14  -3    2.53    0.49
 -14  -9   5    5.97    0.72
  14  -9  -5    5.65    0.65
   9 -14  -5    6.61    0.65
 -14  -9   5    6.59    0.76
   9 -14  -5    6.55    0.72
   9 -14  -7    3.82    0.58
 -14  -9   7    3.00    0.62
 -14  -9   7    3.99    0.64
  14  -9  -7    3.35    0.51
   9 -14  -7    3.55    0.53
 -14  -9   9    0.25    0.32
 -14  -9   9   -0.67    0.38
  14  -9  -9   -0.18    0.24
   9 -14  -9    0.03    0.25
 -14  -9  11    1.30    0.51
 -14  -9  11    1.85    0.53
  14  -9 -11    1.38    0.38
   9 -14 -11    1.74    0.41
  -9 -14  13    0.34    0.38
 -14  -9  13    0.45    0.38
   9 -14 -13    1.23    0.38
  14  -9 -13    1.35    0.39
  -9 -14  15   -0.12    0.34
 -14  -9  15   -0.19    0.41
  14  -9 -15    0.28    0.32
   9 -14 -15    0.33    0.27
  10  14 -14    0.48    0.37
 -10 -14 -14   -0.13    0.40
 -10 -14 -12    0.32    0.32
 -10 -14 -10    1.56    0.44
 -10 -14  -8    1.05    0.40
  14 -10   8    0.86    0.29
  10  14  -6    1.56    0.38
  14 -10   6    1.61    0.39
  10 -14   6    1.85    0.35
 -10  14   6    2.19    0.47
 -10 -14  -6    1.38    0.42
  10 -14   6    1.59    0.38
  14 -10   6    1.97    0.37
  10  14  -4    1.39    0.37
 -10  14   4    1.15    0.40
  14 -10   4    1.45    0.36
  10 -14   4    1.45    0.31
 -10 -14  -4    0.48    0.33
  10 -14   4    1.26    0.35
 -14 -10  -2    1.45    0.37
 -10  14   2    2.17    0.42
 -14  10   2    2.03    0.32
  10  14  -2    1.33    0.38
  14 -10   2    1.62    0.37
  10 -14   2    2.41    0.39
 -10 -14  -2    1.23    0.39
 -14 -10  -2    1.51    0.44
  10 -14   2    2.15    0.44
 -14 -10   0    3.15    0.53
 -10  14   0    2.93    0.49
 -14  10   0    3.27    0.40
  10  14   0    2.35    0.43
  14 -10   0    2.68    0.45
  10 -14   0    3.12    0.44
 -10 -14   0    2.85    0.52
 -14 -10   0    2.60    0.53
  10 -14   0    2.99    0.48
 -14 -10   2    1.84    0.43
  14 -10  -2    1.99    0.42
 -10 -14   2    1.18    0.41
  10 -14  -2    1.67    0.34
 -14 -10   2    1.67    0.46
  10 -14  -2    0.82    0.38
  10 -14  -4    1.14    0.38
 -14 -10   4    1.51    0.44
 -10 -14   4    0.96    0.44
  14 -10  -4    1.11    0.35
  10 -14  -4    1.27    0.33
 -14 -10   4    1.91    0.49
  10 -14  -6    2.36    0.51
 -14 -10   6    1.50    0.43
 -14 -10   6    2.93    0.58
  14 -10  -6    1.79    0.41
  10 -14  -6    1.78    0.41
 -14 -10   8    0.74    0.40
 -14 -10   8    1.28    0.48
  14 -10  -8    1.00    0.36
  10 -14  -8    1.07    0.36
 -10 -14  10    0.85    0.41
 -14 -10  10    1.02    0.46
 -14 -10  10    0.51    0.37
  14 -10 -10    1.71    0.45
  10 -14 -10    0.77    0.29
 -10 -14  12    0.01    0.33
 -14 -10  12   -0.18    0.40
  14 -10 -12   -0.42    0.33
  10 -14 -12   -0.37    0.30
 -10 -14  14    0.51    0.33
 -14 -10  14    0.99    0.46
  14 -10 -14   -0.19    0.37
  10 -14 -14    0.24    0.26
 -11 -14 -13    0.85    0.38
 -11 -14 -11    0.63    0.39
  14 -11   9    1.26    0.35
 -11 -14  -9    1.53    0.46
  11  14  -7    0.87    0.34
  11 -14   7    0.18    0.22
  14 -11   7    0.64    0.28
 -11 -14  -7    0.34    0.33
  11 -14   7    0.13    0.26
  14 -11   7   -0.15    0.28
 -14 -11  -5    1.15    0.43
  11  14  -5    1.40    0.38
  14 -11   5    1.53    0.36
  11 -14   5    1.29    0.32
 -11  14   5    1.18    0.40
 -11 -14  -5    1.08    0.42
  11 -14   5    1.49    0.42
  14 -11   5    1.66    0.36
  14 -11   3   -0.29    0.30
 -11  14   3    0.02    0.28
  11  14  -3    0.57    0.31
 -14  11   3   -0.22    0.23
  14 -11   3    0.00    0.22
  11 -14   3    0.17    0.18
 -11 -14  -3   -0.56    0.38
 -14 -11  -3   -0.05    0.34
  11 -14   3    0.21    0.28
 -11  14   1    0.05    0.27
 -14  11   1   -0.31    0.25
  11  14  -1    0.31    0.27
  14 -11   1    0.61    0.28
  11 -14   1    0.38    0.24
 -11 -14  -1    0.25    0.36
 -14 -11  -1   -0.50    0.37
  11 -14   1   -0.33    0.34
 -14 -11   1    0.21    0.29
  14 -11  -1    0.17    0.21
  11 -14  -1    0.30    0.25
 -11 -14   1    0.01    0.34
 -14 -11   1   -0.20    0.36
  11 -14  -1    0.48    0.34
  11 -14  -3    0.20    0.32
 -14 -11   3    0.17    0.30
 -11 -14   3   -0.05    0.37
  14 -11  -3    0.22    0.25
  11 -14  -3    0.47    0.26
 -14 -11   3    0.15    0.38
  11 -14  -5    1.47    0.41
 -14 -11   5    1.18    0.42
 -11 -14   5    1.19    0.48
  14 -11  -5    1.63    0.38
 -14 -11   5    1.05    0.43
  11 -14  -5    1.44    0.37
 -14 -11   7    0.13    0.32
 -14 -11   7    0.63    0.38
  14 -11  -7    1.09    0.37
  11 -14  -7    0.80    0.31
 -11 -14   9    0.71    0.41
 -14 -11   9    0.68    0.37
 -14 -11   9    1.36    0.48
  14 -11  -9    0.68    0.34
  11 -14  -9    1.15    0.38
 -11 -14  11    0.40    0.41
 -14 -11  11    0.51    0.43
  14 -11 -11    0.11    0.28
  11 -14 -11    0.80    0.33
 -11 -14  13    0.63    0.45
 -14 -11  13    0.03    0.36
  14 -11 -13    0.10    0.28
  11 -14 -13    0.65    0.33
 -12 -14 -12    0.72    0.39
 -12 -14 -10    3.26    0.57
  12  14  -8    0.98    0.36
 -12 -14  -8    1.01    0.44
  12 -14   8    0.36    0.27
  14 -12   8    0.60    0.32
  12  14  -6    0.28    0.26
  14 -12   6    0.66    0.30
  12 -14   6    0.91    0.30
 -12 -14  -6    0.72    0.39
 -14 -12  -6    0.65    0.43
  12 -14   6    0.43    0.29
  14 -12   6    0.54    0.33
  12  14  -4    1.49    0.38
 -12  14   4    1.91    0.42
  14 -12   4    2.12    0.41
  12 -14   4    1.85    0.38
 -12 -14  -4    2.14    0.50
 -14 -12  -4    1.79    0.47
  12 -14   4    3.11    0.50
  14 -12   4    2.86    0.47
  14 -12   2    0.63    0.35
 -12  14   2    0.98    0.35
 -14  12   2    1.17    0.34
  12  14  -2    1.13    0.35
  14 -12   2    0.59    0.25
  12 -14   2    0.37    0.19
 -12 -14  -2    0.74    0.41
 -14 -12  -2    0.85    0.41
  12 -14   2    1.16    0.38
 -12  14   0   -0.08    0.28
 -14  12   0    0.38    0.26
  14 -12   0    0.53    0.26
  12 -14   0    0.12    0.21
 -12 -14   0    0.09    0.34
 -14 -12   0    0.41    0.38
  12 -14   0   -0.16    0.31
  12 -14  -2    0.75    0.33
 -14 -12   2    0.26    0.35
  14 -12  -2    0.63    0.29
  12 -14  -2    0.71    0.29
 -12 -14   2    1.28    0.47
 -14 -12   2    0.52    0.41
  12 -14  -4    2.78    0.55
 -14 -12   4    2.20    0.55
 -12 -14   4    1.92    0.48
  14 -12  -4    2.55    0.48
  12 -14  -4    3.01    0.49
 -14 -12   4    3.03    0.61
 -14 -12   6    0.43    0.34
 -12 -14   6    0.67    0.41
 -14 -12   6    0.90    0.39
  14 -12  -6    0.19    0.27
  12 -14  -6    0.44    0.28
 -12 -14   8    0.23    0.41
 -14 -12   8   -0.14    0.35
 -14 -12   8    0.04    0.37
  14 -12  -8    0.48    0.29
  12 -14  -8    0.56    0.31
 -12 -14  10    2.80    0.60
 -14 -12  10    2.95    0.66
  14 -12 -10    3.56    0.60
  12 -14 -10    3.93    0.60
 -14 -12  12    0.37    0.39
  14 -12 -12    0.46    0.34
  12 -14 -12    1.28    0.43
 -13 -14 -11    2.53    0.57
 -13 -14  -9    1.88    0.52
  13 -14   9    1.96    0.41
 -14 -13  -9    2.78    0.58
  14 -13   9    2.59    0.45
  13 -14   7    1.97    0.40
  14 -13   7    1.64    0.37
 -13 -14  -7    2.24    0.52
 -14 -13  -7    1.88    0.51
  13 -14   7    1.10    0.31
  14 -13   7    1.97    0.40
  13  14  -5    2.22    0.43
  14 -13   5    2.38    0.45
  13 -14   5    3.39    0.52
 -13  14   5    3.46    0.53
 -13 -14  -5    3.39    0.62
 -14 -13  -5    1.76    0.51
  13 -14   5    2.75    0.52
  14 -13   5    2.75    0.48
  13 -14   3    0.42    0.30
 -13  14   3    1.68    0.39
  13  14  -3    0.95    0.33
  14 -13   3    1.26    0.36
  13 -14   3    0.84    0.26
  14 -13   3    1.58    0.40
 -13 -14  -3    1.00    0.40
 -14 -13  -3    1.45    0.46
  14 -13   1    1.33    0.38
 -13  14   1    1.68    0.38
 -14  13   1    1.67    0.36
  14 -13   1    1.04    0.31
  13 -14   1    1.63    0.37
 -13 -14  -1    1.59    0.45
 -14 -13  -1    1.70    0.53
  13 -14   1    1.05    0.39
  13 -14  -1    1.97    0.47
 -13  14  -1    1.67    0.40
 -14  13  -1    1.73    0.39
  14 -13  -1    1.39    0.37
  13 -14  -1    1.89    0.39
 -13 -14   1    2.18    0.55
 -14 -13   1    1.53    0.50
  13 -14  -3    1.32    0.43
 -14 -13   3    1.12    0.44
  14 -13  -3    2.03    0.43
  13 -14  -3    1.21    0.38
 -13 -14   3    1.18    0.48
 -14 -13   3    1.62    0.52
 -14 -13   5    2.48    0.56
 -13 -14   5    2.74    0.61
 -14 -13   5    2.75    0.60
  14 -13  -5    3.17    0.55
  13 -14  -5    2.61    0.49
 -13 -14   7    0.97    0.42
 -14 -13   7    1.96    0.54
 -13 -14   7    2.04    0.61
 -14 -13   7    2.24    0.53
  14 -13  -7    1.79    0.42
  13 -14  -7    1.65    0.47
 -13 -14   9    2.44    0.58
 -14 -13   9    2.66    0.66
  14 -13  -9    2.64    0.53
  13 -14  -9    3.32    0.55
 -13 -14  11    0.84    0.46
 -14 -13  11    1.48    0.52
  14 -13 -11    2.74    0.59
  13 -14 -11    2.04    0.48
 -14 -14 -10    1.62    0.53
 -14 -14  -8    0.93    0.41
  14 -14   8    0.74    0.31
  14 -14   6    0.69    0.28
 -14 -14  -6    0.00    0.37
  14 -14   6    0.31    0.30
  14 -14   4    1.71    0.41
 -14 -14  -4    0.98    0.42
  14 -14   4    2.09    0.49
  14 -14   2    1.38    0.38
 -14 -14  -2    1.07    0.41
  14 -14   2    1.30    0.42
  14 -14   0    1.09    0.40
 -14  14   0    1.26    0.40
  14 -14   0    0.98    0.35
 -14 -14   0    0.91    0.43
  14 -14  -2    1.36    0.43
  14 -14  -2    1.27    0.37
 -14 -14   2    1.04    0.44
 -14 -14   4    2.62    0.63
  14 -14  -4    2.25    0.46
 -14 -14   6   -0.20    0.40
 -14 -14   6   -0.38    0.41
  14 -14  -6    0.28    0.24
 -14 -14   8    0.82    0.42
  14 -14  -8    1.30    0.41
 -14 -14  10    1.89    0.55
  14 -14 -10    2.98    0.56
   0  15   1    2.58    0.45
 -15   0  -1    3.37    0.47
 -15   0   1    3.36    0.50
  15   0   1    3.12    0.45
  15   0  -1    2.50    0.41
   0 -15   1    3.07    0.24
   0 -15  -1    2.94    0.29
   0  15  -1    2.85    0.40
   0  15   1    2.58    0.35
   0  15   3   15.01    0.99
 -15   0  -3   14.38    0.85
 -15   0   3   13.23    0.92
  15   0   3   13.16    0.90
   0 -15   3    9.85    0.37
  15   0  -3   14.57    0.93
   0 -15  -3   13.54    0.69
   0  15  -3   12.50    0.82
   0  15   3   11.87    0.65
   0 -15  -5   -0.03    0.16
 -15   0  -5   -0.05    0.21
   0  15   5    0.01    0.15
 -15   0   5   -0.05    0.31
   0  15   5   -0.18    0.29
  15   0  -5    0.29    0.22
   0  15  -5   -0.11    0.26
   0  15  -7    3.69    0.52
   0 -15  -7    3.04    0.41
 -15   0  -7    3.33    0.38
 -15   0   7    3.03    0.53
   0  15   7    4.02    0.59
  15   0  -7    2.36    0.41
 -15   0   7    2.71    0.45
 -15   0   9   13.35    1.07
   0 -15  -9   13.81    0.90
  15   0  -9   14.73    0.99
 -15   0   9   12.69    0.86
   0  15  -9   13.29    0.98
   0 -15  -9   13.66    0.96
   0 -15 -11    0.18    0.22
   0  15 -11    0.22    0.33
 -15   0  11    0.64    0.37
  15   0 -11   -0.05    0.21
 -15   0  11   -0.21    0.32
   0 -15 -11   -0.07    0.30
   0 -15 -13    2.40    0.49
 -15   0  13    2.80    0.60
   0  15 -13    2.75    0.56
 -15   0  13    1.89    0.40
  15   0 -13    2.91    0.50
   0 -15 -13    3.16    0.51
   0 -15 -15    2.76    0.54
 -15   0  15    3.17    0.60
   0  15 -15    3.54    0.59
  15   0 -15    3.05    0.53
   0 -15 -15    3.82    0.56
   0 -15 -17    0.12    0.28
 -15   0  17   -0.01    0.33
   0  15 -17    0.41    0.40
  15   0 -17    0.09    0.23
   0 -15 -17   -0.26    0.34
  -1 -15 -18    0.25    0.32
   1  15 -18    0.63    0.36
  15   1 -18   -0.07    0.29
  -1 -15 -16    1.38    0.44
 -15   1  16    1.17    0.48
   1  15 -16    1.48    0.46
  15   1 -16    1.28    0.39
   1  15 -14    1.03    0.38
  -1 -15 -14    0.67    0.35
 -15   1  14    0.48    0.28
  15   1 -14    0.98    0.35
   1  15 -12    5.50    0.70
  -1 -15 -12    4.78    0.63
  15   1 -12    6.12    0.67
 -15   1  12    5.21    0.56
  15   1 -10    6.94    0.68
 -15   1  10    6.13    0.59
   1  15 -10    6.94    0.72
  -1 -15 -10    6.70    0.65
 -15  -1  -8    3.14    0.35
  -1 -15  -8    2.97    0.41
  15   1  -8    3.06    0.47
   1  15  -8    2.79    0.46
 -15   1   8    3.48    0.47
 -15  -1  -6    6.27    0.54
  15   1  -6    6.95    0.65
  -1  15   6    5.95    0.66
   1  15  -6    6.39    0.64
  -1 -15  -6    7.14    0.58
  -1  15   4    9.75    0.82
 -15  -1  -4   11.21    0.75
  15  -1   4   10.16    0.80
  15   1  -4    9.50    0.76
  -1  15   4    8.48    0.52
   1  15  -4    8.76    0.72
  -1 -15  -4   10.12    0.62
 -15  -1  -2    4.44    0.52
  -1  15   2    3.84    0.55
 -15   1   2    4.54    0.58
   1 -15   2    4.34    0.29
  15  -1   2    4.38    0.52
  -1  15   2    3.51    0.38
  15   1  -2    4.28    0.51
   1  15  -2    3.71    0.47
  -1 -15  -2    4.01    0.35
 -15  -1   0    8.36    0.71
 -15   1   0    8.60    0.72
  15   1   0    7.92    0.70
  15  -1   0    8.19    0.70
   1 -15   0    7.21    0.44
  -1 -15   0    7.41    0.40
   1  15   0    6.79    0.57
  -1  15   0    7.37    0.59
  -1  15   0    9.10    0.77
   1  15   0    7.64    0.73
  -1  15  -2    4.07    0.48
 -15  -1   2    4.30    0.55
   1  15   2    4.06    0.54
 -15   1  -2    4.53    0.50
  15   1   2    4.13    0.50
  -1 -15   2    3.18    0.19
  15  -1  -2    3.49    0.49
   1  15   2    3.40    0.40
   1 -15  -2    3.51    0.34
   1  15   4    9.93    0.83
 -15   1  -4    9.92    0.71
 -15  -1   4    9.71    0.83
  15  -1  -4   10.45    0.80
   1  15   4    8.63    0.55
   1 -15  -4    9.39    0.61
  -1  15  -4    9.10    0.73
 -15   1  -6    6.07    0.52
 -15  -1   6    5.78    0.68
  -1  15  -6    5.39    0.60
  15  -1  -6    5.90    0.61
   1  15   6    5.23    0.65
   1  15   6    5.06    0.37
   1 -15  -6    6.81    0.56
   1 -15  -6    6.05    0.65
   1 -15  -8    2.41    0.40
 -15   1  -8    3.54    0.37
 -15  -1   8    2.59    0.50
  -1  15  -8    4.24    0.55
  15  -1  -8    3.85    0.52
 -15  -1   8    4.28    0.53
   1 -15  -8    3.73    0.55
 -15  -1  10    6.01    0.75
 -15  -1  10    6.61    0.65
  15  -1 -10    7.71    0.75
   1 -15 -10    8.25    0.77
  -1  15 -10    7.72    0.77
   1 -15 -10    6.77    0.67
   1 -15 -12    4.53    0.61
 -15  -1  12    4.93    0.69
  -1  15 -12    5.95    0.71
 -15  -1  12    4.69    0.57
  15  -1 -12    5.43    0.66
   1 -15 -12    5.96    0.67
   1 -15 -14    0.79    0.34
 -15  -1  14    0.47    0.40
   1 -15 -14    0.59    0.34
 -15  -1  14    0.83    0.32
  -1  15 -14    0.88    0.37
  15  -1 -14    0.43    0.32
   1 -15 -16    1.26    0.39
 -15  -1  16    0.85    0.44
  15  -1 -16    0.78    0.33
  -1  15 -16    1.24    0.46
   1 -15 -16    1.97    0.45
  -1  15 -18   -0.24    0.43
   1 -15 -18    0.17    0.31
 -15  -1  18    1.21    0.45
  15  -1 -18    0.73    0.34
   1 -15 -18    0.89    0.40
   2  15 -17    0.39    0.38
  -2 -15 -17    0.70    0.35
  15   2 -17    0.08    0.25
   2  15 -15    0.86    0.38
  -2 -15 -15    1.39    0.43
  15   2 -15    1.96    0.43
  -2 -15 -13    1.33    0.35
 -15   2  13    1.54    0.35
  15   2 -13    1.45    0.39
   2  15 -13    1.46    0.44
  -2 -15 -11    0.45    0.28
  15   2 -11   -0.05    0.24
 -15   2  11    0.21    0.24
   2  15 -11    0.90    0.37
 -15  -2  -9    1.64    0.27
  -2 -15  -9    1.75    0.35
  15   2  -9    1.57    0.34
   2  15  -9    1.54    0.39
 -15   2   9    2.16    0.41
 -15  -2  -7    1.27    0.29
  -2 -15  -7    2.20    0.36
  -2  15   7    1.59    0.44
  15   2  -7    1.60    0.36
   2  15  -7    1.55    0.39
 -15  -2  -5    2.19    0.36
  -2 -15  -5    1.99    0.31
  15  -2   5    1.77    0.38
  -2  15   5    2.59    0.49
   2  15  -5    1.28    0.32
  15   2  -5    1.89    0.37
  -2 -15  -3    0.10    0.15
 -15  -2  -3    0.12    0.24
  -2  15   3    0.13    0.32
  15  -2   3    0.23    0.22
   2  15  -3   -0.02    0.23
  15   2  -3    0.11    0.19
   2 -15   3    0.28    0.12
  -2  15   3   -0.01    0.17
  -2  15   1    1.01    0.26
   2  15  -1    0.79    0.34
  -2  15   1    1.85    0.46
 -15  -2  -1    0.54    0.28
   2  15  -1    0.14    0.21
  15   2  -1    1.09    0.32
  15  -2   1    1.07    0.32
   2 -15   1    0.70    0.16
  -2 -15  -1    0.82    0.17
 -15  -2   1    1.19    0.36
   2  15   1    0.77    0.33
   2  15   1    0.90    0.26
  15   2   1    0.81    0.28
  15  -2  -1    0.61    0.27
  -2 -15   1    0.51    0.10
  -2  15  -1    0.57    0.24
   2 -15  -1    1.05    0.21
 -15  -2   3    0.19    0.29
 -15   2  -3    0.23    0.26
   2  15   3    0.09    0.18
   2  15   3    0.34    0.34
  15  -2  -3    0.34    0.22
  -2  15  -3   -0.19    0.21
   2 -15  -3    0.30    0.28
   2 -15  -3   -0.14    0.17
   2 -15  -5    1.73    0.31
 -15  -2   5    1.90    0.46
 -15   2  -5    2.07    0.36
   2  15   5    1.34    0.24
   2  15   5    1.90    0.42
  15  -2  -5    2.04    0.40
  -2  15  -5    1.76    0.34
   2 -15  -5    2.10    0.43
   2 -15  -7    2.13    0.37
 -15   2  -7    1.78    0.29
 -15  -2   7    1.53    0.42
  15  -2  -7    2.03    0.38
  -2  15  -7    1.84    0.38
 -15  -2   7    1.99    0.44
   2 -15  -7    1.81    0.42
   2 -15  -9    1.91    0.39
 -15  -2   9    1.92    0.46
   2 -15  -9    2.11    0.44
  15  -2  -9    2.28    0.42
  -2  15  -9    1.51    0.40
 -15  -2   9    2.35    0.46
   2 -15 -11    0.42    0.25
 -15  -2  11    0.89    0.39
 -15  -2  11    0.95    0.38
  15  -2 -11    0.42    0.24
  -2  15 -11    0.66    0.37
   2 -15 -11    0.77    0.35
  -2  15 -13    1.81    0.44
   2 -15 -13    1.39    0.36
 -15  -2  13    0.78    0.39
 -15  -2  13    1.18    0.36
  15  -2 -13    1.05    0.36
   2 -15 -13    1.25    0.39
   2 -15 -15    1.14    0.40
  -2  15 -15    1.07    0.41
 -15  -2  15    1.33    0.47
  15  -2 -15    1.08    0.35
   2 -15 -15    0.95    0.38
   2 -15 -17    0.76    0.38
 -15  -2  17    0.04    0.36
  -2  15 -17    0.08    0.40
  15  -2 -17    0.39    0.29
   2 -15 -17    0.31    0.31
   3  15 -18    0.30    0.34
  -3 -15 -18    0.44    0.32
  15   3 -18    0.87    0.32
  -3 -15 -16    0.60    0.32
  15   3 -16    0.79    0.34
   3  15 -16    1.15    0.43
  -3 -15 -14   -0.15    0.33
  15   3 -14    0.36    0.25
   3  15 -14   -0.22    0.30
  -3 -15 -12    0.51    0.31
  15   3 -12    0.28    0.20
 -15   3  12    0.64    0.24
   3  15 -12    1.23    0.40
  -3 -15 -10    1.27    0.33
   3  15 -10    1.95    0.46
  15   3 -10    1.55    0.34
 -15   3  10    1.13    0.30
 -15  -3  -8    1.38    0.27
  -3 -15  -8    1.73    0.34
   3  15  -8    1.18    0.33
  15   3  -8    1.09    0.30
 -15  -3  -6   -0.01    0.20
  -3 -15  -6   -0.12    0.18
   3  15  -6   -0.19    0.21
  -3  15   6   -0.18    0.32
  15   3  -6   -0.07    0.21
 -15  -3  -4    2.18    0.36
  -3 -15  -4    1.82    0.27
   3  15  -4    1.92    0.37
  -3  15   4    2.39    0.47
  15  -3   4    1.34    0.32
   3 -15   4    2.03    0.24
  15   3  -4    2.39    0.40
  -3  15   2    2.31    0.32
   3  15  -2    2.46    0.46
  -3 -15  -2    2.62    0.28
 -15  -3  -2    2.55    0.41
  -3  15   2    2.95    0.48
   3  15  -2    2.32    0.40
   3 -15   2    2.61    0.28
  15   3  -2    2.93    0.44
  15  -3   2    2.56    0.44
  -3  15   0    3.58    0.53
   3  15   0    2.79    0.42
   3  15   0    3.84    0.53
 -15  -3   0    3.56    0.51
  15   3   0    3.42    0.46
  15  -3   0    3.09    0.45
   3 -15   0    3.43    0.34
  -3 -15   0    3.04    0.23
  -3  15   0    3.51    0.42
   3  15   2    2.68    0.38
 -15  -3   2    2.54    0.46
   3  15   2    2.53    0.46
  -3  15  -2    2.30    0.38
  15  -3  -2    2.30    0.40
   3 -15  -2    2.56    0.33
   3 -15  -2    2.89    0.49
   3  15   4    1.37    0.27
 -15  -3   4    1.55    0.37
  -3  15  -4    1.81    0.36
 -15   3  -4    2.09    0.37
   3  15   4    1.74    0.42
  15  -3  -4    2.36    0.42
   3 -15  -4    1.56    0.30
   3 -15  -4    1.87    0.42
   3  15   6   -0.09    0.15
  -3  15  -6   -0.02    0.24
 -15  -3   6    0.22    0.29
 -15   3  -6   -0.04    0.19
   3  15   6   -0.49    0.35
  15  -3  -6   -0.15    0.30
 -15  -3   6   -0.21    0.30
   3 -15  -6    0.14    0.29
   3 -15  -6    0.08    0.18
   3 -15  -8    1.48    0.33
  -3  15  -8    1.31    0.38
 -15   3  -8    1.35    0.24
 -15  -3   8    1.35    0.42
  15  -3  -8    1.56    0.37
 -15  -3   8    1.08    0.33
   3 -15  -8    0.76    0.36
   3 -15 -10    1.69    0.36
 -15  -3  10    1.54    0.45
  -3  15 -10    1.67    0.43
 -15  -3  10    1.06    0.38
  15  -3 -10    2.04    0.42
   3 -15 -10    1.86    0.45
   3 -15 -12    0.90    0.34
 -15  -3  12    1.32    0.47
  -3  15 -12    0.97    0.37
 -15  -3  12    1.49    0.43
  15  -3 -12    1.87    0.40
   3 -15 -12    0.88    0.37
   3 -15 -14    0.58    0.32
 -15  -3  14    0.03    0.38
  -3  15 -14   -0.39    0.33
  15  -3 -14   -0.12    0.26
   3 -15 -14   -0.04    0.35
   3 -15 -16    0.70    0.36
 -15  -3  16    0.31    0.34
  15  -3 -16    1.07    0.43
  -3  15 -16    0.30    0.35
   3 -15 -16    1.02    0.39
   3 -15 -18    0.54    0.36
  -3  15 -18    0.22    0.36
 -15  -3  18   -0.66    0.47
  15  -3 -18    0.08    0.28
   3 -15 -18    0.20    0.35
  -4 -15 -17    0.25    0.33
  15   4 -17    0.51    0.30
  -4 -15 -15    1.21    0.38
  15   4 -15    1.50    0.40
   4  15 -15    0.54    0.35
  -4 -15 -13    0.13    0.24
   4  15 -13    0.34    0.35
  -4 -15 -11    0.51    0.31
   4  15 -11    0.04    0.26
  15   4 -11    0.01    0.20
 -15   4  11    0.55    0.27
  -4 -15  -9    0.34    0.28
   4  15  -9   -0.17    0.28
  -4 -15  -9    0.54    0.29
  15   4  -9    0.38    0.21
 -15   4   9    0.34    0.23
 -15  -4  -7    4.50    0.48
  -4 -15  -7    3.84    0.48
   4  15  -7    4.21    0.55
  15   4  -7    3.71    0.48
  -4  15   7    4.50    0.61
  -4 -15  -7    4.45    0.51
 -15  -4  -5    1.49    0.35
   4  15  -5    1.29    0.33
  -4 -15  -5    1.69    0.28
  15  -4   5    1.48    0.36
   4 -15   5    1.99    0.24
  -4  15   5    2.02    0.45
  15   4  -5    2.31    0.40
   4  15  -3    0.88    0.30
 -15  -4  -3    1.27    0.32
  -4 -15  -3    0.85    0.21
  -4  15   3    0.91    0.36
  15  -4   3    0.77    0.28
  15   4  -3    0.91    0.27
   4 -15   3    1.30    0.23
  -4 -15  -1    0.28    0.12
  -4  15   1   -0.14    0.29
   4  15  -1    0.05    0.28
 -15  -4  -1    0.19    0.24
  15   4  -1   -0.04    0.19
  15  -4   1    0.25    0.20
   4 -15   1    0.29    0.16
 -15  -4   1    0.77    0.35
  15  -4  -1    0.26    0.21
  -4  15  -1    0.20    0.21
   4 -15  -1    0.54    0.20
   4 -15  -1    0.18    0.30
 -15  -4   3    1.05    0.36
   4  15   3    0.43    0.33
  -4  15  -3    1.60    0.34
  15  -4  -3    1.26    0.33
   4 -15  -3    1.26    0.24
   4 -15  -3    1.16    0.37
  -4  15  -5    1.93    0.38
 -15  -4   5    1.86    0.43
   4  15   5    1.69    0.40
  15  -4  -5    1.49    0.35
 -15  -4   5    1.54    0.43
   4 -15  -5    1.68    0.33
   4 -15  -5    1.79    0.42
 -15   4  -7    4.25    0.43
 -15  -4   7    4.55    0.63
  15  -4  -7    4.49    0.56
   4 -15  -7    4.82    0.53
 -15  -4   7    4.24    0.60
   4 -15  -7    5.07    0.63
  -4  15  -7    4.11    0.54
   4 -15  -9    0.19    0.22
 -15  -4   9    0.12    0.30
  15  -4  -9    0.26    0.25
 -15  -4   9    0.37    0.35
   4 -15  -9    0.59    0.37
  -4  15  -9    0.27    0.30
  -4  15 -11   -0.02    0.30
   4 -15 -11    0.78    0.31
 -15  -4  11    0.11    0.36
 -15  -4  11    0.03    0.32
  15  -4 -11    0.63    0.32
   4 -15 -11   -0.40    0.39
   4 -15 -13    0.73    0.32
 -15  -4  13    1.03    0.47
  -4  15 -13    0.77    0.39
 -15  -4  13    0.49    0.37
  15  -4 -13    1.26    0.39
   4 -15 -13    1.50    0.42
   4 -15 -15    1.01    0.41
 -15  -4  15    1.00    0.44
  -4  15 -15    1.23    0.43
  15  -4 -15    1.63    0.43
   4 -15 -15    1.07    0.41
  -4  15 -17    0.30    0.41
   4 -15 -17   -0.01    0.34
 -15  -4  17    0.88    0.40
  15  -4 -17    0.25    0.28
   4 -15 -17    0.26    0.37
  -5 -15 -16    0.24    0.30
  15   5 -16    0.56    0.29
   5  15 -16    0.94    0.38
  -5 -15 -14   -0.05    0.29
   5  15 -14    0.70    0.38
  15   5 -14    0.37    0.25
  -5 -15 -12    3.40    0.56
   5  15 -12    4.52    0.62
   5  15 -10    4.20    0.61
  -5 -15 -10    3.64    0.54
  15   5 -10    3.57    0.46
  -5 -15 -10    4.62    0.52
 -15   5  10    4.20    0.46
   5  15  -8    1.44    0.38
  -5 -15  -8    1.47    0.36
  15   5  -8    1.37    0.33
  -5 -15  -8    1.30    0.35
 -15  -5  -6    2.56    0.42
   5  15  -6    2.69    0.47
  -5 -15  -6    3.00    0.40
  15  -5   6    2.60    0.45
  -5  15   6    3.53    0.54
  15   5  -6    3.73    0.47
  -5 -15  -6    3.36    0.49
 -15  -5  -4    1.06    0.32
  -5 -15  -4    1.08    0.22
  -5  15   4    1.73    0.42
  15  -5   4    1.11    0.30
  15   5  -4    1.31    0.30
   5 -15   4    1.26    0.23
  -5 -15  -4    1.07    0.33
 -15  -5  -2    0.70    0.29
   5  15  -2    0.21    0.26
  -5  15   2    0.33    0.28
  -5 -15  -2    0.47    0.17
  15   5  -2    0.60    0.25
  15  -5   2    0.60    0.30
   5 -15   2    0.37    0.17
   5 -15   2    0.82    0.34
  -5  15   0    0.41    0.30
 -15  -5   0   -0.37    0.33
   5  15   0    0.13    0.30
  15  -5   0    0.28    0.23
   5 -15   0   -0.16    0.16
   5 -15   0    0.55    0.31
 -15  -5   2    0.24    0.26
   5  15   2    0.58    0.33
  15  -5  -2    0.17    0.24
   5 -15  -2    0.16    0.16
   5 -15  -2    0.38    0.33
 -15  -5   4    1.33    0.44
   5  15   4    0.74    0.34
  15  -5  -4    1.48    0.35
   5 -15  -4    1.74    0.31
 -15  -5   4    1.27    0.40
   5 -15  -4    1.34    0.39
 -15  -5   6    3.75    0.58
  -5  15  -6    3.38    0.50
  15  -5  -6    3.38    0.50
 -15  -5   6    3.14    0.54
   5 -15  -6    2.59    0.39
   5 -15  -6    3.32    0.53
 -15  -5   8    1.00    0.43
  -5  15  -8    1.90    0.45
  15  -5  -8    1.64    0.38
 -15  -5   8    1.81    0.44
   5 -15  -8    1.29    0.35
   5 -15  -8    1.71    0.43
   5 -15 -10    4.43    0.58
 -15  -5  10    4.25    0.67
  -5  15 -10    3.82    0.60
 -15  -5  10    4.12    0.59
  15  -5 -10    4.15    0.58
   5 -15 -10    4.38    0.65
   5 -15 -12    5.05    0.64
 -15  -5  12    4.02    0.67
 -15  -5  12    4.18    0.61
  15  -5 -12    5.54    0.68
  -5  15 -12    3.66    0.60
   5 -15 -12    3.57    0.62
   5 -15 -14    0.36    0.29
 -15  -5  14    0.42    0.45
  -5  15 -14    0.48    0.38
  15  -5 -14    0.42    0.27
   5 -15 -14    1.12    0.39
   5 -15 -16    1.08    0.42
 -15  -5  16    1.09    0.48
  -5  15 -16   -0.18    0.35
  15  -5 -16    1.35    0.43
   5 -15 -16    0.61    0.41
  -6 -15 -17    0.95    0.44
   6  15 -17    0.89    0.37
  -6 -15 -15    2.83    0.55
   6  15 -15    2.53    0.53
  -6 -15 -13    2.41    0.50
   6  15 -13    3.35    0.60
  15   6 -13    3.86    0.52
   6  15 -11    0.77    0.35
  -6 -15 -11    0.95    0.39
  15   6 -11    1.03    0.30
  -6 -15 -11    1.01    0.33
   6  15  -9    5.58    0.68
  15   6  -9    5.79    0.58
  -6 -15  -9    5.00    0.61
  -6 -15  -9    5.95    0.64
  -6  15   7   14.30    1.02
  -6 -15  -7   11.03    0.79
  15   6  -7   14.27    0.89
  -6 -15  -7   11.84    0.87
   6  15  -7   12.58    0.95
 -15  -6  -5    0.78    0.31
  -6 -15  -5    0.99    0.25
  -6  15   5    0.51    0.31
  15  -6   5    0.67    0.31
   6 -15   5    1.05    0.23
  15   6  -5    1.30    0.32
  -6 -15  -5    1.04    0.33
 -15  -6  -3    2.53    0.44
   6  15  -3    2.49    0.45
  -6  15   3    2.90    0.50
  -6 -15  -3    2.12    0.29
  15   6  -3    3.06    0.43
  15  -6   3    2.18    0.43
   6 -15   3    2.29    0.31
  -6 -15  -3    2.32    0.45
   6 -15   3    2.18    0.43
 -15  -6  -1    3.06    0.48
  -6  15   1    4.10    0.55
   6  15  -1    2.59    0.46
  -6 -15  -1    2.39    0.25
   6 -15   1    2.85    0.48
  15  -6   1    2.83    0.46
   6 -15   1    2.83    0.35
 -15  -6   1    2.45    0.46
   6  15   1    2.86    0.49
  15  -6  -1    2.42    0.43
   6 -15  -1    2.78    0.37
   6 -15  -1    2.78    0.48
 -15  -6   3    1.57    0.41
   6  15   3    2.41    0.49
 -15  -6   3    3.44    0.56
  15  -6  -3    2.21    0.41
   6 -15  -3    2.78    0.38
   6 -15  -3    2.46    0.45
 -15  -6   5    1.08    0.40
  15  -6  -5    1.19    0.35
 -15  -6   5    0.73    0.37
   6 -15  -5    1.18    0.28
   6 -15  -5    0.96    0.38
 -15  -6   7   12.35    1.03
 -15  -6   7   10.65    0.91
  15  -6  -7   12.37    0.96
   6 -15  -7   13.14    0.90
   6 -15  -7   12.93    0.98
 -15  -6   9    4.95    0.73
 -15  -6   9    4.96    0.67
  15  -6  -9    5.98    0.69
   6 -15  -9    6.25    0.65
   6 -15  -9    6.00    0.72
 -15  -6  11    0.44    0.35
   6 -15 -11    1.11    0.40
 -15  -6  11   -0.04    0.36
  15  -6 -11    0.63    0.31
   6 -15 -11    1.04    0.42
   6 -15 -13    4.12    0.63
 -15  -6  13    3.71    0.68
 -15  -6  13    3.02    0.56
   6 -15 -13    4.01    0.64
  15  -6 -13    4.39    0.66
   6 -15 -15    3.34    0.59
 -15  -6  15    3.08    0.63
  15  -6 -15    3.82    0.64
   6 -15 -15    3.30    0.63
   6 -15 -17    1.63    0.50
 -15  -6  17    1.38    0.51
  15  -6 -17   -0.01    0.34
   6 -15 -17    1.02    0.49
   7  15 -16    0.67    0.40
   7  15 -14    1.45    0.45
   7  15 -12    4.58    0.66
  15   7 -12    5.03    0.54
  -7 -15 -12    4.78    0.59
   7  15 -10    3.92    0.61
  15   7 -10    4.02    0.50
  -7 -15 -10    3.73    0.56
  15  -7   8    3.16    0.41
  15   7  -8    2.91    0.40
  -7 -15  -8    3.27    0.52
 -15  -7  -6    4.64    0.53
   7 -15   6    3.87    0.40
  15   7  -6    5.07    0.53
  15  -7   6    4.22    0.57
  -7  15   6    4.27    0.59
  -7 -15  -6    4.36    0.58
 -15  -7  -4    3.88    0.51
   7  15  -4    4.21    0.54
  15   7  -4    4.63    0.51
  15  -7   4    5.03    0.61
  -7  15   4    4.98    0.61
   7 -15   4    4.86    0.46
  -7 -15  -4    4.87    0.60
   7 -15   4    4.08    0.54
 -15  -7  -2    4.25    0.56
  -7 -15  -2    4.04    0.38
  -7  15   2    4.40    0.59
   7  15  -2    3.95    0.54
  15  -7   2    4.32    0.55
   7 -15   2    3.81    0.42
  -7 -15  -2    3.29    0.53
   7 -15   2    4.31    0.56
  -7  15   0    1.12    0.37
 -15  -7   0    1.16    0.37
   7  15   0    1.76    0.41
  15  -7   0    1.49    0.36
  -7 -15   0    1.90    0.46
   7 -15   0    1.72    0.31
   7 -15   0    2.04    0.44
 -15  -7   2    3.83    0.56
   7  15   2    3.96    0.57
   7 -15  -2    4.31    0.48
  15  -7  -2    4.61    0.59
 -15  -7   2    4.07    0.60
   7 -15  -2    3.75    0.54
 -15  -7   4    3.72    0.59
   7  15   4    4.09    0.59
  15  -7  -4    4.88    0.58
   7 -15  -4    4.45    0.50
 -15  -7   4    4.13    0.63
   7 -15  -4    4.15    0.57
 -15  -7   6    3.69    0.61
  15  -7  -6    5.52    0.64
 -15  -7   6    4.07    0.61
   7 -15  -6    4.07    0.52
   7 -15  -6    4.41    0.62
 -15  -7   8    2.91    0.56
 -15  -7   8    3.43    0.60
  15  -7  -8    3.26    0.55
   7 -15  -8    2.79    0.46
   7 -15  -8    2.84    0.54
 -15  -7  10    3.42    0.62
 -15  -7  10    3.75    0.61
  15  -7 -10    4.84    0.64
   7 -15 -10    3.84    0.55
   7 -15 -10    3.59    0.61
 -15  -7  12    3.83    0.68
 -15  -7  12    4.09    0.64
  15  -7 -12    5.05    0.68
   7 -15 -12    4.66    0.62
   7 -15 -12    4.83    0.68
   7 -15 -14    0.51    0.32
   7 -15 -14    0.87    0.43
 -15  -7  14    1.15    0.46
  15  -7 -14    1.13    0.40
   7 -15 -16   -0.23    0.38
   7 -15 -16    0.92    0.42
 -15  -7  16    0.50    0.39
  15  -7 -16    0.88    0.36
   8  15 -15    0.51    0.37
   8  15 -13    1.26    0.45
   8  15 -11    1.92    0.50
  -8 -15 -11    1.80    0.44
  15   8  -9    0.09    0.17
  -8 -15  -9    0.29    0.32
  15  -8   7    2.75    0.41
  15  -8   7    2.92    0.49
  15   8  -7    3.02    0.41
  -8  15   7    3.33    0.56
  -8 -15  -7    3.40    0.52
 -15  -8  -5    1.83    0.39
   8  15  -5    2.13    0.43
  15   8  -5    2.39    0.38
  15  -8   5    2.73    0.45
  -8  15   5    2.46    0.48
   8 -15   5    2.71    0.37
  -8 -15  -5    2.14    0.49
   8 -15   5    1.72    0.40
 -15  -8  -3    0.44    0.28
   8  15  -3    0.20    0.25
  -8  15   3    0.03    0.30
  15  -8   3    0.36    0.26
   8 -15   3   -0.22    0.22
  -8 -15  -3    0.37    0.31
   8 -15   3    0.06    0.28
 -15  -8  -1    3.06    0.53
  -8  15   1    4.16    0.59
   8  15  -1    3.13    0.50
  15  -8   1    3.21    0.51
   8 -15   1    3.74    0.44
  -8 -15  -1    2.85    0.51
   8 -15   1    3.95    0.58
 -15  -8   1    4.12    0.60
   8  15   1    3.58    0.53
  -8 -15   1    3.64    0.59
  15  -8  -1    3.17    0.49
   8 -15  -1    3.92    0.47
 -15  -8   1    3.76    0.60
   8 -15  -1    3.54    0.53
 -15  -8   3    0.06    0.31
   8  15   3   -0.26    0.30
  15  -8  -3    0.00    0.22
   8 -15  -3    0.43    0.22
 -15  -8   3    0.25    0.32
   8 -15  -3    0.03    0.29
 -15  -8   5    1.57    0.47
  15  -8  -5    3.13    0.51
 -15  -8   5    2.06    0.51
   8 -15  -5    2.15    0.41
   8 -15  -5    3.11    0.55
 -15  -8   7    2.43    0.53
  15  -8  -7    2.45    0.47
 -15  -8   7    2.75    0.58
   8 -15  -7    3.09    0.48
   8 -15  -7    3.39    0.57
   8 -15  -9    1.17    0.44
 -15  -8   9    0.24    0.37
 -15  -8   9    0.01    0.34
  15  -8  -9    1.01    0.36
   8 -15  -9    1.03    0.36
   8 -15 -11    1.95    0.47
 -15  -8  11    1.72    0.53
 -15  -8  11    1.86    0.52
  15  -8 -11    1.09    0.39
   8 -15 -11    1.81    0.45
   8 -15 -13    0.39    0.40
 -15  -8  13    0.66    0.39
  15  -8 -13    1.19    0.46
   8 -15 -13    0.66    0.32
   8 -15 -15    0.35    0.38
 -15  -8  15    0.17    0.36
  15  -8 -15    0.50    0.35
   8 -15 -15    0.53    0.29
   9  15 -14   -0.12    0.35
   9  15 -12    0.04    0.29
  -9 -15 -12   -0.04    0.30
  -9 -15 -10    0.56    0.34
  -9 -15  -8    0.15    0.32
  15  -9   8    0.28    0.25
  15  -9   6    1.35    0.34
   9  15  -6    1.20    0.36
  15  -9   6    1.75    0.39
   9 -15   6    1.71    0.31
  -9  15   6    1.53    0.41
  -9 -15  -6    2.12    0.47
   9 -15   6    1.72    0.40
   9  15  -4    0.45    0.28
  -9  15   4   -0.06    0.30
  15  -9   4    0.33    0.24
   9 -15   4    0.55    0.26
  -9 -15  -4    0.24    0.31
   9 -15   4    0.27    0.29
 -15  -9  -2    2.32    0.47
  -9  15   2    2.71    0.48
   9  15  -2    2.38    0.44
  15  -9   2    2.47    0.46
   9 -15   2    2.74    0.40
  -9 -15  -2    3.07    0.52
   9 -15   2    3.23    0.54
 -15  -9   0    2.58    0.51
  -9  15   0    3.07    0.52
   9  15   0    2.08    0.44
  15  -9   0    3.63    0.53
  -9 -15   0    4.75    0.67
   9 -15   0    3.61    0.46
 -15  -9   0    3.64    0.60
   9 -15   0    4.22    0.59
 -15  -9   2    2.21    0.52
   9  15   2    2.27    0.45
  -9 -15   2    2.46    0.51
  15  -9  -2    2.69    0.46
   9 -15  -2    2.84    0.43
 -15  -9   2    2.43    0.54
   9 -15  -2    3.11    0.54
 -15  -9   4   -0.02    0.34
  15  -9  -4    0.16    0.22
   9 -15  -4    0.53    0.25
 -15  -9   4    0.26    0.34
   9 -15  -4    0.84    0.36
 -15  -9   6    0.69    0.37
  15  -9  -6    1.69    0.46
 -15  -9   6    2.18    0.51
   9 -15  -6    2.09    0.42
   9 -15  -6    2.46    0.51
   9 -15  -8    1.00    0.41
 -15  -9   8    0.56    0.37
 -15  -9   8    0.40    0.40
  15  -9  -8    1.17    0.35
   9 -15  -8    0.23    0.23
   9 -15 -10    0.24    0.35
 -15  -9  10    0.43    0.40
 -15  -9  10    0.34    0.38
  15  -9 -10   -0.36    0.30
   9 -15 -10    0.49    0.28
   9 -15 -12    0.85    0.47
 -15  -9  12   -0.25    0.37
  15  -9 -12    0.44    0.33
   9 -15 -12    0.69    0.34
   9 -15 -14    0.84    0.43
 -15  -9  14    0.13    0.32
  15  -9 -14    0.35    0.32
   9 -15 -14    0.07    0.26
  10  15 -13    0.73    0.38
 -10 -15 -13   -0.20    0.34
 -10 -15 -11    0.68    0.39
 -10 -15  -9    0.42    0.33
  10  15  -7    0.37    0.26
  10 -15   7    0.97    0.28
  15 -10   7    0.84    0.33
 -10 -15  -7    0.45    0.32
  15 -10   7   -0.06    0.28
  15 -10   5    1.22    0.35
  10  15  -5    1.56    0.40
  15 -10   5    1.80    0.41
  10 -15   5    1.48    0.32
 -10  15   5    1.31    0.37
 -10 -15  -5    1.51    0.41
  10 -15   5    1.20    0.38
  10  15  -3    1.93    0.43
 -10  15   3    1.73    0.41
  15 -10   3    2.09    0.42
  10 -15   3    2.11    0.38
 -10 -15  -3    2.47    0.56
 -15 -10  -3    2.14    0.52
  10 -15   3    1.84    0.41
 -15 -10  -1    0.03    0.32
 -10  15   1    0.70    0.33
  10  15  -1    0.78    0.33
  15 -10   1    0.50    0.26
  10 -15   1    0.27    0.19
 -10 -15  -1    1.08    0.45
 -15 -10  -1    0.16    0.38
  10 -15   1    0.08    0.29
 -15 -10   1   -0.09    0.35
  10  15   1    0.71    0.34
  15 -10  -1    0.60    0.30
 -10 -15   1    0.74    0.41
  10 -15  -1    0.57    0.24
 -15 -10   1    0.43    0.36
  10 -15  -1    0.06    0.31
 -15 -10   3    2.02    0.52
  10 -15  -3    2.07    0.46
 -10 -15   3    1.74    0.50
  15 -10  -3    2.33    0.46
  10 -15  -3    1.99    0.37
 -15 -10   3    1.45    0.46
 -15 -10   5    0.65    0.39
  15 -10  -5    2.00    0.43
 -15 -10   5    2.49    0.58
  10 -15  -5    0.99    0.32
  10 -15  -5    1.49    0.44
  10 -15  -7    0.46    0.35
 -15 -10   7    0.70    0.44
 -15 -10   7    0.64    0.42
  15 -10  -7    0.63    0.30
  10 -15  -7    0.36    0.23
  10 -15  -9    0.02    0.34
 -15 -10   9    0.27    0.31
 -15 -10   9    0.16    0.38
  15 -10  -9    0.48    0.31
  10 -15  -9    0.12    0.27
  10 -15 -11   -0.17    0.38
 -15 -10  11    0.09    0.34
 -15 -10  11   -0.19    0.38
  15 -10 -11    0.41    0.29
  10 -15 -11    0.92    0.35
 -15 -10  13   -0.59    0.45
  15 -10 -13    0.23    0.36
  10 -15 -13   -0.13    0.31
 -11 -15 -12    0.53    0.32
 -11 -15 -10    0.03    0.38
  11  15  -8    0.10    0.30
 -11 -15  -8   -0.68    0.40
  15 -11   8   -0.27    0.25
  11  15  -6    0.84    0.36
  15 -11   6    0.45    0.27
  11 -15   6    0.41    0.24
 -11  15   6    0.69    0.36
 -11 -15  -6    0.82    0.42
  11 -15   6    0.57    0.31
  15 -11   6    0.25    0.27
  15 -11   4   -0.08    0.31
  11  15  -4    0.40    0.31
 -11  15   4    0.34    0.30
  15 -11   4    0.21    0.26
  11 -15   4    0.35    0.21
 -11 -15  -4    0.19    0.35
 -15 -11  -4   -0.11    0.39
  11 -15   4    0.37    0.31
 -11  15   2    0.27    0.33
  11  15  -2    0.10    0.27
  15 -11   2    0.45    0.25
  11 -15   2    0.18    0.22
 -11 -15  -2    0.00    0.32
 -15 -11  -2    1.00    0.49
  11 -15   2    0.09    0.28
 -15 -11   0    0.99    0.42
 -11  15   0    0.18    0.33
  11  15   0    0.65    0.32
  15 -11   0    0.68    0.29
  11 -15   0    0.31    0.20
 -11 -15   0    0.97    0.37
 -15 -11   0    0.30    0.37
  11 -15   0    0.20    0.31
 -15 -11   2   -0.04    0.31
  15 -11  -2    0.40    0.24
 -11 -15   2    0.31    0.36
  11 -15  -2    0.51    0.26
 -15 -11   2    0.39    0.36
  11 -15  -2    0.33    0.30
  11 -15  -4    0.19    0.32
 -15 -11   4   -0.55    0.37
 -11 -15   4    0.20    0.40
  15 -11  -4    0.24    0.25
  11 -15  -4    0.69    0.32
 -15 -11   4    0.10    0.39
  11 -15  -6    0.57    0.40
 -15 -11   6    0.45    0.39
 -15 -11   6   -0.42    0.38
  15 -11  -6    0.33    0.26
  11 -15  -6    0.30    0.23
  11 -15  -8    0.47    0.38
 -15 -11   8   -0.27    0.39
 -15 -11   8    0.32    0.36
  15 -11  -8    0.09    0.24
  11 -15  -8    0.40    0.30
 -15 -11  10    0.08    0.34
 -15 -11  10    0.32    0.44
  15 -11 -10    0.45    0.34
  11 -15 -10    0.16    0.27
 -15 -11  12   -0.13    0.40
  15 -11 -12   -0.23    0.31
  11 -15 -12    0.43    0.34
 -12 -15 -11    0.99    0.40
  12  15  -9    0.99    0.36
 -12 -15  -9    0.34    0.39
  12  15  -7    0.78    0.34
  12 -15   7    0.42    0.25
  15 -12   7    0.07    0.26
 -12 -15  -7    0.41    0.34
  12 -15   7    0.76    0.32
 -15 -12  -7    0.14    0.34
  15 -12   7    0.52    0.30
  12  15  -5    0.76    0.34
  15 -12   5    1.25    0.39
  12 -15   5    1.09    0.34
 -12  15   5    0.98    0.34
 -12 -15  -5    0.04    0.40
  12 -15   5    0.18    0.28
 -15 -12  -5    0.97    0.49
  15 -12   5    1.01    0.36
  15 -12   3   -0.14    0.28
 -12  15   3    0.25    0.30
  12  15  -3   -0.03    0.27
  15 -12   3    0.26    0.25
  12 -15   3    0.14    0.21
 -12 -15  -3   -0.13    0.33
 -15 -12  -3    0.09    0.41
  12 -15   3    0.38    0.37
 -12  15   1    0.01    0.30
  12  15  -1    0.23    0.30
  15 -12   1   -0.04    0.24
  12 -15   1    0.26    0.24
 -12 -15  -1    0.34    0.40
 -15 -12  -1    0.40    0.41
  12 -15   1    0.31    0.35
 -15 -12   1    0.58    0.37
 -12  15  -1    0.54    0.32
  15 -12  -1    0.13    0.23
  12 -15  -1   -0.14    0.21
 -12 -15   1   -0.32    0.42
 -15 -12   1   -0.12    0.37
  12 -15  -1    0.22    0.31
  12 -15  -3    0.08    0.34
 -15 -12   3    0.10    0.35
 -12 -15   3    0.30    0.39
  15 -12  -3    0.20    0.27
  12 -15  -3   -0.31    0.25
 -15 -12   3    0.74    0.41
  12 -15  -5    0.21    0.37
 -15 -12   5    0.79    0.40
 -12 -15   5    0.35    0.38
  15 -12  -5    0.73    0.32
 -15 -12   5    0.13    0.37
  12 -15  -5    1.10    0.35
  12 -15  -7    0.01    0.40
 -15 -12   7    0.18    0.35
 -15 -12   7    0.35    0.39
  15 -12  -7    0.78    0.34
  12 -15  -7    0.45    0.30
 -15 -12   9    0.40    0.45
 -15 -12   9    0.28    0.45
  15 -12  -9    0.88    0.35
  12 -15  -9    0.72    0.37
 -15 -12  11   -0.10    0.41
  15 -12 -11    0.46    0.32
  12 -15 -11    0.18    0.32
 -13 -15 -10    0.65    0.43
 -15 -13 -10    0.59    0.41
  15 -13   8    0.33    0.28
 -13 -15  -8    0.28    0.38
 -15 -13  -8    0.55    0.44
  13 -15   8    0.60    0.30
  15 -13   6   -0.20    0.31
  13 -15   6   -0.16    0.24
 -13 -15  -6    0.28    0.42
 -15 -13  -6    0.73    0.46
  15 -13   6    0.05    0.26
  13  15  -4    0.61    0.31
  15 -13   4    0.80    0.32
 -13  15   4    0.85    0.35
  13 -15   4    1.27    0.32
 -13 -15  -4    0.95    0.41
 -15 -13  -4    2.32    0.56
  13 -15   4    1.34    0.42
  15 -13   4    0.81    0.34
  15 -13   2    0.94    0.36
 -13  15   2    0.24    0.31
  15 -13   2    0.60    0.26
  13 -15   2   -0.04    0.26
  13  15  -2    0.38    0.27
 -13 -15  -2   -0.21    0.40
 -15 -13  -2    0.67    0.40
  13 -15   2    0.99    0.40
  15 -13   0    0.49    0.39
 -13  15   0    0.32    0.35
  15 -13   0    0.41    0.31
  13 -15   0    0.17    0.24
 -13 -15   0    0.81    0.34
 -15 -13   0    0.92    0.50
  13 -15   0   -0.03    0.31
  15 -13  -2    1.15    0.39
  13 -15  -2    0.56    0.24
 -13 -15   2    0.79    0.43
 -15 -13   2    0.60    0.38
  13 -15  -2   -0.46    0.34
  13 -15  -4    0.85    0.43
 -15 -13   4    0.61    0.35
 -13 -15   4    0.47    0.41
  15 -13  -4    1.06    0.36
  13 -15  -4    1.24    0.38
 -15 -13   4    0.34    0.42
  13 -15  -6    0.29    0.38
 -15 -13   6    0.45    0.38
 -15 -13   6    0.42    0.42
  15 -13  -6    0.45    0.30
  13 -15  -6    0.18    0.26
 -15 -13   8    0.90    0.46
 -15 -13   8   -0.11    0.39
  15 -13  -8    0.64    0.36
  13 -15  -8    0.57    0.29
 -13 -15  10    0.99    0.55
 -15 -13  10    0.88    0.49
  15 -13 -10    1.62    0.49
  13 -15 -10    1.27    0.43
  14 -15   7    0.11    0.29
  14 -15   7    0.36    0.29
  15 -14   7    0.84    0.33
 -14 -15  -7    0.97    0.47
 -15 -14  -7    0.15    0.41
  15 -14   7    0.08    0.28
  15 -14   5    2.06    0.46
  14 -15   5    1.70    0.40
 -14 -15  -5    1.00    0.49
 -15 -14  -5    0.93    0.46
  14 -15   5    1.71    0.42
  15 -14   5    1.46    0.38
  15 -14   3    1.59    0.40
  14 -15   3    1.51    0.38
 -14 -15  -3    2.35    0.56
 -15 -14  -3    1.32    0.49
  14 -15   3    0.21    0.33
  15 -14   3    0.91    0.37
  15 -14   1    0.52    0.26
  14 -15   1    0.96    0.32
 -14 -15  -1    0.51    0.41
 -15 -14  -1    0.91    0.48
  14 -15   1    0.66    0.40
  15 -14   1    0.37    0.33
  15 -14  -1    0.87    0.37
 -14  15  -1    0.56    0.33
  15 -14  -1    0.53    0.30
  14 -15  -1    0.57    0.34
 -14 -15   1    0.89    0.45
 -15 -14   1    0.22    0.41
  14 -15  -1    0.78    0.40
  14 -15  -3    1.72    0.46
  15 -14  -3    1.77    0.41
  14 -15  -3    1.74    0.45
 -14 -15   3    2.46    0.63
 -15 -14   3    0.65    0.43
  14 -15  -5    2.27    0.57
 -15 -14   5    1.99    0.57
 -14 -15   5    0.53    0.40
 -15 -14   5    1.33    0.52
  15 -14  -5    1.77    0.47
  14 -15  -5    1.88    0.44
 -15 -14   7   -0.29    0.43
 -15 -14   7    1.04    0.56
  15 -14  -7    0.17    0.27
  14 -15  -7    0.25    0.29
  15 -15   4    0.87    0.38
 -15 -15  -4   -0.24    0.44
  15 -15   4   -0.31    0.38
  15 -15   2    2.66    0.49
 -15 -15  -2    1.69    0.56
  15 -15   2    2.28    0.54
  15 -15   0    7.25    0.79
 -15 -15   0    5.20    0.80
  15 -15   0    6.55    0.76
  15 -15  -2    2.05    0.51
  15 -15  -2    3.11    0.56
 -15 -15   2    1.47    0.49
  15 -15  -4    0.81    0.43
 -15 -15   4    0.42    0.50
  15 -15  -4    1.02    0.41
 -16   0   0   16.36    1.01
  16   0   0   15.92    1.01
   0 -16   0   14.31    0.62
   0  16   0   13.64    0.81
   0  16   0   15.59    1.06
   0  16  -2    1.83    0.37
   0  16   2    1.56    0.29
 -16   0  -2    2.26    0.43
   0  16   2    1.86    0.42
 -16   0   2    2.09    0.45
  16   0   2    2.43    0.42
  16   0  -2    2.53    0.45
   0 -16  -2    2.10    0.27
   0  16  -4    5.04    0.58
   0  16   4    6.90    0.73
 -16   0  -4    6.19    0.58
 -16   0   4    7.25    0.74
  16   0   4    6.69    0.69
  16   0  -4    6.49    0.66
   0 -16  -4    6.27    0.51
   0  16   4    5.99    0.46
 -16   0  -6   11.72    0.74
   0  16   6   11.59    0.95
 -16   0   6   11.13    0.94
  16   0  -6   10.78    0.85
   0  16  -6   10.88    0.84
   0 -16  -6   10.79    0.73
   0 -16  -8    1.46    0.34
   0  16  -8    1.38    0.38
 -16   0   8    2.07    0.52
  16   0  -8    2.13    0.43
 -16   0   8    2.10    0.44
   0 -16 -10    4.25    0.54
   0  16 -10    5.42    0.68
 -16   0  10    3.81    0.64
  16   0 -10    4.03    0.57
 -16   0  10    3.96    0.53
 -16   0  12    7.79    0.90
 -16   0  12    7.77    0.72
  16   0 -12    8.09    0.79
   0  16 -12    8.18    0.85
   0 -16 -12    9.63    0.85
   0 -16 -12    6.80    0.75
   0 -16 -14    0.38    0.32
 -16   0  14    0.27    0.41
   0  16 -14   -0.27    0.33
 -16   0  14   -0.52    0.31
  16   0 -14    0.19    0.28
   0 -16 -14    0.20    0.34
   0 -16 -16    0.32    0.33
 -16   0  16    1.49    0.50
   0  16 -16    0.98    0.45
  16   0 -16    0.62    0.31
   0 -16 -16    1.58    0.45
  -1 -16 -17   -0.24    0.32
 -16   1  17    0.74    0.43
   1  16 -17    0.50    0.39
  16   1 -17    0.81    0.33
  -1 -16 -15    1.96    0.47
 -16   1  15    3.28    0.65
   1  16 -15    3.04    0.59
  16   1 -15    2.50    0.47
   1  16 -13    2.81    0.55
  -1 -16 -13    2.41    0.46
 -16   1  13    2.78    0.59
 -16   1  13    2.60    0.44
  16   1 -13    3.25    0.55
   1  16 -11    0.31    0.31
  -1 -16 -11    0.70    0.28
  16   1 -11    1.08    0.33
 -16   1  11    0.47    0.32
  -1 -16  -9   10.38    0.79
  16   1  -9   10.56    0.87
 -16   1   9   10.42    0.80
   1  16  -9   10.29    0.89
 -16  -1  -7    5.33    0.51
  16   1  -7    6.92    0.70
  -1  16   7    6.72    0.74
   1  16  -7    5.46    0.63
  -1 -16  -7    6.82    0.59
  -1 -16  -5    1.60    0.29
 -16  -1  -5    1.39    0.33
 -16   1   5    1.34    0.41
  -1  16   5    0.31    0.34
  16   1  -5    0.93    0.30
   1  16  -5    0.87    0.33
  -1  16   3   13.35    0.99
 -16  -1  -3   13.32    0.87
 -16   1   3   12.77    0.96
  16  -1   3   12.10    0.91
  16   1  -3   12.73    0.92
   1  16  -3   10.29    0.80
  -1 -16  -3   12.60    0.66
  -1  16   3   11.36    0.66
   1  16  -1    5.11    0.62
  -1  16   1    4.97    0.64
 -16  -1  -1    5.45    0.60
 -16   1   1    5.83    0.64
  16  -1   1    4.99    0.58
  16   1  -1    4.53    0.56
   1 -16   1    4.96    0.34
  -1  16   1    4.38    0.45
  -1 -16  -1    4.24    0.33
   1  16  -1    4.62    0.49
  -1  16  -1    5.99    0.67
   1  16   1    4.83    0.63
 -16  -1   1    4.99    0.62
 -16   1  -1    5.94    0.61
  -1  16  -1    4.57    0.49
  16   1   1    4.98    0.58
  16  -1  -1    5.04    0.57
   1 -16  -1    5.38    0.41
   1  16   1    4.53    0.47
   1  16   3   12.51    0.96
 -16   1  -3   11.75    0.82
 -16  -1   3   12.71    0.96
  16   1   3   12.20    0.91
  16  -1  -3   12.76    0.92
   1 -16  -3   12.27    0.69
   1  16   3   11.12    0.68
  -1  16  -3   12.45    0.83
   1 -16  -5    1.26    0.29
 -16   1  -5    1.21    0.28
 -16  -1   5    1.48    0.40
  -1  16  -5    1.22    0.33
   1  16   5    1.59    0.43
  16  -1  -5    1.27    0.35
   1  16   5    0.80    0.20
 -16   1  -7    6.92    0.56
 -16  -1   7    6.28    0.74
  16  -1  -7    5.63    0.64
   1 -16  -7    6.66    0.61
   1 -16  -7    7.50    0.75
  -1  16  -7    6.42    0.69
 -16  -1   7    6.07    0.67
 -16  -1   9   11.96    1.04
  16  -1  -9   12.11    0.94
 -16  -1   9    9.07    0.77
   1 -16  -9   11.71    0.86
   1 -16  -9   11.87    0.93
  -1  16  -9    9.79    0.87
   1 -16 -11    0.74    0.32
 -16  -1  11    0.17    0.36
  -1  16 -11    0.64    0.35
  16  -1 -11    0.45    0.29
 -16  -1  11    0.37    0.29
   1 -16 -11    0.96    0.39
   1 -16 -13    2.94    0.52
 -16  -1  13    3.47    0.66
 -16  -1  13    3.80    0.55
  -1  16 -13    3.64    0.59
  16  -1 -13    3.71    0.57
   1 -16 -13    3.21    0.54
   1 -16 -15    2.20    0.52
 -16  -1  15    1.59    0.54
  16  -1 -15    2.45    0.50
  -1  16 -15    2.79    0.54
   1 -16 -15    3.11    0.54
  -1  16 -17    0.35    0.40
   1 -16 -17    0.35    0.32
 -16  -1  17    0.21    0.37
  16  -1 -17   -0.23    0.33
   1 -16 -17    0.16    0.32
   2  16 -16    0.12    0.34
  -2 -16 -16    0.15    0.29
  16   2 -16    0.28    0.27
   2  16 -14    0.28    0.35
  -2 -16 -14    0.12    0.29
  16   2 -14    0.65    0.32
  -2 -16 -12    1.63    0.44
  16   2 -12    1.26    0.38
 -16   2  12    1.76    0.40
   2  16 -12    2.34    0.51
  -2 -16 -10    0.87    0.30
  16   2 -10    1.72    0.40
 -16   2  10    2.05    0.41
   2  16 -10    1.62    0.42
 -16  -2  -8    0.05    0.18
  -2 -16  -8    0.29    0.25
  16   2  -8    0.03    0.22
   2  16  -8    0.46    0.29
 -16   2   8    0.24    0.32
 -16  -2  -6    1.66    0.32
  -2 -16  -6    1.64    0.31
  -2  16   6    2.09    0.48
  16   2  -6    1.60    0.35
   2  16  -6    2.15    0.43
  -2 -16  -4    1.14    0.24
 -16  -2  -4    1.68    0.35
  -2  16   4    1.53    0.42
  16  -2   4    1.19    0.33
  16   2  -4    1.54    0.35
   2  16  -4    1.56    0.35
  -2  16   4    1.10    0.23
  -2 -16  -2    0.45    0.16
   2  16  -2    0.71    0.34
 -16  -2  -2    0.21    0.26
  -2  16   2    0.65    0.33
  -2  16   2    0.52    0.22
  16  -2   2   -0.04    0.23
  16   2  -2    0.35    0.22
   2  16  -2    0.15    0.22
   2 -16   2    0.38    0.14
  -2  16   0    0.22    0.23
  -2  16   0    0.36    0.33
   2  16   0    0.06    0.32
 -16  -2   0    0.18    0.26
 -16   2   0    0.14    0.27
  16   2   0    0.30    0.22
  16  -2   0    0.26    0.21
   2  16   0    0.46    0.23
   2 -16   0    0.20    0.15
 -16  -2   2    0.39    0.30
 -16   2  -2    0.69    0.30
   2  16   2    0.36    0.33
  16   2   2    0.04    0.22
   2  16   2    0.26    0.19
  16  -2  -2    0.25    0.23
   2 -16  -2    0.41    0.17
  -2  16  -2    0.37    0.25
 -16  -2   4    1.47    0.42
 -16   2  -4    1.88    0.38
   2  16   4    1.13    0.38
   2  16   4    1.17    0.26
  16  -2  -4    1.03    0.32
  -2  16  -4    1.30    0.35
   2 -16  -4    1.69    0.44
   2 -16  -4    1.49    0.27
   2 -16  -6    1.49    0.30
 -16   2  -6    1.64    0.32
 -16  -2   6    1.14    0.36
   2  16   6    1.38    0.43
  16  -2  -6    2.04    0.42
  -2  16  -6    1.29    0.35
   2 -16  -6    1.51    0.42
 -16  -2   6    1.44    0.40
   2 -16  -8    0.31    0.25
 -16  -2   8    0.78    0.40
  16  -2  -8    0.70    0.30
  -2  16  -8    0.46    0.30
 -16  -2   8   -0.13    0.32
   2 -16  -8    0.19    0.31
   2 -16 -10    1.42    0.36
 -16  -2  10    0.89    0.44
  16  -2 -10    1.43    0.38
 -16  -2  10    1.22    0.38
  -2  16 -10    0.92    0.38
   2 -16 -10    1.17    0.40
  -2  16 -12    2.14    0.49
   2 -16 -12    2.22    0.47
 -16  -2  12    1.82    0.50
 -16  -2  12    1.73    0.44
  16  -2 -12    2.58    0.51
   2 -16 -12    2.57    0.52
   2 -16 -14    0.26    0.31
  -2  16 -14   -0.16    0.31
 -16  -2  14    0.25    0.41
 -16  -2  14    0.23    0.30
  16  -2 -14    0.24    0.30
   2 -16 -14    0.30    0.32
   2 -16 -16    0.56    0.33
 -16  -2  16    0.60    0.46
  -2  16 -16   -0.40    0.40
  16  -2 -16    0.43    0.31
   2 -16 -16    0.50    0.34
   3  16 -17    0.40    0.33
  -3 -16 -17    0.62    0.38
  16   3 -17    0.94    0.33
  -3 -16 -15    0.28    0.29
  16   3 -15    0.58    0.30
   3  16 -15    0.22    0.36
  -3 -16 -13    0.56    0.34
  16   3 -13    0.67    0.32
   3  16 -13    0.97    0.41
  -3 -16 -11    0.17    0.26
  16   3 -11    0.89    0.32
   3  16 -11    0.28    0.36
 -16   3  11    0.12    0.24
  -3 -16  -9    0.51    0.27
  16   3  -9    0.07    0.22
   3  16  -9    0.37    0.34
 -16   3   9   -0.09    0.29
 -16  -3  -7    1.77    0.34
  -3 -16  -7    0.84    0.26
   3  16  -7    1.44    0.40
  -3  16   7    2.32    0.49
  16   3  -7    1.98    0.38
 -16  -3  -5    1.03    0.32
  -3 -16  -5    0.49    0.21
  16  -3   5    0.43    0.28
  -3  16   5    1.09    0.43
   3  16  -5    0.27    0.22
  16   3  -5    0.88    0.28
  -3 -16  -3    1.46    0.24
 -16  -3  -3    1.62    0.36
  -3  16   3    2.33    0.50
   3  16  -3    1.47    0.35
  16  -3   3    1.44    0.34
  16   3  -3    1.64    0.37
   3 -16   3    1.47    0.22
   3  16  -1   -0.18    0.30
  -3  16   1    0.75    0.36
 -16  -3  -1    0.41    0.26
   3  16  -1    0.20    0.20
  16   3  -1    0.08    0.20
  16  -3   1   -0.24    0.24
  -3  16   1    0.13    0.19
   3 -16   1    0.04    0.12
 -16  -3   1    0.17    0.27
   3  16   1    0.05    0.19
   3  16   1    0.22    0.33
  16   3   1    0.17    0.19
  16  -3  -1    0.20    0.20
  -3  16  -1    0.20    0.20
   3 -16  -1    0.38    0.18
 -16  -3   3    1.52    0.41
   3  16   3    0.91    0.26
 -16   3  -3    1.58    0.36
   3  16   3    1.83    0.44
  -3  16  -3    1.36    0.32
  16  -3  -3    1.69    0.38
   3 -16  -3    1.36    0.26
   3 -16  -3    1.43    0.40
   3  16   5    0.56    0.21
 -16  -3   5    0.77    0.39
 -16   3  -5    0.87    0.28
  -3  16  -5    0.79    0.30
   3  16   5    0.30    0.34
  16  -3  -5    0.21    0.23
   3 -16  -5    1.12    0.40
   3 -16  -5    0.54    0.20
 -16  -3   5    0.87    0.37
   3 -16  -7    1.89    0.37
 -16  -3   7    1.24    0.39
 -16   3  -7    2.23    0.35
  -3  16  -7    1.95    0.43
  16  -3  -7    1.76    0.40
 -16  -3   7    1.44    0.40
   3 -16  -7    2.19    0.46
   3 -16  -9    0.15    0.24
 -16  -3   9    0.62    0.41
  -3  16  -9    0.12    0.27
  16  -3  -9    0.32    0.29
 -16  -3   9    0.15    0.31
   3 -16  -9   -0.21    0.33
   3 -16 -11    0.51    0.28
 -16  -3  11    0.64    0.40
  -3  16 -11    1.19    0.41
 -16  -3  11    0.48    0.34
  16  -3 -11    0.77    0.30
   3 -16 -11    0.22    0.34
   3 -16 -13    0.75    0.36
 -16  -3  13    1.98    0.51
  -3  16 -13    0.75    0.40
 -16  -3  13    0.58    0.34
  16  -3 -13    0.86    0.38
   3 -16 -13    0.39    0.35
   3 -16 -15    0.54    0.33
 -16  -3  15    0.49    0.39
  16  -3 -15    0.11    0.29
   3 -16 -15    0.54    0.33
   3 -16 -17    0.85    0.37
  -3  16 -17    0.44    0.39
 -16  -3  17    0.50    0.46
  16  -3 -17    0.77    0.38
   3 -16 -17    1.09    0.42
  -4 -16 -16    0.40    0.34
  16   4 -16    0.49    0.28
   4  16 -16    0.90    0.43
  -4 -16 -14    0.63    0.36
  16   4 -14    0.64    0.30
   4  16 -14    0.19    0.30
  -4 -16 -12    1.53    0.40
  16   4 -12    1.84    0.40
   4  16 -12    1.48    0.41
  -4 -16 -10    1.22    0.31
   4  16 -10    1.49    0.42
  16   4 -10    1.57    0.36
 -16   4  10    1.54    0.35
 -16  -4  -8    1.95    0.35
  -4 -16  -8    2.24    0.40
   4  16  -8    1.66    0.41
  16   4  -8    2.44    0.43
 -16  -4  -6    0.54    0.26
  -4 -16  -6    0.85    0.26
   4  16  -6    0.52    0.25
  16  -4   6    0.36    0.31
  -4  16   6    0.89    0.36
  16   4  -6    0.39    0.25
 -16  -4  -4   -0.01    0.24
  -4 -16  -4    0.11    0.17
   4  16  -4    0.46    0.24
  -4  16   4    0.22    0.31
  16  -4   4    0.59    0.27
  16   4  -4    0.16    0.19
  -4 -16  -2    2.04    0.24
   4  16  -2    2.64    0.52
 -16  -4  -2    2.49    0.42
   4  16  -2    2.36    0.40
  -4  16   2    3.22    0.55
  16   4  -2    2.20    0.40
  16  -4   2    2.83    0.48
   4 -16   2    2.74    0.31
   4  16   0    0.55    0.25
  -4  16   0   -0.27    0.36
 -16  -4   0    0.64    0.31
   4  16   0    0.59    0.33
  16   4   0    0.20    0.19
  16  -4   0    0.27    0.23
   4 -16   0    0.35    0.16
   4  16   2    1.52    0.32
  -4  16  -2    2.33    0.39
 -16  -4   2    2.62    0.48
   4  16   2    2.96    0.51
  16  -4  -2    2.80    0.45
   4 -16  -2    2.39    0.33
   4 -16  -2    2.05    0.46
 -16  -4   4    0.37    0.32
  -4  16  -4    0.46    0.23
   4  16   4    0.66    0.34
  16  -4  -4    0.02    0.25
   4 -16  -4    0.39    0.19
   4 -16  -4    0.11    0.29
  -4  16  -6    0.38    0.25
 -16  -4   6    0.32    0.35
 -16   4  -6    0.52    0.22
   4 -16  -6    0.47    0.25
  16  -4  -6    0.48    0.29
 -16  -4   6    0.51    0.33
   4 -16  -6    0.16    0.30
  -4  16  -8    3.00    0.50
 -16  -4   8    2.98    0.58
  16  -4  -8    3.06    0.51
 -16  -4   8    2.99    0.54
   4 -16  -8    3.55    0.55
   4 -16  -8    2.95    0.46
   4 -16 -10    1.47    0.36
  -4  16 -10    2.12    0.49
 -16  -4  10    1.29    0.51
  16  -4 -10    1.47    0.41
 -16  -4  10    1.37    0.43
   4 -16 -10    1.93    0.48
   4 -16 -12    2.07    0.43
 -16  -4  12    0.81    0.45
  -4  16 -12    1.52    0.44
 -16  -4  12    1.50    0.43
  16  -4 -12    1.75    0.43
   4 -16 -12    2.15    0.52
   4 -16 -14    0.74    0.34
 -16  -4  14    1.02    0.48
  -4  16 -14   -0.02    0.35
  16  -4 -14    0.69    0.37
   4 -16 -14    0.82    0.41
  -4  16 -16   -0.22    0.34
   4 -16 -16   -0.54    0.34
 -16  -4  16    0.49    0.39
  16  -4 -16    0.42    0.30
   4 -16 -16    0.20    0.37
  16   5 -15    1.26    0.36
   5  16 -15    1.36    0.45
  -5 -16 -13    1.85    0.45
   5  16 -13    2.83    0.57
  16   5 -13    3.32    0.49
  -5 -16 -11    0.63    0.28
   5  16 -11    0.62    0.32
  16   5 -11    1.31    0.32
  -5 -16  -9    1.49    0.35
   5  16  -9    1.24    0.39
  16   5  -9    1.27    0.32
  -5 -16  -9    1.90    0.37
 -16  -5  -7    7.92    0.66
  -5 -16  -7    7.81    0.66
  -5  16   7    9.10    0.87
  16   5  -7    9.64    0.78
  -5 -16  -7    9.06    0.75
   5  16  -7    7.90    0.77
 -16  -5  -5    1.52    0.35
   5  16  -5    1.31    0.35
  -5 -16  -5    1.07    0.28
  16  -5   5    1.44    0.37
  -5  16   5    1.70    0.43
  16   5  -5    0.97    0.28
   5  16  -3   -0.24    0.26
 -16  -5  -3   -0.69    0.28
   5  16  -3    0.47    0.33
  -5 -16  -3   -0.04    0.16
  -5  16   3   -0.22    0.31
  16   5  -3    0.04    0.20
  16  -5   3   -0.30    0.28
   5 -16   3    0.16    0.15
 -16  -5  -1    1.74    0.42
  -5  16   1    3.01    0.52
   5  16  -1    2.67    0.50
  16   5  -1    1.54    0.36
  16  -5   1    2.17    0.43
   5 -16   1    1.94    0.28
   5 -16   1    2.22    0.44
 -16  -5   1    1.93    0.42
   5  16   1    1.58    0.41
  16  -5  -1    1.75    0.38
   5 -16  -1    2.18    0.32
   5 -16  -1    2.03    0.45
 -16  -5   3    0.10    0.33
   5  16   3    0.29    0.33
  16  -5  -3   -0.09    0.26
   5 -16  -3   -0.03    0.21
   5 -16  -3   -0.16    0.31
 -16  -5   5    1.55    0.43
  -5  16  -5    1.44    0.37
   5  16   5    0.78    0.39
  16  -5  -5    0.96    0.31
   5 -16  -5    0.85    0.26
 -16  -5   5    1.56    0.48
   5 -16  -5    0.97    0.35
  -5  16  -7    8.89    0.80
 -16  -5   7    8.25    0.86
  16  -5  -7    9.44    0.85
 -16  -5   7    8.15    0.80
   5 -16  -7    8.89    0.74
   5 -16  -7    9.41    0.85
 -16  -5   9    2.20    0.52
  16  -5  -9    1.79    0.44
 -16  -5   9    2.37    0.52
  -5  16  -9    1.56    0.42
   5 -16  -9    1.86    0.49
   5 -16  -9    1.68    0.41
   5 -16 -11    0.61    0.29
 -16  -5  11    0.78    0.41
 -16  -5  11    0.47    0.35
  16  -5 -11    0.79    0.34
   5 -16 -11    1.65    0.48
  -5  16 -11    1.01    0.39
   5 -16 -13    2.75    0.54
 -16  -5  13    2.02    0.53
  -5  16 -13    2.70    0.55
 -16  -5  13    1.50    0.45
  16  -5 -13    3.05    0.57
   5 -16 -13    2.49    0.54
   5 -16 -15    1.35    0.37
 -16  -5  15    1.07    0.47
  -5  16 -15    1.12    0.43
  16  -5 -15    1.17    0.44
   5 -16 -15    1.02    0.43
  -6 -16 -14    0.42    0.35
   6  16 -14    0.65    0.39
  -6 -16 -12    4.85    0.67
  16   6 -12    7.06    0.67
   6  16 -12    5.44    0.71
   6  16 -10    2.54    0.50
  -6 -16 -10    2.66    0.49
  16   6 -10    2.49    0.42
  -6 -16 -10    2.00    0.40
   6  16  -8    1.16    0.35
  -6 -16  -8    0.83    0.29
  16   6  -8    0.76    0.29
  -6 -16  -8    0.85    0.35
 -16  -6  -6    5.84    0.60
  -6 -16  -6    6.08    0.57
   6  16  -6    5.58    0.66
  16  -6   6    6.05    0.67
  16   6  -6    7.87    0.70
  -6  16   6    6.91    0.76
  -6 -16  -6    6.34    0.66
 -16  -6  -4    2.42    0.45
   6  16  -4    2.44    0.48
  -6 -16  -4    1.64    0.28
  -6  16   4    2.09    0.46
  16   6  -4    2.80    0.44
  16  -6   4    2.52    0.48
   6 -16   4    2.26    0.32
  -6 -16  -4    1.84    0.44
 -16  -6  -2    0.95    0.35
   6  16  -2    0.83    0.33
  -6  16   2    0.33    0.35
  16   6  -2    0.58    0.24
  16  -6   2    1.17    0.34
   6 -16   2    0.81    0.22
   6 -16   2    0.81    0.35
  -6  16   0    2.70    0.50
 -16  -6   0    2.64    0.50
   6  16   0    2.52    0.50
  16  -6   0    2.28    0.44
   6 -16   0    2.31    0.35
   6 -16   0    3.06    0.52
 -16  -6   2    0.45    0.31
   6  16   2    0.97    0.35
  16  -6  -2    1.09    0.35
   6 -16  -2    0.74    0.23
   6 -16  -2    0.84    0.37
 -16  -6   4    1.95    0.52
   6  16   4    2.43    0.50
  16  -6  -4    2.14    0.43
   6 -16  -4    1.96    0.34
 -16  -6   4    2.11    0.49
   6 -16  -4    2.43    0.49
 -16  -6   6    7.03    0.78
  16  -6  -6    6.81    0.73
   6 -16  -6    5.94    0.60
 -16  -6   6    6.16    0.73
   6 -16  -6    6.37    0.73
 -16  -6   8    0.31    0.37
  16  -6  -8    0.91    0.39
 -16  -6   8    1.07    0.45
   6 -16  -8    0.61    0.26
   6 -16  -8    1.38    0.42
 -16  -6  10    1.56    0.50
 -16  -6  10    2.20    0.53
  16  -6 -10    3.01    0.54
   6 -16 -10    2.75    0.47
   6 -16 -10    2.78    0.56
 -16  -6  12    4.93    0.73
  16  -6 -12    8.41    0.87
 -16  -6  12    4.76    0.67
   6 -16 -12    6.87    0.80
   6 -16 -12    6.48    0.76
   6 -16 -14    0.77    0.34
 -16  -6  14    0.60    0.42
  16  -6 -14    0.34    0.35
   6 -16 -14    0.08    0.39
  -7 -16 -15    0.31    0.35
   7  16 -15    0.68    0.38
   7  16 -13    2.18    0.53
  -7 -16 -13    1.25    0.43
   7  16 -11    0.68    0.39
  -7 -16 -11    0.79    0.31
  16   7 -11    1.28    0.32
  -7 -16 -11    1.04    0.36
   7  16  -9    0.99    0.34
  -7 -16  -9    1.23    0.38
  16   7  -9    0.84    0.28
  -7 -16  -9    1.94    0.44
  -7 -16  -7    2.78    0.45
  16   7  -7    3.73    0.48
  -7  16   7    4.45    0.65
  -7 -16  -7    4.54    0.61
 -16  -7  -5   -0.45    0.30
   7  16  -5    0.36    0.32
  -7 -16  -5    0.18    0.18
  16   7  -5    0.21    0.22
  16  -7   5    0.45    0.28
  -7  16   5    0.58    0.38
   7 -16   5    0.09    0.15
  -7 -16  -5    0.14    0.33
 -16  -7  -3    0.27    0.25
   7  16  -3    0.04    0.30
  -7  16   3    0.63    0.37
  16   7  -3    0.39    0.23
  16  -7   3   -0.37    0.29
   7 -16   3    0.12    0.16
  -7 -16  -3    0.70    0.34
   7 -16   3   -0.20    0.29
 -16  -7  -1    1.14    0.37
  -7  16   1    1.30    0.41
   7  16  -1    0.80    0.32
   7 -16   1    1.08    0.37
  16  -7   1    1.01    0.36
   7 -16   1    1.27    0.27
 -16  -7   1    0.98    0.38
   7  16   1    0.73    0.34
  16  -7  -1    1.10    0.33
   7 -16  -1    0.92    0.27
   7 -16  -1    0.40    0.33
 -16  -7   3    0.26    0.30
   7  16   3    0.30    0.33
  16  -7  -3    0.48    0.29
   7 -16  -3    0.33    0.23
 -16  -7   3    0.00    0.37
   7 -16  -3    0.48    0.35
 -16  -7   5    0.09    0.32
  16  -7  -5    0.63    0.32
   7 -16  -5   -0.21    0.22
 -16  -7   5    0.34    0.34
   7 -16  -5    0.29    0.32
 -16  -7   7    4.18    0.70
  16  -7  -7    4.77    0.64
 -16  -7   7    5.30    0.71
   7 -16  -7    4.31    0.56
   7 -16  -7    4.34    0.63
 -16  -7   9    0.74    0.39
 -16  -7   9    1.04    0.41
  16  -7  -9    2.04    0.44
   7 -16  -9    1.68    0.41
   7 -16  -9    0.88    0.39
 -16  -7  11    0.25    0.33
 -16  -7  11    0.46    0.39
  16  -7 -11    1.24    0.42
   7 -16 -11    0.20    0.29
   7 -16 -11    0.82    0.41
 -16  -7  13    1.00    0.46
  16  -7 -13    1.84    0.47
   7 -16 -13    1.26    0.41
   7 -16 -13    0.77    0.46
 -16  -7  15    0.27    0.42
  16  -7 -15    0.86    0.39
   7 -16 -15    0.58    0.50
   7 -16 -15    0.45    0.32
   8  16 -14   -0.19    0.33
   8  16 -12    0.43    0.33
   8  16 -10    0.38    0.28
  -8 -16 -10   -0.05    0.30
  16   8  -8    0.61    0.27
  -8 -16  -8    0.12    0.33
   8 -16   6    0.17    0.15
  16  -8   6    0.48    0.31
  16   8  -6   -0.13    0.19
  -8 -16  -6    0.18    0.33
 -16  -8  -4    0.05    0.28
   8  16  -4    0.34    0.31
  -8  16   4    0.91    0.40
  16  -8   4    0.50    0.25
   8 -16   4    0.49    0.22
  -8 -16  -4    0.61    0.39
   8 -16   4    0.43    0.33
 -16  -8  -2    2.25    0.46
  -8  16   2    2.55    0.50
   8  16  -2    2.32    0.48
  16  -8   2    1.73    0.40
   8 -16   2    2.15    0.35
  -8 -16  -2    1.86    0.47
   8 -16   2    1.74    0.44
 -16  -8   0    0.10    0.31
  -8  16   0    0.51    0.33
   8  16   0    0.25    0.32
  16  -8   0    0.53    0.31
   8 -16   0    0.80    0.25
 -16  -8   0   -0.38    0.42
   8 -16   0    0.16    0.29
 -16  -8   2    2.43    0.52
   8  16   2    2.30    0.48
  16  -8  -2    1.34    0.38
   8 -16  -2    1.26    0.31
 -16  -8   2    2.15    0.53
   8 -16  -2    1.69    0.47
 -16  -8   4    1.00    0.38
  16  -8  -4   -0.20    0.29
   8 -16  -4    0.56    0.28
 -16  -8   4    0.47    0.37
   8 -16  -4    0.53    0.36
 -16  -8   6   -0.06    0.32
  16  -8  -6   -0.21    0.28
 -16  -8   6   -0.02    0.39
   8 -16  -6    0.26    0.23
   8 -16  -6   -0.08    0.33
 -16  -8   8    0.09    0.36
  16  -8  -8    0.68    0.30
 -16  -8   8    0.04    0.37
   8 -16  -8    0.36    0.23
   8 -16  -8    0.30    0.37
 -16  -8  10    0.00    0.40
 -16  -8  10    0.34    0.37
  16  -8 -10    0.36    0.29
   8 -16 -10    0.09    0.31
   8 -16 -10   -0.04    0.39
 -16  -8  12    1.22    0.53
 -16  -8  12    1.12    0.47
  16  -8 -12    1.00    0.39
   8 -16 -12    0.53    0.32
   8 -16 -12    0.97    0.41
 -16  -8  14   -0.11    0.45
  16  -8 -14   -0.13    0.31
   8 -16 -14   -0.19    0.32
   8 -16 -14    0.72    0.47
   9  16 -13   -0.42    0.38
   9  16 -11   -0.68    0.38
  -9 -16 -11   -0.12    0.31
  -9 -16  -9    1.30    0.41
  16  -9   7    1.00    0.32
  16  -9   7    0.80    0.32
  -9 -16  -7    1.28    0.43
   9  16  -5    2.66    0.50
  16  -9   5    1.59    0.39
   9 -16   5    1.94    0.33
  -9  16   5    2.10    0.47
  -9 -16  -5    1.24    0.43
   9 -16   5    1.25    0.40
 -16  -9  -3    5.61    0.66
   9  16  -3    6.22    0.69
  -9  16   3    6.81    0.71
   9 -16   3    6.92    0.60
  16  -9   3    5.55    0.67
  -9 -16  -3    4.96    0.67
   9 -16   3    5.41    0.66
 -16  -9  -1    1.67    0.44
  -9  16   1    2.13    0.49
   9  16  -1    1.95    0.43
  16  -9   1    1.87    0.40
   9 -16   1    1.44    0.31
  -9 -16  -1    1.07    0.38
 -16  -9  -1    1.74    0.47
   9 -16   1    1.32    0.38
 -16  -9   1    1.73    0.43
   9  16   1    1.75    0.43
  -9 -16   1    2.02    0.50
  16  -9  -1    1.46    0.39
   9 -16  -1    1.77    0.34
 -16  -9   1    1.70    0.48
   9 -16  -1    1.90    0.48
 -16  -9   3    5.34    0.73
  16  -9  -3    6.34    0.71
   9 -16  -3    7.25    0.67
 -16  -9   3    6.76    0.80
   9 -16  -3    5.65    0.71
 -16  -9   5    1.36    0.47
  16  -9  -5    2.08    0.44
   9 -16  -5    2.09    0.44
 -16  -9   5    2.67    0.53
   9 -16  -5    2.25    0.53
 -16  -9   7    0.47    0.39
  16  -9  -7    0.16    0.25
   9 -16  -7    1.31    0.37
   9 -16  -7    0.70    0.39
 -16  -9   9    0.54    0.39
 -16  -9   9    1.10    0.50
  16  -9  -9    1.19    0.43
   9 -16  -9    0.82    0.32
   9 -16  -9    1.47    0.46
 -16  -9  11   -0.38    0.41
 -16  -9  11   -0.13    0.36
  16  -9 -11    0.73    0.39
   9 -16 -11   -0.02    0.26
   9 -16 -11   -0.12    0.35
   9 -16 -13    0.37    0.43
 -16  -9  13    0.24    0.38
  16  -9 -13    0.32    0.29
   9 -16 -13   -0.26    0.28
  10  16 -12    0.64    0.42
 -10 -16 -12   -0.03    0.31
 -10 -16 -10    0.54    0.39
 -10 -16  -8    1.48    0.45
  16 -10   6    1.96    0.41
  10  16  -6    2.02    0.44
  16 -10   6    2.05    0.44
  10 -16   6    2.22    0.37
 -10  16   6    2.43    0.50
 -10 -16  -6    2.48    0.54
  10  16  -4    1.56    0.44
 -10  16   4    1.15    0.38
  16 -10   4    1.25    0.39
  10 -16   4    1.07    0.29
 -10 -16  -4    1.31    0.46
  10 -16   4    1.39    0.40
 -16 -10  -2    2.10    0.50
 -10  16   2    3.23    0.55
  10  16  -2    2.48    0.48
  16 -10   2    3.07    0.51
  10 -16   2    3.15    0.46
 -10 -16  -2    3.43    0.60
 -16 -10  -2    2.90    0.59
  10 -16   2    2.56    0.51
 -16 -10   0    2.94    0.55
 -10  16   0    3.84    0.58
  10  16   0    3.52    0.55
  16 -10   0    4.38    0.60
 -10 -16   0    3.42    0.62
  10 -16   0    3.37    0.46
 -16 -10   0    3.06    0.55
  10 -16   0    2.95    0.51
 -16 -10   2    2.64    0.58
 -10 -16   2    3.52    0.64
  16 -10  -2    3.07    0.51
  10 -16  -2    3.05    0.46
 -16 -10   2    2.48    0.55
  10 -16  -2    3.77    0.59
 -16 -10   4    1.12    0.43
  16 -10  -4    2.21    0.48
  10 -16  -4    1.22    0.34
 -16 -10   4    1.62    0.50
  10 -16  -4    1.08    0.42
 -16 -10   6    1.67    0.51
  16 -10  -6    2.42    0.49
 -16 -10   6    1.68    0.53
  10 -16  -6    2.69    0.49
  10 -16  -6    2.08    0.49
 -16 -10   8    1.06    0.49
 -16 -10   8    0.16    0.38
  16 -10  -8    1.18    0.39
  10 -16  -8    1.17    0.35
  10 -16  -8    1.72    0.47
  10 -16 -10    0.00    0.37
 -16 -10  10   -0.44    0.42
 -16 -10  10    0.61    0.39
  16 -10 -10    0.07    0.28
  10 -16 -10    0.65    0.34
  10 -16 -12    0.09    0.37
 -16 -10  12    1.03    0.47
  16 -10 -12   -0.11    0.29
  10 -16 -12   -0.20    0.34
 -11 -16 -11    0.20    0.36
  11  16  -9   -0.19    0.34
 -11 -16  -9    0.10    0.35
  11  16  -7    1.50    0.43
  11 -16   7    1.11    0.31
  16 -11   7    0.75    0.27
 -11 -16  -7    0.46    0.39
  16 -11   7    0.93    0.34
  16 -11   5    0.71    0.31
  11  16  -5    1.45    0.41
  16 -11   5    1.53    0.40
  11 -16   5    1.14    0.29
 -11  16   5    1.98    0.49
 -11 -16  -5    1.39    0.47
  11 -16   5   -0.01    0.29
 -16 -11  -5    1.48    0.56
 -11  16   3    1.07    0.39
  11  16  -3    1.43    0.40
  16 -11   3    1.22    0.37
  11 -16   3    1.10    0.32
 -11 -16  -3    1.57    0.44
 -16 -11  -3    0.52    0.39
  11 -16   3    1.10    0.40
 -16 -11  -1    0.94    0.38
 -11  16   1    2.17    0.50
  11  16  -1    1.83    0.44
  16 -11   1    0.80    0.32
  11 -16   1    1.02    0.29
 -11 -16  -1    1.35    0.48
 -16 -11  -1    1.04    0.45
  11 -16   1    0.96    0.37
 -16 -11   1    0.98    0.38
 -11  16  -1    0.65    0.31
  16 -11  -1    1.29    0.38
 -11 -16   1    1.27    0.47
  11 -16  -1    0.77    0.29
 -16 -11   1    1.47    0.51
  11 -16  -1    1.60    0.43
 -16 -11   3    0.96    0.45
 -11 -16   3    1.56    0.51
  16 -11  -3    0.47    0.32
  11 -16  -3    0.46    0.26
 -16 -11   3    0.40    0.40
  11 -16  -3    1.25    0.41
 -16 -11   5    0.90    0.44
  16 -11  -5    0.99    0.36
 -16 -11   5    0.81    0.45
  11 -16  -5    1.19    0.37
  11 -16  -5    0.13    0.33
  11 -16  -7    1.01    0.44
 -16 -11   7    0.28    0.40
 -16 -11   7    1.47    0.53
  16 -11  -7    0.89    0.36
  11 -16  -7    0.97    0.37
  11 -16  -9   -0.35    0.45
 -16 -11   9    0.08    0.37
 -16 -11   9    0.24    0.44
  16 -11  -9    0.31    0.28
  11 -16  -9   -0.06    0.27
  11 -16 -11    0.06    0.42
 -16 -11  11   -0.05    0.39
  16 -11 -11   -0.42    0.36
  11 -16 -11    0.12    0.34
  12  16  -8    0.26    0.31
 -12 -16  -8   -0.40    0.42
  12  16  -6   -0.55    0.32
  16 -12   6    0.09    0.25
  12 -16   6    0.30    0.24
 -12 -16  -6   -0.04    0.37
 -16 -12  -6   -0.76    0.43
  12 -16   6   -0.01    0.30
  16 -12   6    0.02    0.28
  16 -12   4    0.28    0.30
  12  16  -4    0.46    0.33
 -12  16   4   -0.16    0.33
  16 -12   4    0.48    0.31
  12 -16   4    0.36    0.22
 -12 -16  -4    0.51    0.43
 -16 -12  -4    0.66    0.49
  12 -16   4    0.28    0.30
 -12  16   2   -0.12    0.34
  12  16  -2    0.66    0.33
  16 -12   2    0.59    0.27
  12 -16   2    0.52    0.24
 -12 -16  -2   -0.02    0.35
 -16 -12  -2   -0.09    0.36
  12 -16   2    0.15    0.30
 -12  16   0    0.86    0.41
  16 -12   0   -0.04    0.23
  12 -16   0    0.29    0.21
 -12 -16   0    0.06    0.41
 -16 -12   0   -0.22    0.38
  12 -16   0   -0.45    0.37
 -16 -12   2    0.31    0.35
  16 -12  -2    1.07    0.38
 -12 -16   2    0.54    0.36
  12 -16  -2    0.53    0.28
 -16 -12   2    0.47    0.38
  12 -16  -2    0.27    0.35
 -16 -12   4    0.55    0.37
 -12 -16   4    0.32    0.37
  16 -12  -4    0.16    0.29
  12 -16  -4   -0.12    0.25
 -16 -12   4    0.56    0.45
  12 -16  -4    0.21    0.33
  12 -16  -6    0.92    0.39
 -16 -12   6    0.17    0.34
  16 -12  -6   -0.06    0.28
 -16 -12   6    0.04    0.37
  12 -16  -6    0.22    0.28
  12 -16  -8    0.84    0.46
 -16 -12   8   -0.04    0.33
 -16 -12   8   -0.27    0.42
  16 -12  -8    0.08    0.28
  12 -16  -8    0.05    0.29
  13 -16   7    0.62    0.33
  16 -13   7    0.65    0.31
 -13 -16  -7    0.17    0.38
 -16 -13  -7    0.46    0.38
  13 -16   7    0.70    0.35
  16 -13   7    0.39    0.29
  16 -13   5    0.21    0.23
  13 -16   5    0.16    0.20
 -13 -16  -5    0.15    0.34
  13 -16   5   -0.46    0.36
  16 -13   5   -0.24    0.33
 -13  16   3   -0.07    0.35
  16 -13   3    0.48    0.28
  13  16  -3    0.44    0.33
  13 -16   3    0.22    0.22
 -13 -16  -3    0.21    0.38
 -16 -13  -3    0.59    0.43
  13 -16   3    0.14    0.30
  16 -13   3   -0.31    0.35
  16 -13   1    0.22    0.32
 -13  16   1    0.20    0.30
  16 -13   1    0.16    0.27
  13 -16   1    0.02    0.24
 -13 -16  -1   -0.38    0.40
 -16 -13  -1   -0.31    0.37
  13 -16   1    0.23    0.31
 -13  16  -1    0.10    0.33
  16 -13  -1    0.00    0.24
  13 -16  -1    0.55    0.29
 -13 -16   1   -0.38    0.40
 -16 -13   1   -0.02    0.39
  13 -16  -1   -0.09    0.33
 -16 -13   3    0.62    0.39
 -13 -16   3    0.21    0.39
  16 -13  -3    0.34    0.24
  13 -16  -3    0.28    0.27
 -16 -13   3    0.73    0.44
  13 -16  -3   -0.77    0.43
  13 -16  -5    0.74    0.37
 -16 -13   5   -0.37    0.39
  16 -13  -5    0.65    0.33
 -16 -13   5   -0.14    0.39
  13 -16  -5   -0.09    0.30
  13 -16  -7    0.15    0.36
 -16 -13   7   -0.05    0.39
 -16 -13   7    0.87    0.53
  16 -13  -7    0.54    0.31
  13 -16  -7   -0.30    0.31
  16 -14   4    0.26    0.27
  14 -16   4   -0.25    0.27
 -14 -16  -4   -0.80    0.45
 -16 -14  -4    0.33    0.38
  14 -16   4   -0.05    0.35
  16 -14   4    0.19    0.31
  16 -14   2    1.04    0.36
  14 -16   2    1.47    0.40
 -14 -16  -2    0.86    0.46
 -16 -14  -2    0.72    0.48
  14 -16   2    1.21    0.42
  16 -14   2    1.03    0.39
  16 -14   0    1.65    0.47
  16 -14   0    2.45    0.51
  14 -16   0    1.75    0.40
 -14 -16   0    2.32    0.59
 -16 -14   0    1.91    0.56
  14 -16   0    1.47    0.48
  16 -14  -2    1.15    0.38
  14 -16  -2    1.04    0.34
 -14 -16   2    1.04    0.47
  14 -16  -2    2.17    0.51
  14 -16  -4    0.48    0.42
 -14 -16   4    1.26    0.51
  16 -14  -4    0.18    0.31
  14 -16  -4    0.28    0.29
 -16 -14   4   -0.02    0.43
   0  17  -1    0.25    0.24
   0  17  -1    0.19    0.27
   0  17   1    0.35    0.22
   0  17   1    0.51    0.34
 -17   0  -1    0.32    0.28
 -17   0   1    0.39    0.29
  17   0   1    0.36    0.24
  17   0  -1    0.61    0.31
   0  17  -3   -0.03    0.27
 -17   0  -3    0.47    0.26
 -17   0   3    0.73    0.35
   0  17   3    0.48    0.20
   0  17   3    0.55    0.35
  17   0   3    0.66    0.31
  17   0  -3    0.75    0.31
   0 -17  -3    0.36    0.16
   0 -17  -5    0.23    0.20
   0  17  -5   -0.58    0.30
 -17   0  -5   -0.02    0.22
 -17   0   5   -0.16    0.34
   0  17   5   -0.05    0.34
  17   0  -5    0.14    0.23
   0 -17  -7    2.71    0.41
   0  17  -7    2.52    0.47
 -17   0   7    2.73    0.58
   0  17   7    2.81    0.54
  17   0  -7    3.06    0.51
 -17   0   7    3.09    0.52
   0 -17  -9    1.82    0.38
   0  17  -9    1.38    0.41
 -17   0   9    1.45    0.44
  17   0  -9    1.05    0.34
 -17   0   9    1.55    0.41
   0 -17 -11    0.46    0.22
 -17   0  11    0.64    0.36
   0  17 -11    0.44    0.34
  17   0 -11    0.51    0.30
 -17   0  11    0.32    0.32
   0 -17 -13    0.89    0.30
 -17   0  13    1.21    0.54
   0  17 -13    1.12    0.42
 -17   0  13    0.58    0.29
  17   0 -13    1.28    0.39
   0 -17 -15    1.00    0.39
 -17   0  15    0.85    0.53
   0  17 -15    1.28    0.46
  17   0 -15    1.69    0.44
  -1 -17 -16   -0.35    0.29
 -17   1  16    0.30    0.42
   1  17 -16   -0.05    0.34
  17   1 -16    0.06    0.27
  -1 -17 -14    0.39    0.34
 -17   1  14   -0.27    0.40
   1  17 -14    0.33    0.32
  17   1 -14   -0.15    0.30
  -1 -17 -12    1.54    0.38
   1  17 -12    2.49    0.50
 -17   1  12    0.94    0.43
  17   1 -12    2.34    0.48
 -17   1  12    1.56    0.38
   1  17 -10    1.05    0.35
  -1 -17 -10    0.55    0.24
 -17   1  10    0.47    0.43
  17   1 -10    1.37    0.39
 -17   1  10    1.40    0.38
   1  17  -8    0.79    0.37
  -1 -17  -8    0.21    0.21
 -17   1   8   -0.12    0.38
  17   1  -8   -0.33    0.27
 -17   1   8    0.34    0.33
  -1 -17  -6    1.48    0.31
 -17  -1  -6    1.15    0.28
 -17   1   6    1.24    0.41
  -1  17   6    1.55    0.50
  17   1  -6    1.16    0.35
   1  17  -6    1.85    0.40
  -1 -17  -4    0.84    0.20
 -17  -1  -4    0.81    0.27
 -17   1   4    0.86    0.35
  17  -1   4    1.73    0.41
  -1  17   4    1.59    0.45
  17   1  -4    1.27    0.35
   1  17  -4    1.02    0.34
   1  17  -2    0.19    0.27
 -17  -1  -2    0.10    0.25
  -1  17   2    0.08    0.33
 -17   1   2    0.01    0.28
  17  -1   2    0.28    0.25
  17   1  -2   -0.01    0.23
  -1  17   2    0.64    0.24
   1  17  -2    0.68    0.31
  -1  17   0   -0.19    0.37
   1  17   0    0.58    0.35
 -17  -1   0    0.43    0.31
 -17   1   0    0.88    0.36
  17   1   0    0.24    0.23
  17  -1   0    0.82    0.32
  -1  17   0    0.78    0.27
   1  17   0    0.79    0.25
 -17  -1   2   -0.08    0.27
 -17   1  -2   -0.05    0.24
   1  17   2    0.55    0.37
  17   1   2    0.14    0.22
  -1  17  -2    0.16    0.23
  17  -1  -2   -0.11    0.24
   1 -17  -2    0.26    0.13
   1  17   2    0.18    0.20
 -17   1  -4    1.97    0.39
 -17  -1   4    1.47    0.42
   1  17   4    1.87    0.46
  -1  17  -4    1.23    0.37
  17  -1  -4    0.80    0.29
   1 -17  -4    1.16    0.26
   1 -17  -6    1.39    0.31
 -17   1  -6    1.16    0.30
 -17  -1   6    1.61    0.47
  -1  17  -6    1.24    0.37
   1  17   6    2.08    0.47
  17  -1  -6    1.80    0.41
   1 -17  -8   -0.14    0.23
 -17  -1   8   -0.18    0.35
  -1  17  -8   -0.05    0.30
  17  -1  -8    0.55    0.30
 -17  -1   8    0.80    0.35
   1 -17 -10    0.74    0.30
 -17  -1  10    0.49    0.33
  -1  17 -10    0.48    0.30
 -17  -1  10    0.32    0.30
   1 -17 -10    0.10    0.31
   1 -17 -12    1.45    0.42
 -17  -1  12    2.01    0.52
 -17  -1  12    2.10    0.47
  17  -1 -12    1.83    0.42
  -1  17 -12    1.71    0.47
   1 -17 -12    3.16    0.56
   1 -17 -14    0.32    0.30
 -17  -1  14   -0.06    0.41
 -17  -1  14    0.21    0.30
  17  -1 -14    0.09    0.28
  -1  17 -14    0.18    0.33
   1 -17 -14   -0.08    0.33
  -1  17 -16   -0.09    0.41
   1 -17 -16    0.89    0.39
 -17  -1  16   -0.37    0.46
  17  -1 -16    0.46    0.32
   1 -17 -16   -0.53    0.42
   2  17 -15    0.52    0.40
  -2 -17 -15    0.42    0.34
  17   2 -15    0.49    0.31
   2  17 -13    0.17    0.30
  -2 -17 -13    0.33    0.33
  17   2 -13    0.17    0.27
  -2 -17 -11    0.52    0.28
  17   2 -11    0.66    0.27
 -17   2  11    0.60    0.30
   2  17 -11    0.61    0.35
  -2 -17  -9    0.17    0.21
  17   2  -9    0.15    0.21
 -17   2   9    0.10    0.30
 -17  -2  -7    0.39    0.26
  -2 -17  -7    0.76    0.27
  17   2  -7    0.68    0.31
  -2  17   7    0.30    0.39
   2  17  -7    0.86    0.35
  -2 -17  -5    0.64    0.21
 -17  -2  -5    0.93    0.28
  -2  17   5    1.13    0.42
  17   2  -5    1.09    0.36
   2  17  -5    0.51    0.24
 -17  -2  -3    4.19    0.53
  17  -2   3    2.96    0.51
  17   2  -3    3.63    0.53
   2  17  -3    2.68    0.45
   2  17  -1    0.19    0.30
 -17  -2  -1    0.80    0.34
  -2  17   1    0.44    0.33
 -17   2   1    0.02    0.28
  -2  17   1    0.26    0.22
  17   2  -1    0.58    0.26
  17  -2   1    0.34    0.24
   2  17  -1    0.35    0.26
  -2  17  -1    0.32    0.22
  -2  17  -1    0.37    0.34
 -17  -2   1   -0.20    0.29
   2  17   1    0.32    0.29
 -17   2  -1    0.47    0.27
  17   2   1    0.65    0.31
  17  -2  -1    0.66    0.29
   2  17   1    0.52    0.26
   2 -17  -1    0.49    0.18
 -17  -2   3    3.72    0.56
 -17   2  -3    3.85    0.53
   2  17   3    4.60    0.63
  17  -2  -3    3.10    0.51
   2  17   3    3.51    0.42
   2 -17  -3    2.93    0.36
  -2  17  -3    3.45    0.49
 -17   2  -5    0.61    0.31
 -17  -2   5    0.63    0.35
   2  17   5    1.16    0.42
  17  -2  -5    1.00    0.37
  -2  17  -5    1.18    0.36
   2 -17  -5    0.72    0.24
   2 -17  -7    0.84    0.28
 -17  -2   7    1.13    0.42
  17  -2  -7    0.31    0.24
 -17  -2   7    0.61    0.35
  -2  17  -7    0.81    0.37
   2 -17  -7    0.95    0.40
   2 -17  -9    0.65    0.30
 -17  -2   9    0.65    0.37
  17  -2  -9    0.51    0.28
 -17  -2   9    0.41    0.33
   2 -17  -9    0.34    0.31
  -2  17  -9    0.83    0.37
  -2  17 -11    0.53    0.34
   2 -17 -11    0.60    0.32
 -17  -2  11    0.61    0.41
  17  -2 -11    0.95    0.37
 -17  -2  11    0.65    0.36
   2 -17 -11    0.35    0.36
   2 -17 -13    0.12    0.30
  -2  17 -13    0.64    0.38
 -17  -2  13    0.35    0.35
 -17  -2  13   -0.32    0.35
  17  -2 -13    0.13    0.27
   2 -17 -13   -0.23    0.32
   2 -17 -15    0.05    0.28
 -17  -2  15    0.61    0.40
  -2  17 -15    0.56    0.38
  17  -2 -15   -0.01    0.28
   2 -17 -15    0.52    0.36
  -3 -17 -14    0.73    0.33
  17   3 -14    0.97    0.34
   3  17 -14    1.29    0.50
  -3 -17 -12    0.49    0.32
  17   3 -12    0.58    0.29
   3  17 -12    0.54    0.36
  -3 -17 -10    0.36    0.26
  17   3 -10    0.65    0.32
   3  17 -10    0.34    0.29
 -17   3  10    0.63    0.29
  -3 -17  -8    2.99    0.43
  17   3  -8    2.92    0.48
   3  17  -8    3.27    0.55
 -17  -3  -6    0.88    0.30
  -3 -17  -6    1.35    0.28
  -3  17   6    0.52    0.34
  17   3  -6    0.95    0.32
   3  17  -6    1.73    0.40
  -3 -17  -4    0.85    0.20
 -17  -3  -4    0.32    0.26
  -3  17   4    0.34    0.32
  17  -3   4    0.69    0.31
  17   3  -4    0.73    0.28
   3  17  -4    1.28    0.35
   3  17  -2    5.01    0.67
 -17  -3  -2    5.27    0.61
  -3  17   2    5.79    0.69
  17  -3   2    5.44    0.64
  17   3  -2    4.98    0.60
   3  17  -2    5.18    0.56
  -3  17   0    6.19    0.72
 -17  -3   0    5.23    0.65
   3  17   0    5.88    0.70
  17   3   0    5.32    0.62
  17  -3   0    5.89    0.65
  -3  17   0    4.89    0.49
   3 -17   0    5.36    0.44
   3  17   0    5.51    0.56
  -3  17  -2    5.63    0.56
 -17  -3   2    5.00    0.63
 -17   3  -2    5.94    0.63
   3  17   2    5.62    0.69
  17  -3  -2    5.01    0.61
   3 -17  -2    5.44    0.48
   3  17   2    5.33    0.53
 -17  -3   4    1.16    0.39
 -17   3  -4    1.42    0.36
   3  17   4    0.51    0.21
   3  17   4    1.03    0.39
  -3  17  -4    0.35    0.27
  17  -3  -4    0.91    0.33
   3 -17  -4    0.34    0.19
   3 -17  -4    0.92    0.43
 -17  -3   6    0.87    0.35
 -17   3  -6    1.00    0.30
  -3  17  -6    0.82    0.33
   3  17   6    1.44    0.43
  17  -3  -6    0.81    0.29
 -17  -3   6    1.88    0.44
   3 -17  -6    1.03    0.39
   3 -17  -6    0.82    0.25
   3 -17  -8    3.71    0.51
 -17  -3   8    3.51    0.62
  -3  17  -8    2.23    0.49
  17  -3  -8    3.51    0.57
 -17  -3   8    3.18    0.54
   3 -17  -8    3.97    0.60
   3 -17 -10    0.29    0.26
 -17  -3  10    0.26    0.35
  -3  17 -10    0.23    0.34
  17  -3 -10    0.09    0.26
 -17  -3  10   -0.20    0.34
   3 -17 -10    0.13    0.31
   3 -17 -12    0.76    0.36
 -17  -3  12    0.29    0.34
  -3  17 -12    0.35    0.33
 -17  -3  12   -0.01    0.33
  17  -3 -12    0.16    0.31
   3 -17 -12    0.29    0.34
   3 -17 -14    1.13    0.39
 -17  -3  14    0.75    0.41
 -17  -3  14   -0.35    0.32
  17  -3 -14    0.75    0.35
  -3  17 -14    0.66    0.41
   3 -17 -14    0.07    0.34
  -4 -17 -15    0.06    0.27
  17   4 -15    0.33    0.28
   4  17 -15   -0.35    0.31
  -4 -17 -13    1.34    0.41
  17   4 -13    0.56    0.29
   4  17 -13    0.58    0.39
  -4 -17 -11    1.00    0.35
  17   4 -11    1.04    0.34
   4  17 -11    1.20    0.36
  -4 -17  -9    0.53    0.23
  17   4  -9    0.70    0.27
   4  17  -9    0.68    0.31
 -17   4   9    0.53    0.31
 -17  -4  -7    2.40    0.38
  -4 -17  -7    1.78    0.36
   4  17  -7    2.33    0.48
  17   4  -7    1.30    0.36
 -17  -4  -5    2.24    0.42
  -4 -17  -5    1.98    0.32
   4  17  -5    1.60    0.42
  17  -4   5    1.64    0.39
  -4  17   5    2.41    0.49
  17   4  -5    2.29    0.41
 -17  -4  -3    6.02    0.66
   4  17  -3    6.14    0.71
   4  17  -3    5.23    0.60
  -4  17   3    6.19    0.71
  17  -4   3    5.93    0.68
  17   4  -3    6.46    0.67
 -17  -4  -1    0.71    0.34
  -4  17   1    0.74    0.37
   4  17  -1    0.96    0.43
   4  17  -1    0.89    0.30
  17   4  -1    1.44    0.33
  17  -4   1    0.79    0.30
   4 -17   1    1.23    0.22
  -4  17  -1    0.28    0.30
 -17  -4   1    0.79    0.37
   4  17   1    1.08    0.29
   4  17   1    0.96    0.38
  17  -4  -1    0.57    0.25
   4 -17  -1    1.35    0.25
   4  17   3    7.14    0.78
  -4  17  -3    5.35    0.56
   4  17   3    4.62    0.50
 -17  -4   3    4.38    0.63
  17  -4  -3    5.78    0.67
   4 -17  -3    5.63    0.52
   4 -17  -3    5.91    0.68
 -17  -4   5    1.73    0.48
 -17   4  -5    2.14    0.41
   4  17   5    2.87    0.56
  -4  17  -5    1.73    0.40
  17  -4  -5    2.27    0.47
   4 -17  -5    1.85    0.35
 -17  -4   5    2.08    0.51
   4 -17  -5    1.64    0.43
 -17  -4   7    2.08    0.50
  -4  17  -7    2.08    0.46
  17  -4  -7    2.45    0.49
 -17  -4   7    3.07    0.53
   4 -17  -7    3.03    0.46
   4 -17  -7    2.11    0.49
 -17  -4   9    0.17    0.34
  -4  17  -9    0.90    0.37
  17  -4  -9    0.24    0.27
 -17  -4   9    0.65    0.39
   4 -17  -9    0.99    0.41
   4 -17  -9    0.72    0.29
   4 -17 -11    1.24    0.37
 -17  -4  11    0.40    0.39
  -4  17 -11    1.19    0.42
 -17  -4  11    0.63    0.38
  17  -4 -11    1.66    0.42
   4 -17 -11    1.74    0.47
   4 -17 -13    0.84    0.40
 -17  -4  13    1.54    0.51
 -17  -4  13    1.38    0.45
  -4  17 -13    1.05    0.49
  17  -4 -13    0.79    0.36
   4 -17 -13    1.51    0.52
   4 -17 -15   -0.06    0.30
 -17  -4  15    0.24    0.44
  17  -4 -15    0.14    0.29
   4 -17 -15    0.34    0.35
  -4  17 -15    0.32    0.37
  -5 -17 -14    0.40    0.32
  17   5 -14    0.14    0.23
   5  17 -14    0.60    0.39
  -5 -17 -12    1.72    0.41
  17   5 -12    1.61    0.39
   5  17 -12    1.49    0.47
  -5 -17 -10    0.93    0.31
   5  17 -10    1.05    0.39
  17   5 -10    1.38    0.35
  -5 -17  -8    1.82    0.36
   5  17  -8    2.09    0.46
  17   5  -8    2.19    0.41
 -17  -5  -6    0.82    0.29
  -5 -17  -6    0.20    0.22
   5  17  -6    0.70    0.29
  17  -5   6    0.71    0.29
  17   5  -6    0.61    0.30
  -5  17   6    1.42    0.47
 -17  -5  -4    1.90    0.42
   5  17  -4    2.14    0.46
   5  17  -4    1.63    0.41
  -5  17   4    2.66    0.54
  17  -5   4    1.86    0.42
  17   5  -4    2.12    0.42
 -17  -5  -2    4.51    0.59
   5  17  -2    3.43    0.51
   5  17  -2    4.29    0.61
  -5  17   2    3.93    0.60
  17   5  -2    3.95    0.54
  17  -5   2    3.78    0.56
   5  17   0    0.06    0.22
  -5  17   0    0.16    0.33
 -17  -5   0   -0.19    0.31
   5  17   0    0.35    0.34
  17  -5   0   -0.29    0.26
   5 -17   0   -0.13    0.16
   5 -17   0    0.93    0.41
 -17  -5   2    3.52    0.58
   5  17   2    2.39    0.49
  17  -5  -2    3.22    0.51
   5 -17  -2    3.67    0.43
   5 -17  -2    3.26    0.57
 -17  -5   4    1.83    0.47
   5  17   4    2.75    0.54
  17  -5  -4    2.26    0.44
   5 -17  -4    2.36    0.37
 -17  -5   4    1.96    0.51
   5 -17  -4    2.20    0.47
 -17  -5   6    0.46    0.36
  -5  17  -6    1.25    0.37
  17  -5  -6    0.98    0.34
 -17  -5   6    0.35    0.36
   5 -17  -6    0.47    0.21
   5 -17  -6    0.24    0.32
 -17  -5   8    2.22    0.53
  17  -5  -8    2.72    0.50
 -17  -5   8    1.45    0.47
   5 -17  -8    2.62    0.45
   5 -17  -8    2.82    0.56
  -5  17  -8    2.06    0.49
 -17  -5  10    1.53    0.51
  -5  17 -10    1.23    0.41
  17  -5 -10    1.78    0.48
 -17  -5  10    0.53    0.34
   5 -17 -10    1.56    0.44
   5 -17 -10    1.47    0.44
   5 -17 -12    1.62    0.40
  -5  17 -12    1.83    0.50
 -17  -5  12    2.48    0.57
 -17  -5  12    2.06    0.49
  17  -5 -12    2.65    0.54
   5 -17 -12    2.19    0.54
   5 -17 -14    0.50    0.37
  -5  17 -14    0.95    0.40
 -17  -5  14    1.49    0.51
  17  -5 -14    1.03    0.40
   5 -17 -14    0.13    0.34
  -6 -17 -13    0.95    0.38
   6  17 -13    1.27    0.47
  -6 -17 -11    0.56    0.31
   6  17 -11    0.84    0.36
  17   6 -11    1.28    0.35
   6  17  -9    1.03    0.36
  -6 -17  -9    1.00    0.35
  17   6  -9    1.37    0.35
  -6 -17  -9    1.22    0.36
 -17  -6  -7    4.83    0.54
   6  17  -7    5.57    0.67
  -6 -17  -7    5.16    0.55
  17   6  -7    6.88    0.68
  -6 -17  -7    5.94    0.68
  -6  17   7    6.67    0.80
 -17  -6  -5    1.38    0.38
   6  17  -5    1.58    0.40
  17  -6   5    1.74    0.42
  17   6  -5    1.79    0.36
  -6  17   5    1.84    0.44
   6  17  -3    0.08    0.25
 -17  -6  -3    0.38    0.29
   6  17  -3   -0.26    0.34
  -6  17   3    0.08    0.36
  17   6  -3   -0.09    0.19
  17  -6   3    0.06    0.27
 -17  -6  -1    4.69    0.63
  -6  17   1    4.86    0.68
   6  17  -1    4.50    0.64
  17  -6   1    4.85    0.60
   6 -17   1    3.69    0.41
   6 -17   1    4.46    0.60
  -6  17  -1    4.46    0.64
 -17  -6   1    3.75    0.58
   6  17   1    4.35    0.62
   6 -17  -1    4.72    0.49
  17  -6  -1    4.45    0.60
   6 -17  -1    3.34    0.56
 -17  -6   3    0.02    0.32
   6  17   3    0.24    0.32
  17  -6  -3    0.52    0.28
   6 -17  -3    0.34    0.23
 -17  -6   3    0.70    0.41
   6 -17  -3   -0.07    0.35
 -17  -6   5    1.69    0.48
  17  -6  -5    2.43    0.46
   6 -17  -5    2.10    0.38
 -17  -6   5    1.27    0.48
   6 -17  -5    2.45    0.50
 -17  -6   7    5.20    0.73
  17  -6  -7    6.81    0.77
   6 -17  -7    6.61    0.66
 -17  -6   7    5.53    0.73
   6 -17  -7    6.62    0.77
 -17  -6   9    1.21    0.43
  17  -6  -9    0.81    0.37
 -17  -6   9    1.27    0.48
   6 -17  -9    1.14    0.36
   6 -17  -9    0.83    0.40
 -17  -6  11    0.34    0.38
 -17  -6  11    1.07    0.41
  17  -6 -11    1.19    0.38
   6 -17 -11    1.09    0.35
   6 -17 -11    0.79    0.42
 -17  -6  13    0.71    0.47
 -17  -6  13    2.07    0.53
  17  -6 -13    1.67    0.46
   6 -17 -13    1.37    0.45
   6 -17 -13    1.77    0.44
  -7 -17 -12    1.02    0.39
   7  17 -12    1.06    0.39
   7  17 -10   -0.07    0.27
  -7 -17 -10    0.27    0.27
  17   7 -10    0.72    0.26
   7  17  -8    0.86    0.35
  -7 -17  -8    0.87    0.30
  17   7  -8    1.01    0.30
  -7 -17  -8    0.94    0.38
 -17  -7  -6    0.92    0.30
   7  17  -6    0.76    0.33
  17  -7   6    0.88    0.33
  17   7  -6    1.54    0.34
  -7  17   6    1.11    0.41
  -7 -17  -6    1.13    0.38
 -17  -7  -4    2.03    0.42
   7  17  -4    2.88    0.53
  -7  17   4    2.88    0.55
  17   7  -4    2.74    0.44
  17  -7   4    2.31    0.46
  -7 -17  -4    2.57    0.50
 -17  -7  -2    1.80    0.42
  -7  17   2    3.23    0.56
   7  17  -2    2.49    0.50
  17  -7   2    2.83    0.51
   7 -17   2    2.57    0.35
   7 -17   2    2.31    0.50
 -17  -7   0    0.73    0.37
  -7  17   0    0.37    0.33
   7  17   0   -0.19    0.32
  17  -7   0    0.21    0.24
   7 -17   0    0.03    0.17
   7 -17   0    0.08    0.29
 -17  -7   2    2.83    0.57
   7  17   2    2.10    0.48
  17  -7  -2    2.24    0.44
   7 -17  -2    2.29    0.37
 -17  -7   2    1.99    0.51
   7 -17  -2    3.48    0.57
 -17  -7   4    2.64    0.55
   7  17   4    2.12    0.49
  17  -7  -4    2.42    0.49
   7 -17  -4    2.47    0.41
 -17  -7   4    3.33    0.60
   7 -17  -4    2.05    0.47
 -17  -7   6    1.07    0.40
  17  -7  -6    1.12    0.37
 -17  -7   6    1.14    0.47
   7 -17  -6    1.35    0.36
   7 -17  -6    1.79    0.47
 -17  -7   8    0.56    0.41
  17  -7  -8    1.33    0.40
 -17  -7   8    1.10    0.47
   7 -17  -8    0.97    0.34
   7 -17  -8    1.95    0.49
 -17  -7  10   -0.07    0.37
 -17  -7  10    0.45    0.39
  17  -7 -10    0.89    0.41
   7 -17 -10    0.75    0.30
   7 -17 -10    0.38    0.38
 -17  -7  12    1.29    0.48
 -17  -7  12    0.80    0.46
  17  -7 -12    2.08    0.54
   7 -17 -12    1.93    0.46
   7 -17 -12    2.91    0.59
   8  17 -11    0.64    0.38
  -8 -17 -11    0.35    0.27
   8  17  -9    0.52    0.33
  -8 -17  -9    0.75    0.34
  17   8  -7    1.44    0.35
  -8  17   7    2.02    0.48
  -8 -17  -7    1.10    0.36
 -17  -8  -5    1.64    0.41
   8  17  -5    2.99    0.55
  17   8  -5    2.82    0.44
  17  -8   5    2.42    0.49
  -8  17   5    2.22    0.52
  -8 -17  -5    2.18    0.51
 -17  -8  -3    2.28    0.44
   8  17  -3    1.73    0.46
  -8  17   3    2.40    0.52
  17  -8   3    2.72    0.49
   8 -17   3    2.68    0.38
  -8 -17  -3    1.54    0.47
   8 -17   3    2.70    0.50
 -17  -8  -1    2.65    0.52
  -8  17   1    4.07    0.63
   8  17  -1    3.33    0.57
  17  -8   1    3.36    0.54
   8 -17   1    3.29    0.42
   8 -17   1    2.38    0.49
 -17  -8   1    2.91    0.56
  -8  17  -1    4.14    0.61
   8  17   1    3.11    0.55
  17  -8  -1    3.50    0.55
   8 -17  -1    3.28    0.45
 -17  -8   1    3.38    0.64
   8 -17  -1    4.59    0.64
 -17  -8   3    2.02    0.50
   8  17   3    2.19    0.51
  17  -8  -3    2.42    0.48
   8 -17  -3    2.62    0.42
 -17  -8   3    1.74    0.49
   8 -17  -3    3.09    0.54
 -17  -8   5    1.51    0.48
  17  -8  -5    2.31    0.47
   8 -17  -5    2.06    0.40
 -17  -8   5    1.80    0.50
   8 -17  -5    2.36    0.48
 -17  -8   7    1.52    0.46
  17  -8  -7    2.90    0.52
 -17  -8   7    2.34    0.57
   8 -17  -7    1.80    0.42
   8 -17  -7    1.84    0.48
 -17  -8   9   -0.10    0.35
 -17  -8   9   -0.06    0.37
  17  -8  -9    0.17    0.25
   8 -17  -9    0.34    0.28
   8 -17  -9   -0.04    0.37
 -17  -8  11    0.72    0.41
 -17  -8  11   -0.13    0.46
  17  -8 -11    0.44    0.31
   8 -17 -11    0.69    0.38
   8 -17 -11    0.15    0.41
   9  17 -10    0.81    0.40
  -9 -17 -10    0.70    0.37
  -9 -17  -8    2.12    0.50
   9  17  -6    1.64    0.44
  17  -9   6    2.44    0.47
  -9  17   6    2.54    0.54
  -9 -17  -6    1.83    0.47
 -17  -9  -4    4.05    0.61
   9  17  -4    3.33    0.57
  -9  17   4    3.40    0.59
  17  -9   4    4.54    0.61
  -9 -17  -4    4.30    0.67
   9 -17   4    4.06    0.60
   9  17  -2    7.23    0.77
 -17  -9  -2    6.10    0.75
  -9  17   2    6.97    0.79
  17  -9   2    6.68    0.73
   9 -17   2    7.26    0.64
  -9 -17  -2    6.65    0.77
   9 -17   2    5.23    0.68
 -17  -9   0    4.44    0.65
  -9  17   0    4.93    0.66
   9  17   0    4.13    0.61
  17  -9   0    3.55    0.57
   9 -17   0    4.50    0.52
 -17  -9   0    4.16    0.68
   9 -17   0    4.32    0.64
 -17  -9   2    5.98    0.78
   9 -17  -2    5.86    0.63
   9  17   2    6.76    0.76
  17  -9  -2    6.01    0.71
 -17  -9   2    6.18    0.81
   9 -17  -2    6.42    0.72
 -17  -9   4    5.23    0.74
  17  -9  -4    4.31    0.63
   9 -17  -4    4.80    0.59
 -17  -9   4    4.67    0.72
   9 -17  -4    3.82    0.63
 -17  -9   6    2.39    0.54
  17  -9  -6    1.90    0.46
 -17  -9   6    1.36    0.45
   9 -17  -6    2.30    0.42
   9 -17  -6    2.05    0.51
 -17  -9   8    2.83    0.61
  17  -9  -8    2.59    0.52
 -17  -9   8    2.08    0.55
   9 -17  -8    2.99    0.51
   9 -17  -8    2.22    0.56
 -17  -9  10    1.40    0.47
 -17  -9  10    1.68    0.56
  17  -9 -10    1.02    0.42
   9 -17 -10    1.40    0.41
   9 -17 -10    1.03    0.44
 -10 -17  -9    2.19    0.53
  10  17  -7    1.55    0.44
  17 -10   7    1.56    0.37
 -10 -17  -7    1.45    0.46
  10  17  -5    3.05    0.55
  17 -10   5    2.82    0.53
 -10  17   5    3.43    0.60
 -10 -17  -5    3.17    0.59
  10 -17   5    2.10    0.45
  10  17  -3    4.60    0.64
 -10  17   3    5.20    0.70
  17 -10   3    5.02    0.66
  10 -17   3    4.00    0.51
 -10 -17  -3    4.53    0.70
  10 -17   3    4.85    0.64
 -17 -10  -3    4.35    0.70
 -17 -10  -1    3.45    0.60
 -10  17   1    3.74    0.60
  10  17  -1    2.67    0.50
  17 -10   1    2.84    0.51
  10 -17   1    3.36    0.46
 -10 -17  -1    2.82    0.57
 -17 -10  -1    2.42    0.55
  10 -17   1    2.68    0.53
 -17 -10   1    3.50    0.61
 -10  17  -1    3.42    0.58
  17 -10  -1    2.98    0.53
  10  17   1    3.31    0.57
  10 -17  -1    2.40    0.42
 -17 -10   1    2.57    0.59
  10 -17  -1    2.34    0.52
 -17 -10   3    3.39    0.63
  17 -10  -3    3.84    0.61
  10 -17  -3    5.31    0.62
 -17 -10   3    3.78    0.67
  10 -17  -3    5.18    0.69
 -17 -10   5    2.26    0.56
  17 -10  -5    3.21    0.54
  10 -17  -5    2.89    0.46
 -17 -10   5    2.19    0.58
  10 -17  -5    2.36    0.53
 -17 -10   7    1.81    0.58
  17 -10  -7    0.92    0.38
 -17 -10   7    1.76    0.55
  10 -17  -7    1.55    0.39
  10 -17  -7    2.10    0.54
 -17 -10   9    2.06    0.56
 -17 -10   9    0.07    0.41
  17 -10  -9    1.10    0.38
  10 -17  -9    1.50    0.43
  10 -17  -9    1.41    0.45
  11  17  -8    1.38    0.45
 -11 -17  -8    0.63    0.40
  11  17  -6   -0.42    0.36
  17 -11   6    0.62    0.28
 -11  17   6   -0.53    0.39
 -11 -17  -6   -0.13    0.32
  17 -11   6   -0.05    0.27
  17 -11   4    1.16    0.37
  11  17  -4    0.69    0.37
 -11  17   4    1.35    0.46
  17 -11   4    1.25    0.40
  11 -17   4    1.53    0.36
 -11 -17  -4    1.54    0.47
 -17 -11  -4    0.22    0.39
  11 -17   4    1.60    0.43
 -11  17   2    3.62    0.59
  11  17  -2    2.10    0.48
  17 -11   2    3.01    0.54
  11 -17   2    3.17    0.46
 -11 -17  -2    2.42    0.54
 -17 -11  -2    2.08    0.56
  11 -17   2    2.64    0.54
 -17 -11   0    1.08    0.43
 -11  17   0    0.95    0.40
  17 -11   0    0.46    0.26
  11  17   0    1.48    0.42
  11 -17   0    0.75    0.30
 -11 -17   0    0.29    0.41
 -17 -11   0    0.36    0.37
  11 -17   0    1.19    0.41
 -17 -11   2    1.98    0.51
  17 -11  -2    2.19    0.44
  11 -17  -2    2.41    0.44
 -17 -11   2    2.04    0.52
  11 -17  -2    2.63    0.53
 -17 -11   4    0.62    0.41
  17 -11  -4    1.49    0.39
  11 -17  -4    1.39    0.37
 -17 -11   4    0.29    0.42
  11 -17  -4    1.41    0.47
 -17 -11   6   -0.04    0.37
  17 -11  -6    0.47    0.30
 -17 -11   6   -0.28    0.44
  11 -17  -6   -0.09    0.31
  11 -17  -6   -0.11    0.39
 -17 -11   8    1.61    0.59
 -17 -11   8    1.17    0.53
  17 -11  -8    1.70    0.45
  11 -17  -8    1.66    0.46
  11 -17  -8    0.76    0.41
  12  17  -5   -0.09    0.34
  17 -12   5    0.07    0.25
 -12  17   5   -0.13    0.36
 -17 -12  -5    0.48    0.44
  12 -17   5    0.74    0.38
  17 -12   5    0.42    0.32
  17 -12   3    0.16    0.33
 -12  17   3    0.80    0.40
  12  17  -3    0.59    0.37
  17 -12   3    0.17    0.27
  12 -17   3   -0.20    0.25
 -12 -17  -3    1.07    0.41
 -17 -12  -3    0.48    0.46
  12 -17   3   -0.17    0.33
 -12  17   1    0.35    0.35
  17 -12   1    0.51    0.33
  12 -17   1    0.36    0.25
  12  17  -1    0.32    0.31
 -12 -17  -1    1.06    0.47
 -17 -12  -1    1.14    0.46
  12 -17   1    0.61    0.36
 -17 -12   1    0.45    0.31
 -12  17  -1    0.84    0.38
  17 -12  -1    0.21    0.27
 -12 -17   1    0.79    0.42
  12 -17  -1    0.58    0.27
 -17 -12   1    0.23    0.38
  12 -17  -1    0.69    0.36
 -17 -12   3   -0.10    0.33
  17 -12  -3    0.27    0.28
  12 -17  -3    0.38    0.30
 -17 -12   3    1.06    0.48
  12 -17  -3    0.05    0.34
 -17 -12   5   -0.68    0.43
  17 -12  -5    0.40    0.29
  12 -17  -5    0.56    0.32
 -17 -12   5    0.61    0.44
  12 -17  -5    0.16    0.39
  17 -13   2    0.75    0.37
 -13  17   2    1.43    0.44
  17 -13   2    0.58    0.33
  13 -17   2    0.70    0.33
  13  17  -2    0.21    0.31
 -13 -17  -2   -0.08    0.40
 -17 -13  -2    0.77    0.45
  13 -17   2    0.36    0.38
 -13  17   0   -0.39    0.37
  17 -13   0   -0.18    0.25
  13 -17   0    0.12    0.25
 -13 -17   0    0.16    0.42
 -17 -13   0    0.28    0.38
  13 -17   0    0.33    0.43
 -17 -13   2    0.44    0.38
 -13  17  -2    0.47    0.34
  17 -13  -2    0.39    0.30
 -13 -17   2    0.33    0.44
  13 -17  -2    0.55    0.31
 -17 -13   2    0.91    0.47
  13 -17  -2    0.95    0.46
   0  18   0    1.05    0.39
 -18   0   0    0.77    0.37
   0  18   0    0.47    0.25
  18   0   0    0.66    0.31
   0  18  -2    2.22    0.51
 -18   0  -2    0.57    0.31
   0  18  -2    0.79    0.33
 -18   0   2    0.99    0.40
   0  18   2    0.94    0.44
  18   0   2    1.14    0.33
  18   0  -2    1.32    0.40
 -18   0  -4   -0.43    0.30
   0  18  -4    0.05    0.25
 -18   0   4   -0.28    0.35
   0  18   4   -0.49    0.40
  18   0  -4    0.06    0.28
   0 -18  -6    0.02    0.21
 -18   0   6   -0.44    0.36
   0  18  -6   -0.18    0.31
   0  18   6    0.20    0.38
  18   0  -6    0.11    0.25
   0 -18  -8    1.39    0.33
 -18   0   8    0.75    0.40
   0  18  -8    1.63    0.42
  18   0  -8    0.94    0.35
 -18   0   8    1.01    0.38
   0 -18 -10   -0.23    0.25
 -18   0  10    0.16    0.33
   0  18 -10    0.04    0.29
  18   0 -10   -0.44    0.28
 -18   0  10   -0.61    0.35
   0 -18 -12    0.31    0.28
 -18   0  12    1.30    0.46
   0  18 -12   -0.16    0.35
  18   0 -12    0.26    0.31
 -18   0  12    0.95    0.39
   0 -18 -14   -0.09    0.27
 -18   0  14   -0.08    0.40
  18   0 -14    0.37    0.33
   0  18 -14    0.57    0.34
  -1 -18 -13    0.02    0.25
 -18   1  13   -0.44    0.42
   1  18 -13    0.51    0.33
  18   1 -13   -0.45    0.35
  -1 -18 -11    0.21    0.27
   1  18 -11    0.52    0.34
 -18   1  11    0.33    0.37
  18   1 -11   -0.06    0.26
 -18   1  11    0.23    0.28
  -1 -18  -9    0.41    0.25
   1  18  -9   -0.19    0.34
 -18   1   9    0.49    0.42
  18   1  -9    0.11    0.25
 -18   1   9    0.47    0.32
   1  18  -7    0.79    0.33
  -1 -18  -7    0.67    0.23
 -18   1   7    0.72    0.34
  18   1  -7    0.77    0.33
  -1  18   7    1.30    0.47
   1  18  -5    0.22    0.25
 -18  -1  -5    0.41    0.29
 -18   1   5    0.48    0.37
  -1  18   5   -0.24    0.36
  18   1  -5    0.47    0.28
 -18  -1  -3    2.47    0.47
 -18   1   3    2.92    0.55
  18  -1   3    2.59    0.47
  18   1  -3    2.18    0.43
   1  18  -3    1.84    0.39
   1  18  -1    0.22    0.36
 -18  -1  -1    0.18    0.30
  -1  18   1    0.17    0.34
 -18   1   1    0.51    0.36
  18  -1   1    0.02    0.25
  18   1  -1   -0.03    0.27
  -1  18   1    0.17    0.22
   1  18  -1    0.28    0.23
   1  18   1   -0.02    0.21
  -1  18  -1   -0.25    0.35
 -18  -1   1    0.00    0.31
 -18   1  -1    0.40    0.31
   1  18   1    0.62    0.36
  18   1   1    0.19    0.26
  18  -1  -1    0.25    0.25
  -1  18  -1    0.07    0.22
 -18   1  -3    2.60    0.44
 -18  -1   3    1.90    0.47
   1  18   3    2.96    0.57
  18  -1  -3    2.92    0.50
  -1  18  -3    1.73    0.39
 -18   1  -5    0.80    0.29
 -18  -1   5    0.64    0.37
   1  18   5    1.12    0.46
  18  -1  -5    0.52    0.28
  -1  18  -5    1.07    0.35
   1 -18  -5    0.42    0.22
   1 -18  -7    0.81    0.27
 -18  -1   7    0.85    0.36
  18  -1  -7    1.17    0.37
  -1  18  -7    0.09    0.28
 -18  -1   7    0.47    0.35
   1 -18  -9    0.45    0.22
 -18  -1   9   -0.50    0.42
  18  -1  -9   -0.14    0.25
  -1  18  -9   -0.02    0.27
 -18  -1   9    0.50    0.33
   1 -18 -11    0.14    0.26
 -18  -1  11   -0.22    0.40
  18  -1 -11    0.20    0.26
 -18  -1  11    0.51    0.33
  -1  18 -11    0.15    0.32
   1 -18 -13    0.40    0.26
 -18  -1  13   -0.30    0.40
 -18  -1  13    0.26    0.32
  18  -1 -13   -0.17    0.27
  -1  18 -13    0.02    0.33
  -2 -18 -14    0.25    0.28
   2  18 -14    0.27    0.35
 -18   2  14   -0.28    0.43
  18   2 -14    0.64    0.33
   2  18 -12    0.35    0.31
  -2 -18 -12    0.63    0.29
 -18   2  12    0.36    0.38
  18   2 -12    0.42    0.31
   2  18 -10    0.62    0.29
  -2 -18 -10    0.06    0.24
  18   2 -10    0.59    0.32
 -18   2  10    1.13    0.36
  -2 -18  -8    2.03    0.38
  18   2  -8    3.65    0.56
   2  18  -8    3.01    0.54
 -18   2   8    2.99    0.51
 -18  -2  -6    2.39    0.40
 -18   2   6    2.31    0.54
  -2  18   6    3.97    0.65
  18   2  -6    3.40    0.52
   2  18  -6    2.34    0.46
 -18  -2  -4    1.38    0.36
 -18   2   4    2.06    0.50
  18  -2   4    1.90    0.45
  -2  18   4    2.10    0.52
  18   2  -4    1.09    0.34
   2  18  -4    0.85    0.35
   2  18  -2    4.73    0.68
 -18  -2  -2    4.43    0.58
  -2  18   2    5.94    0.73
 -18   2   2    4.19    0.61
  18  -2   2    4.85    0.64
  18   2  -2    5.35    0.64
   2  18  -2    3.96    0.54
   2  18   0    9.12    0.87
 -18  -2   0    9.29    0.85
 -18   2   0    8.91    0.81
  18   2   0    8.16    0.78
  18  -2   0    7.25    0.77
   2  18   0    7.49    0.66
  -2  18   0   10.75    0.95
  -2  18   0    7.23    0.62
  -2  18  -2    5.51    0.69
  -2  18  -2    5.28    0.57
 -18  -2   2    5.11    0.70
 -18   2  -2    5.97    0.65
   2  18   2    5.34    0.70
  18  -2  -2    4.76    0.64
   2  18   2    3.56    0.46
  -2  18  -4    1.21    0.34
 -18  -2   4    1.32    0.43
 -18   2  -4    1.93    0.40
   2  18   4    0.68    0.38
  18  -2  -4    1.58    0.38
   2 -18  -4    1.58    0.31
  -2  18  -6    3.21    0.51
 -18  -2   6    2.05    0.49
   2  18   6    3.01    0.58
  18  -2  -6    2.65    0.49
 -18  -2   6    2.55    0.54
   2 -18  -6    2.91    0.42
   2 -18  -8    2.94    0.47
  -2  18  -8    2.53    0.51
 -18  -2   8    2.35    0.57
  18  -2  -8    2.98    0.54
 -18  -2   8    3.22    0.56
   2 -18  -8    2.96    0.52
   2 -18 -10    0.21    0.22
  -2  18 -10    0.49    0.36
 -18  -2  10    1.11    0.42
  18  -2 -10    0.67    0.30
 -18  -2  10   -0.43    0.37
   2 -18 -10    0.88    0.38
   2 -18 -12    0.06    0.24
  -2  18 -12   -0.05    0.34
 -18  -2  12    0.19    0.35
  18  -2 -12    0.31    0.33
 -18  -2  12   -0.41    0.35
   2 -18 -12   -0.34    0.37
   2 -18 -14   -0.34    0.34
 -18  -2  14    0.02    0.45
  -2  18 -14    0.43    0.42
 -18  -2  14    0.98    0.36
  18  -2 -14    0.15    0.32
   2 -18 -14    0.61    0.34
  -3 -18 -13    0.36    0.28
  18   3 -13    0.30    0.27
   3  18 -13    0.32    0.33
  -3 -18 -11    0.88    0.32
  18   3 -11    0.30    0.27
   3  18 -11    0.20    0.30
  -3 -18  -9    3.15    0.46
  18   3  -9    4.71    0.63
   3  18  -9    4.23    0.64
 -18   3   9    3.60    0.52
  18   3  -7    0.09    0.22
  -3  18   7    0.60    0.47
   3  18  -7    0.38    0.31
 -18  -3  -5    2.01    0.40
  18  -3   5    2.11    0.44
  -3  18   5    3.19    0.58
  18   3  -5    2.83    0.50
   3  18  -5    1.54    0.40
  -3  18   3   15.20    1.11
 -18  -3  -3   15.00    1.03
  18  -3   3   13.91    1.05
  18   3  -3   14.86    1.05
   3  18  -3   12.08    0.93
   3  18  -3   15.69    1.16
 -18  -3  -1    1.27    0.38
   3  18  -1    1.32    0.44
  -3  18   1    2.16    0.53
  18   3  -1    1.55    0.39
  18  -3   1    1.23    0.36
   3  18  -1    1.03    0.35
 -18  -3   1    0.96    0.36
 -18   3  -1    1.04    0.35
   3  18   1    1.74    0.50
  -3  18  -1    1.24    0.33
  18   3   1    1.16    0.38
  18  -3  -1    0.72    0.29
   3  18   1    0.69    0.25
  -3  18  -3   12.07    0.88
   3  18   3   12.13    1.03
 -18  -3   3   15.92    1.15
 -18   3  -3   15.45    1.00
  18  -3  -3   15.38    1.11
   3 -18  -3   14.04    0.82
 -18  -3   5    2.19    0.51
 -18   3  -5    3.01    0.46
   3  18   5    2.57    0.56
  18  -3  -5    2.51    0.50
  -3  18  -5    1.50    0.40
   3 -18  -5    2.60    0.39
 -18  -3   5    3.07    0.58
 -18  -3   7    0.07    0.32
  18  -3  -7    0.12    0.24
  -3  18  -7   -0.07    0.28
 -18  -3   7   -0.24    0.36
   3 -18  -7    0.08    0.35
   3 -18  -7    0.05    0.22
 -18  -3   9    2.85    0.60
  18  -3  -9    3.72    0.57
  -3  18  -9    3.50    0.58
 -18  -3   9    4.14    0.61
   3 -18  -9    3.59    0.61
   3 -18  -9    4.21    0.55
   3 -18 -11    0.88    0.32
 -18  -3  11    0.41    0.36
  18  -3 -11    0.79    0.36
 -18  -3  11   -0.08    0.33
  -3  18 -11    0.25    0.33
   3 -18 -11    1.01    0.42
   3 -18 -13    0.49    0.32
 -18  -3  13    1.05    0.48
 -18  -3  13   -0.30    0.38
  18  -3 -13    0.15    0.30
  -3  18 -13    0.35    0.34
   3 -18 -13    0.17    0.32
  -4 -18 -12    0.02    0.26
  18   4 -12    0.37    0.26
   4  18 -12   -0.23    0.30
  -4 -18 -10    0.32    0.24
  18   4 -10    0.64    0.34
   4  18 -10    0.70    0.38
  18   4  -8    3.42    0.54
   4  18  -8    2.71    0.50
 -18  -4  -6    1.81    0.37
  18   4  -6    1.62    0.39
  -4  18   6    2.25    0.50
   4  18  -6    1.71    0.42
   4  18  -4    1.74    0.47
 -18  -4  -4    2.12    0.42
  -4  18   4    1.81    0.44
  18  -4   4    1.88    0.45
   4  18  -4    1.54    0.38
  18   4  -4    1.23    0.35
 -18  -4  -2    6.37    0.71
   4  18  -2    6.24    0.77
  -4  18   2    6.06    0.78
  18   4  -2    5.92    0.66
   4  18  -2    4.47    0.58
  18  -4   2    4.85    0.64
  -4  18   0    5.30    0.72
 -18  -4   0    5.28    0.68
   4  18   0    5.13    0.68
   4  18   0    4.11    0.52
  18   4   0    4.47    0.58
  18  -4   0    4.59    0.63
  -4  18  -2    5.05    0.56
 -18  -4   2    4.05    0.62
   4  18   2    4.89    0.52
   4  18   2    5.00    0.69
  18  -4  -2    6.04    0.69
   4 -18  -2    6.30    0.54
 -18  -4   4    0.78    0.36
  -4  18  -4    1.52    0.40
 -18   4  -4    1.90    0.40
   4  18   4    2.47    0.52
  18  -4  -4    1.50    0.39
   4 -18  -4    1.16    0.27
   4 -18  -4    2.12    0.47
 -18  -4   4    1.10    0.42
 -18  -4   6    1.68    0.47
  18  -4  -6    1.78    0.41
  -4  18  -6    2.18    0.45
 -18  -4   6    2.42    0.56
   4 -18  -6    1.78    0.36
   4 -18  -6    1.75    0.48
 -18  -4   8    2.58    0.62
  -4  18  -8    2.35    0.49
  18  -4  -8    2.89    0.52
 -18  -4   8    2.52    0.50
   4 -18  -8    3.03    0.57
   4 -18  -8    2.74    0.46
 -18  -4  10    0.02    0.40
  -4  18 -10    0.45    0.32
  18  -4 -10    0.89    0.34
 -18  -4  10    0.79    0.41
   4 -18 -10    0.59    0.39
   4 -18 -10    0.32    0.25
   4 -18 -12   -0.02    0.26
 -18  -4  12    0.09    0.39
 -18  -4  12    0.27    0.34
  18  -4 -12    0.44    0.35
  -4  18 -12    0.67    0.40
   4 -18 -12    0.13    0.35
  -5 -18 -13    0.71    0.37
  18   5 -13    1.16    0.37
   5  18 -13    0.44    0.33
  -5 -18 -11   -0.33    0.29
  18   5 -11    0.40    0.27
   5  18 -11    0.32    0.31
   5  18  -9   -0.07    0.29
  18   5  -9   -0.19    0.28
   5  18  -7    0.87    0.33
  18   5  -7    1.42    0.38
  -5  18   7    1.96    0.51
 -18  -5  -5    0.54    0.26
   5  18  -5    0.27    0.31
   5  18  -5    1.04    0.35
  18  -5   5    1.12    0.38
  18   5  -5    1.26    0.36
  -5  18   5   -0.16    0.38
 -18  -5  -3    2.92    0.50
   5  18  -3    2.67    0.57
   5  18  -3    2.39    0.47
  -5  18   3    3.29    0.62
  18   5  -3    2.98    0.49
  18  -5   3    2.81    0.53
 -18  -5  -1    0.84    0.39
   5  18  -1    0.79    0.33
  -5  18   1    0.56    0.37
   5  18  -1    0.80    0.35
  18  -5   1    0.56    0.34
  -5  18  -1    1.17    0.42
   5  18   1    0.63    0.28
 -18  -5   1    0.79    0.34
   5  18   1    0.55    0.37
  18  -5  -1    0.94    0.31
   5  18   3    1.72    0.33
 -18  -5   3    3.02    0.55
   5  18   3    3.04    0.54
  18  -5  -3    2.65    0.50
   5 -18  -3    3.42    0.44
   5 -18  -3    3.13    0.57
 -18  -5   3    2.72    0.59
 -18  -5   5    0.97    0.40
   5  18   5    1.09    0.43
  18  -5  -5    0.26    0.26
   5 -18  -5    0.69    0.25
 -18  -5   5    0.52    0.39
   5 -18  -5    0.56    0.37
 -18  -5   7    0.80    0.41
  18  -5  -7    1.22    0.39
 -18  -5   7    1.02    0.41
   5 -18  -7    1.12    0.30
   5 -18  -7    1.16    0.42
 -18  -5   9    0.07    0.33
  18  -5  -9    0.67    0.35
 -18  -5   9   -0.09    0.35
   5 -18  -9   -0.34    0.25
  -5  18  -9   -0.35    0.34
   5 -18  -9   -0.04    0.38
 -18  -5  11    0.56    0.40
 -18  -5  11    0.34    0.38
  18  -5 -11    0.87    0.33
  -5  18 -11   -0.23    0.36
   5 -18 -11    0.59    0.38
   5 -18 -11   -0.37    0.28
  -5  18 -13    0.22    0.40
 -18  -5  13    0.00    0.38
  18  -5 -13    0.58    0.32
   5 -18 -13    0.80    0.45
   5 -18 -13    0.86    0.40
  -6 -18 -12    0.95    0.40
   6  18 -12    1.41    0.47
   6  18 -10    0.05    0.28
  18   6 -10   -0.06    0.22
   6  18  -8    1.24    0.40
  18   6  -8    0.76    0.29
 -18  -6  -6    0.50    0.27
   6  18  -6    1.16    0.34
  18  -6   6    1.62    0.40
  18   6  -6    1.01    0.32
  -6  18   6    0.86    0.35
 -18  -6  -4    1.17    0.37
   6  18  -4    1.83    0.48
   6  18  -4    1.60    0.43
  -6  18   4    0.83    0.43
  18   6  -4    1.35    0.34
  18  -6   4    1.66    0.41
 -18  -6  -2    2.40    0.49
   6  18  -2    2.01    0.41
   6  18  -2    2.25    0.50
  -6  18   2    2.32    0.50
  18  -6   2    3.11    0.52
   6  18   0    0.12    0.25
 -18  -6   0    0.44    0.30
  -6  18   0    0.66    0.39
   6  18   0    0.55    0.34
  18  -6   0    0.68    0.32
   6 -18   0    0.44    0.34
 -18  -6   2    2.59    0.54
   6  18   2    2.19    0.50
  18  -6  -2    2.67    0.53
   6 -18  -2    2.64    0.40
   6 -18  -2    2.26    0.51
 -18  -6   2    2.60    0.56
 -18  -6   4    1.35    0.44
   6  18   4    0.73    0.37
  18  -6  -4    1.13    0.33
   6 -18  -4    1.49    0.34
 -18  -6   4    0.21    0.36
   6 -18  -4    1.34    0.42
 -18  -6   6    0.53    0.35
  18  -6  -6    1.09    0.35
 -18  -6   6    1.08    0.44
   6 -18  -6    1.05    0.31
   6 -18  -6    0.78    0.41
 -18  -6   8   -0.10    0.38
  18  -6  -8    0.97    0.38
 -18  -6   8    0.88    0.39
   6 -18  -8    0.52    0.26
   6 -18  -8    0.41    0.36
 -18  -6  10    0.64    0.39
  18  -6 -10    0.46    0.33
 -18  -6  10    0.28    0.37
   6 -18 -10    0.51    0.31
   6 -18 -10    0.34    0.36
 -18  -6  12    1.06    0.47
 -18  -6  12    1.58    0.47
  18  -6 -12    1.72    0.52
   6 -18 -12    1.68    0.42
   6 -18 -12    1.81    0.53
   7  18 -11    0.67    0.41
   7  18  -9    0.38    0.32
   7  18  -7    2.13    0.46
  18   7  -7    1.92    0.40
  -7  18   7    1.68    0.47
 -18  -7  -5    0.52    0.30
   7  18  -5    0.67    0.34
   7  18  -5    0.56    0.34
  18   7  -5    0.73    0.29
  18  -7   5    1.00    0.36
  -7  18   5    0.07    0.37
 -18  -7  -3    1.07    0.39
   7  18  -3    0.93    0.40
  -7  18   3    1.20    0.40
  18  -7   3    0.62    0.31
 -18  -7  -1    1.28    0.37
  -7  18   1    2.30    0.52
   7  18  -1    1.68    0.49
  18  -7   1    1.89    0.45
   7 -18   1    0.93    0.39
 -18  -7   1    1.36    0.43
  -7  18  -1    2.22    0.52
   7  18   1    1.63    0.49
  18  -7  -1    1.61    0.42
   7 -18  -1    2.17    0.36
   7 -18  -1    1.82    0.47
 -18  -7   1    1.75    0.55
 -18  -7   3    1.40    0.49
   7  18   3    1.21    0.43
  18  -7  -3    0.77    0.36
   7 -18  -3    0.66    0.27
 -18  -7   3    0.62    0.35
   7 -18  -3    0.78    0.36
 -18  -7   5    1.26    0.47
  18  -7  -5    0.61    0.32
   7 -18  -5    0.66    0.29
 -18  -7   5    0.95    0.45
   7 -18  -5    0.19    0.33
 -18  -7   7    0.80    0.44
  18  -7  -7    2.18    0.48
 -18  -7   7    2.94    0.64
   7 -18  -7    1.90    0.42
   7 -18  -7    2.24    0.53
 -18  -7   9    0.04    0.40
  18  -7  -9    0.66    0.36
 -18  -7   9    0.31    0.45
   7 -18  -9   -0.19    0.22
   7 -18  -9    0.44    0.36
 -18  -7  11   -0.22    0.41
 -18  -7  11    0.04    0.41
  18  -7 -11    0.08    0.32
   7 -18 -11    0.26    0.24
   7 -18 -11    0.27    0.36
   8  18 -10    0.42    0.34
   8  18  -8    1.33    0.41
  -8 -18  -8    0.74    0.37
   8  18  -6    0.24    0.28
   8  18  -6   -0.18    0.30
  18   8  -6    0.17    0.24
  18  -8   6    0.08    0.24
  -8  18   6   -0.19    0.36
  -8 -18  -6   -0.02    0.32
 -18  -8  -4    1.60    0.40
   8  18  -4    3.28    0.58
  -8  18   4    1.87    0.49
  18  -8   4    2.25    0.48
 -18  -8  -2    2.82    0.53
  -8  18   2    3.70    0.61
   8  18  -2    3.58    0.62
  18  -8   2    3.60    0.57
   8 -18   2    3.36    0.58
 -18  -8   0    0.72    0.41
  -8  18   0    0.81    0.34
   8  18   0    1.05    0.41
  18  -8   0    0.52    0.32
   8 -18   0    0.72    0.25
   8 -18   0    0.06    0.32
 -18  -8   0    0.77    0.44
 -18  -8   2    3.39    0.60
   8  18   2    2.74    0.53
  18  -8  -2    3.99    0.60
   8 -18  -2    3.07    0.46
 -18  -8   2    3.40    0.65
   8 -18  -2    3.47    0.61
 -18  -8   4    1.32    0.44
  18  -8  -4    2.22    0.49
   8 -18  -4    2.52    0.45
 -18  -8   4    2.24    0.59
   8 -18  -4    2.45    0.56
 -18  -8   6    0.13    0.35
  18  -8  -6    0.14    0.26
 -18  -8   6   -0.44    0.41
   8 -18  -6    0.04    0.21
   8 -18  -6    0.19    0.37
 -18  -8   8    1.42    0.54
  18  -8  -8    2.31    0.51
 -18  -8   8    1.38    0.49
   8 -18  -8    2.15    0.46
   8 -18  -8    1.98    0.54
 -18  -8  10    0.01    0.45
 -18  -8  10   -0.14    0.40
  18  -8 -10    0.04    0.30
   8 -18 -10    0.03    0.27
   8 -18 -10   -0.54    0.42
   9  18  -9    0.84    0.38
  -9 -18  -9    1.76    0.45
   9  18  -7    0.84    0.38
  -9 -18  -7    1.22    0.48
   9  18  -5    1.48    0.45
  18  -9   5    2.20    0.49
  -9  18   5    2.05    0.53
  -9 -18  -5    2.07    0.46
 -18  -9  -3    4.26    0.64
   9  18  -3    5.15    0.69
  -9  18   3    4.45    0.66
  18  -9   3    5.20    0.67
  -9 -18  -3    4.72    0.73
   9 -18   3    4.55    0.66
 -18  -9  -1    2.49    0.52
  -9  18   1    2.10    0.50
   9  18  -1    2.42    0.50
  18  -9   1    2.23    0.48
 -18  -9  -1    2.19    0.60
   9 -18   1    1.82    0.45
 -18  -9   1    1.65    0.46
  -9  18  -1    2.74    0.56
   9  18   1    2.42    0.53
  18  -9  -1    2.64    0.54
   9 -18  -1    2.16    0.41
 -18  -9   1    2.88    0.62
   9 -18  -1    2.20    0.53
 -18  -9   3    4.83    0.74
  18  -9  -3    5.80    0.74
   9 -18  -3    5.60    0.63
 -18  -9   3    5.29    0.75
   9 -18  -3    5.65    0.71
 -18  -9   5    1.93    0.55
  18  -9  -5    1.82    0.45
   9 -18  -5    1.92    0.42
 -18  -9   5    1.81    0.49
   9 -18  -5    2.08    0.50
 -18  -9   7    1.27    0.51
  18  -9  -7    0.71    0.30
 -18  -9   7    1.36    0.52
   9 -18  -7    1.13    0.38
   9 -18  -7    1.91    0.54
 -18  -9   9    1.18    0.54
 -18  -9   9    1.58    0.54
  18  -9  -9    1.52    0.41
   9 -18  -9    1.66    0.44
   9 -18  -9    1.59    0.52
  10  18  -6    0.47    0.36
  18 -10   6   -0.33    0.31
 -10  18   6    0.11    0.41
 -10 -18  -6   -0.05    0.39
  10  18  -4    0.18    0.31
 -10  18   4    0.53    0.38
  18 -10   4    0.53    0.33
 -10 -18  -4    0.79    0.40
  10 -18   4    1.18    0.40
 -18 -10  -2    1.55    0.45
 -10  18   2    2.59    0.54
  10  18  -2    1.32    0.43
  18 -10   2    2.19    0.50
 -10 -18  -2    2.17    0.53
 -18 -10  -2    1.00    0.43
  10 -18   2    1.71    0.43
 -18 -10   0    1.27    0.39
 -10  18   0    1.72    0.51
  10  18   0    2.09    0.51
  18 -10   0    1.47    0.41
  10 -18   0    1.86    0.37
 -18 -10   0    2.12    0.55
  10 -18   0    2.25    0.56
 -18 -10   2    1.69    0.58
 -10  18  -2    1.98    0.45
  18 -10  -2    2.51    0.52
  10 -18  -2    2.38    0.45
 -18 -10   2    1.74    0.60
  10 -18  -2    1.54    0.45
 -18 -10   4    0.58    0.41
  18 -10  -4    0.78    0.33
  10 -18  -4    0.55    0.28
 -18 -10   4    1.00    0.45
  10 -18  -4    0.96    0.44
 -18 -10   6    0.70    0.42
  18 -10  -6    0.35    0.32
 -18 -10   6    0.69    0.43
  10 -18  -6    0.61    0.33
  10 -18  -6    0.91    0.43
  18 -11   5   -0.31    0.32
  11  18  -5    0.74    0.36
  18 -11   5   -0.20    0.28
 -11  18   5   -0.09    0.41
 -11 -18  -5   -0.24    0.43
 -18 -11  -5    0.33    0.41
 -11  18   3    0.34    0.35
  11  18  -3   -0.38    0.32
  18 -11   3    0.36    0.24
 -11 -18  -3   -0.62    0.42
 -18 -11  -3   -0.03    0.40
  11 -18   3   -0.14    0.30
 -18 -11  -1   -0.64    0.38
 -11  18   1    0.35    0.39
  18 -11   1    0.10    0.25
  11  18  -1    0.08    0.33
  11 -18   1    0.13    0.24
 -11 -18  -1    0.23    0.37
 -18 -11  -1   -0.45    0.43
  11 -18   1    0.29    0.31
 -18 -11   1   -0.40    0.42
 -11  18  -1    0.35    0.34
  18 -11  -1    0.23    0.26
  11 -18  -1    0.81    0.28
 -18 -11   1   -0.27    0.47
  11 -18  -1    0.52    0.38
 -18 -11   3    0.51    0.41
  18 -11  -3    0.77    0.34
  11 -18  -3    0.07    0.27
 -18 -11   3   -0.37    0.47
  11 -18  -3   -0.23    0.40
 -18 -11   5   -0.34    0.36
  18 -11  -5    0.55    0.30
  11 -18  -5    0.13    0.27
 -18 -11   5    0.50    0.42
  11 -18  -5    0.20    0.36
   0  19  -1    0.38    0.36
 -19   0  -1    0.07    0.30
 -19   0   1    0.03    0.30
   0  19   1    0.79    0.40
  19   0   1    0.51    0.30
   0  19  -1    0.67    0.29
  19   0  -1    0.32    0.24
   0  19  -3    2.91    0.58
 -19   0  -3    2.03    0.43
 -19   0   3    2.10    0.52
  19   0   3    2.41    0.48
   0  19   3    2.90    0.60
   0  19  -3    1.95    0.44
  19   0  -3    2.29    0.49
 -19   0   5    0.14    0.36
   0  19  -5    0.37    0.29
   0  19   5    0.43    0.37
  19   0  -5    0.83    0.35
 -19   0   7    0.57    0.42
   0  19  -7    0.75    0.35
  19   0  -7    0.63    0.33
 -19   0   7    1.04    0.40
   0 -19  -9   -0.24    0.30
 -19   0   9    0.31    0.34
   0  19  -9    0.02    0.29
  19   0  -9   -0.13    0.28
 -19   0   9    0.04    0.34
   0 -19 -11    0.10    0.27
 -19   0  11    0.23    0.35
   0  19 -11    0.34    0.31
  19   0 -11    0.13    0.26
 -19   0  11   -0.27    0.37
  -1 -19 -12    0.14    0.24
 -19   1  12    0.24    0.39
   1  19 -12   -0.64    0.39
  19   1 -12    0.51    0.30
  -1 -19 -10    0.08    0.22
   1  19 -10   -0.16    0.30
 -19   1  10   -0.03    0.37
  19   1 -10   -0.04    0.24
 -19   1  10    0.20    0.31
   1  19  -8    1.02    0.38
 -19   1   8    2.44    0.56
  19   1  -8    1.79    0.40
 -19   1   8    2.03    0.46
   1  19  -6    0.61    0.36
 -19   1   6    0.64    0.40
  19   1  -6    0.65    0.30
  -1  19   6    0.67    0.44
   1  19  -4    0.14    0.28
 -19  -1  -4    0.61    0.31
 -19   1   4    0.16    0.32
  -1  19   4    0.49    0.38
  19   1  -4    0.02    0.28
   1  19  -2    1.72    0.37
   1  19  -2    2.33    0.54
 -19  -1  -2    2.23    0.49
 -19   1   2    2.38    0.53
  -1  19   2    2.99    0.57
  19  -1   2    1.98    0.45
  19   1  -2    2.01    0.47
   1  19   0    2.77    0.44
  -1  19   0    4.12    0.66
 -19  -1   0    3.03    0.54
   1  19   0    3.13    0.58
 -19   1   0    4.24    0.61
  19   1   0    2.97    0.52
  19  -1   0    3.55    0.59
  -1  19  -2    2.56    0.57
 -19  -1   2    2.34    0.52
 -19   1  -2    2.19    0.46
   1  19   2    1.71    0.50
  19   1   2    1.81    0.42
  19  -1  -2    2.22    0.49
  -1  19  -2    2.44    0.44
 -19   1  -4   -0.04    0.26
 -19  -1   4   -0.16    0.34
   1  19   4    0.11    0.34
  19  -1  -4    0.08    0.27
  -1  19  -4   -0.45    0.31
 -19  -1   6    0.55    0.37
  19  -1  -6    0.05    0.25
   1  19   6    0.17    0.35
  -1  19  -6    0.39    0.31
 -19  -1   6    0.93    0.38
   1 -19  -8    2.06    0.40
 -19  -1   8    1.56    0.50
  19  -1  -8    1.65    0.45
  -1  19  -8    1.39    0.43
 -19  -1   8    2.22    0.50
   1 -19 -10   -0.06    0.22
 -19  -1  10    0.07    0.42
  19  -1 -10    0.60    0.34
 -19  -1  10    0.35    0.35
  -1  19 -10    0.32    0.30
   1 -19 -12   -0.11    0.34
 -19  -1  12   -0.84    0.46
  19  -1 -12    0.41    0.31
 -19  -1  12    0.33    0.36
  -1  19 -12   -0.03    0.33
   2  19 -11   -0.22    0.31
  19   2 -11    0.28    0.25
   2  19  -9    2.16    0.48
 -19   2   9    2.21    0.57
  19   2  -9    2.05    0.48
 -19   2   9    2.64    0.50
 -19   2   7   -0.04    0.34
  19   2  -7    0.26    0.28
  -2  19   7   -0.09    0.39
   2  19  -7   -0.11    0.28
 -19  -2  -5    2.13    0.43
 -19   2   5    1.47    0.43
  -2  19   5    1.68    0.50
  19   2  -5    3.03    0.52
   2  19  -5    2.14    0.46
  -2  19   3   10.87    1.01
 -19  -2  -3   10.35    0.87
 -19   2   3    9.47    0.92
  19  -2   3    8.96    0.87
  19   2  -3   10.60    0.93
   2  19  -3    9.27    0.81
   2  19  -3   10.87    1.02
 -19  -2  -1    1.73    0.44
   2  19  -1    1.63    0.49
  -2  19   1    2.45    0.54
 -19   2   1    1.11    0.42
  19   2  -1    1.38    0.41
  19  -2   1    1.25    0.38
   2  19  -1    1.09    0.33
  -2  19  -1    1.40    0.48
 -19  -2   1    1.56    0.44
 -19   2  -1    1.56    0.43
   2  19   1    1.02    0.46
  19   2   1    1.40    0.39
  19  -2  -1    0.70    0.37
  -2  19  -1    1.38    0.36
   2  19   3   11.31    1.01
 -19  -2   3    8.89    0.90
 -19   2  -3    9.07    0.80
  19  -2  -3   10.80    0.95
  -2  19  -3    9.60    0.80
  -2  19  -5    1.83    0.42
 -19  -2   5    2.14    0.54
   2  19   5    2.11    0.50
  19  -2  -5    2.46    0.48
  -2  19  -7    0.47    0.33
 -19  -2   7   -0.23    0.37
  19  -2  -7   -0.25    0.27
 -19  -2   7    0.09    0.35
   2 -19  -7   -0.34    0.20
   2 -19  -9    1.98    0.43
  -2  19  -9    1.47    0.39
 -19  -2   9    2.73    0.58
  19  -2  -9    2.91    0.55
 -19  -2   9    1.26    0.41
   2 -19 -11    0.18    0.24
 -19  -2  11    0.02    0.41
  -2  19 -11   -0.45    0.37
  19  -2 -11    0.04    0.28
 -19  -2  11   -0.15    0.35
  19   3 -10    0.50    0.27
   3  19 -10    0.65    0.37
  19   3  -8    1.89    0.44
   3  19  -8    1.40    0.43
 -19   3   8    1.88    0.45
  19   3  -6    4.20    0.59
  -3  19   6    5.16    0.76
   3  19  -6    3.93    0.60
   3  19  -4    1.98    0.53
 -19  -3  -4    2.54    0.49
 -19   3   4    2.18    0.51
  19  -3   4    1.13    0.35
  -3  19   4    2.84    0.62
  19   3  -4    2.37    0.46
   3  19  -4    1.36    0.42
 -19  -3  -2    5.07    0.66
   3  19  -2    5.42    0.71
  -3  19   2    5.47    0.74
 -19   3   2    4.04    0.62
  19   3  -2    4.43    0.61
  19  -3   2    4.89    0.67
   3  19  -2    4.46    0.56
  -3  19   0    9.89    0.97
   3  19   0    8.68    0.89
 -19   3   0    7.81    0.82
 -19  -3   0    6.97    0.76
  19   3   0    7.53    0.79
  19  -3   0    7.93    0.82
   3  19   0    5.78    0.63
  -3  19  -2    5.33    0.74
 -19  -3   2    5.40    0.73
 -19   3  -2    5.05    0.64
   3  19   2    4.55    0.68
  -3  19  -2    4.54    0.54
  19  -3  -2    4.76    0.64
  -3  19  -4    1.80    0.44
 -19  -3   4    1.83    0.49
 -19   3  -4    1.49    0.40
   3  19   4    3.05    0.60
  19  -3  -4    1.91    0.47
 -19  -3   6    3.28    0.62
  19  -3  -6    4.36    0.63
 -19  -3   6    3.24    0.58
  -3  19  -6    3.15    0.55
 -19  -3   8    2.45    0.58
  19  -3  -8    1.13    0.39
 -19  -3   8    1.41    0.45
  -3  19  -8    1.93    0.47
   3 -19  -8    1.85    0.52
   3 -19  -8    1.90    0.39
 -19  -3  10    0.45    0.36
  19  -3 -10    0.36    0.30
 -19  -3  10    1.45    0.47
   3 -19 -10    0.37    0.37
   3 -19 -10    0.99    0.37
  19   4 -11    0.58    0.29
   4  19 -11    0.35    0.37
  19   4  -9    1.28    0.39
   4  19  -9    1.59    0.45
  19   4  -7    0.30    0.29
  -4  19   7    0.04    0.36
   4  19  -7    0.37    0.31
 -19  -4  -5    0.89    0.32
   4  19  -5    1.10    0.41
  19  -4   5    1.29    0.39
  19   4  -5    1.24    0.36
  -4  19   5    1.01    0.46
   4  19  -5    1.28    0.38
 -19  -4  -3    7.44    0.76
   4  19  -3    7.17    0.85
  19   4  -3    6.64    0.74
  -4  19   3    8.12    0.87
  19  -4   3    6.92    0.78
   4  19  -3    7.17    0.73
 -19  -4  -1    0.51    0.34
  -4  19   1    0.78    0.39
   4  19  -1    0.56    0.41
  19   4  -1    0.76    0.32
  19  -4   1    0.46    0.34
   4  19  -1    0.00    0.28
  -4  19  -1   -0.03    0.36
 -19  -4   1    0.39    0.34
 -19   4  -1    0.45    0.31
   4  19   1   -0.05    0.34
   4  19   1    0.15    0.22
  19  -4  -1    0.42    0.29
  -4  19  -3    7.30    0.70
 -19   4  -3    7.63    0.75
 -19  -4   3    6.15    0.77
  19  -4  -3    7.20    0.80
   4  19   3    6.72    0.83
 -19  -4   5    1.33    0.45
  -4  19  -5    1.12    0.38
  19  -4  -5    1.29    0.38
   4  19   5    1.12    0.44
 -19  -4   5    1.03    0.43
   4 -19  -5    1.18    0.41
  -4  19  -7   -0.71    0.36
 -19  -4   7   -0.56    0.45
  19  -4  -7   -0.09    0.27
 -19  -4   7    0.31    0.36
   4 -19  -7    0.14    0.22
   4 -19  -7    0.29    0.38
 -19  -4   9    0.87    0.44
  19  -4  -9    1.49    0.45
 -19  -4   9    1.22    0.45
   4 -19  -9    1.45    0.48
   4 -19  -9    1.92    0.41
  -4  19  -9    1.64    0.48
  -4  19 -11    0.46    0.35
 -19  -4  11   -0.01    0.40
  19  -4 -11   -0.10    0.25
 -19  -4  11   -0.05    0.36
   4 -19 -11    0.31    0.39
   4 -19 -11    0.18    0.23
  19   5 -10    0.29    0.23
   5  19 -10    0.18    0.31
  19   5  -8    0.33    0.26
   5  19  -8    0.65    0.31
  19   5  -6    0.17    0.24
   5  19  -6   -0.12    0.32
  -5  19   6    0.07    0.34
 -19  -5  -4    0.27    0.27
   5  19  -4    0.48    0.39
  19  -5   4    0.13    0.28
   5  19  -4    0.92    0.37
  -5  19   4   -0.33    0.39
  19   5  -4    0.22    0.22
 -19  -5  -2    2.01    0.48
   5  19  -2    1.30    0.46
  -5  19   2    2.01    0.51
   5  19  -2    1.07    0.35
  19   5  -2    1.72    0.43
  19  -5   2    1.55    0.39
 -19  -5   0    0.17    0.30
  -5  19   0    0.09    0.36
   5  19   0    0.19    0.26
   5  19   0   -0.51    0.41
  19  -5   0   -0.26    0.32
  -5  19  -2    2.24    0.52
 -19  -5   2    1.80    0.48
   5  19   2    2.02    0.54
  19  -5  -2    2.21    0.50
 -19  -5   4    0.21    0.30
   5  19   4    0.20    0.36
  19  -5  -4    0.79    0.35
 -19  -5   4    0.15    0.37
   5 -19  -4    0.17    0.34
 -19  -5   6   -0.53    0.43
  19  -5  -6    0.18    0.26
   5 -19  -6   -0.07    0.23
 -19  -5   6    0.18    0.35
   5 -19  -6   -0.09    0.34
 -19  -5   8   -0.05    0.38
  19  -5  -8    0.64    0.35
 -19  -5   8    0.88    0.44
   5 -19  -8    0.86    0.30
   5 -19  -8    0.98    0.42
 -19  -5  10    0.05    0.41
  19  -5 -10   -0.18    0.28
 -19  -5  10    0.84    0.45
   5 -19 -10   -0.25    0.24
   5 -19 -10   -0.58    0.44
  19   6  -9   -0.37    0.29
   6  19  -9    0.53    0.31
   6  19  -7    0.63    0.33
  19   6  -7    1.35    0.36
  -6  19   7    0.99    0.51
 -19  -6  -5    1.03    0.34
   6  19  -5    0.47    0.35
   6  19  -5    0.22    0.26
  19  -6   5    0.27    0.26
  19   6  -5    0.37    0.25
  -6  19   5    0.69    0.46
 -19  -6  -3   -0.14    0.27
   6  19  -3    0.22    0.31
   6  19  -3   -0.18    0.27
  -6  19   3   -0.01    0.33
  19   6  -3    0.12    0.22
  19  -6   3    0.12    0.25
 -19  -6  -1    0.80    0.39
   6  19  -1    0.75    0.30
  -6  19   1    0.56    0.42
   6  19  -1   -0.07    0.32
  19  -6   1    0.43    0.32
 -19  -6   1    0.72    0.38
   6  19   1    0.56    0.28
  -6  19  -1    1.42    0.47
   6  19   1    1.12    0.41
  19  -6  -1    1.12    0.42
 -19  -6   3    0.21    0.34
   6  19   3   -0.25    0.35
  19  -6  -3    0.05    0.25
 -19  -6   3    0.33    0.43
   6 -19  -3    0.21    0.31
 -19  -6   5   -0.38    0.36
  19  -6  -5   -0.09    0.27
   6 -19  -5   -0.27    0.26
 -19  -6   5   -0.46    0.48
   6 -19  -5   -0.02    0.32
 -19  -6   7    1.25    0.46
  19  -6  -7    1.25    0.41
 -19  -6   7    0.84    0.40
   6 -19  -7    0.22    0.24
   6 -19  -7    0.89    0.44
 -19  -6   9    0.12    0.35
  19  -6  -9    0.42    0.29
 -19  -6   9   -0.08    0.37
   6 -19  -9    0.08    0.25
   6 -19  -9    0.18    0.37
   7  19  -8    0.10    0.29
   7  19  -6    0.79    0.38
   7  19  -6    0.70    0.36
  19  -7   6    0.66    0.30
  19   7  -6    0.45    0.27
  -7  19   6    0.89    0.45
 -19  -7  -4    0.29    0.33
   7  19  -4    0.51    0.29
   7  19  -4   -0.26    0.36
  -7  19   4   -0.51    0.44
  19  -7   4   -0.25    0.32
 -19  -7  -2    0.93    0.35
   7  19  -2    0.64    0.32
  -7  19   2    0.55    0.39
   7  19  -2    0.72    0.35
  19  -7   2    0.54    0.33
   7  19   0   -0.31    0.27
 -19  -7   0    0.30    0.29
  -7  19   0   -0.24    0.36
   7  19   0    0.91    0.40
  19  -7   0    0.40    0.25
  -7  19  -2    0.65    0.40
 -19  -7   2    0.27    0.33
   7  19   2    1.17    0.40
  19  -7  -2    0.50    0.36
 -19  -7   2    0.95    0.43
   7 -19  -2    0.54    0.34
 -19  -7   4   -0.64    0.38
  19  -7  -4    0.37    0.30
   7 -19  -4   -0.08    0.21
 -19  -7   4    0.75    0.43
   7 -19  -4    0.43    0.37
 -19  -7   6    0.45    0.39
  19  -7  -6    0.72    0.38
   7 -19  -6    0.30    0.23
 -19  -7   6   -0.04    0.39
   7 -19  -6    0.96    0.48
 -19  -7   8    0.76    0.44
  19  -7  -8    0.49    0.35
 -19  -7   8    1.01    0.45
   7 -19  -8    0.26    0.23
   7 -19  -8    0.02    0.39
   8  19  -7    0.31    0.35
   8  19  -7    0.56    0.36
 -19  -8  -5    0.03    0.27
   8  19  -5    0.17    0.28
   8  19  -5   -0.14    0.43
  19  -8   5    0.50    0.32
  -8  19   5   -0.41    0.38
 -19  -8  -3    0.79    0.38
   8  19  -3    1.55    0.44
  -8  19   3    1.96    0.52
  19  -8   3    1.27    0.40
 -19  -8  -1    0.76    0.40
  -8  19   1    0.60    0.41
   8  19  -1    0.64    0.36
  19  -8   1    0.33    0.34
   8 -19   1   -0.64    0.42
 -19  -8   1   -0.26    0.38
  -8  19  -1    0.35    0.44
   8  19   1    0.48    0.37
  19  -8  -1    0.13    0.27
 -19  -8   1    0.24    0.41
   8 -19  -1    0.22    0.31
 -19  -8   3    0.95    0.44
  19  -8  -3    1.29    0.40
   8  19   3    1.93    0.53
 -19  -8   3    1.64    0.56
   8 -19  -3    1.30    0.46
 -19  -8   5    0.16    0.39
  19  -8  -5    0.20    0.30
   8 -19  -5    0.09    0.23
 -19  -8   5   -0.52    0.43
   8 -19  -5    0.75    0.43
 -19  -8   7    0.67    0.39
  19  -8  -7    1.04    0.43
 -19  -8   7   -0.21    0.40
   8 -19  -7    0.78    0.31
   8 -19  -7    0.71    0.42
 -19  -9  -4    0.24    0.30
   9  19  -4   -0.20    0.35
  19  -9   4   -0.17    0.31
 -19  -9  -2    0.52    0.34
  -9  19   2    1.07    0.45
   9  19  -2    0.80    0.41
  19  -9   2    1.59    0.45
   9 -19   2    1.44    0.44
 -19  -9  -2    1.73    0.53
 -19  -9   0    1.75    0.51
  -9  19   0    2.64    0.62
   9  19   0    2.44    0.55
  19  -9   0    1.93    0.48
 -19  -9   0    2.19    0.57
   9 -19   0    1.56    0.48
 -19  -9   2    1.15    0.46
  -9  19  -2    1.91    0.52
  19  -9  -2    1.92    0.46
   9  19   2    1.48    0.48
 -19  -9   2    2.10    0.59
   9 -19  -2    1.53    0.47
 -19  -9   4   -0.33    0.40
  19  -9  -4    0.52    0.29
   9 -19  -4    0.53    0.27
 -19  -9   4   -0.13    0.44
   9 -19  -4   -0.55    0.45
 -19 -10  -1    0.25    0.33
 -10  19   1    0.74    0.43
  10  19  -1    0.19    0.35
  19 -10   1    0.04    0.26
 -19 -10  -1    0.37    0.45
  10 -19   1    0.18    0.32
 -19 -10   1   -0.19    0.36
 -10  19  -1    0.34    0.39
  19 -10  -1    0.31    0.36
  10  19   1   -0.19    0.38
 -19 -10   1   -0.02    0.43
  10 -19  -1    0.11    0.36
 -20   0   0    0.52    0.34
   0  20   0    0.59    0.42
  20   0   0    0.31    0.30
   0  20  -2    0.51    0.40
 -20   0  -2    0.23    0.30
 -20   0   2    0.47    0.34
   0  20   2    0.52    0.41
  20   0   2    0.42    0.32
  20   0  -2    0.56    0.33
   0  20  -2    0.38    0.26
   0  20  -4    0.38    0.38
 -20   0   4    0.04    0.32
   0  20   4    0.97    0.45
  20   0  -4    0.20    0.27
   0  20  -4   -0.22    0.28
 -20   0   6    0.42    0.35
  20   0  -6    0.09    0.25
   0  20  -6    0.72    0.34
   0  20   6    0.18    0.36
 -20   0   8    0.78    0.43
  20   0  -8    0.30    0.28
   0  20  -8   -0.01    0.30
 -20   0   8    0.06    0.36
 -20   1   9    0.32    0.37
   1  20  -9   -0.38    0.35
  20   1  -9   -0.14    0.34
 -20   1   9   -0.25    0.36
 -20   1   7    1.16    0.48
   1  20  -7    1.01    0.37
  20   1  -7    0.79    0.33
 -20   1   7    0.98    0.42
   1  20  -5    0.12    0.28
 -20   1   5    0.30    0.35
  20   1  -5    0.70    0.34
  -1  20   5    0.99    0.50
   1  20  -3    1.27    0.48
 -20  -1  -3    1.06    0.38
   1  20  -3    0.82    0.34
 -20   1   3    0.75    0.44
  20  -1   3    0.06    0.27
  -1  20   3    0.71    0.43
  20   1  -3    0.73    0.31
 -20  -1  -1    0.02    0.29
   1  20  -1    0.25    0.34
 -20   1   1   -0.05    0.34
  -1  20   1    0.29    0.37
  20  -1   1   -0.12    0.26
  20   1  -1    0.52    0.30
  -1  20  -1    1.22    0.47
 -20  -1   1    0.03    0.30
 -20   1  -1    0.16    0.28
   1  20   1    0.90    0.42
  20   1   1    0.04    0.25
  20  -1  -1   -0.09    0.26
  -1  20  -3    0.41    0.35
 -20   1  -3    0.97    0.32
 -20  -1   3    0.21    0.31
   1  20   3    0.39    0.39
  20  -1  -3    0.09    0.26
  -1  20  -3    0.18    0.26
 -20  -1   5    0.81    0.42
  20  -1  -5    0.93    0.37
   1  20   5    1.11    0.46
  -1  20  -5    0.82    0.32
 -20  -1   7    0.99    0.45
  20  -1  -7    0.63    0.34
 -20  -1   7    1.77    0.49
  -1  20  -7    1.29    0.38
 -20  -1   9   -0.28    0.40
  20  -1  -9    0.34    0.31
 -20  -1   9    0.71    0.41
  -1  20  -9    0.03    0.34
   2  20  -8    0.33    0.30
 -20   2   8    0.25    0.40
  20   2  -8    1.07    0.38
 -20   2   8    1.53    0.44
   2  20  -6    0.37    0.35
 -20   2   6    0.44    0.34
  20   2  -6    0.40    0.27
  -2  20   6    0.44    0.40
   2  20  -4    0.65    0.38
   2  20  -4    0.60    0.42
 -20  -2  -4   -0.16    0.25
 -20   2   4   -0.36    0.38
  -2  20   4   -0.39    0.37
  20   2  -4    0.60    0.33
 -20  -2  -2    1.07    0.37
   2  20  -2    1.86    0.50
 -20   2   2    2.01    0.49
  -2  20   2    2.26    0.53
  20  -2   2    1.07    0.37
  20   2  -2    2.15    0.46
   2  20  -2    1.58    0.40
 -20  -2   0    3.66    0.59
  -2  20   0    2.91    0.58
 -20   2   0    3.04    0.57
   2  20   0    3.84    0.65
  20   2   0    3.20    0.55
  20  -2   0    3.12    0.58
  -2  20  -2    1.58    0.48
 -20  -2   2    1.93    0.49
 -20   2  -2    1.64    0.40
   2  20   2    1.54    0.50
  20  -2  -2    1.61    0.45
 -20  -2   4   -0.34    0.37
   2  20   4   -0.28    0.40
  20  -2  -4   -0.16    0.26
  -2  20  -4    0.26    0.27
 -20  -2   6    0.89    0.39
  -2  20  -6    1.12    0.40
  20  -2  -6    0.64    0.32
   2  20   6    0.94    0.42
 -20  -2   6    0.94    0.44
 -20  -2   8    1.70    0.52
  -2  20  -8    0.68    0.34
  20  -2  -8    1.31    0.43
 -20  -2   8    1.42    0.49
 -20   3   9    1.08    0.49
  20   3  -9    0.68    0.33
   3  20  -9    0.58    0.38
 -20   3   7    0.16    0.38
  20   3  -7    0.20    0.22
   3  20  -7    0.18    0.31
   3  20  -5    1.00    0.42
 -20   3   5    0.37    0.33
  20   3  -5    0.94    0.33
  -3  20   5    1.07    0.46
   3  20  -5    0.45    0.26
 -20  -3  -3    4.63    0.62
   3  20  -3    4.67    0.74
 -20   3   3    4.67    0.70
  -3  20   3    4.84    0.76
  20  -3   3    4.22    0.64
  20   3  -3    4.43    0.63
   3  20  -3    4.38    0.61
 -20  -3  -1    0.71    0.37
   3  20  -1    0.50    0.38
  -3  20   1    0.51    0.45
 -20   3   1    0.47    0.37
  20   3  -1    0.02    0.28
  20  -3   1    0.69    0.32
   3  20  -1    0.06    0.25
  -3  20  -1    0.05    0.36
 -20  -3   1    1.36    0.43
 -20   3  -1    0.68    0.39
   3  20   1    1.20    0.47
  20  -3  -1    0.33    0.29
  -3  20  -3    3.52    0.66
 -20  -3   3    4.95    0.71
 -20   3  -3    4.67    0.62
   3  20   3    4.59    0.71
  20  -3  -3    5.33    0.72
  -3  20  -3    3.21    0.50
 -20  -3   5    0.15    0.36
  -3  20  -5    0.48    0.31
  20  -3  -5    1.22    0.41
   3  20   5    1.19    0.47
 -20  -3   5    1.36    0.43
  -3  20  -7   -0.21    0.28
 -20  -3   7    0.13    0.34
  20  -3  -7   -0.29    0.29
 -20  -3   7   -0.52    0.41
  -3  20  -9    0.24    0.31
 -20  -3   9    0.85    0.42
  20  -3  -9    0.20    0.32
 -20  -3   9    0.88    0.43
  20   4  -8    1.83    0.47
   4  20  -8    1.15    0.42
   4  20  -6    1.36    0.48
  20   4  -6    1.00    0.33
  -4  20   6    0.27    0.41
   4  20  -6    0.26    0.35
 -20  -4  -4    0.82    0.38
   4  20  -4    0.35    0.40
  20  -4   4    1.58    0.47
  20   4  -4    0.86    0.34
  -4  20   4    0.97    0.48
   4  20  -4    0.05    0.35
 -20  -4  -2    2.39    0.49
   4  20  -2    3.16    0.62
 -20   4   2    1.95    0.52
  -4  20   2    2.83    0.63
  20   4  -2    1.55    0.42
  20  -4   2    3.11    0.57
   4  20  -2    1.87    0.43
 -20  -4   0    1.34    0.39
 -20   4   0    0.89    0.37
   4  20   0    0.69    0.41
  20  -4   0    0.24    0.29
  -4  20  -2    2.55    0.57
 -20  -4   2    3.01    0.60
 -20   4  -2    2.26    0.46
   4  20   2    3.71    0.65
  20  -4  -2    2.75    0.51
 -20  -4   4    1.02    0.45
  20  -4  -4    0.75    0.33
   4  20   4    1.43    0.47
 -20  -4   4    0.05    0.40
 -20  -4   6    0.50    0.38
  -4  20  -6    0.81    0.35
  20  -4  -6    0.37    0.35
 -20  -4   8    0.78    0.38
  20  -4  -8    1.81    0.44
  -4  20  -8    1.14    0.41
 -20  -4   8    0.57    0.42
   4 -20  -8    1.43    0.48
  20   5  -7    0.42    0.25
   5  20  -7    0.96    0.37
   5  20  -5    1.56    0.50
  20  -5   5    1.76    0.46
  20   5  -5    0.97    0.35
  -5  20   5    1.53    0.51
   5  20  -5    1.41    0.42
 -20  -5  -3    0.08    0.29
   5  20  -3    0.66    0.43
  -5  20   3    0.22    0.36
  20   5  -3    0.05    0.21
  20  -5   3    0.76    0.36
   5  20  -3    0.15    0.26
 -20  -5  -1    1.89    0.49
  -5  20   1    2.32    0.58
   5  20  -1    1.87    0.51
   5  20  -1    1.11    0.38
  20  -5   1    2.13    0.51
 -20  -5   1    1.45    0.48
  -5  20  -1    1.34    0.47
 -20   5  -1    1.68    0.45
   5  20   1    1.15    0.45
  20  -5  -1    1.26    0.43
  -5  20  -3   -0.45    0.46
 -20  -5   3    0.30    0.34
   5  20   3    0.35    0.41
  20  -5  -3    0.08    0.26
 -20  -5   3    0.15    0.39
 -20  -5   5    1.33    0.45
  20  -5  -5    1.28    0.41
 -20  -5   5    1.74    0.53
   5 -20  -5    1.94    0.53
 -20  -5   7    1.18    0.48
  20  -5  -7    1.47    0.45
 -20  -5   7    0.34    0.39
   5 -20  -7    1.25    0.45
   6  20  -6    0.59    0.39
  20   6  -6    0.81    0.31
   6  20  -6    0.20    0.31
  -6  20   6    1.23    0.46
 -20  -6  -4    0.15    0.29
   6  20  -4    1.30    0.48
   6  20  -4    0.55    0.36
  20   6  -4    0.28    0.27
  20  -6   4    1.18    0.40
  -6  20   4    0.50    0.41
 -20  -6  -2    0.76    0.38
   6  20  -2    0.34    0.42
   6  20  -2    1.01    0.35
  -6  20   2    1.10    0.52
  20  -6   2    0.93    0.40
 -20  -6   0    1.44    0.46
  -6  20   0    1.00    0.44
   6  20   0    0.32    0.34
  20  -6   0    0.25    0.30
  -6  20  -2    1.32    0.50
 -20  -6   2    1.12    0.43
   6  20   2    0.84    0.42
  20  -6  -2    0.58    0.32
 -20  -6   2    1.71    0.55
 -20  -6   4    1.46    0.50
  20  -6  -4    0.09    0.28
   6  20   4    0.50    0.38
 -20  -6   4    0.38    0.43
   6 -20  -4    0.75    0.45
 -20  -6   6    0.65    0.41
  20  -6  -6    0.93    0.43
 -20  -6   6    0.77    0.47
   6 -20  -6    0.48    0.40
 -20  -7  -3   -0.18    0.35
   7  20  -3   -0.33    0.31
   7  20  -3   -0.06    0.33
  -7  20   3   -0.24    0.38
  20  -7   3   -0.40    0.39
 -20  -7  -1    1.11    0.38
   7  20  -1    0.36    0.27
  -7  20   1    0.75    0.46
   7  20  -1    1.74    0.52
  20  -7   1    0.77    0.37
 -20  -7   1    0.12    0.33
  -7  20  -1    0.01    0.43
   7  20   1    0.61    0.41
  20  -7  -1    0.45    0.26
 -20  -7   1    0.80    0.47
  -7  20  -3   -0.40    0.37
 -20  -7   3    0.25    0.32
  20  -7  -3    0.09    0.26
   7  20   3   -0.01    0.36
 -20  -7   3    0.43    0.41
   7 -20  -3   -0.16    0.33
   8  20   0    0.16    0.27
 -20  -8   0    0.85    0.49
  -8  20   0    1.56    0.52
   8  20   0    1.49    0.49
  20  -8   0    0.10    0.33
 -20  -8   0    0.55    0.48
 -21   0  -1    0.22    0.31
 -21   0   1    0.12    0.34
   0  21  -1   -0.05    0.42
   0  21   1    0.47    0.44
  21   0   1    0.17    0.26
  21   0  -1   -0.07    0.26
   0  21  -3    1.37    0.51
 -21   0   3    2.03    0.55
   0  21   3    1.60    0.56
  21   0  -3    1.36    0.40
 -21   0   5   -0.25    0.41
  21   0  -5    0.17    0.27
   0  21   5   -0.32    0.43
   0  21  -5    0.35    0.32
   1  21  -4    0.79    0.42
 -21   1   4    1.34    0.48
   1  21  -4    1.33    0.42
  21   1  -4    1.28    0.42
  -1  21   4    1.43    0.47
 -21  -1  -2    0.44    0.32
   1  21  -2   -0.55    0.46
 -21   1   2    0.38    0.33
  -1  21   2    0.86    0.44
  21  -1   2    0.50    0.34
  21   1  -2    0.16    0.24
 -21  -1   0    0.18    0.30
 -21   1   0    0.03    0.28
  -1  21   0   -1.03    0.50
   1  21   0    0.19    0.35
  21   1   0   -0.10    0.25
  21  -1   0    0.18    0.26
  -1  21  -2    0.08    0.42
 -21  -1   2   -0.07    0.39
 -21   1  -2    0.28    0.34
   1  21   2    0.33    0.39
  21  -1  -2   -0.23    0.35
  -1  21  -4    1.64    0.49
  -1  21  -4    0.81    0.36
 -21  -1   4    1.74    0.50
  21  -1  -4    1.71    0.43
   1  21   4    2.46    0.57
   2  21  -5    0.64    0.39
   2  21  -5    0.21    0.31
 -21   2   5    0.45    0.36
  21   2  -5   -0.38    0.36
  -2  21   5   -0.07    0.42
   2  21  -3    0.04    0.26
   2  21  -3    0.36    0.37
 -21   2   3    0.34    0.34
  21  -2   3   -0.34    0.30
  -2  21   3    0.94    0.48
  21   2  -3    0.09    0.25
 -21  -2  -1    0.10    0.34
 -21   2   1    0.02    0.31
   2  21  -1    0.31    0.36
  -2  21   1   -0.21    0.36
  21   2  -1   -0.15    0.26
  21  -2   1   -0.14    0.25
 -21  -2   1   -0.15    0.38
  -2  21  -1    0.04    0.42
 -21   2  -1    0.24    0.31
   2  21   1    0.11    0.37
  21  -2  -1    0.19    0.26
  -2  21  -3    0.29    0.41
 -21  -2   3    0.22    0.38
   2  21   3    0.22    0.34
  21  -2  -3   -0.43    0.28
 -21  -2   5    0.73    0.42
  21  -2  -5    0.72    0.38
   2  21   5   -0.44    0.42
  -2  21  -5    0.43    0.30
 -21  -2   5   -0.12    0.43
   3  21  -4   -0.14    0.38
 -21   3   4    0.82    0.42
  21   3  -4   -0.22    0.30
  -3  21   4   -0.35    0.44
   3  21  -4    0.58    0.34
 -21  -3  -2   -0.04    0.33
   3  21  -2    0.22    0.40
 -21   3   2    0.93    0.43
  -3  21   2    0.85    0.49
  21   3  -2    0.26    0.25
  21  -3   2    0.64    0.34
 -21  -3   0    0.24    0.34
  -3  21   0    0.74    0.47
 -21   3   0    0.93    0.42
   3  21   0    1.09    0.47
  21  -3   0   -0.22    0.28
  -3  21  -2    0.59    0.45
 -21  -3   2    0.09    0.35
   3  21   2    0.27    0.36
  21  -3  -2    0.24    0.27
  -3  21  -4   -0.02    0.39
 -21  -3   4    0.26    0.39
  21  -3  -4   -0.52    0.36
   3  21   4   -0.17    0.36
 -21  -3   4    0.06    0.40
 -21  -4  -3   -0.23    0.34
   4  21  -3   -0.08    0.43
 -21   4   3    1.03    0.46
  21   4  -3    0.15    0.28
  21  -4   3   -0.21    0.31
  -4  21   3   -0.23    0.40
   4  21  -3   -0.13    0.29
 -21  -4  -1    0.92    0.43
 -21   4   1    0.73    0.38
  -4  21   1    0.76    0.41
   4  21  -1    1.24    0.44
  21  -4   1    0.78    0.36
 -21  -4   1    0.83    0.41
  -4  21  -1    0.13    0.37
 -21   4  -1    0.54    0.34
   4  21   1    1.19    0.49
  21  -4  -1    0.45    0.29
  -4  21  -3    0.10    0.41
 -21  -4   3   -0.22    0.37
   4  21   3    0.44    0.43
  21  -4  -3    0.41    0.31
   0   0   0    0.00    0.00
;
_shelx_hkl_checksum              60774
loop_
_space_group_symop_operation_xyz
'x, y, z'
'y, -x, -z'
'-x, -y, z'
'-y, x, -z'
'x, -y, -z'
'-x, y, -z'
'-y, -x, z'
'y, x, z'
'x+1/2, y+1/2, z+1/2'
'y+1/2, -x+1/2, -z+1/2'
'-x+1/2, -y+1/2, z+1/2'
'-y+1/2, x+1/2, -z+1/2'
'x+1/2, -y+1/2, -z+1/2'
'-x+1/2, y+1/2, -z+1/2'
'-y+1/2, -x+1/2, z+1/2'
'y+1/2, x+1/2, z+1/2'
loop_
_atom_site_label
_atom_site_type_symbol
_atom_site_fract_x
_atom_site_fract_y
_atom_site_fract_z
_atom_site_U_iso_or_equiv
_atom_site_adp_type
_atom_site_occupancy
_atom_site_site_symmetry_order
_atom_site_calc_flag
_atom_site_refinement_flags_posn
_atom_site_refinement_flags_adp
_atom_site_refinement_flags_occupancy
_atom_site_disorder_assembly
_atom_site_disorder_group
Ag1 Ag 0.5000 0.5000 0.20213(9) 0.0460(5) Uani 1 4 d S T P . .
Ag2 Ag 0.52846(6) 0.66009(5) 0.16361(6) 0.0552(3) Uani 1 1 d . . . . .
Ag3 Ag 0.5000 0.58362(16) 0.0000 0.0520(9) Uani 0.43 2 d S T P A 1
Ag3B Ag 0.5538(8) 0.5538(8) -0.0261(11) 0.058(5) Uani 0.07 2 d S TU P A 2
S1 S 0.5993(2) 0.4007(2) 0.1977(3) 0.0520(11) Uani 1 2 d S T P . .
C1 C 0.6256(12) 0.3744(12) 0.2809(12) 0.082(7) Uani 1 2 d S T P B .
C2 C 0.7124(13) 0.3923(17) 0.2916(12) 0.133(11) Uani 1 1 d . . . B 1
H2A H 0.7393 0.3453 0.3023 0.199 Uiso 1 1 calc GR . . B 1
H2B H 0.7178 0.4288 0.3261 0.199 Uiso 1 1 calc GR . . B 1
H2C H 0.7341 0.4139 0.2533 0.199 Uiso 1 1 calc GR . . B 1
C3 C 0.5759(16) 0.4241(16) 0.3277(17) 0.118(11) Uani 1 2 d S TU P . .
H3A H 0.5697 0.4754 0.3105 0.177 Uiso 0.5 1 calc GR . . C -1
H3B H 0.6014 0.4271 0.3684 0.177 Uiso 0.5 1 calc GR . . C -1
H3C H 0.5258 0.4005 0.3329 0.177 Uiso 0.5 1 calc GR . . C -1
S2 S 0.6009(2) 0.6009(2) 0.0719(2) 0.0649(14) Uani 1 2 d S T P A .
C4 C 0.6656(11) 0.6656(11) 0.0345(11) 0.106(8) Uani 1 2 d DS TU P . .
C5 C 0.7132(9) 0.7132(9) 0.0824(11) 0.078(7) Uani 1 2 d DS TU P E .
H5A H 0.7417 0.7525 0.0600 0.117 Uiso 0.5 1 calc GR . . D -1
H5B H 0.7487 0.6797 0.1045 0.117 Uiso 0.5 1 calc GR . . D -1
H5C H 0.6789 0.7371 0.1128 0.117 Uiso 0.5 1 calc GR . . D -1
C6 C 0.7191(15) 0.649(2) -0.0208(12) 0.116(9) Uani 0.5 1 d D U . E -1
H6A H 0.7535 0.6070 -0.0093 0.175 Uiso 0.5 1 calc GR . . E -1
H6B H 0.7489 0.6941 -0.0307 0.175 Uiso 0.5 1 calc GR . . E -1
H6C H 0.6891 0.6337 -0.0575 0.175 Uiso 0.5 1 calc GR . . E -1
C7 C 0.6076(19) 0.7265(17) 0.0071(15) 0.116(9) Uani 0.5 1 d D U . E -1
H7A H 0.5971 0.7143 -0.0368 0.175 Uiso 0.5 1 d R . . E -1
H7B H 0.6306 0.7771 0.0098 0.175 Uiso 0.5 1 d R . . E -1
H7C H 0.5600 0.7259 0.0310 0.175 Uiso 0.5 1 d R . . E -1
O1 O 0.6951(19) 0.6141(16) 0.2467(13) 0.089(6) Uani 0.5 1 d D U . F -1
O2 O 0.5932(13) 0.6879(19) 0.2716(13) 0.089(6) Uani 0.5 1 d D U . F -1
C8 C 0.6579(11) 0.6579(11) 0.2818(13) 0.083(6) Uani 1 2 d DS TU P . .
C9 C 0.6944(11) 0.6944(11) 0.3395(14) 0.117(9) Uani 1 2 d DS TU P F .
F1 F 0.7489(12) 0.7489(12) 0.3229(16) 0.117(11) Uani 0.5 2 d DS TU P F 1
F1B F 0.6575(18) 0.6575(18) 0.3889(19) 0.163(16) Uani 0.5 2 d DS TU P F 2
F2 F 0.730(2) 0.641(2) 0.378(2) 0.147(11) Uani 0.5 1 d D U . F 1
F2B F 0.7604(16) 0.664(2) 0.364(2) 0.147(11) Uani 0.5 1 d D U . F 2
N1 N 0.5147(6) 0.7945(5) 0.1660(6) 0.055(3) Uani 1 1 d . . . . .
C10 C 0.5754(8) 0.8411(8) 0.1828(6) 0.055(3) Uani 1 1 d . . . . .
H10 H 0.6220 0.8180 0.1945 0.066 Uiso 1 1 calc R . . . .
C11 C 0.5709(8) 0.9194(7) 0.1831(6) 0.048(3) Uani 1 1 d . . . . .
H11 H 0.6143 0.9483 0.1944 0.057 Uiso 1 1 calc R . . . .
C12 C 0.5028(8) 0.9576(6) 0.1669(6) 0.047(3) Uani 1 1 d . . . . .
C13 C 0.4408(7) 0.9097(8) 0.1509(7) 0.052(3) Uani 1 1 d . . . . .
H13 H 0.3931 0.9313 0.1401 0.062 Uiso 1 1 calc R . . . .
C14 C 0.4501(7) 0.8310(7) 0.1509(7) 0.052(3) Uani 1 1 d . . . . .
H14 H 0.4076 0.8009 0.1393 0.062 Uiso 1 1 calc R . . . .
C15 C 0.654(3) 1.034(2) -0.009(3) 0.114(10) Uiso 0.25 1 d D . . G -1
C16 C 0.687(2) 0.962(2) 0.005(3) 0.114(10) Uiso 0.25 1 d DG . . G -1
C17 C 0.640(3) 0.898(2) 0.017(3) 0.114(10) Uiso 0.25 1 d DG . . G -1
H17 H 0.6624 0.8502 0.0261 0.137 Uiso 0.25 1 calc R . . G -1
C18 C 0.560(3) 0.906(2) 0.015(3) 0.114(10) Uiso 0.25 1 d G . . G -1
H18 H 0.5284 0.8628 0.0229 0.137 Uiso 0.25 1 calc R . . G -1
C19 C 0.526(2) 0.977(3) 0.001(5) 0.114(10) Uiso 0.25 1 d G . . G -1
H19 H 0.4728 0.9822 0.0000 0.137 Uiso 0.25 1 calc R . . G -1
C20 C 0.573(3) 1.041(2) -0.011(4) 0.114(10) Uiso 0.25 1 d DG . . G -1
H20 H 0.5511 1.0890 -0.0197 0.137 Uiso 0.25 1 calc R . . G -1
C21 C 0.773(2) 0.954(3) 0.006(4) 0.114(10) Uiso 0.25 1 d D . . G -1
H21A H 0.7868 0.9090 0.0308 0.171 Uiso 0.25 1 d R . . G -1
H21B H 0.7948 0.9994 0.0258 0.171 Uiso 0.25 1 d R . . G -1
H21C H 0.7914 0.9490 -0.0365 0.171 Uiso 0.25 1 d R . . G -1
C22 C 0.704(3) 1.100(3) -0.026(4) 0.114(10) Uiso 0.25 1 d D . . G -1
H22A H 0.7572 1.0843 -0.0262 0.171 Uiso 0.25 1 d R . . G -1
H22B H 0.6960 1.1389 0.0062 0.171 Uiso 0.25 1 d R . . G -1
H22C H 0.6903 1.1208 -0.0672 0.171 Uiso 0.25 1 d R . . G -1
loop_
_atom_site_aniso_label
_atom_site_aniso_U_11
_atom_site_aniso_U_22
_atom_site_aniso_U_33
_atom_site_aniso_U_23
_atom_site_aniso_U_13
_atom_site_aniso_U_12
Ag1 0.0413(6) 0.0413(6) 0.0555(11) 0.000 0.000 -0.0070(8)
Ag2 0.0497(5) 0.0364(5) 0.0794(7) -0.0042(5) -0.0076(6) -0.0093(4)
Ag3 0.070(2) 0.0252(12) 0.061(2) 0.000 -0.036(2) 0.000
Ag3B 0.061(7) 0.061(7) 0.051(9) -0.007(5) -0.007(5) -0.033(9)
S1 0.0486(15) 0.0486(15) 0.059(3) 0.0149(16) -0.0149(16) 0.000(2)
C1 0.093(11) 0.093(11) 0.058(14) 0.021(10) -0.021(10) -0.008(15)
C2 0.099(16) 0.21(3) 0.086(14) 0.049(17) -0.047(13) -0.020(18)
C3 0.127(14) 0.127(14) 0.099(19) 0.034(13) -0.034(13) -0.015(17)
S2 0.078(2) 0.078(2) 0.040(3) -0.0131(17) -0.0131(17) -0.013(3)
C4 0.115(9) 0.115(9) 0.089(11) 0.006(7) 0.006(7) -0.008(11)
C5 0.077(9) 0.077(9) 0.079(14) -0.007(8) -0.007(8) -0.018(11)
C6 0.135(14) 0.136(14) 0.079(13) -0.002(12) 0.028(12) -0.011(13)
C7 0.135(14) 0.136(14) 0.079(13) -0.002(12) 0.028(12) -0.011(13)
O1 0.090(8) 0.095(8) 0.081(11) -0.017(8) -0.002(8) -0.013(8)
O2 0.090(8) 0.095(8) 0.081(11) -0.017(8) -0.002(8) -0.013(8)
C8 0.085(7) 0.085(7) 0.080(12) -0.010(7) -0.010(7) -0.017(10)
C9 0.120(10) 0.120(10) 0.111(14) -0.006(9) -0.006(9) 0.007(12)
F1 0.123(13) 0.123(13) 0.10(2) -0.027(11) -0.027(11) -0.058(16)
F1B 0.173(19) 0.173(19) 0.14(3) -0.022(16) -0.022(16) 0.02(2)
F2 0.117(17) 0.191(18) 0.133(15) -0.006(12) -0.056(15) -0.010(15)
F2B 0.117(17) 0.191(18) 0.133(15) -0.006(12) -0.056(15) -0.010(15)
N1 0.062(7) 0.044(5) 0.058(6) -0.014(5) -0.003(6) -0.009(5)
C10 0.054(7) 0.049(7) 0.063(9) -0.012(7) -0.009(6) -0.004(6)
C11 0.046(7) 0.043(7) 0.054(8) 0.002(6) -0.008(6) -0.011(5)
C12 0.057(6) 0.044(6) 0.042(6) -0.011(6) 0.012(7) -0.010(5)
C13 0.044(7) 0.055(8) 0.058(9) -0.013(7) -0.001(6) -0.002(6)
C14 0.049(7) 0.047(7) 0.061(9) -0.020(7) -0.003(6) -0.008(5)
loop_
_atom_type_symbol
_atom_type_description
_atom_type_scat_dispersion_real
_atom_type_scat_dispersion_imag
_atom_type_scat_source
C C 0.0033 0.0016 'International Tables Vol C Tables 4.2.6.8 and 6.1.1.4'
H H 0.0000 0.0000 'International Tables Vol C Tables 4.2.6.8 and 6.1.1.4'
Ag Ag -0.8971 1.1015 'International Tables Vol C Tables 4.2.6.8 and 6.1.1.4'
F F 0.0171 0.0103 'International Tables Vol C Tables 4.2.6.8 and 6.1.1.4'
N N 0.0061 0.0033 'International Tables Vol C Tables 4.2.6.8 and 6.1.1.4'
O O 0.0106 0.0060 'International Tables Vol C Tables 4.2.6.8 and 6.1.1.4'
S S 0.1246 0.1234 'International Tables Vol C Tables 4.2.6.8 and 6.1.1.4'
loop_
_geom_angle_atom_site_label_1
_geom_angle_atom_site_label_2
_geom_angle_atom_site_label_3
_geom_angle
_geom_angle_site_symmetry_1
_geom_angle_site_symmetry_3
Ag2 Ag1 Ag2 66.76(4) 3_665 7_665
Ag2 Ag1 Ag2 104.02(5) 3_665 8
Ag2 Ag1 Ag2 147.95(9) 7_665 8
Ag2 Ag1 Ag2 66.76(4) 8 .
Ag2 Ag1 Ag2 147.95(9) 3_665 .
Ag2 Ag1 Ag2 104.02(5) 7_665 .
S1 Ag1 Ag2 122.64(5) 3_665 8
S1 Ag1 Ag2 55.93(4) . 8
S1 Ag1 Ag2 55.93(4) . 3_665
S1 Ag1 Ag2 122.64(5) 3_665 3_665
S1 Ag1 Ag2 55.93(4) 3_665 7_665
S1 Ag1 Ag2 122.64(5) . 7_665
S1 Ag1 Ag2 122.64(5) . .
S1 Ag1 Ag2 55.93(4) 3_665 .
S1 Ag1 S1 175.7(3) 3_665 .
Ag1 Ag2 Ag2 56.62(2) . 8
S1 Ag2 Ag1 52.15(11) 3_665 .
S1 Ag2 Ag2 108.73(11) 3_665 8
S1 Ag2 O2 102.0(7) 3_665 .
S2 Ag2 Ag1 84.81(13) . .
S2 Ag2 Ag2 50.18(8) . 8
S2 Ag2 S1 118.59(16) . 3_665
S2 Ag2 O2 122.2(5) . .
O2 Ag2 Ag1 90.4(7) . .
O2 Ag2 Ag2 79.9(5) . 8
N1 Ag2 Ag1 156.6(3) . .
N1 Ag2 Ag2 140.9(3) . 8
N1 Ag2 S1 108.4(3) . 3_665
N1 Ag2 S2 118.2(3) . .
N1 Ag2 O2 80.8(7) . .
Ag3 Ag3 Ag3 45.0 2_565 3_665
Ag3 Ag3 Ag3 45.0 4_655 3_665
Ag3 Ag3 Ag3 89.999(1) 4_655 2_565
Ag3 Ag3 S2 63.90(8) 4_655 4_655
Ag3 Ag3 S2 128.43(15) 2_565 4_655
Ag3 Ag3 S2 128.43(15) 4_655 .
Ag3 Ag3 S2 63.90(8) 2_565 .
S2 Ag3 Ag3 97.38(11) 4_655 3_665
S2 Ag3 Ag3 97.38(11) . 3_665
S2 Ag3 S2 165.2(2) . 4_655
Ag3B Ag3B Ag3B 52.4(5) 2_565 3_665
Ag3B Ag3B Ag3B 52.4(5) 4_655 3_665
Ag3B Ag3B Ag3B 75.1(10) 4_655 2_565
Ag3B Ag3B S2 63.6(4) 3_665 2_565
Ag3B Ag3B S2 52.0(8) 4_655 4_655
Ag3B Ag3B S2 81.8(12) 4_655 .
Ag3B Ag3B S2 52.0(8) 2_565 2_565
Ag3B Ag3B S2 113.7(4) 4_655 2_565
Ag3B Ag3B S2 113.7(4) 2_565 4_655
Ag3B Ag3B S2 63.6(4) 3_665 4_655
Ag3B Ag3B S2 81.8(12) 2_565 .
S2 Ag3B Ag3B 119.3(5) . 3_665
S2 Ag3B S2 120.1(4) . 2_565
S2 Ag3B S2 113.2(7) 4_655 2_565
S2 Ag3B S2 120.1(4) . 4_655
Ag1 S1 Ag2 71.92(10) . 3_665
Ag1 S1 Ag2 71.92(10) . 8
Ag2 S1 Ag2 129.51(19) 3_665 8
C1 S1 Ag1 108.1(10) . .
C1 S1 Ag2 112.0(3) . 8
C1 S1 Ag2 112.0(3) . 3_665
C2 C1 S1 108.9(14) . .
C2 C1 S1 108.9(14) 7_665 .
C2 C1 C2 111(3) 7_665 .
C2 C1 C3 109.4(17) . .
C2 C1 C3 109.4(17) 7_665 .
C3 C1 S1 108.6(19) . .
C1 C2 H2A 109.5 . .
C1 C2 H2B 109.5 . .
C1 C2 H2C 109.5 . .
H2A C2 H2B 109.5 . .
H2A C2 H2C 109.5 . .
H2B C2 H2C 109.5 . .
C1 C3 H3A 109.5 . .
C1 C3 H3B 109.5 . .
C1 C3 H3C 109.5 . .
H3A C3 H3B 109.5 . .
H3A C3 H3C 109.5 . .
H3B C3 H3C 109.5 . .
Ag2 S2 Ag2 79.65(16) . 8
Ag2 S2 Ag3B 118.7(4) . 2_565
Ag2 S2 Ag3B 84.8(5) 8 2_565
Ag2 S2 Ag3B 118.7(4) 8 4_655
Ag2 S2 Ag3B 84.8(5) . 4_655
Ag3 S2 Ag2 100.04(12) . .
Ag3 S2 Ag2 100.04(12) 2_565 8
Ag3 S2 Ag2 137.6(3) 2_565 .
Ag3 S2 Ag2 137.6(3) . 8
Ag3 S2 Ag3 52.20(15) . 2_565
Ag3B S2 Ag2 129.5(3) . 8
Ag3B S2 Ag2 129.5(3) . .
Ag3B S2 Ag3B 46.2(8) . 2_565
Ag3B S2 Ag3B 46.2(8) . 4_655
Ag3B S2 Ag3B 52.8(7) 4_655 2_565
C4 S2 Ag2 113.4(5) . 8
C4 S2 Ag2 113.4(5) . .
C4 S2 Ag3 105.6(7) . .
C4 S2 Ag3 105.6(7) . 2_565
C4 S2 Ag3B 127.2(7) . 4_655
C4 S2 Ag3B 127.2(7) . 2_565
C4 S2 Ag3B 93.0(9) . .
C5 C4 S2 112.9(18) . .
C5 C4 C7 102.9(16) . .
C6 C4 S2 127(2) . .
C6 C4 C5 106.1(18) . .
C6 C4 C7 104.0(17) . .
C7 C4 S2 101(2) . .
C4 C5 H5A 109.5 . .
C4 C5 H5B 109.5 . .
C4 C5 H5C 109.5 . .
H5A C5 H5B 109.5 . .
H5A C5 H5C 109.5 . .
H5B C5 H5C 109.5 . .
C4 C6 H6A 109.5 . .
C4 C6 H6B 109.5 . .
C4 C6 H6C 109.5 . .
H6A C6 H6B 109.5 . .
H6A C6 H6C 109.5 . .
H6B C6 H6C 109.5 . .
C4 C7 H7A 109.0 . .
C4 C7 H7B 109.0 . .
C4 C7 H7C 110.5 . .
H7A C7 H7B 109.5 . .
H7A C7 H7C 109.5 . .
H7B C7 H7C 109.4 . .
C8 O1 Ag2 134(3) . 8
C8 O2 Ag2 118(2) . .
O1 C8 O2 128(3) . .
O1 C8 C9 121(2) . .
O2 C8 C9 109.8(18) . .
F1 C9 C8 112(2) . .
F1B C9 C8 102(3) . .
F2 C9 C8 112(3) . .
F2 C9 C8 112(3) 8 .
F2 C9 F1 107(2) . .
F2 C9 F1 107(2) 8 .
F2 C9 F2 105(5) . 8
F2B C9 C8 119(2) 8 .
F2B C9 C8 119(2) . .
F2B C9 F1B 86(3) . .
F2B C9 F1B 86(3) 8 .
F2B C9 F2B 121(5) . 8
C10 N1 Ag2 120.9(9) . .
C14 N1 Ag2 123.8(8) . .
C14 N1 C10 115.3(11) . .
N1 C10 H10 118.5 . .
C11 C10 N1 123.0(13) . .
C11 C10 H10 118.5 . .
C10 C11 H11 119.3 . .
C10 C11 C12 121.5(12) . .
C12 C11 H11 119.3 . .
C11 C12 C12 122.0(14) . 3_675
C11 C12 C13 115.2(11) . .
C13 C12 C12 122.8(15) . 3_675
C12 C13 H13 120.0 . .
C14 C13 C12 119.9(12) . .
C14 C13 H13 120.0 . .
N1 C14 C13 125.1(12) . .
N1 C14 H14 117.5 . .
C13 C14 H14 117.5 . .
C16 C15 C20 120.0 . .
C16 C15 C22 119.7(6) . .
C20 C15 C22 120.1(6) . .
C15 C16 C17 120.0 . .
C15 C16 C21 119.9(6) . .
C17 C16 C21 120.1(6) . .
C16 C17 H17 120.0 . .
C18 C17 C16 120.0 . .
C18 C17 H17 120.0 . .
C17 C18 H18 120.0 . .
C19 C18 C17 120.0 . .
C19 C18 H18 120.0 . .
C18 C19 H19 120.0 . .
C20 C19 C18 120.0 . .
C20 C19 H19 120.0 . .
C15 C20 H20 120.0 . .
C19 C20 C15 120.0 . .
C19 C20 H20 120.0 . .
C16 C21 H21A 109.9 . .
C16 C21 H21B 109.3 . .
C16 C21 H21C 109.1 . .
H21A C21 H21B 109.5 . .
H21A C21 H21C 109.4 . .
H21B C21 H21C 109.5 . .
C15 C22 H22A 110.1 . .
C15 C22 H22B 106.6 . .
C15 C22 H22C 111.6 . .
H22A C22 H22B 109.5 . .
H22A C22 H22C 109.5 . .
H22B C22 H22C 109.5 . .
loop_
_geom_bond_atom_site_label_1
_geom_bond_atom_site_label_2
_geom_bond_distance
_geom_bond_site_symmetry_2
Ag1 Ag2 2.9156(11) .
Ag1 Ag2 2.9155(11) 7_665
Ag1 Ag2 2.9155(11) 3_665
Ag1 Ag2 2.9155(11) 8
Ag1 S1 2.422(5) 3_665
Ag1 S1 2.422(5) .
Ag2 Ag2 3.2081(19) 8
Ag2 S1 2.540(2) 3_665
Ag2 S2 2.505(4) .
Ag2 O2 2.56(3) .
Ag2 N1 2.329(10) .
Ag3 Ag3 2.882(5) 3_665
Ag3 Ag3 2.038(4) 2_565
Ag3 Ag3 2.038(4) 4_655
Ag3 S2 2.316(4) 4_655
Ag3 S2 2.316(4) .
Ag3B Ag3B 2.15(3) 4_655
Ag3B Ag3B 2.62(4) 3_665
Ag3B Ag3B 2.15(3) 2_565
Ag3B S2 2.946(12) 4_655
Ag3B S2 2.35(2) .
Ag3B S2 2.946(12) 2_565
S1 Ag2 2.540(2) 8
S1 Ag2 2.540(2) 3_665
S1 C1 1.85(2) .
C1 C2 1.54(3) 7_665
C1 C2 1.54(3) .
C1 C3 1.56(4) .
C2 H2A 0.9600 .
C2 H2B 0.9600 .
C2 H2C 0.9600 .
C3 H3A 0.9600 .
C3 H3B 0.9600 .
C3 H3C 0.9600 .
S2 Ag2 2.505(4) 8
S2 Ag3 2.316(4) 2_565
S2 Ag3B 2.946(12) 4_655
S2 Ag3B 2.946(12) 2_565
S2 C4 1.76(3) .
C4 C5 1.533(13) .
C4 C6 1.507(14) .
C4 C7 1.558(13) .
C5 H5A 0.9600 .
C5 H5B 0.9600 .
C5 H5C 0.9600 .
C6 H6A 0.9600 .
C6 H6B 0.9600 .
C6 H6C 0.9600 .
C7 H7A 0.9593 .
C7 H7B 0.9597 .
C7 H7C 0.9597 .
O1 Ag2 2.36(3) 8
O1 C8 1.232(19) .
O2 C8 1.248(19) .
C8 C9 1.50(2) .
C9 F1 1.370(19) .
C9 F1B 1.37(2) .
C9 F2 1.361(19) 8
C9 F2 1.361(19) .
C9 F2B 1.352(18) .
C9 F2B 1.352(18) 8
N1 C10 1.366(16) .
N1 C14 1.317(17) .
C10 H10 0.9300 .
C10 C11 1.351(19) .
C11 H11 0.9300 .
C11 C12 1.387(19) .
C12 C12 1.46(2) 3_675
C12 C13 1.391(17) .
C13 H13 0.9300 .
C13 C14 1.366(18) .
C14 H14 0.9300 .
C15 C16 1.3900 .
C15 C20 1.3900 .
C15 C22 1.48(2) .
C16 C17 1.3900 .
C16 C21 1.48(2) .
C17 H17 0.9300 .
C17 C18 1.3900 .
C18 H18 0.9300 .
C18 C19 1.3900 .
C19 H19 0.9300 .
C19 C20 1.3900 .
C20 H20 0.9300 .
C21 H21A 0.9600 .
C21 H21B 0.9594 .
C21 H21C 0.9598 .
C22 H22A 0.9593 .
C22 H22B 0.9601 .
C22 H22C 0.9594 .
loop_
_geom_torsion_atom_site_label_1
_geom_torsion_atom_site_label_2
_geom_torsion_atom_site_label_3
_geom_torsion_atom_site_label_4
_geom_torsion
_geom_torsion_site_symmetry_1
_geom_torsion_site_symmetry_2
_geom_torsion_site_symmetry_3
_geom_torsion_site_symmetry_4
Ag1 S1 C1 C2 119.1(19) . . . 7_665
Ag1 S1 C1 C2 -119.1(19) . . . .
Ag1 S1 C1 C3 0.000(4) . . . .
Ag2 S1 C1 C2 -42(2) 8 . . .
Ag2 S1 C1 C2 42(2) 3_665 . . 7_665
Ag2 S1 C1 C2 -163.6(16) 8 . . 7_665
Ag2 S1 C1 C2 163.6(16) 3_665 . . .
Ag2 S1 C1 C3 -77.3(4) 3_665 . . .
Ag2 S1 C1 C3 77.3(4) 8 . . .
Ag2 S2 C4 C5 -44.3(3) 8 . . .
Ag2 S2 C4 C5 44.3(3) . . . .
Ag2 S2 C4 C6 178.5(14) . . . .
Ag2 S2 C4 C6 90.0(16) 8 . . .
Ag2 S2 C4 C7 -64.7(12) . . . .
Ag2 S2 C4 C7 -153.2(10) 8 . . .
Ag2 O1 C8 O2 -24(6) 8 . . .
Ag2 O1 C8 C9 168(2) 8 . . .
Ag2 O2 C8 O1 -2(5) . . . .
Ag2 O2 C8 C9 167.0(19) . . . .
Ag2 N1 C10 C11 178.0(11) . . . .
Ag2 N1 C14 C13 -178.8(11) . . . .
Ag3 S2 C4 C5 152.81(13) . . . .
Ag3 S2 C4 C5 -152.81(13) 2_565 . . .
Ag3 S2 C4 C6 -18.6(15) 2_565 . . .
Ag3 S2 C4 C6 -73.0(14) . . . .
Ag3 S2 C4 C7 43.9(11) . . . .
Ag3 S2 C4 C7 98.3(11) 2_565 . . .
Ag3B S2 C4 C5 180.000(2) . . . .
Ag3B S2 C4 C5 146.1(6) 4_655 . . .
Ag3B S2 C4 C5 -146.1(6) 2_565 . . .
Ag3B S2 C4 C6 -45.8(15) . . . .
Ag3B S2 C4 C6 -11.8(17) 2_565 . . .
Ag3B S2 C4 C6 -79.7(15) 4_655 . . .
Ag3B S2 C4 C7 71.1(11) . . . .
Ag3B S2 C4 C7 105.0(11) 2_565 . . .
Ag3B S2 C4 C7 37.1(13) 4_655 . . .
O1 C8 C9 F1 69(3) . . . .
O1 C8 C9 F1B -111(3) . . . .
O1 C8 C9 F2 -170(3) . . . 8
O1 C8 C9 F2 -52(4) . . . .
O1 C8 C9 F2B -18(5) . . . .
O1 C8 C9 F2B 157(4) . . . 8
O2 C8 C9 F1 -101(3) . . . .
O2 C8 C9 F1B 79(3) . . . .
O2 C8 C9 F2 139(3) . . . .
O2 C8 C9 F2 20(4) . . . 8
O2 C8 C9 F2B -13(5) . . . 8
O2 C8 C9 F2B 172(3) . . . .
N1 C10 C11 C12 1(2) . . . .
C10 N1 C14 C13 0(2) . . . .
C10 C11 C12 C12 -179.8(11) . . . 3_675
C10 C11 C12 C13 0(2) . . . .
C11 C12 C13 C14 -1(2) . . . .
C12 C12 C13 C14 179.0(11) 3_675 . . .
C12 C13 C14 N1 1(2) . . . .
C14 N1 C10 C11 -1(2) . . . .
C15 C16 C17 C18 0.0 . . . .
C16 C15 C20 C19 0.0 . . . .
C16 C17 C18 C19 0.0 . . . .
C17 C18 C19 C20 0.0 . . . .
C18 C19 C20 C15 0.0 . . . .
C20 C15 C16 C17 0.0 . . . .
C20 C15 C16 C21 179(3) . . . .
C21 C16 C17 C18 -179(3) . . . .
C22 C15 C16 C17 -175(3) . . . .
C22 C15 C16 C21 4(5) . . . .
C22 C15 C20 C19 175(3) . . . .
