#------------------------------------------------------------------------------
#$Date: 2019-06-14 11:51:49 +0300 (Fri, 14 Jun 2019) $
#$Revision: 215961 $
#$URL: file:///home/coder/svn-repositories/cod/cif/1/55/14/1551423.cif $
#------------------------------------------------------------------------------
#
# This file is available in the Crystallography Open Database (COD),
# http://www.crystallography.net/
#
# All data on this site have been placed in the public domain by the
# contributors.
#
data_1551423
loop_
_publ_author_name
'Ren-Wu Huang'
'Yong-Sheng Wei'
'Xi-Yan Dong'
'Xiao-Hui Wu'
'Chen-Xia Du'
'Shuang-Quan Zang'
'Thomas C. W. Mak'
_publ_section_title
;
 Hypersensitive dual-function luminescence switching of a
 silver-chalcogenolate cluster-based metal-organic framework
;
_journal_name_full               'Nature Chemistry'
_journal_page_first              689
_journal_page_last               697
_journal_paper_doi               10.1038/nchem.2718
_journal_volume                  9
_journal_year                    2017
_chemical_absolute_configuration ad
_chemical_formula_moiety         'C80 H104 Ag12 F12 N8 O8 S8, 4.4(O2)'
_chemical_formula_sum            'C80 H104 Ag12 F12 N8 O16.8 S8'
_chemical_formula_weight         3225.43
_space_group_crystal_system      tetragonal
_space_group_IT_number           121
_space_group_name_Hall           'I -4 2'
_space_group_name_H-M_alt        'I -4 2 m'
_atom_sites_solution_hydrogens   geom
_atom_sites_solution_primary     direct
_cell_angle_alpha                90
_cell_angle_beta                 90
_cell_angle_gamma                90
_cell_formula_units_Z            2
_cell_length_a                   17.2768(2)
_cell_length_b                   17.2768(2)
_cell_length_c                   20.4482(3)
_cell_measurement_reflns_used    6068
_cell_measurement_temperature    100.0(2)
_cell_measurement_theta_max      72.4190
_cell_measurement_theta_min      3.3410
_cell_volume                     6103.54(13)
_computing_cell_refinement       'CrysAlisPro 1.171.39.7b (Rigaku OD, 2015)'
_computing_data_collection       'CrysAlisPro 1.171.39.7b (Rigaku OD, 2015)'
_computing_data_reduction        'CrysAlisPro 1.171.39.7b (Rigaku OD, 2015)'
_computing_molecular_graphics    'Olex2 (Dolomanov et al., 2009)'
_computing_publication_material  'Olex2 (Dolomanov et al., 2009)'
_computing_structure_refinement  'ShelXL (Sheldrick, 2015)'
_computing_structure_solution    'ShelXS (Sheldrick, 2008)'
_diffrn_ambient_environment      N~2~
_diffrn_ambient_temperature      100.0(2)
_diffrn_detector                 'CCD plate'
_diffrn_measured_fraction_theta_full 0.993
_diffrn_measured_fraction_theta_max 0.980
_diffrn_measurement_details
;
List of Runs (angles in degrees, time in seconds):

  # Type    Start    End  Width  t~exp~   \w     \q     \k     \f   Frames
--------------------------------------------------------------------------
  1  \w    -32.00  82.00   0.50    3.00    --   45.50 -57.00  90.00  228
  2  \w     64.00 104.00   0.50    9.00    --  100.10  45.00 120.00   80
  3  \w     76.00 178.00   0.50    9.00    --  100.10  61.00  30.00  204
  4  \w    147.00 186.00   0.50    9.00    --  100.10  45.00 120.00   78
  5  \w    111.00 184.00   0.50    9.00    --  100.10  61.00 -90.00  146
  6  \w     68.00  98.00   0.50    9.00    --  100.10  61.00 -90.00   60
;
_diffrn_measurement_device       'four-circle diffractometer'
_diffrn_measurement_device_type  'XtaLAB Pro: Kappa single'
_diffrn_measurement_method       '\w scans'
_diffrn_orient_matrix_type
'CrysAlisPro convention (1999,Acta A55,543-557)'
_diffrn_orient_matrix_UB_11      0.0024581000
_diffrn_orient_matrix_UB_12      -0.0044145000
_diffrn_orient_matrix_UB_13      0.0751437000
_diffrn_orient_matrix_UB_21      0.0890380000
_diffrn_orient_matrix_UB_22      -0.0028663000
_diffrn_orient_matrix_UB_23      -0.0021714000
_diffrn_orient_matrix_UB_31      0.0029870000
_diffrn_orient_matrix_UB_32      0.0891503000
_diffrn_orient_matrix_UB_33      0.0036789000
_diffrn_radiation_monochromator  graphite
_diffrn_radiation_probe          x-ray
_diffrn_radiation_type           CuK\a
_diffrn_radiation_wavelength     1.54184
_diffrn_reflns_av_R_equivalents  0.0351
_diffrn_reflns_av_unetI/netI     0.0412
_diffrn_reflns_Laue_measured_fraction_full 0.993
_diffrn_reflns_Laue_measured_fraction_max 0.980
_diffrn_reflns_limit_h_max       20
_diffrn_reflns_limit_h_min       -20
_diffrn_reflns_limit_k_max       14
_diffrn_reflns_limit_k_min       -17
_diffrn_reflns_limit_l_max       24
_diffrn_reflns_limit_l_min       -23
_diffrn_reflns_number            7697
_diffrn_reflns_point_group_measured_fraction_full 0.996
_diffrn_reflns_point_group_measured_fraction_max 0.984
_diffrn_reflns_theta_full        66.750
_diffrn_reflns_theta_max         72.613
_diffrn_reflns_theta_min         3.349
_diffrn_source                   MM007HF-DW
_diffrn_source_type              'Microfocus Rotating Anode X-ray Source'
_exptl_absorpt_coefficient_mu    16.970
_exptl_absorpt_correction_T_max  0.449
_exptl_absorpt_correction_T_min  0.095
_exptl_absorpt_correction_type   analytical
_exptl_absorpt_process_details
;
CrysAlisPro 1.171.39.7b (Rigaku Oxford Diffraction, 2015)
Analytical numeric absorption correction using a multifaceted crystal
			model based on expressions derived by R.C. Clark & J.S. Reid.
(Clark, R. C. & Reid, J. S. (1995). Acta Cryst. A51, 887-897)
Empirical absorption correction using spherical harmonics,
 implemented in SCALE3 ABSPACK scaling algorithm.
;
_exptl_crystal_colour            colourless
_exptl_crystal_colour_primary    colourless
_exptl_crystal_density_diffrn    1.755
_exptl_crystal_description       block
_exptl_crystal_F_000             3149
_exptl_crystal_size_max          0.182
_exptl_crystal_size_mid          0.131
_exptl_crystal_size_min          0.061
_refine_diff_density_max         0.862
_refine_diff_density_min         -0.765
_refine_diff_density_rms         0.160
_refine_ls_abs_structure_details
;
 Refined as an inversion twin.
;
_refine_ls_abs_structure_Flack   0.02(3)
_refine_ls_extinction_coef       .
_refine_ls_extinction_method     none
_refine_ls_goodness_of_fit_ref   1.210
_refine_ls_hydrogen_treatment    constr
_refine_ls_matrix_type           full
_refine_ls_number_parameters     184
_refine_ls_number_reflns         2904
_refine_ls_number_restraints     41
_refine_ls_restrained_S_all      1.217
_refine_ls_R_factor_all          0.0448
_refine_ls_R_factor_gt           0.0444
_refine_ls_shift/su_max          0.000
_refine_ls_shift/su_mean         0.000
_refine_ls_structure_factor_coef Fsqd
_refine_ls_weighting_details
;
 w=1/[\s^2^(Fo^2^)+(0.0427P)^2^+58.6709P]
 where P=(Fo^2^+2Fc^2^)/3
;
_refine_ls_weighting_scheme      calc
_refine_ls_wR_factor_gt          0.1177
_refine_ls_wR_factor_ref         0.1179
_reflns_Friedel_coverage         0.826
_reflns_Friedel_fraction_full    0.999
_reflns_Friedel_fraction_max     0.988
_reflns_number_gt                2867
_reflns_number_total             2904
_reflns_threshold_expression     'I > 2\s(I)'
_cod_data_source_file            nchem.2718-s10.cif
_cod_data_source_block           ag12bpy_o2_100k
_cod_original_cell_volume        6103.54(17)
_cod_original_formula_sum        'C80 H104 Ag12 F12 N8 O16.80 S8'
_cod_database_code               1551423
_chemical_oxdiff_formula         'C80 H104 O8 N8 S8 Ag12 F12'
_chemical_oxdiff_usercomment     st
_shelx_space_group_comment
;
The symmetry employed for this shelxl refinement is uniquely defined
by the following loop, which should always be used as a source of
symmetry information in preference to the above space-group names.
They are only intended as comments.
;
_reflns_odcompleteness_completeness 99.75
_reflns_odcompleteness_iscentric 1
_reflns_odcompleteness_theta     66.97
_olex2_refinement_description
;
1. Twinned data refinement
 Scales: 0.98(3) 0.02(3)
2. Fixed Uiso
 At 1.2 times of:
  All C(H) groups
 At 1.5 times of:
  All C(H,H,H) groups
3. Restrained distances
 C3-C1 = C2-C1 = C5-C4 = C6-C4
 1.53 with sigma of 0.02
 F1-C8 \\sim F2-C8
 with sigma of 0.01
4. Uiso/Uaniso restraints and constraints
Uanis(C6) \\sim Ueq, Uanis(C5) \\sim Ueq, Uanis(C4) \\sim Ueq, Uanis(F2) \\sim
Ueq, Uanis(F1) \\sim Ueq, Uanis(C8) \\sim Ueq: with sigma of 0.01 and sigma for
terminal atoms of 0.02
5. Others
 Fixed Sof: Ag3(0.25) H3A(0.5) H3B(0.5) H3C(0.5) H5A(0.5) H5B(0.5) H5C(0.5)
 O2(0.25) O3(0.25) O4(0.3) O5(0.3)
6.a Aromatic/amide H refined with riding coordinates:
 C9(H9), C10(H10), C12(H12), C13(H13)
6.b Idealised Me refined as rotating group:
 C2(H2A,H2B,H2C), C3(H3A,H3B,H3C), C5(H5A,H5B,H5C), C6(H6A,H6B,H6C)
Comments: The trifluoroacetate and t-butyl mercaptan anions were observed 
to be disordered, however, the related atoms were not split but rather 
had strong restraints applied. The geometry and ADPs of the trifluoroacetate 
were restrained using "SADI 0.01" and "ISOR 0.01", respectively. 
For the t-butyl mercaptan, ADP restraints "ISOR 0.01 0.02" were 
applied to C4, C5 and C6. The C-C distance was restrained by "DFIX 1.53 0.01". 
The determination of positions of molecular oxygen was done by comparing the 
difference Fourier maps of 100 K structure of evacuated Ag12bpy and Ag12bpy_O2
based on the same single crystal. The assigned oxygen molecules were
kept isotropic with fixed occupancies (0.25 and 0.3 for O2-O3 and
O4-O5, respectively). The structure is slightly twinned. 
So "TWIN" command was used with a refined BASF parameter of 0.018.
;
_shelx_res_file
;
TITL Ag12bpy_O2_100K in I-42m
CELL 1.54184 17.2768 17.2768 20.4482 90 90 90
ZERR 2 0.0002 0.0002 0.0003 0 0 0
LATT -2
SYMM -X,-Y,+Z
SYMM +Y,-X,-Z
SYMM -Y,+X,-Z
SYMM -X,+Y,-Z
SYMM +X,-Y,-Z
SYMM -Y,-X,+Z
SYMM +Y,+X,+Z
SFAC C H Ag F N O S
UNIT 160 208 24 24 16 33.6 16
DFIX 1.53 C3 C1 C2 C1 C5 C4 C6 C4
SADI 0.01 F1 C8 F2 C8
ISOR 0.01 0.02 C6 C5 C4 F2 F1 C8

L.S. 10
PLAN  5
TEMP -173
BOND $H
list 4
MORE -1
CONF
fmap 2
acta 133.5
TWIN -1 0 0 0 -1 0 0 0 -1 2
OMIT 0 0 4
OMIT 0 0 2
OMIT 0 4 14
OMIT 0 4 8
OMIT 0 3 7
OMIT 0 2 0
REM <olex2.extras>
REM <HklSrc "%.\\Ag12bpy_O2_100K.hkl">
REM </olex2.extras>

WGHT    0.042700   58.670898
BASF   0.01810
FVAR       0.07707
AG1   3    0.500000    0.500000    0.296982    10.25000    0.02383    0.02383 =
         0.03089    0.00000    0.00000    0.00120
AG2   3    0.471095    0.339507    0.333762    11.00000    0.03472    0.02373 =
         0.04676   -0.00123    0.00020   -0.00149
AG3   3    0.416079    0.500000    0.500000    10.25000    0.02450    0.03595 =
         0.03382   -0.01027    0.00000    0.00000
C1    1    0.374610    0.625390    0.217346    10.50000    0.04202    0.04202 =
         0.03783    0.01165   -0.01165    0.00512
C2    1    0.287626    0.607162    0.206546    11.00000    0.05171    0.11000 =
         0.06397    0.01504   -0.02580    0.01283
AFIX 137
H2A   2    0.280125    0.550961    0.205169    11.00000   -1.50000
H2B   2    0.270543    0.629948    0.165098    11.00000   -1.50000
H2C   2    0.257257    0.629063    0.242548    11.00000   -1.50000
AFIX   0
C3    1    0.422054    0.577946    0.169436    10.50000    0.07473    0.07473 =
         0.04277    0.01079   -0.01079    0.00602
PART -1
AFIX 137
H3A   2    0.437530    0.529167    0.190109    10.50000   -1.50000
H3B   2    0.468345    0.607113    0.156791    10.50000   -1.50000
H3C   2    0.390922    0.566922    0.130471    10.50000   -1.50000
AFIX   0
PART 0
C4    1    0.329682    0.329682    0.467013    10.50000    0.04132    0.04132 =
         0.03272    0.00384    0.00384   -0.01520
C5    1    0.286818    0.286818    0.413193    10.50000    0.06462    0.06462 =
         0.03998   -0.00145   -0.00145   -0.03654
PART -1
AFIX 137
H5A   2    0.268981    0.323895    0.380201    10.50000   -1.50000
H5B   2    0.242167    0.259748    0.431916    10.50000   -1.50000
H5C   2    0.321655    0.249160    0.392743    10.50000   -1.50000
AFIX   0
PART 0
C6    1    0.376442    0.274710    0.508191    11.00000    0.07388    0.11198 =
         0.11028    0.08207   -0.02589   -0.03789
AFIX 137
H6A   2    0.416966    0.251003    0.481294    11.00000   -1.50000
H6B   2    0.342517    0.234216    0.525647    11.00000   -1.50000
H6C   2    0.400303    0.303104    0.544454    11.00000   -1.50000
AFIX   0
C7    1    0.341303    0.341303    0.214185    10.50000    0.03423    0.03423 =
         0.03327   -0.00147   -0.00147   -0.00302
C8    1    0.305592    0.305592    0.151608    10.50000    0.05293    0.05293 =
         0.04141   -0.01047   -0.01047   -0.00028
C9    1    0.426017    0.159427    0.315537    11.00000    0.03368    0.02790 =
         0.05045    0.00302   -0.00376    0.00050
AFIX  43
H9    2    0.379514    0.183443    0.301291    11.00000   -1.20000
AFIX   0
C10   1    0.428810    0.080433    0.316297    11.00000    0.03534    0.02361 =
         0.04430   -0.00429    0.00182   -0.00681
AFIX  43
H10   2    0.384809    0.050961    0.303796    11.00000   -1.20000
AFIX   0
C11   1    0.497060    0.043266    0.335653    11.00000    0.03727    0.02608 =
         0.02640   -0.00049    0.00122   -0.00362
C12   1    0.559747    0.090396    0.352703    11.00000    0.03915    0.02946 =
         0.04094   -0.00599   -0.00894   -0.00084
AFIX  43
H12   2    0.607993    0.068388    0.364991    11.00000   -1.20000
AFIX   0
C13   1    0.549839    0.169231    0.351244    11.00000    0.03909    0.03193 =
         0.02689   -0.00420   -0.00639    0.00272
AFIX  43
H13   2    0.592494    0.200641    0.363706    11.00000   -1.20000
AFIX   0
F1    4    0.253796    0.253796    0.166466    10.50000    0.13287    0.13287 =
         0.11574   -0.04127   -0.04127   -0.03518
F2    4    0.351520    0.263388    0.116891    11.00000    0.11539    0.16395 =
         0.09165   -0.07750   -0.02379    0.03301
N1    5    0.484624    0.204881    0.333586    11.00000    0.03541    0.02494 =
         0.04609   -0.00581    0.00027   -0.00466
O1    6    0.398931    0.305700    0.233836    11.00000    0.06650    0.05623 =
         0.04821   -0.01236   -0.01859    0.00477
S1    7    0.400351    0.599649    0.302209    10.50000    0.02788    0.02788 =
         0.03272    0.00496   -0.00496    0.00838
S2    7    0.398439    0.398439    0.427338    10.50000    0.03687    0.03687 =
         0.02689   -0.00261   -0.00261   -0.00680

PART -1
O2    6    0.404275    0.086405    0.483713    10.25000    0.10079
O3    6    0.473046    0.071605    0.497539    10.25000    0.09342

PART 0
PART 2
O4    6    0.329483    0.075221    0.471391    10.30000    0.10099
O5    6    0.280240    0.059148    0.449012    10.30000    0.13880
HKLF 4

REM  Ag12bpy_O2_100K in I-42m
REM R1 =  0.0444 for    2867 Fo > 4sig(Fo)  and  0.0448 for all    2904 data
REM    184 parameters refined using     41 restraints

END

WGHT      0.0427     58.6520

REM Highest difference peak  0.862,  deepest hole -0.765,  1-sigma level  0.160
Q1    1   0.3477  0.3477  0.0927  10.50000  0.05    0.86
Q2    1   0.5779  0.5779  0.0391  10.50000  0.05    0.83
Q3    1   0.5000  0.1072  0.5000  10.50000  0.05    0.83
Q4    1   0.3927  0.5942 -0.0087  11.00000  0.05    0.80
Q5    1   0.2770  0.0849  0.4886  11.00000  0.05    0.74
;
_shelx_res_checksum              36217
_shelx_hkl_file
;
   0   0  -2 1496.86   64.32
   0   0  -4   26.01    1.91
   0   0  -6 9999.00  427.70
   0   0  -8  684.96   30.53
   0   0 -10   11.04    1.59
   0   0  14   17.01    1.62
   0   0  16   21.48    1.85
   0   0  18  290.36   13.36
   0   0  20    3.80    0.92
   0   0  22   79.52    4.05
   1   0  -1 1545.12   66.12
   0  -1  -3 1356.25   60.58
   0   1  -3 1524.67   61.21
   1   0  -3 1451.27   60.76
  -1   0  -3 1402.63   60.82
   1   0  -5 1536.81   64.94
  -1   0  -5 1458.11   65.02
   0   1  -5 1528.78   65.18
   0  -1  -5 1484.92   64.76
  -1   0  -7  244.09   10.98
   1   0  -7  212.15   10.56
   0  -1  -7  218.43   10.51
   0   1  -7  220.14   10.84
   0   1  -9  547.54   25.00
   1   0  -9  541.87   24.72
   0  -1  -9  549.04   24.63
  -1   0  -9  557.53   24.98
   0   1 -11  683.01   30.54
   1   0 -11  663.99   30.23
   0   1 -13  143.61    8.07
   1   0  13  145.37    7.10
   0   1  13  149.27    7.18
   0   1  15    4.01    1.08
   0  -1  15    5.94    1.06
   1   0  15    4.95    1.05
  -1   0  17   11.86    1.40
   0   1  17   12.73    1.45
   1   0  17   12.45    1.41
   0  -1  17   11.62    1.36
   1   0  19   98.71    5.22
  -1   0  19  103.24    5.28
   0  -1  19   94.44    5.15
   0   1  19  108.97    5.36
   0   1  21   33.56    2.24
  -1   0  21   34.19    2.22
   1   0  21   32.52    2.16
   0  -1  21   33.06    2.13
   0   1  23    4.55    0.69
  -1   0  23    3.89    0.66
  -1   1  24   71.29    3.43
  -1   1  22   47.24    2.72
  -1   1  20   14.61    1.48
   1  -1  20   12.73    1.28
  -1   1  18   56.08    3.31
   1  -1  18   48.27    3.05
  -1   1  16    1.52    1.05
   1  -1  16    0.49    0.75
   1  -1  14   49.63    2.93
   1   1 -12   67.28    4.49
   1   1 -10  297.79   14.32
   1   1  -8  175.57    8.89
   1   1  -6  308.03   14.35
   1   1  -4  201.75    9.52
   1   1  -2  137.48    6.34
   1   1   0 2743.41  117.28
   1  -1  -2  170.76    7.44
   1  -1  -4  228.80   10.17
  -1   1  -4  217.93   10.61
  -1   1  -6  567.00   24.54
   1  -1  -6  526.05   23.86
  -1   1  -8  195.83    9.85
   1  -1  -8  190.77    9.22
   1  -1 -10  282.35   13.51
  -1   1 -10  299.74   14.16
   1   1  14   51.33    3.14
   1   1  16    1.76    1.04
  -1  -1  16    2.60    0.94
  -1  -1  18   52.81    3.24
   1   1  18   55.51    3.33
  -1  -1  20   11.99    1.27
   1   1  20   11.28    1.33
   1   1  22   52.47    2.90
  -1  -1  22   51.03    2.81
   0   2   0 2059.22   88.43
   2   0  -2  124.43    5.70
   0   2  -4   60.27    3.78
   2   0  -4   61.11    3.21
   0   2  -6 1347.61   59.26
   2   0  -6 1359.52   58.82
   2   0  -8  183.96    8.83
   0   2  -8  169.07    9.10
   0   2 -10  109.91    6.44
   2   0 -10  110.84    6.08
   2   0 -12   98.28    5.79
   0   2 -12  106.71    6.31
   0   2  14   73.84    4.16
   0   2 -14   79.90    5.21
   2   0  14   70.16    3.98
   0  -2  14   70.28    3.89
   0  -2  16   13.47    1.38
   2   0  16   12.52    1.43
   0   2  16   14.20    1.62
  -2   0 -16   11.68    1.42
   2   0  18   22.11    1.82
  -2   0  18   20.21    1.89
   0  -2  18   20.59    1.69
   0   2  18   22.66    1.91
  -2   0  20   40.70    2.65
   2   0  20   38.59    2.58
   0   2  20   45.46    2.78
   0   2  22    8.43    1.06
  -2   0  22    8.21    0.98
  -1   2  23    7.59    0.88
  -2   1  23    7.53    0.84
  -1   2  21    7.16    1.11
  -2   1  21    6.89    1.07
   2  -1  19   52.76    3.09
  -2   1  19   57.77    3.37
  -2  -1 -19   50.29    3.14
  -1  -2 -19   52.36    3.20
  -1   2  19   57.10    3.39
  -1   2  17   20.27    1.88
  -2   1  17   16.65    1.75
   2  -1  17   14.78    1.51
   2  -1  15  139.30    6.97
  -1   2  15  156.56    7.26
   1  -2  15  138.20    6.91
   2   1 -13   42.96    3.54
   1   2 -13   49.65    3.90
   2  -1  13   45.44    2.72
   1   2 -11  177.67    9.22
   2   1 -11  165.36    8.96
   1   2  -9  267.13   12.94
   2   1  -9  259.95   12.75
   2   1  -7  141.28    7.22
   1   2  -7  134.55    7.28
   1   2  -5  366.55   16.19
   2   1  -5  334.11   15.78
   2   1  -3  139.77    6.60
   1   2  -1  388.22   17.07
   1   2   1  424.32   17.97
  -1   2  -1  395.14   18.22
   2  -1  -3  118.63    5.41
   2  -1  -5  355.25   15.58
  -2   1  -5  342.63   16.12
  -1   2  -5  390.84   16.59
   1  -2  -5  338.95   15.36
  -1   2  -7  188.56    9.52
  -2   1  -7  204.56    9.64
   1  -2  -7  176.25    8.56
   2  -1  -7  182.99    8.78
  -1   2  -9  276.23   13.05
   2  -1  -9  263.50   12.29
   1  -2  -9  254.02   12.06
  -1   2 -11  151.14    8.39
   1   2  13   54.25    3.20
   2   1  13   49.83    3.08
   2   1  15  141.68    7.05
   1   2  15  141.52    7.10
   1   2  17   19.97    1.83
  -2  -1  17   16.87    1.64
  -1  -2  17   16.25    1.57
   2   1  17   15.02    1.60
   1   2  19   58.93    3.54
   2   1  19   57.49    3.47
  -2  -1  19   59.17    3.46
  -1  -2  19   59.80    3.36
   2   1  21    5.94    0.96
   1   2  21    5.12    1.01
  -2  -1  21    4.60    0.86
   1   2  23    6.45    0.81
  -2   2  24    2.29    0.48
  -2   2  22   42.02    2.55
  -2   2  20   95.65    4.82
  -2  -2 -20   83.20    4.59
  -2   2  18   43.90    2.95
  -2   2  16   48.67    3.16
   2   2 -14  203.43   10.90
   2   2 -12  262.64   13.25
   2   2 -10  617.86   28.22
   2   2  -8  215.84   10.81
   2   2  -6  227.21   11.06
   2   2  -4  170.56    8.25
   2   2   0   45.56    2.40
  -2   2  -2  216.07    9.99
   2  -2  -4  199.94    8.85
  -2   2  -6  306.64   13.68
   2  -2  -6  268.49   12.41
  -2   2  -8  239.17   11.15
   2  -2  -8  201.53    9.74
  -2   2 -10  685.91   31.37
   2   2  12  343.63   15.64
   2   2  14  212.33   10.10
   2   2  16   58.44    3.54
   2   2  18   48.04    3.12
  -2  -2  18   50.80    3.03
  -2  -2  20   92.54    4.83
   2   2  20   98.45    5.04
   2   2  22   39.76    2.38
   0   3   1  126.22    6.00
   0   3  -1  122.58    6.43
   3   0  -3 1349.26   56.80
   0   3  -3 1247.17   57.50
   3   0  -5  506.33   22.29
   0   3  -5  497.14   22.98
   0   3  -7   19.79    2.32
   3   0  -7   21.96    2.01
   0   3  -9  227.74   10.89
   3   0  -9  195.77   10.22
   0   3 -11   12.08    2.06
   3   0 -11    8.09    1.52
   0   3 -13   21.81    2.78
   3   0  13   16.03    1.60
   0   3 -13   16.77    1.50
   0   3  13   17.46    1.80
  -3   0 -15   44.26    3.01
   3   0  15   47.86    3.02
   0   3  17   12.18    1.63
   3   0  17   12.37    1.41
  -3   0 -17   10.77    1.42
  -3   0  19   66.08    3.68
  -3   0 -19   54.89    3.38
   0   3  19   68.97    3.78
   3   0  19   58.02    3.45
  -3   0  21    9.80    1.19
   0   3  21   10.97    1.32
   0   3  23    2.26    0.66
  -3   0  23    1.62    0.55
  -3   1  24    0.09    0.33
  -1   3  24    0.61    0.44
  -3   1  22   18.24    1.46
  -1   3  22   18.33    1.50
  -1  -3 -20   73.75    4.05
  -1   3  20   77.11    4.20
  -3  -1 -20   67.02    3.91
  -3   1  20   77.13    4.12
  -3   1  18   50.48    3.04
   3  -1  18   42.66    2.72
  -1   3  18   44.84    3.02
  -3  -1 -18   43.91    2.86
   3  -1  16   59.36    3.59
  -1   3  16   70.99    3.93
  -1   3  14   91.75    4.87
   1   3 -14   90.70    6.07
   3  -1  14   84.91    4.59
   1   3 -14   87.22    4.58
   3   1 -12  141.10    7.94
   1   3 -12  147.00    8.28
   1   3 -10  376.10   17.79
   3   1 -10  364.89   17.47
   3   1  -8  157.49    8.19
   1   3  -8  156.12    8.39
   3   1  -6   26.21    2.16
   1   3  -6   25.63    2.43
   3   1  -4  279.00   12.73
   1   3  -2  392.46   17.63
   3   1  -2  390.79   17.33
   1   3   0  182.11    8.10
  -1   3   0  169.79    8.05
  -1   3  -2  346.22   16.39
   1   3   2  362.67   15.68
   3  -1  -4  236.69   10.65
   3  -1  -6   19.40    1.57
  -1   3  -6   23.13    2.45
   3  -1  -8  158.92    8.22
  -1   3  -8  185.10    9.15
  -1   3 -10  365.79   16.45
   3  -1 -10  315.07   15.35
   1   3  12  141.44    6.98
  -1   3 -12  136.30    8.12
   1   3  14   97.09    4.92
   3   1  14   91.17    4.76
   1   3  16   67.35    3.97
   3   1  16   66.09    3.85
  -3   1 -16   65.36    3.75
  -3  -1  18   37.60    2.55
   1   3  18   38.77    2.70
   3   1  18   34.97    2.48
   1   3  20   85.23    4.42
  -3  -1  20   74.18    4.19
   3   1  20   76.30    4.20
   1   3  22   21.11    1.59
  -3  -1  22   19.31    1.44
  -3   2  23   16.09    1.23
  -2   3  23   15.25    1.25
  -3  -2 -21   70.08    3.92
  -2   3  21   81.74    4.18
  -2  -3 -21   74.97    3.98
  -3   2  21   77.65    4.12
  -3  -2 -19   39.74    2.65
  -2  -3 -19   35.12    2.58
  -2   3  19   39.99    2.78
  -3   2  19   41.01    2.71
  -3   2  17  105.74    5.81
  -2   3  17  117.21    5.93
   2   3 -15  415.94   18.58
   2   3 -15  414.58   20.24
  -2   3  15  420.47   18.82
   3   2 -15  407.02   18.54
   3   2 -13  134.08    7.74
   2   3 -13  127.77    6.48
   2   3 -13  131.47    7.88
   3   2 -13  135.78    6.53
   2   3 -11  227.80   11.62
   3   2 -11  216.38   11.38
   2   3  -9  795.43   35.77
   3   2  -9  790.05   35.67
   3   2  -7  449.68   20.83
   2   3  -7  456.39   21.10
   2   3  -5   20.61    2.16
   3   2  -5   20.90    1.92
   3   2  -3 1135.30   49.33
   2   3  -1   55.86    3.12
  -2   3  -1   77.94    4.10
   2   3   1   80.07    3.96
   2  -3  -3 1000.66   44.60
  -2   3  -3 1124.36   45.73
   3  -2  -3 1123.72   44.86
   3  -2  -5   31.72    1.87
  -2   3  -7  499.00   22.16
   3  -2  -7  458.26   20.81
  -2   3  -9  950.99   42.78
  -2   3 -11  284.91   14.43
  -3   2 -13  127.41    6.66
   2   3  13  135.48    6.85
   3   2  13  139.52    6.80
   3   2  15  424.03   19.49
   2   3  15  441.81   19.62
   2   3  17   98.96    5.23
   3   2  17   95.88    5.13
  -2  -3  17   93.79    4.95
  -3  -2  19   40.98    2.61
   2   3  19   39.07    2.72
   3   2  19   41.59    2.70
  -3  -2  21   67.46    3.71
   3   2  21   72.51    3.87
   2   3  21   76.53    3.96
  -3   3  24   24.49    1.47
  -3  -3 -22   15.40    1.25
  -3   3  22   15.65    1.37
  -3   3  20   80.02    4.28
  -3  -3 -20   72.96    4.12
  -3   3  18  367.04   16.80
   3   3 -16   58.89    3.47
  -3   3  16   61.30    3.74
   3   3 -14  191.50    8.80
   3   3 -14  162.92    9.99
   3   3 -12  976.06   43.83
   3   3 -12  968.41   42.30
   3   3 -10  564.48   26.28
   3   3  -8   93.21    5.76
   3   3  -6 1235.83   54.25
   3   3  -4  710.72   31.52
   3   3  -2   44.29    2.79
   3   3   0   34.03    2.19
   3   3   2   48.95    2.85
   3  -3  -4  764.20   32.93
  -3   3  -6 1241.25   51.64
   3  -3  -6 1144.53   50.03
  -3   3  -8   72.88    5.07
   3   3  12  958.79   42.04
   3   3  14  199.72    9.66
   3   3  16   40.25    2.84
   3   3  18  293.42   13.37
  -3  -3  18  282.96   13.15
   3   3  20   73.44    4.01
  -3  -3  20   70.77    3.79
   0   4   0   24.23    2.38
   0   4   2   38.28    2.34
   4   0  -2   41.75    2.44
   0   4  -2   37.21    3.20
   0   4  -4   25.15    2.72
   4   0  -4   29.38    1.98
   4   0  -6  243.88   11.07
   0   4  -6  219.93   11.72
   0   4  -8   26.40    2.88
   4   0  -8   27.28    2.39
   4   0 -10    4.68    1.17
   0   4 -10    5.65    1.58
   0   4 -12   12.68    2.18
   0   4 -12   12.39    1.26
   4   0  14   17.24    1.75
   0   4 -14   20.44    2.98
  -4   0 -14   19.33    1.94
   0   4 -14   18.79    1.70
   0   4  14   20.93    2.01
   0   4  16    4.69    1.22
   4   0  16    5.36    1.02
  -4   0 -16    5.84    1.27
   0   4 -16    6.37    1.01
  -4   0 -18   16.28    1.61
   4   0  18   15.28    1.48
   0   4  18   15.81    1.69
  -4   0  20   32.25    2.25
   0   4  20   35.49    2.39
   0   4  22    3.28    0.84
  -4   0  22    2.78    0.68
  -4   0  24   18.99    1.15
  -1   4  23    1.80    0.64
  -4   1  23    2.27    0.58
  -1   4  21    8.66    1.18
  -1  -4 -21    7.69    1.05
  -4   1  21    6.16    1.07
  -4  -1 -21    6.95    0.96
  -4   1  19   47.28    3.04
  -4  -1 -19   45.05    2.97
  -1   4  19   53.07    3.23
  -1   4  17   21.51    2.00
  -4  -1 -17   21.47    1.94
   1   4 -17   21.02    1.73
  -4  -1 -15   30.62    2.38
   1   4 -15   32.27    2.25
   1   4 -15   33.34    3.52
   4   1 -13   68.79    3.70
   1   4 -13   59.08    4.83
   1   4 -13   63.40    3.64
   1   4 -11   76.70    5.15
   4   1 -11   67.41    4.66
   1   4  -9  254.88   12.86
   4   1  -9  251.97   12.54
   4   1  -7  141.74    7.01
   1   4  -7  119.60    7.30
   4   1  -5  151.26    7.48
   1   4  -3   70.06    4.23
   4   1  -3   60.38    3.52
   4   1  -1   42.68    2.52
  -1   4   1   39.21    2.31
   1   4  -1   46.33    2.89
  -1   4  -1   57.79    3.71
   1   4   1   66.03    3.43
   4  -1  -3   60.31    3.19
  -1   4  -3   67.47    4.50
   1   4   3   58.89    3.04
   4  -1  -5  159.93    7.27
   1   4   5  147.91    6.85
  -1   4  -7  129.59    7.46
   4  -1  -7  131.39    6.56
  -1   4  -9  235.90   11.64
   4  -1  -9  214.14   10.73
  -1   4 -11   80.53    5.58
  -4   1 -13   61.81    3.68
   4   1  13   62.34    3.72
  -1   4 -13   63.40    4.99
   1   4  13   63.88    3.85
  -1   4 -13   61.85    3.51
   1   4  15   27.02    2.27
   4   1  15   26.48    2.06
  -1   4 -15   26.01    1.95
  -4   1 -15   23.09    2.06
   1   4  17   16.87    1.84
   4   1  17   14.83    1.58
  -4   1 -17   14.44    1.52
   4   1  19   45.51    2.92
   1   4  19   50.06    3.15
  -4  -1  19   50.16    3.05
  -4  -1  21    5.50    0.93
   1   4  21    6.37    1.13
   1  -4 -21    6.16    0.93
  -4  -1  23    3.61    0.57
  -2   4  24    1.82    0.47
  -4   2  24    1.50    0.43
  -2   4  22    7.97    1.02
  -4  -2 -22    6.16    0.84
  -2  -4 -22    6.03    0.86
  -4   2  22    8.00    0.99
  -4  -2 -20   47.61    3.00
  -4   2  20   52.14    3.13
  -2  -4 -20   48.18    3.03
  -2   4  20   53.04    3.18
  -2   4  18   55.19    3.54
  -4   2  18   61.41    3.62
  -4  -2 -18   55.26    3.43
   2   4 -16   23.82    1.91
   4   2 -16   23.03    1.85
   4   2 -14   89.18    4.92
   2   4 -14   96.23    4.96
   2   4 -14   98.73    6.48
   4   2 -12  462.48   22.46
   4   2 -12  490.68   21.27
   2   4 -12  467.66   21.19
   2   4 -12  473.50   22.80
   4   2 -10  309.05   15.38
   2   4 -10  318.93   15.66
   2   4  -8  102.06    6.14
   4   2  -8   94.65    5.78
   2   4  -6  481.38   22.61
   4   2  -6  492.51   22.19
   4   2  -4  595.45   26.51
   2   4  -2  133.80    6.82
   2   4   0  105.29    5.14
  -2   4   0   93.61    4.90
   4   2   0  100.62    5.07
   2   4   2  137.70    6.49
  -2   4  -2  132.81    6.91
   2   4   4  567.85   25.10
  -2   4  -4  594.27   26.18
   4  -2  -4  568.88   25.01
   4  -2  -6  546.51   24.03
  -2   4  -8   93.49    5.84
   4  -2  -8   82.80    4.61
  -2   4 -10  365.26   17.93
   4   2  12  563.79   24.70
  -4   2 -12  540.81   24.67
  -2   4 -12  558.44   26.22
  -2   4 -12  539.32   24.42
   2   4  12  570.95   24.78
   2   4  14  109.84    5.60
   4   2  14   97.75    5.39
  -4   2 -14   97.75    5.36
   4   2  16   18.33    1.83
   2   4  16   21.58    2.07
  -4   2 -16   17.44    1.70
   4   2  18   58.67    3.53
   2   4  18   60.67    3.69
  -4  -2  20   51.51    3.08
   2   4  20   57.88    3.36
  -4  -2  22    5.96    0.76
  -4   3  23   32.74    1.86
  -3  -4 -23   26.51    1.68
  -3   4  23   30.66    1.86
  -3  -4 -21   25.12    1.88
  -3   4  21   28.77    2.01
  -4  -3 -21   23.02    1.81
  -4   3  21   25.63    1.93
  -3  -4 -19   15.09    1.64
  -4   3  19   17.28    1.76
  -3   4  19   18.52    1.79
  -4  -3 -19   14.78    1.66
  -4  -3 -17  136.00    6.84
   4   3 -17  132.58    6.67
   3   4 -17  130.36    6.68
  -4   3  17  140.36    6.98
   3   4 -15  277.95   15.65
   4   3 -15  313.39   14.19
   3   4 -15  315.67   14.20
   3   4 -13  256.28   13.84
   4   3 -13  274.01   12.35
   3   4 -13  263.21   12.29
   4   3 -13  256.74   13.71
   3   4 -11   84.67    4.69
   4   3 -11   90.92    4.75
   3   4 -11   89.98    6.01
   4   3 -11   98.17    6.06
   4   3  -9  351.00   16.89
   3   4  -9  336.26   16.87
   4   3  -7  440.11   20.80
   3   4  -7  456.26   21.12
   3   4  -5  116.86    7.05
   4   3  -5  155.25    7.29
   3   4  -3  388.83   17.84
   4   3  -1  253.39   11.66
   3   4  -1  247.81   11.74
   3   4   1  263.11   12.13
   4   3   1  262.86   12.13
  -3   4  -3  397.15   19.09
   3   4   3  431.80   18.74
  -3   4  -5  128.38    7.71
   4  -3  -5  145.50    6.57
  -3   4  -7  470.00   22.49
  -3   4  -9  347.14   17.24
   3   4  11   87.98    4.73
   4   3  11   80.88    4.58
   3   4  13  274.10   12.96
   4   3  13  275.34   12.95
   3   4  15  310.11   14.21
   4   3  15  297.68   14.14
   4   3  17  120.81    6.28
   3   4  17  119.42    6.31
   4   3  19   14.78    1.53
   3   4  19   15.06    1.64
  -4  -3  19   13.25    1.37
  -4   4  24    4.36    0.55
  -4   4  22   21.58    1.56
  -4  -4 -22   18.02    1.43
  -4  -4 -20   64.73    3.63
  -4   4  20   61.52    3.67
  -4  -4 -18  186.35    8.90
   4   4 -18  180.13    8.72
   4   4 -16   26.06    2.10
   4   4 -14   83.57    6.25
   4   4 -14   95.58    5.01
   4   4 -12  324.75   14.86
   4   4 -12  321.95   16.42
   4   4 -10  259.52   13.48
   4   4  -8  651.85   30.08
   4   4  -6  490.45   22.74
   4   4  -2  560.45   25.15
   4   4   0   34.46    2.43
   4   4   2  459.16   20.71
   4  -4  -4  675.86   29.35
   4   4   4  686.05   30.26
   4   4  12  380.01   17.50
   4   4  14  110.45    5.99
   4   4  16   28.47    2.35
   4   4  18  167.53    8.28
   0   5  -1  247.07   11.33
   0   5   1  206.47   10.49
   0   5  -3  388.15   17.35
   5   0  -3  421.57   16.41
   5   0  -5  452.04   20.60
   0   5  -5  475.68   21.67
   5   0  -7  124.59    6.52
   5   0  -9  122.22    6.50
   0   5  -9  107.19    6.96
   0   5  11   20.11    1.84
   5   0 -11   13.98    1.92
   0   5 -11   20.07    2.55
   0   5 -11   18.44    1.57
  -5   0 -11   17.46    1.78
   5   0  13   14.98    1.68
   0   5 -13   16.27    2.74
  -5   0 -13   15.18    1.75
   0   5  13   19.65    1.92
   5   0 -13   16.15    1.60
   0   5 -13   16.24    1.60
   5   0  15  116.75    6.17
  -5   0 -15  131.38    6.30
   0   5 -15  120.26    6.14
   0   5 -15  109.88    7.76
   0   5  17    1.82    1.15
  -5   0 -17    1.01    0.91
   5   0  17    1.32    0.80
   0   5  19   75.47    4.11
  -5   0  19   70.87    3.92
  -5   0 -19   61.15    3.75
   0  -5 -21   24.86    1.88
   0   5  21   29.32    2.08
  -5   0  21   25.91    1.90
   0   5  23   16.85    1.25
  -5   0  23   13.78    1.09
  -5   1  24    6.29    0.61
  -1   5  22    8.04    1.05
  -5   1  22    6.63    0.96
  -1  -5 -22    7.22    0.90
  -1   5  20   19.53    1.79
  -5   1  20   16.48    1.60
  -5  -1 -20   16.68    1.55
  -5  -1 -18   10.91    1.47
  -5  -1 -16   47.88    3.11
   1   5 -16   50.19    3.03
  -5  -1 -14   32.80    2.46
   5   1 -14   31.27    2.29
   1   5 -14   33.14    2.31
  -1   5  14   31.40    2.52
   1   5 -14   27.97    3.45
   1   5 -12   12.14    1.45
   1   5 -12   13.30    2.48
   5   1 -12   13.77    1.55
   5   1 -12   12.78    2.01
  -1   5  12   14.17    1.63
   1   5 -10   77.68    5.35
   5   1 -10   70.25    4.81
   1   5  -8   37.23    3.50
   5   1  -8   38.64    2.99
   5   1  -6  236.94   11.38
   1   5  -4   68.18    4.80
   5   1  -4   69.73    3.99
  -1   5   2  416.73   18.61
   5   1  -2  429.82   19.10
   1   5  -2  458.55   19.93
   1   5   0  333.22   14.44
  -1   5   0  287.96   14.06
  -1   5  -2  414.61   19.92
   1   5   2  435.74   19.22
   5  -1  -4   78.27    4.06
   1   5   4   71.62    3.80
   5  -1  -6  245.38   11.42
   5  -1  -8   27.71    2.27
  -1   5  -8   28.44    3.16
  -1   5 -10   76.97    5.45
  -1   5 -12   13.77    2.47
  -5   1 -12   15.06    1.73
   1   5  12   13.94    1.75
  -1   5 -12   15.34    1.52
   5   1  12   13.54    1.66
  -1   5 -14   35.17    2.48
   5   1  14   36.15    2.61
  -1   5 -14   40.49    3.98
  -5   1 -14   38.88    2.73
   1   5  16   47.34    3.15
   5   1  16   43.09    2.91
  -5   1 -16   43.36    2.92
   1   5  18   10.38    1.57
  -5   1 -18    8.58    1.24
   1   5  20   20.99    1.85
  -5  -1  20   18.62    1.64
  -5  -1  22   10.30    1.03
   1   5  22   12.80    1.26
  -2   5  23    5.35    0.77
  -5   2  23    4.86    0.71
  -2  -5 -23    4.14    0.64
  -5   2  21    3.57    0.93
  -2  -5 -21    2.94    0.92
  -2   5  21    4.27    0.99
  -5  -2 -21    2.46    0.82
  -5  -2 -19   17.46    1.65
  -5   2  19   15.52    1.70
   2   5 -17   34.05    2.52
   5   2 -17   39.63    2.50
  -5  -2 -17   37.64    2.69
   5   2 -15   25.37    2.06
   2   5 -15   27.09    2.12
  -2   5  15   27.96    2.27
   2   5 -15   24.96    3.30
  -5  -2 -15   25.30    2.21
   5   2 -13   26.90    2.96
  -2   5  13   30.38    2.33
   2   5 -13   21.80    3.01
   5   2 -13   32.53    2.28
   2   5 -13   25.31    2.11
   2   5 -11   45.44    4.09
   5   2 -11   43.41    2.82
   5   2 -11   39.88    3.65
   2   5 -11   45.74    2.83
   2   5  -9   27.77    3.01
   5   2  -9   25.49    2.60
   5   2  -7   22.58    2.31
   2   5  -7   22.02    2.69
   5   2  -5  174.84    8.75
   2   5  -3  100.01    5.83
   5   2  -3  102.54    5.40
   2   5  -1   41.19    2.98
  -2   5  -1   42.33    2.83
   2   5   1   38.30    2.66
   2   5   3   59.72    3.46
   5  -2  -3   65.60    3.42
  -2   5  -3   62.00    4.21
   5  -2  -5  141.48    6.96
   2   5   5  141.69    6.97
   5  -2  -7   15.26    1.43
  -2   5  -9   32.52    3.37
   2   5  11   48.53    3.26
  -5   2 -11   45.71    3.17
  -2   5 -11   51.70    2.97
  -2   5 -11   46.70    4.14
   5   2  11   41.90    2.90
   5   2  13   36.09    2.74
  -5   2 -13   37.54    2.76
   2   5  15   32.82    2.48
   5   2  15   28.33    2.34
   2   5  17   35.96    2.76
   5   2  17   36.54    2.58
  -5   2 -17   36.38    2.51
  -5  -2  19   14.54    1.49
   2   5  19   18.39    1.74
   2   5  21    1.89    0.87
  -5  -2  21    2.05    0.68
  -5   3  24    1.52    0.42
  -3   5  24    1.41    0.46
  -5   3  22   19.28    1.46
  -5  -3 -22   17.74    1.37
  -3   5  22   19.19    1.48
  -3  -5 -22   16.09    1.34
  -5   3  20   16.46    1.55
  -3  -5 -20   13.50    1.49
  -5  -3 -20   13.78    1.46
   5   3 -18   66.62    3.86
   3   5 -18   70.16    3.94
  -5  -3 -18   71.24    4.06
  -5   3  18   74.43    4.17
  -5  -3 -16    7.92    1.54
   5   3 -16    9.37    1.33
   3   5 -16   10.10    1.38
  -3   5  16   12.79    1.57
   5   3 -14   31.63    2.30
   3   5 -14   27.57    3.31
   3   5 -14   30.32    2.29
   5   3 -14   25.14    3.01
  -3   5  14   28.87    2.36
   5   3 -12  243.46   11.27
   3   5 -12  242.87   13.00
   3   5 -12  235.31   11.21
   5   3 -12  232.67   12.59
   5   3 -10  102.95    6.66
   3   5 -10  111.26    6.98
   3   5  -8  114.46    7.15
   5   3  -8  117.54    6.80
   5   3  -6  248.07   12.23
   5   3  -4   71.61    4.30
   3   5  -4   68.30    4.48
   3   5  -2  318.85   14.97
   3   5   0   32.21    2.46
   5   3   0   35.44    2.45
   5   3   2  279.49   13.31
  -3   5  -2  287.67   13.51
   3   5   2  291.81   13.28
  -3   5  -4   46.72    3.61
   5  -3  -4   46.23    2.59
   3   5   4   46.53    2.99
  -3   5  -6  220.23   11.47
   3   5   6  202.04   10.25
   5  -3  -6  213.60    9.72
  -3   5 -10   89.02    6.21
   5   3  12  241.64   11.42
  -5   3 -12  235.61   11.47
   5   3  14   35.04    2.74
   3   5  14   38.56    2.86
  -5   3 -14   36.54    2.68
   3   5  16    7.08    1.40
   5   3  16    6.20    1.34
   3   5  18   70.14    4.16
   3   5  20   14.21    1.52
  -5  -3  20   13.30    1.25
  -5  -4 -23   45.53    2.43
  -4   5  23   49.56    2.58
  -4  -5 -23   44.39    2.44
  -5   4  23   52.50    2.58
  -5  -4 -21    4.95    0.94
  -5   4  21    4.77    1.01
  -4  -5 -21    5.43    0.98
  -5  -4 -19   74.69    4.08
   5   4 -19   72.35    3.82
  -4  -5 -19   69.94    4.02
   4   5 -19   65.42    3.79
  -5  -4 -17  135.03    7.11
   5   4 -17  146.33    7.04
  -4   5  17  134.16    7.13
   4   5 -17  143.39    7.03
   5   4 -15   59.88    3.58
   4   5 -15   58.74    3.53
  -4   5  15   55.92    3.58
   4   5 -15   50.36    4.71
   4   5 -13  243.16   11.24
   4   5 -13  225.44   12.93
   5   4 -13  223.07   12.72
   5   4 -13  242.59   11.28
   5   4 -11  231.72   12.86
   5   4 -11  242.90   11.39
   4   5 -11  248.25   13.13
   4   5 -11  241.82   11.34
   4   5  -9    3.86    1.61
   5   4  -9    1.56    1.47
   5   4  -7 1319.17   57.99
   4   5  -7 1299.94   58.19
   5   4  -5  550.53   25.25
   4   5  -3  489.60   22.46
   5   4  -1  622.00   27.77
   4   5  -1  617.81   27.79
   4   5   1  668.05   28.79
   5   4   1  621.09   28.76
   5   4   3  447.57   21.03
   4   5   3  473.08   21.02
   5  -4  -5  492.68   21.64
   4   5   5  497.04   22.71
   4   5   7  972.49   43.70
   5   4  11  222.50   10.68
  -5   4 -11  227.12   11.08
   5   4  13  239.45   11.40
  -5   4 -13  227.69   11.37
   4   5  13  237.57   11.44
   5   4  15   56.16    3.71
   4   5  15   59.92    3.80
   5   4  17  153.38    7.66
   4   5  17  152.06    7.76
  -5  -4  19   61.01    3.36
  -5  -5 -22  102.05    4.94
  -5  -5 -20   54.57    3.19
   5   5 -20   52.70    2.96
   5   5 -18   62.98    3.60
  -5   5  18   61.55    3.73
  -5  -5 -18   61.51    3.73
   5   5 -16  128.49    6.51
  -5   5  16  122.38    6.51
   5   5 -14  164.98   10.35
   5   5 -14  185.72    8.86
   5   5 -12   85.17    4.77
   5   5 -12   86.26    6.33
   5   5 -10  481.88   22.44
   5   5 -10  445.61   20.45
   5   5  -8 1071.60   48.34
   5   5  -6   37.03    3.30
   5   5  -2  678.05   30.52
   5   5   0  117.65    6.40
   5   5   2  731.47   32.76
   5   5   4  940.98   39.80
   5  -5  -4  873.49   38.42
   5   5   6   34.14    3.29
   5   5  10  366.07   16.68
   5   5  12   93.61    5.34
   5   5  14  208.99   10.38
   5   5  16  110.02    5.99
   0   6   0  560.89   25.60
   0   6  -2  663.05   28.86
   6   0  -2  650.38   27.70
   0   6   2  590.58   27.54
   6   0  -4  210.89    9.64
   0   6  -4  179.45   10.47
   6   0  -6  731.11   32.94
   0   6  -6  768.68   34.09
   6   0  -8  116.74    6.39
   0   6  10   77.49    4.38
   0   6 -10   61.50    5.16
  -6   0 -10   72.42    4.21
   6   0 -10   75.68    4.80
   0   6 -10   69.36    4.01
   6   0  12  113.11    6.08
   6   0 -12  116.20    6.13
   0   6 -12  122.11    7.70
   0   6 -12  125.26    6.12
   0   6  12  133.23    6.45
  -6   0 -12  111.68    6.22
  -6   0 -14   48.36    3.18
   6   0  14   48.20    3.15
   0   6 -14   47.38    4.52
   0   6 -14   48.60    3.08
   0   6  14   44.04    3.25
   6   0 -14   52.65    3.10
  -6   0 -16  165.02    7.94
   0   6 -16  161.92    7.86
   0   6  16  149.58    7.95
  -6   0 -18  116.63    5.98
   0   6  20    3.22    1.02
  -6   0  20    1.58    0.88
  -6   0 -20    1.77    0.80
  -6   0  22   32.66    1.98
   0  -6 -22   29.68    1.92
   0   6  22   35.20    2.14
  -6   1  23    9.63    0.90
  -1  -6 -23    9.47    0.83
  -6   1  21   36.15    2.32
  -6  -1 -21   35.97    2.24
  -1  -6 -21   36.63    2.33
  -6  -1 -19   46.97    2.96
  -6   1  19   48.28    3.03
   1   6 -17   50.96    3.11
  -6  -1 -17   42.70    3.05
  -1   6  17   48.44    3.26
   1   6 -15  106.24    7.66
   6   1 -15  121.78    5.94
   1   6 -15  114.37    5.95
  -6  -1 -15  111.70    6.05
  -1   6  15  111.84    6.10
  -1   6  13   63.54    3.82
   6   1 -13   62.25    3.70
   1   6 -13   62.81    5.18
  -6  -1 -13   56.77    3.71
   1   6 -13   61.36    3.59
   1   6 -11   86.58    4.59
  -1   6  11   92.13    4.82
   6   1 -11   71.04    5.30
   6   1 -11   80.07    4.60
   1   6 -11   90.19    6.18
  -6  -1 -11   82.83    4.76
   1   6  -9  305.88   15.67
   6   1  -9  312.63   15.01
   6   1  -7  262.90   12.72
   6   1  -5  589.60   26.67
   1   6  -5  604.57   27.62
   6   1  -3 1570.91   68.25
   1   6  -3 1576.43   69.17
   6   1  -1  385.24   18.85
  -1   6   1  414.58   18.75
  -1   6  -1  454.70   22.22
   1   6   1  526.19   22.51
   6  -1  -3 1579.53   67.11
  -1   6  -3 1668.03   68.59
   1   6   3 1478.85   67.11
  -1   6  -5  638.18   26.80
   6  -1  -5  539.04   25.12
   6  -1  -7  223.43   10.72
  -1   6  -9  320.51   16.18
   6  -1  -9  322.95   15.19
  -1   6 -11   83.31    4.51
   6  -1 -11   82.16    4.49
   1   6  11   95.62    4.94
  -1   6 -11   92.06    6.22
   6   1  11   72.61    4.36
  -6   1 -11   78.16    4.70
   6   1  13   73.18    4.24
  -6   1 -13   65.95    4.12
  -1   6 -13   68.64    3.98
  -1   6 -13   69.87    5.52
   1   6  13   71.79    4.28
   1   6  15  104.16    5.98
  -6   1 -15  115.47    5.86
  -6   1 -17   40.43    2.79
   1   6  19   49.25    3.03
  -6   1 -19   41.33    2.70
  -6  -1  21   37.27    2.34
   1   6  21   39.72    2.50
  -6  -1  23    9.37    0.83
  -2  -6 -22   29.13    1.87
  -6  -2 -22   30.52    1.84
  -6   2  22   30.14    1.93
  -6  -2 -20    7.75    1.15
  -6   2  20    6.07    1.12
  -6  -2 -18   25.12    2.15
   2   6 -18   28.89    2.13
  -2   6  18   27.99    2.29
   6   2 -16   49.68    3.14
  -6  -2 -16   54.52    3.36
  -2   6  16   49.12    3.28
   2   6 -16   47.05    3.10
  -2   6  14   23.65    2.11
  -6  -2 -14   22.48    2.14
   6   2 -14   26.68    2.07
   2   6 -14   21.55    1.95
   2   6 -14   23.55    3.19
   2   6 -12   19.26    2.86
   6   2 -12   13.75    2.34
  -6  -2 -12   14.87    1.90
   6   2 -12   17.00    1.80
  -2   6  12   19.19    1.92
   2   6 -12   17.71    1.75
   2   6 -10   73.77    5.40
  -2   6  10   69.09    4.00
   6   2 -10   69.03    3.97
   6   2 -10   69.27    4.88
   2   6 -10   65.08    3.85
   2   6  -8  293.85   15.69
   6   2  -8  327.94   15.26
   6   2  -6  216.36   10.79
   2   6  -4  421.83   20.00
   6   2  -4  420.71   19.33
   2   6  -2  642.86   29.28
   6   2  -2  645.53   28.66
  -2   6   0  522.20   23.28
   2   6   0  519.45   23.67
   2   6   2  654.16   28.96
  -2   6  -2  644.62   29.28
   2   6   4  382.62   18.09
   6  -2  -4  405.66   18.01
  -2   6  -4  441.35   19.59
  -2   6  -6  224.97   11.33
   6  -2  -6  189.73    9.37
   6  -2  -8  287.78   13.44
  -2   6 -10   60.43    3.70
   2   6  10   64.47    3.83
  -6   2 -10   62.36    3.87
  -2   6 -10   70.16    5.19
   2   6  12   23.19    2.26
  -6   2 -12   20.07    2.10
  -2   6 -12   20.47    3.00
   6   2  12   18.85    1.97
   6   2  14   25.54    2.21
  -6   2 -14   21.69    2.07
  -6   2 -16   42.01    2.89
  -6   2 -18   20.21    1.80
   2   6  18   27.72    2.25
   2   6  20    4.57    1.14
  -6  -2  20    5.57    0.95
   2  -6 -22   22.03    1.50
  -6  -2  22   26.66    1.56
  -6  -3 -23    9.50    0.79
  -6   3  23   11.01    0.92
  -3  -6 -23    8.27    0.80
  -3  -6 -21   18.55    1.56
  -6  -3 -21   18.84    1.54
  -6   3  21   18.93    1.56
  -6  -3 -19   13.28    1.46
   3   6 -19   13.20    1.32
  -3   6  19   11.62    1.50
  -6   3  19   10.33    1.41
   6   3 -17   54.67    3.26
   3   6 -17   50.73    3.26
  -3   6  17   51.24    3.41
  -6  -3 -17   53.41    3.38
   3   6 -15   26.31    2.18
  -3   6  15   25.30    2.21
   6   3 -15   27.31    2.16
  -6  -3 -15   26.15    2.21
   6   3 -13   11.63    2.19
   3   6 -13   11.55    1.51
   3   6 -13   12.00    2.44
   6   3 -13   14.79    1.65
  -3   6  13   11.19    1.51
   6   3 -11   45.02    4.14
   3   6 -11   42.73    2.97
   6   3 -11   46.58    3.07
   3   6 -11   44.97    4.35
   3   6  -9   48.45    4.24
   6   3  -9   48.29    3.92
   6   3  -7  167.59    9.01
   6   3  -5   81.34    5.04
   3   6  -5   81.64    5.51
   3   6  -3  464.60   21.23
   6   3  -3  448.46   20.86
   3   6  -1   22.05    2.15
   6   3  -1   15.17    1.78
   3   6   1   19.83    1.92
   6   3   1   13.82    1.70
  -3   6  -3  480.67   22.33
   3   6   3  484.16   21.87
  -3   6  -5   94.46    5.96
   3   6   5   88.10    4.76
   6  -3  -5   77.34    4.29
  -3   6  -7  195.24   11.09
  -6   3 -11   43.01    3.20
   6   3  11   40.50    2.89
   3   6  11   45.05    3.15
   6   3  13   14.59    1.85
  -6   3 -13   12.36    1.73
  -6   3 -15   24.22    2.13
   3   6  17   53.52    3.43
  -6   3 -17   45.45    2.97
   3   6  19   13.10    1.60
  -6  -3  21   16.70    1.28
  -6  -4 -22   85.44    4.20
  -6   4  22   85.19    4.27
  -4  -6 -22   84.96    4.22
  -4   6  20   16.52    1.59
  -6  -4 -20   17.97    1.60
  -4  -6 -20   17.73    1.63
  -6  -4 -18   23.27    2.09
   4   6 -18   23.33    1.96
  -6   4  18   24.07    2.09
   6   4 -18   24.82    1.92
  -4   6  18   23.12    2.07
   6   4 -16   55.63    3.44
   4   6 -16   59.91    3.50
  -4   6  16   55.16    3.50
  -6  -4 -16   57.77    3.59
   6   4 -14   99.68    7.18
   4   6 -14  112.60    5.89
   6   4 -14  114.52    5.95
  -4   6  14  113.03    5.92
   4   6 -14  105.67    7.50
   6   4 -12   40.74    2.87
   4   6 -12   44.43    4.31
   4   6 -12   44.79    2.91
   4   6 -10  109.49    7.26
   6   4 -10  105.48    5.71
   4   6 -10  105.95    5.65
   6   4 -10  116.43    7.26
   4   6  -8  551.30   25.85
   6   4  -8  530.51   25.34
   6   4  -6   31.97    2.99
   4   6  -4  263.27   13.18
   6   4  -2  744.25   33.42
   4   6  -2  751.14   33.64
   4   6   0  626.89   27.79
   6   4   0  603.11   27.60
   4   6   2  729.26   32.13
   6   4   2  703.95   32.01
   6  -4  -4  294.89   13.29
   6   4   4  292.14   14.24
   4   6   4  291.70   14.11
   4   6   6   33.51    2.92
   6   4  10   92.97    5.03
   4   6  10   92.27    5.12
  -6   4 -10   98.24    5.49
  -6   4 -12   42.16    3.15
   6   4  12   34.61    2.84
  -6   4 -14  111.28    6.06
   4   6  16   44.44    3.19
   4   6  18   27.73    2.31
  -6  -4  20   13.92    1.21
  -5  -6 -23   29.33    1.61
  -6  -5 -23   28.03    1.59
  -6  -5 -21   49.63    2.74
  -6   5  21   43.98    2.70
  -5   6  21   45.45    2.72
  -5  -6 -21   47.37    2.72
  -6   5  19   43.04    2.79
  -5   6  19   40.74    2.76
  -5  -6 -19   41.76    2.80
   6   5 -19   41.00    2.60
   5   6 -19   42.71    2.65
  -6  -5 -19   44.62    2.81
  -5   6  17  107.10    5.82
  -6   5  17  112.06    5.83
   6   5 -17  114.48    5.80
   5   6 -17  108.13    5.76
  -6  -5 -17  107.88    5.86
   6   5 -15    6.11    1.30
   5   6 -15    7.41    2.02
   5   6 -15    8.16    1.39
  -5   6  15    6.70    1.37
   6   5 -15    6.79    1.89
   6   5 -13  110.74    5.91
   5   6 -13  114.94    5.91
   6   5 -13  102.28    7.37
   5   6 -13  107.82    7.63
   5   6 -11  105.84    5.57
   6   5 -11  101.30    7.15
   6   5 -11  102.61    5.54
   5   6 -11   97.26    7.14
   6   5  -9  128.71    8.31
   5   6  -9  148.68    8.89
   5   6  -7  521.12   25.33
   6   5  -7  542.72   25.20
   5   6  -5  391.66   18.88
   6   5  -3  926.71   41.67
   5   6  -3  940.04   41.82
   6   5  -1  333.95   16.16
   5   6  -1  346.98   16.30
   5   6   1  360.36   17.21
   6   5   1  365.54   17.20
   6   5   3  920.87   41.62
   5   6   3  940.89   41.65
   5   6   5  381.69   18.48
   6   5   5  378.34   18.49
   6   5   7  388.39   19.56
  -6   5  -9  119.36    6.63
  -6  -5   9  123.57    6.00
   5   6   9  122.16    6.22
  -6   5 -11   97.72    5.87
  -6   5 -13  112.55    6.33
   5   6  15    3.65    1.45
  -6   6  22   87.90    4.37
  -6  -6 -22   91.74    4.36
  -6   6  20    8.03    1.10
  -6  -6 -20    8.62    1.18
   6   6 -20    8.82    0.98
  -6   6  18   13.21    1.51
   6   6 -18   12.44    1.42
  -6  -6 -18   11.52    1.50
  -6   6  16   88.33    5.00
   6   6 -16   92.31    5.00
   6   6 -14   21.59    2.03
   6   6 -14   17.98    2.99
   6   6 -12    1.63    1.11
   6   6 -12    1.97    1.59
   6   6 -10   79.90    6.23
   6   6  -8  849.67   37.44
   6   6  -8  787.55   35.48
   6   6  -4  375.06   18.16
   6   6  -2  752.09   34.07
   6   6   0  800.02   36.11
   6   6   2  802.48   36.36
   6   6   4  329.27   16.51
   6   6   6  124.40    8.11
  -6   6 -10   51.13    3.86
   0   7   1  277.48   13.38
   0   7  -1  288.13   14.15
   7   0  -3  883.44   39.36
   0   7  -3  920.87   40.72
   0   7  -5  679.40   30.58
   7   0  -5  644.87   29.28
   7   0  -7   72.51    4.42
   0   7  -7   70.48    5.22
   7   0  -9  251.87   12.04
  -7   0  -9  235.43   11.38
   0   7  -9  239.38   11.36
  -7   0 -11   42.83    3.17
   0   7 -11   50.66    4.41
   0   7 -11   40.50    2.88
   0   7  11   51.64    3.32
   7   0 -11   39.48    2.91
   7   0 -13   20.58    1.95
  -7   0 -13   19.92    2.15
   0   7 -13   23.43    1.98
   0   7  13   23.63    2.19
   0   7 -13   22.19    3.17
   0   7  15   90.67    5.20
   7   0 -15   86.21    4.84
   0   7 -15   91.75    4.97
   0   7 -15   80.72    6.49
  -7   0 -15   97.67    5.11
   0   7  17    8.90    1.45
  -7   0 -17    7.97    1.39
   0   7  19   61.84    3.62
  -7   0 -19   58.18    3.43
  -7   0  21   39.84    2.46
  -7   0 -21   42.88    2.40
  -7   0  23    1.33    0.44
   0  -7 -23    1.54    0.43
  -1  -7 -22   18.57    1.41
  -7   1  22   22.51    1.49
  -7  -1 -22   20.46    1.36
  -7  -1 -20   11.12    1.31
  -7   1  20   11.85    1.33
  -1   7  20   14.91    1.45
  -7  -1 -18   14.55    1.61
  -1   7  18   14.19    1.73
   7   1 -16  109.45    5.67
   1   7 -16  112.80    5.79
  -1   7  16  107.40    5.87
   1   7 -16   99.52    7.39
  -7  -1 -16  110.29    5.83
  -7  -1 -14   44.32    3.17
   7   1 -14   45.36    2.97
   1   7 -14   43.26    4.46
  -1   7  14   44.57    3.16
   1   7 -14   45.67    3.00
   1   7 -12   35.72    2.58
   7   1 -12   39.84    2.73
  -1   7  12   36.10    2.76
  -7  -1 -12   31.02    2.69
   1   7 -12   41.06    4.05
  -7  -1 -10  120.29    6.62
   1   7 -10  126.65    6.50
   7   1 -10  129.50    6.57
   7   1 -10  113.78    7.23
  -1   7  10  143.12    6.84
   1   7 -10  132.43    8.14
   7   1  -8  408.96   19.26
   7   1  -6  462.44   21.07
   1   7  -6  450.74   21.94
   7   1  -4  529.15   23.59
   1   7  -4  505.03   24.47
   7   1  -2  612.66   26.90
   1   7  -2  640.36   28.09
  -1   7   2  583.46   26.39
  -1   7   0  927.83   42.87
   1   7   0 1057.64   43.96
   1   7   2  622.46   28.03
  -1   7  -2  595.22   28.48
   7  -1  -2  631.50   27.60
  -1   7  -4  563.94   25.30
   7  -1  -4  511.66   23.55
   7  -1  -6  466.06   21.72
  -1   7  -6  516.62   23.31
  -1   7  -8  389.09   19.14
   7  -1  -8  382.15   17.83
  -1   7 -10  130.56    6.39
  -1   7 -10  121.70    7.91
  -7   1 -10  111.97    6.42
   1   7  10  123.96    6.49
   7  -1 -10  125.74    6.28
  -1   7 -12   51.60    4.66
  -1   7 -12   47.93    3.09
  -7   1 -12   43.17    3.25
   1   7  12   51.48    3.43
   7  -1 -12   43.13    3.01
  -7   1 -14   42.30    3.13
   1   7  14   54.26    3.47
  -1   7 -14   46.70    4.51
   7  -1 -14   46.28    3.00
  -7   1 -16  109.11    5.91
   1   7  16  117.29    6.16
  -7   1 -18   15.35    1.59
  -7   1 -20    9.62    1.10
  -7  -1  20   11.88    1.24
   1  -7 -22   18.72    1.39
  -7  -1  22   21.94    1.42
  -7   2  23    7.78    0.77
  -2  -7 -23    7.73    0.72
  -2   7  21   23.55    1.74
  -7  -2 -21   22.72    1.63
  -7   2  21   21.83    1.65
  -2  -7 -21   20.40    1.64
  -7  -2 -19   22.02    1.89
  -2   7  19   21.33    1.86
  -7   2  19   24.97    1.97
   2   7 -17  106.31    5.50
  -7  -2 -17  106.52    5.52
   7   2 -17   98.95    5.34
  -2   7  17   98.23    5.47
  -2   7  15    8.38    1.41
   2   7 -15    6.66    1.35
  -7  -2 -15    7.30    1.42
   7   2 -15    6.78    1.28
   2   7 -15    6.88    2.35
  -7  -2 -13   77.94    4.55
   2   7 -13   78.10    4.43
   7   2 -13   81.52    4.54
  -2   7  13   78.53    4.56
   2   7 -13   70.14    5.96
   2   7 -11   60.60    4.95
   7   2 -11   50.85    3.43
  -2   7  11   56.27    3.58
   2   7 -11   52.93    3.36
   7   2 -11   52.87    4.42
   7   2  -9   46.93    2.87
  -7  -2  -9   36.28    2.76
   2   7  -9   37.08    3.89
   7   2  -9   39.93    3.44
   7   2  -7  498.95   22.62
   2   7  -7  467.08   23.25
   2   7  -5  597.88   28.00
   7   2  -5  596.06   27.04
   2   7  -3  910.79   40.73
   7   2  -3  893.37   39.78
  -2   7   1  893.21   39.87
   2   7  -1  963.72   41.16
   2   7   1  937.65   39.60
   7   2   1  825.22   38.93
  -2   7  -1  909.54   39.23
   7  -2  -3  954.54   41.26
  -2   7  -3  917.94   42.27
   2   7   3  940.71   41.69
  -2   7  -5  660.69   28.13
   7  -2  -5  557.89   25.86
  -2   7  -7  501.39   22.89
   7  -2  -7  450.98   20.96
  -2   7  -9   41.17    2.84
  -7   2  -9   41.84    2.86
  -7  -2   9   41.66    2.62
   2   7   9   40.37    2.76
  -2   7 -11   76.70    5.64
   7  -2 -11   63.81    3.83
   2   7  11   72.13    4.23
  -7   2 -11   62.76    4.17
  -2   7 -13   75.01    5.90
  -7   2 -13   72.64    4.56
   2   7  13   83.72    4.80
  -7   2 -15    5.99    1.37
   2   7  15    7.42    1.57
  -7   2 -17  102.37    5.38
  -7   2 -19   11.66    1.21
  -7  -2  21   19.28    1.41
  -7  -3 -22   32.63    1.88
  -3   7  22   31.29    1.95
  -7   3  22   30.10    1.91
  -3  -7 -22   30.47    1.88
  -3  -7 -20    3.95    1.02
  -7  -3 -20    4.13    0.97
  -3   7  20    3.26    0.97
   3   7 -18   23.20    1.84
   7   3 -18   16.23    1.61
  -7  -3 -18   19.71    1.84
  -3   7  18   19.31    1.87
  -7  -3 -16   17.03    1.81
  -3   7  16   14.80    1.70
   3   7 -16   13.98    1.65
   7   3 -16   15.20    1.63
   3   7 -16   14.87    2.67
   3   7 -14    3.44    1.14
  -7  -3 -14    2.57    1.26
   7   3 -14    8.39    1.42
   3   7 -14    3.56    1.91
  -3   7  14    4.62    1.26
   7   3 -12   52.12    4.62
  -3   7  12   56.08    3.60
   7   3 -12   60.81    3.64
   3   7 -12   53.85    3.46
   3   7 -12   61.50    5.21
   3   7 -10   18.00    2.92
   7   3 -10   17.78    1.90
  -7  -3 -10   20.30    2.10
   7   3 -10   15.82    2.43
  -3   7  10   18.08    1.93
   7   3  -8  189.78   10.23
   7   3  -6   15.47    2.25
   3   7  -6   23.67    3.00
   3   7  -4  282.78   14.62
   7   3  -4  296.29   14.08
   3   7  -2  289.42   14.33
   3   7   0  203.35    9.91
   7   3   0  177.99    9.42
  -3   7  -2  298.44   14.21
   7   3   2  294.27   14.01
   3   7   2  287.20   14.08
   3   7   4  242.19   12.23
   7  -3  -4  261.38   11.87
  -3   7  -4  258.99   13.11
  -3   7  -6   20.97    3.21
   7  -3  -6   15.47    1.56
  -3   7  -8  205.66   11.68
   7  -3 -10   19.40    1.67
  -7  -3  10   18.32    1.72
   3   7  10   21.79    2.00
  -7   3 -10   16.77    2.02
   3   7  12   43.10    3.17
  -7   3 -12   36.26    3.00
   3   7  14   10.61    1.73
  -7   3 -14    8.81    1.50
  -7   3 -16   11.51    1.46
  -7   3 -18   20.30    1.70
  -7  -3  20    2.35    0.71
  -4   7  23    9.99    0.86
  -4  -7 -23    8.74    0.79
  -7   4  23   10.81    0.86
  -4  -7 -21   24.43    1.74
  -4   7  21   23.94    1.73
  -7  -4 -21   22.98    1.69
  -7   4  19   10.74    1.37
   7   4 -19    9.49    1.10
   4   7 -19    8.63    1.13
  -7  -4 -19    8.51    1.21
  -4  -7 -19    7.26    1.27
  -4   7  19    8.80    1.29
  -7  -4 -17   56.20    3.47
   7   4 -17   57.90    3.42
   4   7 -17   54.17    3.42
  -4   7  17   52.95    3.46
  -7  -4 -15    9.98    1.67
   4   7 -15   14.05    1.67
   4   7 -15   11.13    2.42
   7   4 -15   11.35    1.58
  -4   7  15   12.63    1.64
  -4   7  13   22.52    2.09
   4   7 -13   23.00    2.03
   7   4 -13   21.22    2.08
   7   4 -13   18.38    2.76
   4   7 -13   22.95    3.38
   4   7 -11   30.60    2.41
   7   4 -11   34.85    3.63
   7   4 -11   26.48    2.42
  -7  -4 -11   31.01    2.56
   4   7 -11   32.65    3.74
   4   7  -9  107.83    6.04
   4   7  -9  125.19    7.94
   7   4  -9  132.90    7.63
   7   4  -9  117.44    6.19
   7   4  -7  112.76    6.92
   7   4  -5  214.07   11.40
   4   7  -5  233.58   11.98
   4   7  -3  710.18   32.45
   7   4  -1    8.18    1.45
   4   7  -1    9.34    1.70
   7   4   1   14.07    1.82
   4   7   1   15.64    1.98
   4   7   3  708.57   31.94
   7   4   3  702.87   31.95
   7   4   5  169.14    9.51
   7  -4  -5  177.69    8.37
   4   7   5  173.19    9.19
  -7  -4   9  119.97    5.94
   4   7   9  120.53    6.19
  -7   4  -9  118.71    6.43
  -7   4 -11   26.14    2.57
   4   7  11   29.85    2.52
   4   7  13   23.86    2.51
  -7   4 -13   19.23    2.25
  -7   4 -15   10.81    1.58
  -7   4 -17   46.52    2.90
  -5  -7 -22   68.11    3.35
  -7  -5 -22   69.30    3.34
  -5   7  22   64.46    3.34
  -7   5  22   62.47    3.33
  -5   7  20    0.78    0.75
   7   5 -20    2.12    0.63
  -7  -5 -20    3.07    0.89
  -7   5  20    2.14    0.85
  -5  -7 -20    2.35    0.88
   7   5 -18    8.69    1.24
   5   7 -18    7.85    1.26
  -5  -7 -18    6.70    1.37
  -7  -5 -18    9.71    1.45
  -7   5  18    7.71    1.34
  -5   7  18    8.99    1.30
   7   5 -16   44.68    2.87
  -5   7  16   34.52    2.73
   5   7 -16   41.45    2.84
   5   7 -14   23.41    2.09
   7   5 -14   21.51    2.06
  -5   7  14   20.72    2.03
   5   7 -14   25.04    3.36
   5   7 -12   35.06    2.68
   7   5 -12   36.20    2.66
   7   5 -12   26.53    3.52
   5   7 -12   32.85    4.01
   7   5 -10    2.85    1.11
   5   7 -10    3.52    2.06
   7   5 -10    5.47    1.96
   7   5  -8  317.06   15.31
   5   7  -8  286.07   13.69
   7   5  -8  290.62   13.76
   5   7  -6   12.25    2.32
   7   5  -6   13.26    2.22
   5   7  -4   30.95    3.12
   5   7  -2  449.28   21.15
   7   5  -2  442.91   20.95
   5   7   0  318.22   15.56
   7   5   0  316.78   15.36
   5   7   2  412.14   19.75
   7   5   2  417.39   19.71
   5   7   4   34.18    3.22
   7  -5  -4   34.39    2.29
   7   5   4   35.70    3.33
   7   5   6    8.40    2.05
  -7  -5   8  287.04   12.77
  -7   5  -8  289.64   13.40
   5   7  10    4.57    1.28
  -7   5 -10    4.06    1.57
  -7  -5  10    4.01    1.02
  -7   5 -12   37.95    3.27
   5   7  12   40.03    3.09
  -7   5 -14   14.71    1.89
  -7  -6 -21   39.53    2.21
  -6  -7 -21   34.70    2.15
  -6   7  21   34.33    2.14
  -7   6  21   35.59    2.15
  -7   6  19   18.44    1.56
   7   6 -19   17.21    1.46
  -7  -6 -19   15.69    1.54
  -6  -7 -19   15.17    1.59
   6   7 -19   15.67    1.47
  -6   7  19   16.80    1.53
   6   7 -17   42.07    2.80
  -7   6  17   39.69    2.77
  -6   7  17   41.18    2.76
   7   6 -17   39.92    2.72
   6   7 -15   21.11    2.00
   7   6 -15   14.85    2.69
  -6   7  15   23.19    2.08
   6   7 -15   21.69    3.15
  -7  -6 -15   24.17    2.10
   7   6 -15   23.16    2.06
   6   7 -13   47.47    3.19
   7   6 -13   44.34    3.19
   6   7 -13   55.65    5.03
   7   6 -13   42.96    4.59
   7   6 -11   36.83    4.12
   6   7 -11   41.71    4.47
   7   6  -9  146.02    9.01
   6   7  -9  133.36    7.17
   7   6  -9  138.35    7.20
   6   7  -9  147.87    9.24
   6   7  -7   99.88    5.67
  -7   6   7  103.74    5.28
   7   6  -7  114.02    7.11
   7   6  -7  103.15    5.72
   6   7  -5   47.33    4.18
   7   6  -3  855.30   38.40
   6   7  -3  838.18   38.50
   7   6  -1   11.45    1.97
   6   7  -1   14.49    2.15
   7   6   1    7.61    1.68
   6   7   1    9.28    1.85
   7   6   3  735.61   34.26
   6   7   3  747.68   34.32
   7   6   5   38.52    4.02
   6   7   5   40.32    3.96
  -7  -6   7   88.67    4.43
  -7   6  -7   95.63    5.11
  -7  -6   9  144.50    6.91
  -7   6  -9  138.00    7.71
  -7   6 -11   40.04    3.44
  -7   6 -13   48.52    3.64
  -7  -7 -22   72.15    3.38
  -7   7  22   66.83    3.34
   7   7 -20   47.16    2.64
  -7  -7 -20   50.30    2.77
  -7   7  20   45.51    2.70
   7   7 -18   18.90    1.67
  -7   7  18   19.67    1.72
   7   7 -16  144.32    7.12
  -7  -7 -16  141.22    7.10
  -7   7  16  133.68    7.07
   7   7 -14  222.58   10.33
  -7  -7 -14  210.38   10.30
   7   7 -14  187.90   12.08
   7   7 -12   43.36    4.59
   7   7 -10  168.21   10.36
   7   7 -10  156.93    8.14
   7   7  -8  523.27   24.92
   7   7  -8  493.95   22.81
  -7   7   6    6.71    1.09
   7   7  -6    7.58    1.58
   7   7  -4  147.64    8.72
   7   7  -2  896.99   40.80
   7   7   0  157.08    9.05
   7   7   2  927.47   42.42
   7   7   4  110.23    7.62
  -7  -7   6    6.71    0.81
  -7   7  -6    5.53    1.22
  -7   7  -8  439.80   22.13
  -7  -7   8  500.97   21.31
  -7   7 -10  106.63    7.47
  -7  -7  10  152.35    6.82
   0   8   0   69.14    4.66
   0   8   2   17.68    1.79
   0   8  -2   22.84    3.14
   8   0  -2   22.54    2.15
   0   8  -4  111.95    7.10
   8   0  -4  101.29    5.82
   0   8  -6   11.61    2.20
   8   0  -6   10.54    1.51
   0   8  -8   19.03    2.97
   8   0  -8   17.45    2.07
  -8   0   8   16.57    1.58
   0   8  -8   14.15    1.81
   8   0 -10  211.37   11.46
   8   0 -10  229.51   10.76
   0   8  10  228.42   10.92
  -8   0 -10  217.82   10.90
   0   8 -10  235.02   10.86
  -8   0 -12   39.08    2.99
   8   0 -12   40.88    2.84
   0   8 -12   31.56    3.96
   0   8  12   37.17    2.97
   0   8 -12   36.98    2.70
   0   8 -14   56.80    3.50
   8   0 -14   48.25    3.34
   0   8  14   57.25    3.67
   0   8 -14   56.22    5.12
  -8   0 -14   48.88    3.49
   8   0 -16   17.41    1.66
  -8   0 -16   19.81    1.93
   0   8  16   20.53    2.03
   0   8  18    1.94    1.07
  -8   0 -18    1.85    0.93
   0   8  20   13.48    1.44
  -8   0 -20   11.87    1.26
  -8   0  20   12.46    1.30
   0  -8 -22   11.36    1.00
  -8   0  22   10.55    0.95
  -1  -8 -23   18.14    1.15
  -8   1  23   19.68    1.18
  -1   8  21   10.85    1.17
  -1  -8 -21   11.74    1.15
  -8  -1 -21    9.21    1.00
  -8   1  21    8.27    1.04
  -8  -1 -19   12.00    1.38
  -1   8  19   13.38    1.48
  -1   8  17   81.76    4.72
  -8  -1 -17   84.95    4.64
   8   1 -17   83.49    4.49
  -8  -1 -15  107.51    6.00
  -1   8  15  109.83    6.07
   8   1 -15  110.57    5.89
   1   8 -15  118.91    5.99
   1   8 -15  113.50    7.94
   1   8 -13   74.78    6.16
   8   1 -13   81.33    4.59
  -1   8  13   74.53    4.64
  -8  -1 -13   76.19    4.66
   1   8 -13   80.15    4.53
   8   1 -11   11.35    1.99
   8   1 -11   12.91    1.70
   1   8 -11   16.78    2.80
  -1   8  11   13.43    1.81
   1   8 -11   12.14    1.58
  -8  -1 -11   11.72    1.82
   8   1  -9   65.29    4.64
  -1   8   9   68.55    4.02
   8   1  -9   66.44    3.92
   8   1  -7  474.87   22.17
   1   8  -7  480.26   23.16
   8   1  -5  449.10   20.77
   1   8  -5  450.61   21.81
   8   1  -3   25.90    2.39
   1   8  -3   27.19    3.13
   8   1  -1  385.09   18.36
   1   8  -1  406.83   19.55
  -1   8   1  403.43   18.19
  -1   8  -1  423.89   19.75
   1   8   1  410.00   19.77
   8  -1  -3   28.61    2.33
  -1   8  -3   27.88    3.43
   8  -1  -5  414.19   19.60
  -1   8  -5  465.49   21.43
   8  -1  -7  438.87   20.80
  -1   8  -7  487.20   22.44
  -8   1  -9   57.99    3.81
   1   8   9   67.84    3.84
   8  -1  -9   61.12    3.71
  -8   1 -11   18.71    2.04
   1   8  11   17.15    2.01
   8  -1 -11   17.94    1.84
  -1   8 -11   19.07    1.94
  -8   1 -13   80.61    4.67
   8  -1 -13   74.63    4.42
   1   8  13   78.17    4.75
  -1   8 -13   75.52    6.14
  -8   1 -15  106.44    5.83
   1   8  15  115.49    6.04
   8  -1 -15  104.66    5.60
   1   8  17   89.16    4.87
  -8   1 -17   81.57    4.63
   1   8  19   16.07    1.63
  -8   1 -19   12.35    1.31
  -8  -1  21    9.43    0.99
  -8   1 -21    9.14    0.91
  -2  -8 -22    9.02    0.90
  -8  -2 -22    9.28    0.86
  -2   8  22   10.20    0.98
  -8   2  22    8.97    0.89
  -8  -2 -20   32.69    2.26
  -8   2  20   36.28    2.33
  -2   8  20   35.04    2.29
   8   2 -18   39.10    2.51
  -8  -2 -18   42.21    2.76
  -2   8  18   38.24    2.69
   8   2 -16   98.79    5.21
  -8  -2 -16   95.47    5.24
  -2   8  16   96.34    5.28
   2   8 -16   85.90    6.87
   8   2 -14  102.10    5.45
  -8  -2 -14  100.61    5.52
  -2   8  14   94.81    5.41
   2   8 -14   97.52    5.39
   2   8 -14   97.62    7.27
  -2   8  12  146.69    7.58
   2   8 -12  158.33    9.60
   2   8 -12  146.64    7.44
   8   2 -12  150.18    7.57
   8   2 -12  134.48    8.61
  -8  -2 -10  153.60    8.13
   8   2 -10  156.57    8.00
  -2   8  10  166.75    8.22
   8   2 -10  162.78    9.12
  -8  -2  -8  349.50   16.02
   2   8  -8  362.41   17.92
   2   8  -8  343.07   16.11
   8   2  -8  348.47   16.05
   8   2  -8  363.39   17.16
   2   8  -6   62.01    4.87
   8   2  -6   54.64    4.00
   2   8  -4  701.72   32.35
   8   2  -4  689.35   31.27
   8   2  -2  386.19   18.50
   2   8  -2  420.81   19.74
   2   8   0   10.46    2.15
  -2   8   0    8.84    1.38
  -2   8  -2  334.86   16.27
   2   8   2  334.04   16.31
  -2   8  -4  703.02   32.46
   8  -2  -4  693.39   30.97
  -2   8  -6   61.22    5.04
   8  -2  -6   55.36    3.58
  -8   2  -8  321.68   15.70
   2   8   8  346.74   15.66
  -8  -2   8  349.33   15.54
  -8   2 -10  177.62    9.11
   8  -2 -10  179.50    8.79
   2   8  10  186.16    9.07
  -8  -2  10  186.73    8.86
  -2   8 -12  129.16    8.65
   2   8  12  137.26    7.18
   8  -2 -12  131.09    6.78
  -8   2 -12  130.79    7.08
  -8   2 -14   86.67    5.08
   2   8  14   93.45    5.32
  -8   2 -16   92.96    5.21
   2   8  16  100.93    5.49
   2   8  18   40.96    2.77
  -8   2 -18   33.99    2.44
  -8  -2  20   25.24    1.78
  -8   2 -20   24.37    1.66
  -8  -2  22    4.50    0.61
   2  -8 -22    3.98    0.61
  -8   3  23    3.83    0.53
  -3   8  21    1.73    0.70
  -3  -8 -21    2.38    0.74
  -8  -3 -21    3.01    0.69
  -8  -3 -19    0.83    0.90
   8   3 -19    1.29    0.62
  -3   8  19    1.70    0.91
  -3   8  17   55.92    3.62
  -8  -3 -17   60.29    3.66
   8   3 -17   60.55    3.56
   3   8 -17   62.94    3.63
  -8  -3 -15   43.73    3.03
   8   3 -15   43.24    2.92
  -3   8  15   41.04    2.94
   3   8 -15   40.12    2.89
   3   8 -15   35.34    4.16
   3   8 -13  123.46    6.52
   8   3 -13  131.62    6.66
  -3   8  13  121.19    6.59
   3   8 -13  127.07    8.61
   8   3 -11   26.51    2.35
  -3   8  11   26.05    2.31
  -8  -3 -11   25.92    2.49
   8   3 -11   29.91    3.26
   3   8 -11   24.17    3.45
   8   3  -9   95.60    5.44
   3   8  -9   98.19    5.39
  -8  -3  -9   99.67    5.48
  -3   8   9  101.23    5.53
   8   3  -9  104.56    6.50
   3   8  -7  360.23   17.88
   8   3  -7  392.33   17.24
   3   8  -5  140.72    8.61
   8   3  -5  138.63    7.78
   8   3  -3   72.34    4.46
   3   8  -3   59.84    4.97
   3   8  -1  173.46    9.67
   8   3   1  173.11    9.04
   3   8   1  177.74    9.60
   8   3   3   71.31    4.97
   8  -3  -3   85.74    4.62
  -3   8  -3   82.07    5.37
   3   8   3   78.01    5.15
   8  -3  -5  118.87    6.34
  -3   8  -5  131.48    7.97
  -8   3  -7  332.75   15.80
  -8  -3   7  346.56   15.55
  -8   3  -9   88.68    5.21
   3   8   9   96.79    5.09
  -3   8  -9  108.00    7.17
  -8  -3   9   92.44    4.89
  -8   3 -11   19.62    2.14
   8  -3 -11   17.36    1.72
   3   8  11   17.15    2.03
   3   8  13  152.65    7.77
  -8   3 -13  132.53    7.39
   3   8  15   47.81    3.37
  -8   3 -15   45.20    3.13
   3   8  17   65.14    3.89
  -8   3 -17   56.52    3.49
  -8   3 -19    1.24    0.67
  -8  -3  21    2.74    0.60
  -4  -8 -22    9.66    0.91
  -4   8  22   10.23    0.94
  -8  -4 -22   11.17    0.93
   8   4 -20    5.40    0.76
  -8  -4 -20    8.46    1.08
  -4  -8 -20    8.25    1.15
  -8   4  20    6.34    1.01
  -4   8  20    6.19    0.98
  -4   8  18   38.24    2.64
   8   4 -18   37.13    2.51
  -8  -4 -18   38.22    2.66
   4   8 -18   38.96    2.62
  -8   4  18   38.73    2.69
   4   8 -16    7.69    1.30
  -4   8  16    6.86    1.32
   8   4 -16    6.99    1.24
  -8  -4 -16    7.63    1.44
   8   4 -14   14.09    1.72
   4   8 -14   16.28    2.86
  -4   8  14   13.93    1.74
   4   8 -14   14.02    1.64
  -4   8  12  127.69    6.68
   4   8 -12  121.57    6.56
   8   4 -12  126.89    6.68
  -8  -4 -12  134.70    6.82
   8   4 -12  116.23    8.03
   4   8 -12  127.12    8.63
  -4   8  10   21.77    2.08
   8   4 -10   19.82    2.00
   8   4 -10   19.89    2.88
   4   8 -10   19.28    1.98
   4   8 -10   23.78    3.29
  -8  -4 -10   20.00    2.27
   8   4  -8   59.09    4.62
   4   8  -8   57.24    3.58
  -8  -4  -8   53.05    3.43
   4   8  -6   17.17    2.81
   8   4  -6   14.70    1.75
   8   4  -6   17.85    2.37
   4   8  -4   24.84    2.93
   8   4  -4   19.24    2.35
   4   8  -2  167.02    9.39
   8   4   0   17.31    2.11
   4   8   0   19.45    2.46
   4   8   2  150.20    8.67
   8   4   2  162.04    8.54
   8   4   4   15.29    2.15
   8  -4  -4   15.61    1.55
   8   4   6   15.49    2.41
  -8   4  -8   60.03    3.76
  -8  -4   8   61.34    3.35
  -8  -4  10   17.85    1.67
   4   8  10   18.37    1.94
  -8   4 -10   15.39    2.08
  -8   4 -12  116.03    6.47
   4   8  12  114.01    6.44
  -8   4 -14    9.68    1.59
   4   8  14   12.13    1.98
  -8   4 -16    5.16    1.17
  -8  -4  20    6.75    0.81
  -5   8  21    3.61    0.76
  -8  -5 -21    4.71    0.83
  -5  -8 -21    4.69    0.85
  -8   5  21    4.89    0.83
   5   8 -19    1.60    0.81
   8   5 -19    1.51    0.73
  -8  -5 -19    1.93    0.93
  -5  -8 -19    2.14    0.99
  -5   8  19    1.94    0.83
  -8   5  19    1.83    0.84
   8   5 -17   68.29    3.96
   5   8 -17   74.33    4.03
  -5   8  17   64.44    3.94
   5   8 -15   19.41    3.11
   5   8 -15   19.66    1.93
   8   5 -15   19.33    2.01
  -5   8  15   17.22    1.89
   8   5 -13  100.47    5.43
   8   5 -13   78.58    6.59
   5   8 -13   93.16    7.29
   5   8 -13   99.28    5.38
  -5   8  13   97.67    5.36
  -8  -5 -13   94.10    5.37
  -8  -5 -11   26.19    2.57
   8   5 -11   25.95    2.26
   8   5 -11   19.81    3.07
  -5   8  11   22.88    2.22
   5   8 -11   31.22    3.85
   5   8  -9    9.01    1.55
  -8  -5  -9   11.39    1.74
   8   5  -9   13.20    2.42
   8   5  -7  116.55    7.02
   5   8  -7  107.13    5.77
  -8  -5  -7   95.64    5.36
  -8   5   7  102.29    5.18
   8   5  -7   98.64    5.73
  -5   8   5    4.75    0.98
   8   5  -5    5.29    1.52
   5   8  -5    6.64    1.96
   5   8  -3   39.41    3.72
   5   8  -1   94.70    6.26
   8   5  -1   94.62    5.88
   8   5   1   84.41    5.60
   5   8   1   90.87    5.95
   5   8   3   35.16    3.38
   8   5   3   34.76    3.30
   8   5   5    2.93    1.55
  -8   5  -5    1.70    0.80
   8   5   7  104.44    7.66
  -8   5  -7  106.07    5.90
  -8  -5   7  109.45    5.47
   8  -5  -7  119.34    5.56
  -8  -5   9   12.95    1.40
  -8   5  -9   13.44    1.97
  -8   5 -11   28.66    2.84
  -8   5 -13   91.21    5.46
  -8   5 -15   16.29    1.82
  -6  -8 -22   17.32    1.15
  -8   6  22   16.67    1.10
  -6   8  22   15.88    1.08
  -8  -6 -22   16.17    1.11
   8   6 -20   13.83    1.17
  -8  -6 -20   12.81    1.27
  -6  -8 -20   14.27    1.33
  -6   8  20   14.38    1.27
  -8   6  20   16.25    1.32
   6   8 -18   33.42    2.27
   8   6 -18   30.49    2.18
  -8   6  18   30.74    2.25
  -6   8  18   27.94    2.18
   8   6 -16   23.15    2.05
  -6  -8 -16   24.16    2.14
  -6   8  16   20.39    1.96
   6   8 -16   24.70    2.08
  -8  -6 -16   21.26    2.02
   8   6 -14   47.83    3.10
   8   6 -14   32.77    4.02
   6   8 -14   31.64    4.10
   6   8 -14   45.75    3.06
  -6   8  14   41.33    2.98
  -8  -6 -14   43.29    3.03
   8   6 -12  125.36    6.68
  -8  -6 -12  137.45    6.85
   8   6 -12  108.63    8.36
   6   8 -12  128.11    8.82
  -6   8  12  120.38    6.63
   6   8 -10   54.67    5.11
  -8  -6 -10   58.02    3.76
   8   6 -10   44.40    3.32
   6   8 -10   50.30    3.46
   8   6 -10   51.08    4.86
   6   8  -8  102.69    5.94
  -8  -6  -8  105.49    5.72
   8   6  -8  108.71    5.96
   8   6  -8  114.49    7.42
   8   6  -6   38.72    3.92
   6   8  -6   48.42    3.40
  -8  -6  -6   42.15    2.69
   8   6  -6   39.83    3.20
  -8   6   6   42.23    2.64
   6   8  -6   48.40    4.41
   8   6  -4   33.74    3.38
   6   8  -4   33.25    3.54
  -8   6   4   36.16    2.24
  -6   8   4   32.79    2.26
   8   6  -2  288.25   14.73
   6   8  -2  295.59   15.11
   8   6   0    7.60    1.77
   6   8   0    6.54    1.85
   6   8   2  314.50   16.47
   8   6   2  328.17   16.32
  -8   6  -4   28.71    2.08
  -8  -6   4   30.08    1.83
   8   6   4   30.46    3.46
   6   8   4   28.78    3.47
  -8  -6   6   38.67    2.34
   8   6   6   36.10    4.33
   8  -6  -6   38.20    2.38
  -8   6  -6   41.28    2.82
  -6   8  -6   43.99    2.91
  -8   6  -8  101.45    5.75
  -8  -6   8   96.85    4.96
  -8   6 -10   45.42    3.65
  -8  -6  10   49.12    3.00
  -8   6 -12  136.97    7.72
  -8   6 -14   44.93    3.25
  -8  -7 -21    1.94    0.59
  -7  -8 -21    1.63    0.58
  -7   8  21    1.74    0.50
  -8   7  21    2.09    0.54
   7   8 -19  111.44    5.28
   8   7 -19  114.62    5.26
  -7   8  19  101.68    5.22
  -8   7  19   94.89    5.19
   8   7 -17  128.34    6.34
   7   8 -17  132.21    6.34
  -8  -7 -17  122.90    6.35
  -7   8  17  118.07    6.26
  -8   7  17  116.33    6.25
  -7  -8 -17  128.66    6.35
  -8   7  15   10.88    1.45
   8   7 -15   11.70    1.55
  -8  -7 -15   11.44    1.64
  -7  -8 -15   11.76    1.64
   7   8 -15   11.59    1.55
  -7   8  15   10.26    1.47
   8   7 -13  230.72   11.38
  -8  -7 -13  256.45   11.49
   8   7 -13  213.70   13.34
   7   8 -13  239.04   13.70
  -7   8  13  229.69   11.39
  -8  -7 -11  480.15   20.62
   8   7 -11  428.42   20.38
   7   8 -11  435.43   22.84
   8   7 -11  435.10   22.75
   7   8 -11  442.62   20.39
   7   8  -9    6.49    2.37
   7   8  -9    5.66    1.57
   8   7  -9    7.86    2.30
   8   7  -9    6.63    1.51
  -8  -7  -9    7.30    1.62
   8   7  -7  452.38   20.23
  -8  -7  -7  417.72   19.57
   7   8  -7  447.32   20.25
   8   7  -5  326.73   16.58
   7   8  -5  306.41   15.38
   8   7  -5  322.57   15.44
  -8   7   5  320.74   14.48
   7   8  -5  316.58   16.57
   8   7  -3  187.24   10.76
   7   8  -3  194.51   10.94
  -7   8   3  191.83    9.05
   8   7  -1  419.67   20.59
   7   8  -1  425.88   20.77
  -8   7   1  414.42   18.61
  -7   8   1  417.82   18.65
  -8   7  -1  430.02   19.21
   7   8   1  423.17   21.42
   8   7   1  461.33   21.53
  -7   8  -1  426.34   19.23
   7   8   3  153.81   10.10
   8   7   3  157.62   10.08
  -8   7  -3  168.21    7.92
  -7   8  -3  162.19    7.91
  -8   7  -5  312.41   13.87
  -8  -7   5  291.96   13.24
   8   7   5  268.00   16.39
   8  -7  -5  300.07   13.33
  -7  -8   5  286.60   13.18
  -7   8  -5  305.68   13.89
  -8   7  -7  444.65   19.55
  -8  -7   7  429.70   18.66
  -8   7  -9    5.95    1.68
  -8  -7   9    7.09    1.11
  -8   7 -11  400.59   19.23
  -8   8  20   76.10    3.76
   8   8 -18   26.18    1.88
  -8  -8 -18   27.20    2.01
  -8   8  18   24.67    1.85
  -8   8  16  111.82    5.95
   8   8 -16  119.16    6.02
  -8  -8 -16  116.42    6.00
   8   8 -14  286.34   13.99
  -8  -8 -14  314.72   14.07
  -8   8  14  299.58   14.02
   8   8 -12   75.52    4.57
  -8  -8 -12   79.08    4.65
   8   8 -12   63.43    6.13
   8   8 -10  455.53   21.77
   8   8 -10  452.78   24.15
  -8  -8 -10  508.51   21.94
   8   8  -8  557.88   24.71
  -8  -8  -8  525.47   24.15
   8   8  -6    5.72    2.03
   8   8  -6   11.28    2.04
  -8   8   6    9.28    1.37
   8   8  -4  326.12   16.77
   8   8  -4  312.18   15.79
  -8   8   2 1004.81   43.46
   8   8  -2  969.67   45.71
   8   8   0   44.42    4.28
  -8   8   0   36.79    2.46
  -8   8  -2  957.48   42.05
   8   8   2  983.69   45.00
   8   8   4  280.53   16.51
  -8  -8   4  290.00   13.00
  -8   8  -4  293.55   13.58
   8  -8  -4  289.00   13.10
  -8  -8   6   11.41    1.15
  -8   8  -6   12.82    1.83
  -8  -8   8  513.46   21.90
  -8   8  -8  447.71   22.91
  -8   8 -10  300.55   18.12
  -8  -8  10  425.53   17.32
   0   9  -1   30.27    3.14
   0   9   1   32.61    2.70
   9   0  -1   25.95    2.53
   0   9  -3  181.87   10.35
   9   0  -3  167.64    8.86
   9   0  -5   25.95    2.45
   0   9  -5   27.50    3.39
   0   9  -7  269.13   13.54
   9   0  -7  254.01   12.13
   0   9  -7  234.26   11.49
  -9   0  -7  234.34   11.25
  -9   0   7  239.99   11.16
   9   0  -9  277.64   14.16
   0   9  -9  324.90   15.70
   0   9   9  287.06   13.40
  -9   0   9  286.42   13.32
   0   9  -9  298.45   13.59
   9   0  -9  270.76   13.29
   9   0 -11   18.66    2.01
  -9   0 -11   21.59    2.29
   0   9  11   18.27    2.10
   0   9 -11   18.83    1.97
   0   9 -13   26.71    2.35
   0   9 -13   23.23    3.46
   9   0 -13   30.28    2.45
   0   9  13   30.00    2.69
  -9   0 -13   26.97    2.52
   0   9 -15  405.17   21.60
  -9   0 -15  432.98   19.41
   9   0 -15  418.02   19.26
   0   9  15  435.97   19.55
  -9   0 -17   27.20    2.16
   9   0 -17   24.12    1.87
   0   9  17   26.73    2.23
  -9   0 -19    0.25    0.76
   0   9  19    1.29    0.89
  -9   0 -21   18.61    1.34
  -9   0  21   19.89    1.41
  -9  -1 -22    2.99    0.52
  -1  -9 -22    3.37    0.62
  -9   1  22    3.41    0.58
  -9  -1 -20   74.28    3.87
  -1   9  20   71.89    3.95
  -9   1  20   75.48    3.93
   9   1 -18   90.59    4.83
  -1   9  18   96.56    5.16
  -9  -1 -18  103.35    5.11
   9   1 -16  105.85    5.68
  -1   9  16  108.13    5.84
  -9  -1 -16  113.21    5.83
   1   9 -14  247.14   11.28
  -1   9  14  228.58   11.41
   1   9 -14  236.36   13.62
   9   1 -14  234.44   11.25
  -9  -1 -14  229.43   11.36
  -9  -1 -12  201.45    9.74
   1   9 -12  191.12    9.48
   1   9 -12  188.10   11.47
  -1   9  12  197.18    9.74
   9   1 -12  186.79    9.49
   9   1 -10  399.85   17.94
   1   9 -10  387.34   19.96
  -1   9  10  409.54   18.09
   9   1 -10  348.61   18.76
   1   9  -8  104.75    7.26
   9   1  -8   98.58    5.43
   1   9  -8   99.35    5.65
   9   1  -8  104.04    6.30
  -9   1   8  105.69    5.45
  -9  -1  -8  105.57    5.51
   1   9  -6  106.37    7.15
   9   1  -6  108.69    6.16
  -9  -1  -6  100.23    5.24
   1   9  -4  537.57   25.57
   9   1  -4  524.73   24.30
   1   9  -2  111.06    7.41
   9   1  -2  111.41    6.28
  -1   9   0   59.33    4.13
   1   9   0   63.22    4.76
   9   1   0   63.76    4.17
   9  -1  -2  124.67    6.80
  -1   9  -2  124.26    7.59
  -1   9  -4  568.19   25.25
   9  -1  -4  486.35   23.26
  -1   9  -6  112.28    7.29
   9  -1  -6  107.39    5.80
  -9  -1   6   98.78    4.96
  -1   9  -6   92.62    5.21
  -9   1  -6   96.48    5.05
  -1   9  -8  119.01    6.34
  -1   9  -8  119.73    7.94
   1   9   8  117.09    6.01
   9  -1  -8  116.63    6.66
   1   9  10  412.15   19.20
  -9   1 -10  393.23   19.22
   9  -1 -10  433.64   19.09
  -9   1 -12  226.34   11.13
   1   9  12  223.71   11.19
   9  -1 -12  227.60   10.89
  -1   9 -14  226.47   13.04
   9  -1 -14  214.21   10.71
   1   9  14  233.42   11.12
  -9   1 -14  230.50   10.95
  -9   1 -16  117.45    6.26
   1   9  16  126.21    6.48
  -9   1 -18   98.04    5.24
   1   9  18  106.80    5.45
  -9   1 -20   67.76    3.53
  -9  -1  20   67.10    3.59
   1  -9 -22    1.74    0.52
  -9  -1  22    2.19    0.51
  -9  -2 -21   18.76    1.38
  -2   9  21   20.11    1.46
  -9   2  21   19.83    1.43
  -2  -9 -21   18.48    1.42
  -9  -2 -19    6.51    1.10
  -2   9  19    7.72    1.15
   9   2 -17   73.19    4.09
  -9  -2 -17   76.56    4.21
  -2   9  17   71.44    4.20
   2   9 -15  195.14    9.33
  -9  -2 -15  196.45    9.40
   2   9 -15  178.36   11.47
  -2   9  15  180.64    9.35
   9   2 -15  193.56    9.31
   2   9 -13   91.13    7.18
   2   9 -13   93.61    5.31
   9   2 -13  105.56    5.52
  -2   9  13   92.78    5.45
  -9  -2 -11   37.41    3.11
   9   2 -11   38.47    2.82
  -2   9  11   40.50    2.99
   9   2 -11   32.65    3.52
   2   9  -9  232.47   11.14
  -9  -2  -9  234.74   11.12
   2   9  -9  251.00   13.24
  -2   9   9  223.76   11.07
   9   2  -9  227.56   11.05
   9   2  -9  229.18   12.20
  -9  -2  -7  405.48   18.71
   9   2  -7  427.93   19.95
   2   9  -7  408.91   19.03
   2   9  -7  455.76   21.10
  -9   2   7  413.98   18.73
   9   2  -5  482.81   22.35
   2   9  -5  470.25   23.27
   2   9  -3   54.11    4.61
   9   2  -3   50.17    3.72
   2   9  -1  308.47   15.53
   9   2  -1  285.04   14.23
  -2   9  -1  310.48   14.88
   2   9   1  294.04   15.48
  -2   9  -3   57.16    4.60
   9  -2  -3   55.11    3.68
  -2   9  -5  544.62   24.61
   9  -2  -5  471.54   22.42
   9  -2  -7  410.98   18.58
   2   9   7  401.26   17.88
  -9   2  -7  370.37   17.96
  -2   9  -9  241.67   12.64
  -9   2  -9  201.07   10.28
   2   9   9  215.32   10.23
  -9  -2   9  213.21   10.09
   9  -2 -11   32.41    2.41
   2   9  11   31.46    2.66
  -9   2 -11   28.47    2.70
  -9   2 -13   95.73    5.57
   9  -2 -13   97.63    5.35
   2   9  13  105.20    5.91
  -9   2 -15  166.22    8.61
   2   9  15  183.11    8.89
   2   9  17   73.14    4.10
  -9   2 -17   62.20    3.79
  -9   2 -19    7.43    1.00
  -9  -2  21   19.52    1.35
  -9  -3 -22    1.33    0.44
  -3  -9 -22    1.98    0.53
  -3   9  20   19.40    1.58
  -3  -9 -20   20.21    1.65
  -3   9  18   44.24    2.88
   9   3 -18   43.23    2.74
  -9  -3 -18   47.96    2.93
   9   3 -16    6.95    1.27
   3   9 -16    6.89    1.30
  -9  -3 -16    7.42    1.38
  -3   9  16    6.15    1.26
   3   9 -14   23.37    2.07
   9   3 -14   20.68    2.08
  -3   9  14   20.92    2.09
   3   9 -14   21.88    3.29
   9   3 -12  218.52   10.56
  -3   9  12  208.23   10.59
   9   3 -12  196.95   11.86
  -9  -3 -12  232.35   10.75
   3   9 -12  213.60   12.80
  -9  -3 -10  100.08    5.56
   3   9 -10   91.38    5.33
  -3   9  10   95.63    5.54
   9   3 -10   98.81    5.47
   9   3 -10  101.64    6.70
  -9  -3  -8    7.68    1.43
   9   3  -8    6.25    1.67
   3   9  -8    5.03    1.37
   3   9  -8    5.14    2.17
   9   3  -6   74.25    4.87
   3   9  -6   63.10    4.06
  -9  -3  -6   62.99    3.67
   9   3  -6   67.77    3.96
   3   9  -6   64.83    5.43
  -9   3   6   65.81    3.77
   9   3  -4  141.72    7.90
   3   9  -4  140.24    8.86
   9   3  -2   27.99    2.72
   3   9  -2   29.28    3.50
   3   9   0  107.91    7.30
   9   3   0  110.95    6.41
   9   3   2   25.64    2.67
  -3   9  -2   24.19    2.60
   3   9   2   24.73    2.98
   9   3   4  135.63    8.07
  -3   9  -4  149.91    8.72
   9  -3  -4  138.26    7.29
   9  -3  -6   67.58    4.14
  -9   3  -6   63.18    3.73
   9  -3  -6   66.90    3.66
  -9  -3   6   66.13    3.56
  -3   9  -8    5.27    2.15
  -9  -3   8    6.30    1.03
  -9   3  -8    5.26    1.26
   3   9   8    5.56    1.14
  -9   3 -10  113.79    6.58
  -9  -3  10  119.42    6.25
   3   9  10  126.49    6.52
  -3   9 -10  128.90    8.49
   3   9  12  220.05   10.76
  -9   3 -12  217.66   10.73
   9  -3 -12  209.25   10.28
  -9   3 -14   19.96    2.11
   3   9  14   25.05    2.47
  -9   3 -16    7.70    1.28
   3   9  16    7.32    1.48
  -9   3 -18   45.95    2.77
  -9  -3  20   17.94    1.36
   3  -9 -22    1.03    0.37
  -4  -9 -21    6.82    0.86
  -9  -4 -21    6.27    0.83
  -4   9  21    7.59    0.84
  -9   4  21    6.81    0.84
  -9  -4 -19   17.64    1.54
   9   4 -19   15.68    1.35
  -4   9  19   16.48    1.49
  -9   4  19   16.50    1.50
   9   4 -17   52.42    3.21
  -9  -4 -17   49.57    3.24
  -4   9  17   47.37    3.21
   4   9 -15   31.71    2.47
   9   4 -15   31.96    2.47
  -4   9  15   29.35    2.44
   9   4 -13   90.63    5.01
  -4   9  13   82.79    5.00
  -9  -4 -13   96.71    5.21
   4   9 -13   84.39    6.95
   9   4 -13   72.10    6.13
   4   9 -11   66.68    5.74
   9   4 -11   52.29    4.98
   9   4 -11   58.51    3.88
  -4   9  11   60.92    3.97
  -9  -4 -11   65.06    4.18
   4   9 -11   62.23    3.88
   4   9  -9   96.28    5.68
  -9  -4  -9  101.21    5.68
   4   9  -9  113.93    7.69
   9   4  -9  108.73    7.06
   9   4  -7   61.67    3.88
  -9  -4  -7   59.73    3.63
   4   9  -7   59.17    3.98
  -9   4   7   61.01    3.34
   4   9  -7   64.50    5.48
   9   4  -7   62.06    4.81
   9   4  -5   22.39    2.12
   4   9  -5   21.97    2.19
   9   4  -5   25.80    2.71
   4   9  -5   18.82    3.01
  -9   4   5   23.31    1.63
   4   9  -3    6.04    1.86
   9   4  -1   57.39    4.25
   4   9  -1   67.52    5.14
   4   9   1   55.29    4.67
   9   4   1   56.36    4.23
   9   4   3    3.41    1.44
   9  -4  -3    5.79    1.13
  -9   4  -5   23.15    1.83
   9  -4  -5   21.97    1.70
   9   4   5   26.46    3.16
  -9  -4   5   23.78    1.61
   9  -4  -7   59.39    3.39
  -9  -4   7   57.43    3.27
  -9   4  -7   60.75    3.66
   9   4   7   62.18    5.23
  -9  -4   9  113.57    5.76
   9   4   9  106.69    7.94
  -9   4  -9  112.82    6.20
  -9   4 -11   73.13    4.50
   9  -4 -11   62.64    3.86
  -9   4 -13   90.58    5.36
  -9   4 -15   32.40    2.51
  -9   4 -17   46.06    2.87
  -9  -5 -22    8.33    0.70
  -5  -9 -22    6.73    0.69
  -9   5  22    6.40    0.67
  -9  -5 -20   23.47    1.63
  -5   9  20   20.03    1.52
   9   5 -20   20.91    1.45
  -9   5  20   24.37    1.62
   9   5 -18   29.31    2.07
   5   9 -18   30.55    2.14
  -5  -9 -18   27.44    2.16
  -5   9  18   27.25    2.11
  -9   5  18   27.02    2.09
  -5   9  16   30.01    2.36
   9   5 -16   30.04    2.28
   5   9 -16   29.71    2.34
   5   9 -14   45.87    3.02
   9   5 -14   40.50    2.92
  -9  -5 -14   43.00    3.04
  -5   9  14   38.58    2.92
   5   9 -14   33.31    4.21
  -9  -5 -12  186.60    8.92
   9   5 -12  151.23   10.32
   9   5 -12  171.16    8.70
   5   9 -12  177.38   11.02
  -5   9  12  171.64    8.80
   5   9 -10   69.12    4.32
  -9  -5 -10   73.91    4.54
   9   5 -10   70.14    5.78
   5   9  -8   49.24    3.49
  -9  -5  -8   48.13    3.25
   9   5  -8   49.24    3.51
   5   9  -8   53.45    4.96
   9   5  -8   50.38    4.42
   5   9  -6  168.42    8.36
   9   5  -6  156.17    9.15
  -9  -5  -6  147.58    7.51
   9   5  -6  152.37    8.12
   5   9  -6  170.85   10.11
  -9   5   6  156.74    7.45
  -9   5   4  120.84    6.03
  -5   9   4  128.42    6.26
   9   5  -4  123.93    6.84
   5   9  -4  130.03    8.23
  -9   5   2   94.72    4.69
   9   5  -2   90.46    6.00
   5   9  -2   94.37    6.64
   9   5   0  237.42   12.10
  -9   5   0  227.19   10.51
   5   9   0  231.20   12.60
   5   9   2   96.36    6.67
   9  -5  -2   93.40    4.77
   9   5   2  102.12    6.39
  -9  -5   4  115.39    5.50
   9   5   4  121.94    7.53
   9  -5  -4  112.92    5.60
  -9   5  -4  111.06    5.71
   9   5   6  146.11    9.61
   9  -5  -6  157.17    7.46
  -9   5  -6  157.93    7.75
  -9  -5   6  154.27    7.36
   9   5   8   63.05    5.97
  -9   5  -8   71.34    4.27
  -9  -5   8   65.01    3.69
  -9  -5  10   79.52    4.42
  -9   5 -10   80.08    5.03
  -9   5 -12  173.00    9.07
  -9   5 -14   33.30    2.76
  -9   5 -16   30.35    2.29
  -9   6  21    1.27    0.48
  -9  -6 -21    1.17    0.52
  -6   9  21    1.61    0.45
  -9   6  19    4.35    0.84
   9   6 -19    4.15    0.81
  -6  -9 -19    3.77    0.95
  -6   9  19    4.96    0.84
  -6  -9 -17   63.92    3.65
  -9  -6 -17   60.33    3.61
   6   9 -17   67.35    3.66
  -9   6  17   58.41    3.54
  -6   9  17   57.04    3.56
   9   6 -17   59.00    3.54
   6   9 -15   17.40    1.79
   9   6 -15   17.21    1.77
  -9  -6 -15   16.24    1.82
  -6   9  15   17.34    1.83
  -9  -6 -13   55.52    3.68
   9   6 -13   57.86    3.63
   6   9 -13   49.55    5.19
   9   6 -13   42.75    4.68
  -6   9  13   54.47    3.65
   6   9 -11   58.09    3.78
  -9  -6 -11   65.76    4.11
   6   9 -11   54.99    5.49
  -6   9  11   52.47    3.78
   9   6 -11   51.79    5.18
   6   9  -9   45.93    3.28
  -9  -6  -9   43.74    3.16
   9   6  -9   41.35    3.20
   9   6  -9   43.79    4.49
   9   6  -7   83.78    6.26
   6   9  -7   97.04    5.47
   6   9  -7   95.31    7.06
   9   6  -7   83.99    5.24
  -9  -6  -7   83.03    4.70
  -9   6   7   85.14    4.62
   9   6  -5    8.53    1.93
   6   9  -5    9.89    2.43
  -9   6   5    9.02    1.18
   6   9  -5    9.92    1.99
  -6   9   5   12.36    1.49
   9   6  -3    5.65    1.73
  -6   9   3    3.91    0.96
   6   9  -3    3.07    1.83
  -9   6   3    4.59    0.87
   9   6  -3    3.91    1.64
   6   9  -1  131.56    8.32
   9   6  -1  115.67    7.57
  -6   9   1  128.69    6.29
   6   9   1  128.35    8.36
   9   6   1  121.81    7.87
  -6   9  -1  136.23    6.36
  -9   6  -1  120.22    6.17
  -9  -6   3    4.82    0.79
   9   6   3    6.82    1.96
  -6   9  -3    5.59    1.08
  -9   6  -3    6.02    1.02
   9  -6  -3    4.54    0.91
   6   9   3    3.11    1.80
  -9   6  -5    9.05    1.35
   9   6   5   10.20    2.52
  -6   9  -5    8.94    1.40
   9  -6  -5    8.35    1.17
  -9  -6   5    9.78    1.11
  -9   6  -7  106.57    5.84
   9   6   7   96.95    7.94
   9  -6  -7  104.15    5.26
  -9  -6   7  100.52    5.17
  -9  -6   9   41.31    2.72
  -9   6  -9   46.16    3.55
  -9   6 -11   52.30    3.99
  -9   6 -13   57.02    3.98
  -9   6 -15   16.59    1.70
  -7  -9 -20   28.31    1.73
  -7   9  20   24.21    1.59
  -9   7  20   26.32    1.63
   9   7 -20   27.47    1.62
  -9   7  18   12.11    1.30
   9   7 -18   13.44    1.37
  -9  -7 -18   15.52    1.48
  -7   9  18   13.03    1.34
  -7  -9 -18   16.82    1.55
   7   9 -18   16.34    1.45
  -7  -9 -16   38.59    2.58
   7   9 -16   34.26    2.46
  -9  -7 -16   35.78    2.56
   9   7 -16   33.94    2.44
  -7   9  16   30.36    2.39
  -9   7  16   33.44    2.42
  -7  -9 -14   76.73    4.53
  -9  -7 -14   79.48    4.62
   9   7 -14   77.33    4.54
  -7   9  14   79.38    4.61
   7   9 -12   93.45    7.25
   7   9 -12   97.04    5.42
  -9  -7 -12   92.32    5.49
   9   7 -12   76.71    6.82
  -7   9  12   94.50    5.42
   9   7 -10  155.64    8.18
  -9  -7 -10  158.86    8.19
   7   9 -10  157.54    8.26
   7   9 -10  153.96   10.29
   9   7 -10  159.74   10.37
   7   9  -8  163.77    8.46
  -9  -7  -8  150.61    7.87
   9   7  -8  160.32    8.39
   7   9  -8  158.41   10.25
   9   7  -8  160.57   10.09
   7   9  -6   31.03    3.02
   7   9  -6   32.52    3.84
   9   7  -6   27.09    2.78
  -9   7   6   25.46    2.13
   7   9  -4   77.65    5.63
   9   7  -4   89.65    5.82
   9   7  -4   94.00    6.41
  -7   9   4   92.96    4.84
  -9   7   4   87.62    4.69
   7   9  -4   87.17    6.58
   7   9  -2  257.25   14.13
   9   7  -2  247.25   13.65
  -7   9   2  257.79   11.90
   7   9   0   30.73    3.80
  -7   9   0   29.16    2.10
  -9   7   0   23.78    1.97
   9   7   0   24.74    3.25
   7   9   2  230.12   13.64
   9   7   2  232.42   13.32
  -7   9  -2  238.02   11.13
  -9   7  -2  236.33   11.03
  -9  -7   4   74.29    3.98
   9   7   4   82.00    6.74
   9  -7  -4   77.71    4.12
  -7   9  -4   86.38    4.59
  -9   7  -4   76.90    4.40
  -9   7  -6   36.95    2.79
  -9  -7   6   34.08    2.19
   9  -7  -6   31.87    2.21
  -7   9  -6   31.37    2.78
  -9   7  -8  144.64    7.80
  -9  -7   8  139.02    6.86
  -9   7 -10  129.82    7.71
  -9  -7  10  134.49    6.70
  -9   7 -12   98.62    6.06
  -9   7 -14   80.88    4.74
   8   9 -19   52.39    2.69
  -8  -9 -19   50.65    2.73
   9   8 -19   49.85    2.66
  -9  -8 -19   51.62    2.72
  -8   9  19   44.44    2.55
  -9   8  19   41.46    2.55
   9   8 -17   55.83    3.15
  -9  -8 -17   54.38    3.18
  -8  -9 -17   55.25    3.20
  -8   9  17   48.74    3.05
  -9   8  17   50.46    3.06
   8   9 -17   55.83    3.15
   9   8 -15   30.52    2.28
  -8   9  15   28.76    2.26
  -9   8  15   27.88    2.21
  -9  -8 -15   30.87    2.36
  -8  -9 -15   28.68    2.33
   8   9 -13  120.33    6.35
  -8  -9 -13  123.61    6.35
  -8   9  13  112.40    6.39
  -9  -8 -13  119.41    6.38
   8   9 -11  187.46    9.46
   9   8 -11  184.12    9.37
   9   8 -11  146.94   11.06
   8   9 -11  163.09   11.35
  -9  -8 -11  207.29    9.63
  -8  -9 -11  199.58    9.47
   8   9  -9   18.94    2.26
   9   8  -9   13.86    2.94
   9   8  -9   17.62    2.20
  -9  -8  -9   15.99    1.98
  -8  -9  -9   15.99    1.99
   8   9  -7  201.11   10.06
  -9  -8  -7  177.50    8.95
   9   8  -7  188.46    9.87
   8   9  -7  194.01   11.69
   9   8  -5  180.60   10.13
   9   8  -5  179.97   11.02
   8   9  -5  185.34   10.23
  -8   9   5  183.24    9.02
  -9   8   5  189.30    8.97
   8   9  -5  189.28   11.32
   9   8  -3   15.87    2.76
   8   9  -3   21.80    3.21
   9   8  -3   20.75    3.02
  -8   9   3   21.51    1.88
  -9   8   1  291.55   13.34
   8   9  -1  280.21   15.84
  -8   9   1  290.51   13.36
   9   8  -1  284.66   15.65
   8   9   1  242.04   15.21
   9   8   1  276.54   15.36
  -9   8  -1  273.33   12.61
  -8   9  -1  275.58   12.67
  -8  -9   3   12.27    1.13
  -9  -8   3   13.05    1.20
   9   8   3   14.85    3.25
  -9   8  -3   14.40    1.63
  -8   9  -3   13.85    1.63
   8   9   3    9.39    2.80
   9  -8  -3   13.47    1.35
  -9   8  -5  186.09    9.04
   9  -8  -5  181.70    8.40
  -8  -9   5  170.73    8.22
  -9  -8   5  176.64    8.29
  -8   9  -5  183.26    9.12
  -9  -8   7  191.93    8.64
  -9   8  -7  193.00    9.70
  -9   8  -9   17.45    2.49
  -9  -8   9   21.45    1.65
  -9   8 -11  159.15    8.86
  -9  -9 -20    7.83    0.76
   9   9 -18    9.03    1.02
  -9  -9 -18    8.36    1.05
  -9   9  18    9.33    0.94
   9   9 -16    8.41    1.19
  -9  -9 -16    8.35    1.23
  -9   9  16    8.53    1.12
  -9  -9 -14   55.36    3.44
  -9   9  14   52.36    3.38
   9   9 -12   21.18    2.10
  -9  -9 -12   21.71    2.20
   9   9 -10   92.56    5.61
   9   9 -10  101.89    7.73
  -9  -9 -10   96.41    5.42
   9   9  -8  107.34    6.11
  -9  -9  -8   91.52    5.20
   9   9  -6    1.02    1.78
   9   9  -6    2.58    1.85
   9   9  -4   23.92    3.30
   9   9  -4   33.73    4.06
  -9   9   4   32.31    2.38
   9   9  -2   61.67    5.65
  -9   9   2   62.08    3.67
   9   9   0  236.54   14.30
  -9   9   0  243.34   11.44
   9   9   2   66.31    6.60
  -9   9  -2   68.44    4.07
   9  -9  -4   41.85    2.71
  -9   9  -4   48.45    3.32
  -9  -9   4   45.04    2.61
  -9   9  -6    2.26    1.44
  -9  -9   6    1.25    0.76
   9  -9  -6    2.10    0.88
  -9  -9   8  106.07    5.06
  -9   9  -8   76.45    5.86
  -9   9 -10   66.74    4.93
  10   0   0   77.24    4.91
   0  10   0   67.81    4.85
  10   0  -2   15.43    2.03
   0  10  -2   19.67    2.86
   0  10  -4  516.54   23.40
 -10   0  -4  455.60   20.19
  10   0  -4  472.08   21.37
  10   0  -4  435.44   20.30
 -10   0   4  456.63   20.17
  10   0  -6  124.54    6.98
   0  10  -6  131.65    8.32
 -10   0   6  121.09    5.97
 -10   0  -6  121.71    6.07
   0  10  -6  110.45    6.23
 -10   0  -8    5.14    1.28
   0  10  -8    5.97    2.22
 -10   0   8    6.53    1.25
  10   0  -8    3.91    1.35
   0  10  -8    4.51    1.54
   0  10 -10  397.70   19.58
  10   0 -10  366.83   17.13
   0  10  10  357.88   17.15
   0  10 -10  383.13   17.33
  10   0 -12   85.34    5.01
 -10   0 -12   84.21    5.18
   0  10  12   90.84    5.30
   0  10 -14  190.23   11.97
  10   0 -14  203.90    9.87
   0  10  14  205.45   10.13
 -10   0 -14  203.57    9.96
 -10   0 -16   78.54    4.63
  10   0 -16   85.41    4.52
   0  10  16   81.53    4.73
   0  10  18   64.47    3.77
 -10   0 -18   67.37    3.73
 -10   0  20   60.43    3.34
 -10   0 -20   65.67    3.34
   0 -10 -22    1.55    0.44
 -10   0  22    1.98    0.45
  -1 -10 -21   27.60    1.69
 -10   1  21   25.22    1.63
 -10  -1 -21   25.45    1.59
  -1  10  19   11.90    1.30
 -10  -1 -19   13.05    1.33
  10   1 -17   60.30    3.52
  -1  10  17   60.06    3.69
 -10  -1 -17   66.45    3.71
  10   1 -15  432.40   19.57
  -1  10  15  424.15   19.74
 -10  -1 -15  439.05   19.67
 -10  -1 -13   77.05    4.69
   1  10 -13   70.70    6.27
  10   1 -13   78.92    4.60
  -1  10  13   73.11    4.72
   1  10 -13   77.68    4.55
   1  10 -11   63.05    4.17
   1  10 -11   67.70    5.91
  -1  10  11   70.22    4.37
  10   1 -11   72.52    4.30
  10   1  -9  317.79   16.35
   1  10  -9  333.09   15.53
 -10  -1  -9  330.85   15.38
   1  10  -9  355.49   17.75
  10   1  -9  323.52   15.29
   1  10  -7  164.00    8.81
 -10  -1  -7  174.42    8.56
  10   1  -7  181.58    9.61
   1  10  -7  185.61   10.79
 -10   1   7  178.40    8.49
   1  10  -5  131.90    7.07
 -10  -1  -5  138.47    6.83
  10   1  -5  153.65    8.07
 -10   1   5  143.21    6.85
   1  10  -5  150.85    9.23
   1  10  -3  161.33    9.45
  10   1  -3  157.54    8.04
  10   1  -1   99.11    5.88
   1  10  -1   90.75    6.57
  10  -1  -1   87.27    5.29
  -1  10  -1   80.71    5.54
  -1  10  -3  175.20    9.79
  10  -1  -3  147.38    7.56
  10  -1  -3  178.93    8.65
 -10  -1   3  160.77    7.46
 -10   1  -5  129.62    6.35
  -1  10  -5  141.07    8.83
  10  -1  -5  119.22    6.35
  10  -1  -5  129.56    7.21
 -10  -1   5  134.53    6.29
  10  -1  -7  190.35   10.01
  -1  10  -7  209.09   11.76
 -10  -1   7  191.25    9.14
 -10   1  -7  191.24    9.27
   1  10   9  313.02   14.87
  10  -1  -9  319.27   14.89
 -10   1 -11   71.98    4.64
  10  -1 -11   78.20    4.41
   1  10  11   68.73    4.46
  -1  10 -11   76.95    6.19
 -10   1 -13   74.37    4.59
  10  -1 -13   72.06    4.34
   1  10  13   74.43    4.72
 -10   1 -15  407.00   18.31
  10  -1 -15  391.32   18.10
   1  10  15  402.05   18.43
 -10   1 -17   54.06    3.30
   1  10  17   56.49    3.48
 -10   1 -19   14.08    1.32
 -10   1 -21   24.64    1.54
 -10  -1  21   28.24    1.63
  -2 -10 -22    6.97    0.74
 -10   2  22    9.22    0.75
  -2  10  20   38.68    2.30
 -10  -2 -20   37.18    2.26
  10   2 -18   20.03    1.61
  -2  10  18   19.80    1.78
 -10  -2 -18   22.02    1.81
 -10  -2 -16   46.53    3.13
  10   2 -16   49.40    3.03
  -2  10  16   40.85    3.03
  10   2 -14   82.32    4.75
  -2  10  14   76.66    4.76
   2  10 -14   74.53    6.47
   2  10 -14   90.14    4.83
 -10  -2 -12  104.54    5.83
  10   2 -12  100.93    5.71
  -2  10  12  100.11    5.86
 -10  -2 -10  253.04   12.01
   2  10 -10  268.92   14.31
   2  10 -10  248.83   11.95
  -2  10  10  234.76   11.91
  10   2 -10  248.37   11.89
  10   2 -10  238.34   13.05
 -10  -2  -8    7.42    1.45
  10   2  -8    9.19    1.85
   2  10  -8    7.99    1.59
   2  10  -8    8.33    2.45
   2  10  -6   44.05    3.33
 -10  -2  -6   51.69    3.12
  10   2  -6   57.58    4.15
   2  10  -6   53.47    4.87
 -10   2   6   52.97    3.15
 -10  -2  -4  268.09   12.17
  10   2  -4  282.78   13.56
   2  10  -4  290.85   14.83
 -10   2   4  257.30   12.20
  10   2  -2  103.54    6.27
   2  10  -2  102.50    7.29
   2  10   0   38.58    3.91
 -10  -2   2  102.01    4.96
  10   2   2  108.97    6.52
  -2  10  -2  100.00    6.49
  10  -2  -2   96.07    5.08
  10  -2  -2  110.35    6.08
  -2  10  -4  250.23   13.35
  10  -2  -4  230.00   10.95
 -10   2  -4  234.42   10.90
  10  -2  -4  255.06   11.91
 -10  -2   4  236.15   10.80
  10  -2  -6   37.66    2.99
  10  -2  -6   35.10    2.48
 -10   2  -8    5.36    1.30
   2  10   8    5.15    1.12
  10  -2 -10  251.90   11.77
   2  10  10  238.96   11.86
 -10  -2  10  257.27   11.78
 -10   2 -10  237.29   11.97
  -2  10 -10  255.50   14.13
  -2  10 -12   99.09    7.33
   2  10  12   95.88    5.65
 -10   2 -12   95.66    5.67
 -10   2 -14   69.47    4.21
  10  -2 -14   67.84    4.05
   2  10  14   69.66    4.45
 -10   2 -16   50.38    3.24
 -10   2 -18   15.87    1.46
 -10  -2  20   34.14    1.98
 -10   2 -20   30.12    1.87
  -3 -10 -21   11.77    1.06
 -10  -3 -21   13.43    1.04
  -3  10  19    4.98    0.95
 -10  -3 -19    4.75    0.95
 -10   3  19    5.86    0.97
  10   3 -19    3.77    0.76
 -10  -3 -17   18.62    1.77
  10   3 -17   15.81    1.58
  -3  10  17   15.75    1.65
   3  10 -15   61.32    3.68
  10   3 -15   59.10    3.63
  -3  10  15   51.92    3.61
 -10  -3 -13   25.34    2.41
  10   3 -13   23.73    2.20
  -3  10  13   22.00    2.34
   3  10 -13   17.89    3.14
  10   3 -11    6.72    1.98
   3  10 -11    6.91    1.55
  10   3 -11    8.03    1.62
 -10  -3 -11    8.67    1.80
  -3  10  11    8.96    1.65
  10   3  -9  129.13    7.84
   3  10  -9  117.27    6.62
 -10  -3  -9  124.24    6.58
   3  10  -9  128.29    8.61
  10   3  -7   60.88    4.59
   3  10  -7   56.58    3.84
  10   3  -7   53.13    3.59
   3  10  -7   56.04    5.11
 -10  -3  -7   53.02    3.36
 -10   3   7   54.02    3.05
 -10  -3  -5   70.09    3.83
   3  10  -5   66.23    4.26
  10   3  -5   74.36    5.14
  10   3  -5   67.56    4.16
   3  10  -5   63.54    5.64
 -10   3   5   73.77    3.96
 -10   3   5   71.65    3.67
   3  10  -3   22.99    3.31
 -10   3   3   28.07    1.83
  10   3  -3   29.58    2.95
   3  10  -1   31.15    3.78
 -10   3   1   31.92    1.98
 -10   3  -1   27.30    1.79
  10  -3  -1   23.51    1.82
   3  10   1   25.40    3.32
  10   3   1   31.50    3.00
 -10   3  -3   28.73    1.96
  10   3   3   33.54    3.32
  -3  10  -3   28.31    3.18
  10  -3  -3   34.67    2.75
  10  -3  -3   26.85    2.03
  10  -3  -5   66.79    3.80
  10  -3  -5   71.40    4.43
  -3  10  -5   72.72    5.80
  10   3   5   69.14    5.36
 -10   3  -7   47.30    3.20
 -10  -3   7   48.27    2.97
  -3  10  -9  120.80    8.42
 -10  -3   9  119.29    6.15
 -10   3  -9  118.97    6.46
 -10   3 -11    9.26    1.78
  10  -3 -11    9.88    1.49
  10  -3 -13   20.79    1.98
 -10   3 -13   22.78    2.31
 -10   3 -15   51.55    3.34
 -10   3 -17   13.85    1.45
 -10   3 -19    3.14    0.71
 -10  -3  21   11.66    0.88
 -10  -4 -20   51.03    2.65
  10   4 -20   43.64    2.41
  -4  10  20   44.41    2.56
 -10   4  20   47.23    2.59
 -10  -4 -18   12.79    1.40
  -4  10  18    9.95    1.27
  10   4 -18   11.47    1.22
   4  10 -16   28.37    2.24
  -4  10  16   23.56    2.12
  10   4 -16   26.23    2.10
  10   4 -14  110.74    5.84
   4  10 -14  102.10    7.76
 -10  -4 -14  115.24    5.97
  -4  10  14   99.44    5.85
   4  10 -12   98.55    5.56
  10   4 -12   97.55    5.49
   4  10 -12   97.21    7.56
  -4  10  12   97.08    5.71
  10   4 -12   84.70    6.83
 -10  -4 -12  108.32    5.81
   4  10 -10  143.52    7.68
 -10  -4 -10  155.80    7.77
   4  10 -10  134.62    9.62
  10   4 -10  149.32    9.25
  10   4  -8  195.62   10.85
   4  10  -8  180.52    9.50
 -10  -4  -8  187.22    9.15
  10   4  -8  184.90    9.31
   4  10  -8  189.54   11.45
   4  10  -6   18.02    2.98
  10   4  -6   16.51    1.91
 -10  -4  -6   15.61    1.61
   4  10  -6   16.12    2.12
 -10   4   6   17.38    1.45
  10   4  -6   15.74    2.46
  10   4  -4  249.58   12.08
 -10  -4  -4  250.62   11.41
   4  10  -4  231.30   11.96
   4  10  -4  251.18   14.10
  10   4  -4  266.54   13.17
 -10   4   4  257.49   11.42
  -4  10   2  271.38   12.34
   4  10  -2  271.95   14.96
 -10   4   2  261.53   12.05
   4  10   0   25.06    3.38
  10   4   0   19.37    2.53
 -10   4   0   20.51    1.56
 -10   4  -2  254.15   11.81
  10  -4  -2  255.56   11.84
  10  -4  -2  272.25   12.77
  10   4   2  262.72   13.49
  10  -4  -4  254.13   11.91
  10   4   4  275.25   13.96
  10  -4  -4  270.60   12.68
 -10  -4   4  255.88   11.77
  10   4   6    9.55    2.40
  10  -4  -6    9.51    1.33
 -10  -4   6   10.07    1.15
 -10   4  -6    9.14    1.36
  10   4   8  200.56   12.34
 -10   4  -8  202.38   10.10
 -10  -4   8  210.98    9.77
 -10   4 -10  160.33    8.17
  10   4  10  141.01   10.04
 -10  -4  10  153.75    7.67
  10  -4 -12   78.03    4.45
 -10   4 -12   76.53    4.87
 -10   4 -14  100.66    5.60
 -10   4 -16   29.97    2.25
 -10   4 -18    5.56    0.87
 -10  -4  20   44.24    2.35
 -10   5  21    9.31    0.81
 -10  -5 -21    9.34    0.84
  10   5 -19   26.99    1.75
  -5 -10 -19   30.32    1.95
  -5  10  19   25.28    1.77
 -10   5  19   24.80    1.81
   5  10 -17   89.74    4.59
  10   5 -17   84.54    4.51
  -5  10  17   76.31    4.50
 -10  -5 -15   17.13    1.93
   5  10 -15   17.11    1.81
  -5  10  15   17.43    1.83
  10   5 -15   19.85    1.89
 -10  -5 -13  162.90    7.66
  10   5 -13  145.26    7.45
  -5  10  13  142.43    7.59
   5  10 -13  137.53    9.55
   5  10 -11  200.25   10.22
 -10  -5 -11  225.04   10.50
  10   5 -11  188.08   11.93
   5  10  -9  133.56    7.09
 -10  -5  -9  126.63    6.81
  10   5  -9  129.00    6.94
   5  10  -9  127.60    8.89
  10   5  -9  130.22    8.48
  10   5  -7  184.64   10.65
  10   5  -7  174.66    9.24
   5  10  -7  196.20    9.66
 -10  -5  -7  175.52    8.81
   5  10  -7  203.31   11.60
 -10   5   7  181.64    8.67
  10   5  -5  327.29   16.50
 -10  -5  -5  312.84   14.53
   5  10  -5  313.53   15.50
  10   5  -5  328.98   15.40
   5  10  -5  344.05   17.61
 -10   5   5  325.64   14.55
   5  10  -3   30.49    3.83
  10   5  -3   31.90    2.93
  -5  10   3   30.08    2.26
 -10   5   3   31.77    2.09
  10   5  -1  320.94   16.28
  10   5  -1  334.71   16.95
  -5  10   1  345.20   15.47
   5  10  -1  359.09   18.18
 -10   5   1  341.77   15.28
  10  -5  -1  288.19   13.52
  10   5   1  306.76   15.32
  -5  10  -1  309.96   13.68
   5  10   1  284.09   16.08
 -10   5  -1  297.60   13.51
 -10  -5   3   30.65    1.95
  10  -5  -3   27.41    2.03
  10   5   3   26.84    3.27
  10  -5  -3   31.94    2.64
 -10   5  -5  337.07   15.36
  10  -5  -5  335.22   15.19
  10   5   5  327.89   17.64
 -10  -5   5  334.33   15.06
  10   5   7  167.14   11.31
  10  -5  -7  185.82    8.90
 -10   5  -7  187.94    9.28
 -10  -5   7  188.84    8.82
 -10  -5   9  125.26    6.41
 -10   5  -9  131.32    7.04
 -10   5 -11  194.94    9.78
  10  -5 -11  181.84    9.04
 -10   5 -13  137.05    7.39
 -10   5 -15   14.61    1.66
 -10   5 -17   68.51    3.72
  10   6 -20   23.82    1.42
  -6 -10 -20   24.47    1.56
  -6  10  20   19.93    1.40
 -10   6  20   23.25    1.47
 -10  -6 -18   21.11    1.69
  10   6 -18   16.29    1.52
  -6 -10 -18   21.12    1.70
  -6  10  18   20.67    1.60
 -10   6  18   16.76    1.53
   6  10 -18   22.24    1.67
   6  10 -16   20.93    1.84
 -10  -6 -16   19.17    1.86
  10   6 -16   18.65    1.74
  -6 -10 -16   18.99    1.87
  -6  10  16   18.68    1.76
 -10  -6 -14   41.69    3.04
  10   6 -14   47.06    3.08
  -6  10  14   42.13    3.07
 -10  -6 -12  124.30    6.52
   6  10 -12  119.95    8.48
   6  10 -12  122.91    6.40
   6  10 -10   71.19    4.48
 -10  -6 -10   67.70    4.37
  10   6 -10   70.50    4.34
  10   6 -10   64.03    5.77
   6  10  -8   74.73    4.74
  10   6  -8   72.56    4.47
 -10  -6  -8   65.21    4.08
   6  10  -8   64.73    6.02
  10   6  -8   67.80    5.67
   6  10  -6   31.81    3.10
 -10   6   6   29.32    2.18
  10   6  -6   28.24    2.86
  10   6  -6   29.48    3.47
   6  10  -6   34.65    4.26
 -10  -6  -6   27.34    2.13
   6  10  -4  144.53    8.29
  10   6  -4  145.83    8.34
  -6  10   4  150.32    7.59
   6  10  -4  152.42    9.90
 -10   6   4  159.80    7.41
  10   6  -2  121.54    7.82
  10   6  -2  135.36    8.26
  -6  10   2  137.12    6.79
   6  10  -2  138.11    9.19
 -10   6   2  135.96    6.59
  -6  10   0  110.40    5.55
  10   6   0   91.60    6.83
   6  10   0  108.69    7.83
  -6  10  -2  147.69    6.95
  10  -6  -2  135.00    6.68
 -10   6  -2  131.20    6.73
  10   6   2  147.03    8.83
 -10   6  -4  151.27    7.67
  10  -6  -4  151.10    7.47
  10   6   4  162.45   10.08
  -6  10  -4  156.76    7.82
 -10  -6   4  157.60    7.36
 -10   6  -6   30.55    2.56
  10  -6  -6   28.98    2.23
  10   6   6   33.52    4.39
 -10  -6   6   30.14    2.14
 -10   6  -8   80.67    5.03
 -10  -6   8   80.76    4.37
 -10   6 -10   73.57    4.87
 -10  -6  10   70.86    4.13
 -10   6 -12   99.10    5.95
 -10   6 -14   28.89    2.47
 -10   6 -16   18.19    1.58
  10   7 -19    4.60    0.74
 -10  -7 -19    4.86    0.80
  -7 -10 -19    4.22    0.82
  -7  10  19    2.98    0.63
 -10   7  19    3.28    0.69
   7  10 -17   20.50    1.65
 -10  -7 -17   18.15    1.66
  10   7 -17   16.88    1.57
  -7 -10 -17   18.72    1.68
  -7  10  17   17.83    1.55
 -10   7  17   17.25    1.53
 -10  -7 -15   26.86    2.13
  10   7 -15   18.34    1.90
  -7 -10 -15   23.95    2.06
  -7  10  15   24.35    2.06
 -10   7  15   22.52    1.93
   7  10 -13   38.11    2.91
 -10  -7 -13   38.38    2.91
  -7 -10 -13   34.87    2.79
  10   7 -11   12.37    2.68
  10   7 -11   14.70    1.93
   7  10 -11   14.86    1.96
 -10  -7 -11   17.61    2.24
   7  10 -11   12.09    2.93
   7  10  -9   53.50    3.82
 -10  -7  -9   47.71    3.36
  10   7  -9   49.53    3.63
   7  10  -9   49.06    5.15
  10   7  -9   54.86    5.15
   7  10  -7   71.28    4.86
 -10  -7  -7   61.08    3.75
  10   7  -7   66.01    4.53
   7  10  -7   70.94    6.19
 -10   7   7   66.86    3.84
  10   7  -7   59.17    5.39
   7  10  -5   28.88    3.24
   7  10  -5   26.37    3.77
  10   7  -5   33.07    3.27
 -10   7   5   31.56    2.26
 -10   7   3    7.28    1.09
   7  10  -3    6.42    2.17
  10   7  -3    5.19    2.04
  -7  10   3    7.00    1.26
  10   7  -3    7.30    1.89
  10   7  -1   11.71    2.49
  -7  10   1   12.85    1.57
   7  10  -1   12.56    2.85
  10   7   1   14.98    2.75
   7  10   1   12.45    3.05
  -7  10  -1   15.12    1.68
 -10   7  -1   11.62    1.46
 -10  -7   3    6.76    0.97
  -7  10  -3    7.30    1.34
 -10   7  -3    6.13    1.24
  10   7   3    9.33    2.46
  10  -7  -3    6.27    1.09
  10  -7  -5   34.04    2.37
  10   7   5   29.31    4.30
  -7  10  -5   33.33    2.85
 -10  -7   5   36.95    2.28
 -10   7  -5   35.59    2.74
 -10   7  -7   74.06    4.72
  10  -7  -7   72.05    4.05
 -10  -7   7   72.18    3.97
 -10   7  -9   42.56    3.59
 -10  -7   9   39.14    2.68
 -10   7 -11   11.12    2.08
 -10   7 -13   34.42    2.86
 -10   7 -15   21.21    1.83
  -8 -10 -20    8.72    0.77
 -10  -8 -20    8.31    0.78
 -10  -8 -18   17.80    1.45
  -8 -10 -18   21.90    1.53
  10   8 -18   17.89    1.41
   8  10 -18   19.43    1.45
  -8  10  18   16.66    1.31
 -10   8  18   15.82    1.30
  10   8 -16    4.91    1.01
 -10  -8 -16    5.69    1.16
  -8 -10 -16    5.23    1.11
  -8  10  16    4.34    0.97
 -10   8  16    4.50    0.90
   8  10 -14   20.74    1.96
 -10  -8 -14   22.08    2.04
  -8 -10 -14   23.37    2.01
 -10   8  14   18.74    1.82
   8  10 -12   36.88    2.86
  10   8 -12   34.20    2.72
  -8 -10 -12   38.18    2.87
 -10  -8 -12   32.64    2.86
   8  10 -10   65.26    4.30
 -10  -8 -10   61.32    3.92
  10   8 -10   61.17    4.08
  -8 -10 -10   60.02    3.94
  10   8 -10   55.62    5.66
   8  10  -8   57.37    4.19
 -10  -8  -8   47.20    3.23
  10   8  -8   51.92    3.88
   8  10  -8   56.06    5.44
  10   8  -8   55.42    5.26
   8  10  -6    6.04    2.52
 -10   8   6    4.54    1.16
   8  10  -6    6.10    2.20
  10   8  -6    4.91    1.99
  10   8  -6    6.10    2.17
  10   8  -4   33.61    3.67
  10   8  -4   41.03    4.19
   8  10  -4   29.50    3.54
  -8  10   4   33.64    2.61
 -10   8   4   35.58    2.52
   8  10  -4   40.83    4.55
   8  10  -2   15.43    3.07
  -8  10   2   20.07    1.91
  10   8  -2   22.81    3.30
   8  10   0   45.95    5.33
  10   8   0   52.66    5.08
  -8  10   0   51.19    3.32
 -10   8   0   49.59    3.14
  10   8   2   23.12    3.63
   8  10   2   22.02    3.84
  10  -8  -2   20.30    1.79
  -8  10  -2   25.02    2.13
 -10   8  -2   19.89    1.96
  10   8   4   35.24    4.78
  -8  10  -4   34.84    2.89
  10  -8  -4   37.59    2.47
   8 -10  -4   33.72    2.30
 -10   8  -4   44.45    2.95
 -10  -8   4   35.53    2.30
 -10   8  -6    4.68    1.59
 -10  -8   6    4.83    0.99
  -8  10  -6    3.48    1.54
  10  -8  -6    3.05    1.06
 -10  -8   8   51.01    3.13
  10  -8  -8   54.42    3.21
 -10   8  -8   51.78    4.12
 -10  -8  10   57.25    3.54
 -10   8 -10   64.02    4.66
 -10   8 -12   31.42    2.92
  10   9 -19    5.27    0.66
 -10  -9 -19    5.05    0.68
  -9 -10 -19    5.82    0.68
   9  10 -17    6.90    0.97
 -10  -9 -17    9.78    1.06
  -9 -10 -17    9.40    1.07
  10   9 -17    8.69    1.05
  -9 -10 -15   33.37    2.29
 -10  -9 -15   28.78    2.20
   9  10 -13    6.02    1.29
 -10  -9 -13    4.77    1.28
  -9 -10 -13    7.00    1.34
  10   9 -13    7.77    1.35
  10   9 -11   55.75    3.82
   9  10 -11   60.67    3.95
  -9 -10 -11   59.53    3.85
 -10  -9 -11   61.46    3.85
   9  10  -9    6.84    1.75
  10   9  -9    2.19    1.97
  10   9  -9    3.43    1.51
 -10  -9  -9    2.83    1.12
  -9 -10  -9    2.11    1.11
   9  10  -7   51.30    4.25
  10   9  -7   50.06    4.08
   9  10  -7   47.69    5.16
  10   9  -7   51.04    5.17
  10   9  -5   82.86    6.01
  -9  10   5   90.47    4.86
   9  10  -5   81.53    6.96
  10   9  -5   85.92    6.77
  10   9  -3   47.38    5.03
 -10   9   3   50.83    3.27
  -9  10   3   56.00    3.42
   9  10  -3   47.49    5.31
   9  10  -1  109.65    8.57
  -9  10   1  103.48    5.70
  10   9  -1  101.52    8.00
 -10   9   1  110.23    5.68
   9  10   1   87.03    8.17
  10   9   1   91.37    7.93
  -9  10  -1  101.30    5.50
 -10   9  -1  100.63    5.44
  -9 -10   3   48.46    2.82
 -10  -9   3   47.89    2.87
  10   9   3   42.72    5.64
  10  -9  -3   49.99    3.05
   9 -10  -3   51.51    3.05
 -10   9  -3   55.08    3.52
  -9  10  -3   50.44    3.58
  10  -9  -5   98.57    4.90
 -10  -9   5   89.27    4.71
   9 -10  -5   91.72    4.77
  -9 -10   5   86.16    4.63
  -9  10  -5   91.89    5.64
 -10   9  -5   98.51    5.62
 -10  -9   7   44.52    2.67
 -10   9  -7   42.17    3.61
 -10  -9   9    3.98    0.98
 -10   9  -9    6.81    1.95
 -10   9 -11   52.62    4.04
  10  10 -18    1.68    0.51
 -10 -10 -18    1.57    0.51
 -10 -10 -16   54.80    3.07
 -10 -10 -14   57.64    3.32
  10  10 -14   51.50    3.26
  10  10 -12    0.08    1.06
 -10 -10 -12    1.51    1.06
  10  10 -10  191.87    9.68
 -10 -10 -10  186.83    9.17
  10  10  -8  160.81    8.79
  10  10  -8  150.05   10.41
  10  10  -6   24.60    3.15
  10  10  -6   28.80    3.96
 -10  10   4  178.55    8.75
  10  10  -4  162.96   11.18
 -10  10   2  246.05   11.47
  10  10  -2  216.60   14.20
  10  10   0  515.96   28.66
 -10  10   0  569.75   25.19
  10 -10  -2  210.40   10.07
 -10  10  -2  225.20   10.60
  10 -10  -4  170.40    8.00
 -10  10  -4  171.53    8.79
 -10 -10   4  157.47    7.80
 -10 -10   6   29.07    2.05
 -10  10  -6   26.12    2.87
 -10 -10   8  131.41    6.12
 -10  10  -8   97.50    7.04
 -10  10 -10  132.37    7.70
 -11   0   1   80.63    4.05
 -11   0  -1   76.48    3.97
  11   0   1   76.28    4.28
  11   0   1   83.97    5.51
   0  11  -1   73.99    5.53
  11   0  -1   79.02    4.29
  11   0  -1   83.65    5.35
  11   0   3    8.49    1.27
 -11   0  -3    9.17    1.09
  11   0  -3   11.85    1.89
  11   0  -3    8.10    1.29
   0  11  -3   10.32    2.55
 -11   0   3   11.11    1.15
   0  11  -5  155.16    9.80
  11   0  -5  142.01    8.03
 -11   0   5  140.21    6.88
 -11   0  -5  137.98    6.90
 -11   0  -7   85.05    4.81
  11   0  -7   87.13    5.71
   0  11  -7   99.41    7.11
 -11   0   7   84.78    4.72
   0  11  -9  127.30    8.48
  11   0  -9  109.07    6.16
 -11   0   9  119.85    6.19
 -11   0  -9  113.30    6.25
   0  11 -11   55.48    5.39
  11   0 -11   54.73    3.70
   0  11  11   54.23    3.74
  11   0 -13   11.59    1.69
 -11   0 -13   13.16    1.91
   0  11  13   12.15    1.92
 -11   0 -15  164.60    7.98
  11   0 -15  152.49    7.80
   0  11  15  156.29    8.05
  11   0 -17    2.22    0.73
 -11   0 -17    1.84    0.94
 -11   0 -19   25.97    1.79
 -11   0 -21    0.44    0.40
   0 -11 -21    0.47    0.52
 -11   0  21    1.07    0.45
 -11  -1 -20   46.82    2.50
 -11   1  20   43.13    2.50
  11   1 -18    3.39    0.73
 -11  -1 -18    3.01    0.93
  11   1 -16   24.40    1.98
 -11  -1 -16   24.08    2.13
  -1  11  16   22.26    2.09
 -11  -1 -14   95.44    5.35
  11   1 -14  100.05    5.27
  -1  11  14   84.41    5.31
   1  11 -12   15.66    1.97
  11   1 -12   17.63    2.05
   1  11 -12   17.35    3.08
  -1  11  12   18.80    2.21
 -11  -1 -10  173.83    9.04
   1  11 -10  189.46    9.20
   1  11 -10  172.98   11.07
  11   1 -10  175.36    8.94
  11   1  -8   18.73    2.03
 -11  -1  -8   18.55    2.00
   1  11  -8   17.93    2.22
 -11   1   8   17.72    1.87
   1  11  -8   19.23    3.22
  11   1  -8   22.51    2.65
  11   1  -6   23.63    2.69
 -11  -1  -6   21.37    1.91
   1  11  -6   22.28    2.19
 -11   1   6   20.71    1.82
   1  11  -6   25.43    3.56
  11  -1   6   21.02    1.95
   1  11  -4  140.26    7.19
  11   1  -4  152.55    8.41
 -11   1   4  142.29    7.01
 -11  -1  -4  144.89    6.99
  11  -1   4  142.72    7.17
  11   1  -2  108.78    5.70
 -11  -1  -2  109.34    5.34
   1  11  -2  107.19    7.70
  11   1  -2  117.49    6.76
  11  -1   2  107.14    5.59
 -11   1   2  108.76    5.40
 -11   1   2  112.01    5.31
 -11   1   0  262.37   11.39
 -11   1   0  246.87   11.37
  11  -1   0  272.85   12.99
  11   1   0  269.60   13.02
  11   1   0  237.92   11.69
  11  -1   0  239.87   11.60
 -11  -1   2  122.82    5.71
  11  -1  -2  126.13    6.99
 -11   1  -2  112.33    5.66
  -1  11  -2  128.64    7.68
  11  -1  -2  110.47    5.87
  11   1   2  113.55    5.97
  -1  11  -4  157.07    9.75
  11  -1  -4  152.57    8.30
 -11  -1   4  148.52    7.09
 -11   1  -4  142.93    7.11
 -11   1  -6   16.15    1.63
  11  -1  -6   12.82    1.99
  -1  11  -6   15.07    3.05
 -11  -1   6   16.43    1.52
  -1  11  -8   28.19    3.83
 -11  -1   8   27.36    2.19
 -11   1  -8   26.53    2.33
  -1  11 -10  177.97   10.92
  11  -1 -10  170.83    8.59
   1  11  10  166.17    8.57
  11  -1 -12   18.42    2.06
 -11   1 -12   18.98    2.34
   1  11  12   18.93    2.23
  -1  11 -12   15.94    3.04
  11  -1 -14   96.97    5.28
   1  11  14   93.06    5.55
 -11   1 -14   97.81    5.44
  11  -1 -16   29.98    2.19
 -11   1 -16   32.74    2.39
 -11   1 -18    3.27    0.88
 -11  -1  20   52.85    2.75
 -11   1 -20   49.52    2.69
 -11  -2 -21    2.40    0.53
  -2 -11 -21    2.06    0.57
  11   2 -19   33.21    2.00
 -11  -2 -19   36.89    2.20
  11   2 -17    5.15    0.98
 -11  -2 -17    4.29    1.04
  -2  11  17    4.03    1.00
  11   2 -15   40.97    2.74
  -2  11  15   35.56    2.81
  11   2 -13   27.90    2.45
  -2  11  13   27.99    2.60
 -11  -2 -13   29.06    2.65
 -11  -2 -11  170.01    8.40
   2  11 -11  157.26    8.21
  11   2 -11  152.58    8.15
   2  11 -11  153.64   10.27
   2  11  -9   13.06    1.95
  11   2  -9   13.54    1.86
 -11  -2  -9   15.43    1.97
  11   2  -9   14.04    2.30
   2  11  -9   14.05    3.02
   2  11  -7    1.84    1.29
   2  11  -7    1.68    1.87
  11   2  -7    2.87    1.22
 -11  -2  -7    2.42    1.12
 -11   2   7    2.29    1.04
  11   2  -7    0.50    1.30
 -11  -2  -5  235.51   10.90
   2  11  -5  225.43   11.26
   2  11  -5  239.10   13.62
 -11   2   5  238.29   10.97
 -11   2   5  228.03   10.63
  11   2  -5  261.16   12.58
  11  -2   3   38.12    2.60
 -11  -2  -3   38.04    2.31
   2  11  -3   42.99    4.60
  11   2  -3   39.57    3.59
 -11   2   3   39.04    2.46
 -11   2   3   36.53    2.25
   2  11  -1   98.48    7.41
  11  -2   1  109.00    5.47
  11   2  -1  111.46    6.73
 -11   2   1  103.83    5.26
 -11   2   1  108.45    5.24
 -11   2  -1   91.38    4.65
  11  -2  -1   97.69    5.90
  11  -2  -1   94.00    4.86
  11   2   1   89.66    5.03
 -11   2  -3   32.18    2.24
  -2  11  -3   42.04    3.92
  11   2   3   36.97    3.64
  11  -2  -3   35.75    3.06
 -11  -2   3   34.10    2.18
  11  -2  -5  248.30   11.85
  -2  11  -5  268.70   14.59
 -11   2  -5  249.87   11.80
  11   2   5  262.45   13.90
  11  -2  -5  260.00   12.78
 -11  -2   5  255.14   11.70
  -2  11  -7    8.14    2.45
 -11  -2   7    4.87    1.07
  -2  11  -9   20.00    3.34
 -11   2  -9   12.12    1.84
  -2  11 -11  133.73    9.30
  11  -2 -11  140.56    7.31
 -11   2 -11  142.14    7.55
  11  -2 -13   29.70    2.41
 -11   2 -13   27.81    2.52
  11  -2 -15   30.46    2.29
 -11   2 -15   34.44    2.55
 -11   2 -17    4.24    0.99
 -11   2 -19   35.64    2.15
 -11  -2  21    1.85    0.44
 -11  -3 -20    6.10    0.79
 -11   3  20    5.38    0.76
 -11  -3 -18   22.18    1.71
  11   3 -18   20.08    1.56
  -3  11  18   19.30    1.65
  11   3 -16   22.39    1.86
  -3  11  16   17.73    1.84
  11   3 -14    8.93    1.50
 -11  -3 -14    8.50    1.60
  -3  11  14    9.16    1.53
   3  11 -12   45.10    3.28
 -11  -3 -12   48.03    3.47
  11   3 -12   41.64    3.20
  -3  11  12   44.38    3.42
   3  11 -10   85.31    5.09
 -11  -3 -10   86.30    5.06
  11   3 -10   83.42    4.95
  11   3 -10   79.55    6.11
   3  11 -10   75.12    6.63
 -11  -3  -8   41.12    2.94
   3  11  -8   43.37    3.41
  11   3  -8   43.65    4.07
   3  11  -8   36.95    4.37
  11   3  -8   40.88    3.11
   3  11  -6  114.02    6.43
 -11  -3  -6  119.29    5.91
 -11   3   6  109.26    5.60
  11   3  -6  116.55    7.30
  11   3  -6  106.27    6.16
   3  11  -6  124.63    8.35
 -11   3   6  120.67    6.08
  11   3  -4  156.26    8.52
   3  11  -4  129.22    7.17
   3  11  -4  133.57    9.19
 -11   3   4  137.22    6.96
 -11  -3  -4  145.10    6.83
 -11   3   4  144.00    6.75
  11  -3   2   76.36    4.20
  11   3  -2   75.47    5.29
   3  11  -2   65.92    6.17
 -11   3   2   76.43    3.93
   3  11   0  209.71   12.79
  11  -3   0  220.78   10.45
 -11   3   0  229.50   10.31
  11   3   2   82.42    5.99
 -11   3  -2   89.33    4.60
 -11  -3   2   88.46    4.53
  11  -3  -2   94.54    5.71
 -11   3  -4  149.13    7.21
  11   3   4  163.23    9.30
  11  -3  -4  144.48    7.22
  11  -3  -4  153.41    8.10
 -11  -3   4  139.41    7.02
  11  -3  -6  103.94    5.41
  11   3   6   93.28    7.14
 -11   3  -8   43.19    3.08
  11   3   8   40.24    4.58
 -11  -3   8   41.47    2.80
 -11   3 -10   82.59    5.14
  11   3  10   82.69    7.14
 -11  -3  10   92.20    4.98
  11  -3 -10   85.33    4.91
  11  -3 -12   38.36    2.84
 -11   3 -12   37.38    3.11
  11  -3 -14    5.13    1.08
 -11   3 -14    4.73    1.32
 -11   3 -16   19.09    1.77
 -11   3 -18   18.25    1.47
 -11  -3  20    7.69    0.77
 -11  -4 -21    1.75    0.47
 -11   4  21    2.13    0.45
  11   4 -19   31.45    1.96
  -4 -11 -19   35.12    2.14
  -4  11  19   31.61    2.02
 -11   4  19   34.21    2.09
 -11  -4 -19   36.06    2.12
  11   4 -17   38.36    2.45
  -4  11  17   35.54    2.49
  11   4 -15    4.65    1.17
 -11  -4 -15    6.14    1.35
  -4  11  15    6.42    1.30
   4  11 -13  112.07    6.02
 -11  -4 -13  116.72    6.13
  11   4 -13  113.63    6.02
  -4  11  13   98.98    6.11
   4  11 -11  115.34    6.11
 -11  -4 -11  117.23    6.15
  11   4 -11   99.20    5.88
   4  11 -11   93.94    7.80
  11   4 -11   94.74    7.29
   4  11  -9   10.62    1.94
  11   4  -9    8.38    1.67
  11   4  -9    8.80    2.20
 -11  -4  -9    6.93    1.58
   4  11  -9    8.53    2.52
 -11  -4  -7  202.67    9.72
   4  11  -7  205.78   10.48
  11   4  -7  212.92   11.53
  11   4  -7  205.88   10.09
   4  11  -7  203.03   12.16
 -11   4   7  194.29    9.43
 -11  -4  -5  362.42   15.95
   4  11  -5  338.95   16.62
  11   4  -5  371.79   17.95
  11   4  -5  343.00   16.52
   4  11  -5  336.38   18.62
 -11   4   5  351.33   16.25
 -11   4   5  355.06   15.87
  11   4  -3   88.06    5.38
   4  11  -3  104.39    7.55
 -11   4   3   91.70    4.72
  11   4  -3   92.28    6.27
   4  11  -1  281.11   15.99
  -4  11   1  276.85   13.15
  11  -4   1  286.97   13.10
 -11   4   1  287.50   12.91
  11   4   1  284.78   14.71
 -11   4  -1  282.14   12.87
 -11   4  -3   82.94    4.44
  11  -4  -3   86.94    5.28
  11  -4  -3   79.70    4.47
  11   4   3   82.71    6.09
  11   4   5  348.53   18.54
  11  -4  -5  360.98   16.36
 -11  -4   5  360.89   16.19
  11  -4  -7  251.21   11.44
 -11   4  -7  232.29   11.54
  11   4   7  226.43   13.81
 -11  -4   7  245.79   11.32
 -11   4  -9    7.81    1.70
  11   4   9    6.42    2.54
 -11  -4   9   10.10    1.44
  11  -4 -11  104.80    5.70
 -11   4 -11  104.71    6.07
  11  -4 -13  118.68    6.09
 -11   4 -13  113.82    6.39
 -11   4 -15    4.81    1.22
 -11   4 -17   30.58    2.11
 -11   4 -19   36.70    2.05
  11   5 -20   46.97    2.50
  -5 -11 -20   55.20    2.68
 -11   5  20   50.45    2.60
  11   5 -18    0.98    0.65
  -5 -11 -18    1.90    0.84
  -5  11  18    1.33    0.67
 -11   5  18    1.72    0.71
   5  11 -16   75.13    4.23
 -11  -5 -16   79.51    4.25
  11   5 -16   78.61    4.20
  -5  11  16   67.63    4.20
   5  11 -14   92.04    5.28
 -11  -5 -14   94.38    5.27
  11   5 -14   99.99    5.31
   5  11 -12   29.24    2.53
 -11  -5 -12   32.79    2.77
   5  11 -10  208.98    9.84
 -11  -5 -10  199.05    9.58
  11   5 -10  176.63    9.45
   5  11 -10  172.26   11.63
  11   5 -10  180.22   11.28
  11   5  -8  185.06   11.14
 -11  -5  -8  187.05    9.28
   5  11  -8  203.63   10.05
  11   5  -8  184.58    9.55
   5  11  -8  188.01   11.80
   5  11  -6   17.80    3.34
 -11  -5  -6   23.27    1.90
   5  11  -6   19.20    2.60
  11   5  -6   21.10    2.42
  11   5  -6   26.08    3.19
 -11   5   6   19.91    1.79
  11   5  -4  407.22   20.33
  11   5  -4  408.60   19.27
   5  11  -4  396.60   21.47
 -11   5   4  416.41   18.42
  11   5  -2  379.49   18.14
   5  11  -2  369.10   20.33
  -5  11   2  371.77   17.34
 -11   5   2  390.46   17.10
   5  11   0    8.16    2.85
  -5  11   0   10.98    1.43
 -11   5   0   10.89    1.32
  11  -5  -2  351.23   16.16
  11  -5  -2  372.34   17.21
 -11  -5   2  349.76   15.96
  11   5   2  381.96   18.43
 -11   5  -2  356.35   16.16
  11  -5  -4  406.95   18.24
  11   5   4  415.96   20.85
 -11  -5   4  400.94   18.09
 -11   5  -6   21.21    2.13
  11   5   6   28.39    3.72
 -11  -5   6   22.77    1.85
  11  -5  -6   21.30    1.94
 -11   5  -8  206.93   10.18
 -11  -5   8  203.11    9.66
  11   5   8  189.26   12.50
 -11   5 -10  197.57   10.30
 -11  -5  10  209.50    9.91
 -11   5 -12   25.37    2.53
  11  -5 -12   25.18    2.11
 -11   5 -14   87.53    4.99
 -11   5 -16   78.42    4.26
 -11   5 -18    1.09    0.53
  11   6 -19   35.18    2.00
  -6 -11 -19   35.40    2.09
 -11  -6 -19   36.10    2.07
 -11   6  19   32.18    1.98
 -11  -6 -17   41.18    2.52
  11   6 -17   40.21    2.48
  -6 -11 -17   38.22    2.50
  -6  11  17   36.14    2.42
 -11   6  17   37.31    2.41
   6  11 -17   41.40    2.53
  11   6 -15    6.75    1.20
 -11  -6 -15    5.46    1.26
  -6 -11 -15    4.95    1.24
   6  11 -13   92.42    5.32
 -11  -6 -13   98.61    5.42
   6  11 -11  126.50    6.83
 -11  -6 -11  131.85    6.74
  11   6 -11  123.23    6.58
  11   6 -11  112.90    8.36
  11   6  -9   22.91    3.41
   6  11  -9   25.56    2.70
  11   6  -9   24.00    2.44
 -11  -6  -9   24.33    2.25
   6  11  -9   26.00    3.84
  11   6  -7  125.02    8.38
  11   6  -7  119.28    6.97
 -11  -6  -7  118.85    6.31
   6  11  -7  137.81    7.57
   6  11  -7  126.42    9.06
 -11   6   7  127.18    6.32
   6  11  -5  140.24    8.35
  11   6  -5  145.33    8.16
   6  11  -5  145.90   10.15
 -11   6   5  152.59    7.30
  11   6  -5  144.86    9.13
   6  11  -3    7.33    2.51
  11   6  -3    4.66    1.96
 -11   6   3    5.78    1.11
  11   6  -3    4.91    1.85
  11   6  -1  136.07    8.76
  -6  11   1  147.61    7.27
   6  11  -1  144.79   10.15
 -11   6   1  139.02    6.97
  11   6   1  133.21    8.75
  -6  11  -1  140.61    7.04
  11  -6  -1  135.36    6.82
  11   6   3    5.47    2.16
  11  -6  -3    5.96    1.25
  -6  11  -3    5.88    1.28
 -11   6  -3    6.15    1.21
 -11  -6   3    6.96    1.04
 -11   6  -5  134.89    7.09
  11  -6  -5  133.98    6.84
  11   6   5  130.39    9.44
 -11  -6   5  142.47    6.75
 -11   6  -7  149.40    7.74
  11   6   7  123.70    9.97
 -11  -6   7  145.99    7.22
  11  -6  -7  150.34    7.37
 -11   6  -9   32.06    2.84
 -11  -6   9   28.38    2.27
 -11   6 -11  113.32    6.65
  11  -6 -11  117.06    6.03
 -11   6 -13   91.07    5.28
 -11   6 -15    9.49    1.29
 -11   6 -17   32.98    2.02
 -11  -7 -20   11.44    0.87
 -11  -7 -18   11.31    1.15
  11   7 -18   11.03    1.10
  -7 -11 -18   12.87    1.21
 -11   7  18   10.79    1.03
  11   7 -16    2.71    0.94
 -11  -7 -16    4.98    1.04
  -7 -11 -16    4.50    1.06
 -11   7  16    2.83    0.81
   7  11 -14   14.14    1.73
 -11  -7 -14   16.84    1.82
  -7 -11 -14   15.72    1.74
   7  11 -12   40.26    2.97
 -11  -7 -12   41.19    3.13
  11   7 -12   33.55    2.80
  -7 -11 -12   36.18    2.84
  11   7 -10   27.86    3.99
   7  11 -10   39.23    3.23
 -11  -7 -10   39.06    2.87
  11   7 -10   36.36    2.88
   7  11 -10   36.22    4.42
   7  11  -8   17.89    3.30
   7  11  -8   16.10    2.54
  11   7  -8    9.16    2.50
 -11  -7  -8   14.90    1.67
  11   7  -8   12.03    2.05
   7  11  -6    9.56    2.38
 -11   7   6   11.11    1.50
  11   7  -6   10.96    2.13
  11   7  -6   10.70    2.54
   7  11  -6    9.82    2.94
   7  11  -4   12.65    3.04
 -11   7   4   13.06    1.47
  11   7  -4   12.59    2.36
  11   7  -4   10.48    2.42
  11   7  -2   25.44    3.42
   7  11  -2   32.43    4.50
  -7  11   2   30.74    2.44
 -11   7   2   29.18    2.19
   7  11   0   18.88    3.79
  11   7   0   27.96    3.59
  -7  11   0   26.34    2.25
  11  -7  -2   28.85    2.29
 -11  -7   2   32.81    2.14
  11   7   2   30.19    3.98
  -7  11  -2   31.63    2.61
 -11   7  -2   31.75    2.36
  11  -7  -4    5.02    1.23
 -11   7  -4    6.43    1.40
  11   7   4    4.73    2.37
  -7  11  -4    4.30    1.42
 -11  -7   4    6.31    1.06
  11  -7  -6    7.70    1.37
 -11   7  -6    8.67    1.74
  11   7   6    9.74    3.14
 -11  -7   6   10.70    1.31
 -11   7  -8   12.99    2.17
 -11  -7   8   15.02    1.60
 -11   7 -10   46.85    3.65
 -11  -7  10   38.83    2.78
 -11   7 -12   30.40    2.79
 -11   7 -14   13.89    1.63
  11   8 -19   11.72    0.91
  -8 -11 -19   10.04    0.92
 -11  -8 -19   12.66    0.95
  11   8 -17   11.86    1.14
  -8 -11 -17   11.99    1.18
 -11  -8 -17   10.52    1.13
 -11   8  17   10.26    1.01
   8  11 -15   28.98    2.15
 -11  -8 -15   28.41    2.16
  -8 -11 -15   27.47    2.14
 -11   8  15   26.60    1.98
   8  11 -13    3.70    1.31
  11   8 -13    3.48    1.16
 -11  -8 -13    5.36    1.37
  -8 -11 -13    3.95    1.25
   8  11 -11   12.71    1.85
  11   8 -11   14.25    1.84
 -11  -8 -11   16.43    1.86
  -8 -11 -11   15.37    1.81
   8  11  -9   11.11    2.10
  11   8  -9    9.43    2.43
  11   8  -9    8.83    1.74
 -11  -8  -9    9.06    1.45
   8  11  -9   11.68    2.85
   8  11  -7   37.21    3.66
  11   8  -7   34.83    3.24
   8  11  -7   30.20    4.28
  11   8  -5   87.26    6.66
   8  11  -5   65.64    5.66
  11   8  -5   84.33    5.79
   8  11  -5   84.09    7.36
 -11   8   5   89.55    4.71
  11   8  -3   87.33    6.89
  -8  11   3  105.07    5.34
 -11   8   3   95.43    5.10
   8  11  -3  105.95    8.27
  11   8  -1   50.47    4.99
   8  11  -1   40.63    5.44
  -8  11   1   50.26    3.40
  11  -8  -1   54.12    3.30
  11   8   1   57.35    5.51
  -8  11  -1   53.10    3.60
 -11   8  -1   50.77    3.34
 -11  -8   3   99.29    5.00
  11   8   3   99.57    8.13
  11  -8  -3   95.04    5.16
  -8  11  -3   99.25    5.77
 -11   8  -3   95.59    5.43
  11   8   5   60.35    6.78
  11  -8  -5   67.86    3.88
  -8  11  -5   59.80    4.52
 -11  -8   5   67.95    3.72
 -11   8  -5   68.48    4.36
  11  -8  -7   23.51    2.04
 -11  -8   7   26.84    2.00
 -11   8  -7   25.56    2.76
 -11   8  -9    8.33    2.10
 -11  -8   9    9.74    1.36
 -11   8 -11   18.40    2.32
 -11   8 -13    4.92    1.30
  11   9 -18    1.89    0.54
 -11  -9 -18    0.97    0.51
  -9 -11 -18    0.97    0.50
   9  11 -16   11.93    1.26
  -9 -11 -16   13.80    1.28
 -11  -9 -16   12.83    1.27
 -11  -9 -14   33.84    2.43
  11   9 -14   32.74    2.39
  -9 -11 -14   36.69    2.45
   9  11 -14   34.87    2.46
   9  11 -12   11.52    1.66
  11   9 -12   13.32    1.65
 -11  -9 -12   12.43    1.65
  -9 -11 -12   13.39    1.64
 -11  -9 -10   66.97    4.04
   9  11 -10   71.00    4.68
  11   9 -10   72.13    4.45
   9  11  -8  103.73    6.32
  11   9  -8   89.77    5.79
   9  11  -8   90.30    7.56
   9  11  -6   41.65    4.38
  11   9  -6   63.98    4.55
   9  11  -6   58.89    5.95
  11   9  -6   49.30    5.20
  -9  11   4    5.26    1.39
   9  11  -4    3.56    2.30
  11   9  -4    4.25    1.94
  11   9  -4    7.33    2.33
  11   9  -2   78.81    6.88
  -9  11   2   96.99    5.09
 -11   9   2   78.67    4.77
   9  11  -2   89.47    7.86
  11   9   0  329.61   19.50
  -9  11   0  371.70   16.82
 -11   9   0  368.34   16.62
   9  11   0  322.92   20.41
  -9 -11   2   62.95    3.55
 -11  -9   2   68.49    3.73
  11   9   2   57.35    6.45
  11  -9  -2   65.48    3.93
  -9  11  -2   78.39    4.55
 -11   9  -2   71.19    4.25
 -11  -9   4    5.71    1.00
  11  -9  -4    6.62    1.24
 -11   9  -4    5.06    1.54
  -9  11  -4    4.03    1.63
   9 -11  -4    6.15    1.07
 -11  -9   6   66.52    3.65
  11  -9  -6   65.52    3.74
 -11   9  -6   72.65    4.55
 -11  -9   8   81.81    4.44
 -11   9  -8   81.18    5.45
 -11   9 -10   65.47    4.68
 -11   9 -12   10.81    1.65
 -10 -11 -17   46.27    2.44
 -11 -10 -17   46.33    2.45
  11  10 -15   51.24    3.00
  10  11 -15   51.84    3.03
 -10 -11 -15   53.20    2.99
 -11 -10 -15   55.16    3.01
 -11 -10 -13   70.11    3.82
  10  11 -13   64.44    3.84
 -10 -11 -13   64.77    3.73
  11  10 -13   62.70    3.78
 -11 -10 -11  141.35    7.27
  10  11 -11  152.11    7.68
  11  10 -11  147.85    7.57
  10  11  -9    3.40    1.59
  11  10  -9    2.20    1.39
  10  11  -7  121.21    7.79
  11  10  -7  142.87    7.77
  10  11  -7  121.35    9.29
  11  10  -7  120.52    8.94
  10  11  -5  307.69   16.10
  11  10  -5  292.59   15.46
  10  11  -3   43.36    5.55
  11  10  -3   43.70    5.05
 -10  11   3   49.97    3.36
 -11  10   3   46.75    3.23
  11  10  -1  243.66   15.68
 -10  11   1  275.48   12.83
 -11  10   1  271.35   12.67
  10  11  -1  238.72   16.29
  11  10   1  245.84   16.72
 -10 -11   1  265.24   12.64
 -11 -10   1  280.59   12.74
  11 -10  -1  278.10   12.98
 -10  11  -1  296.38   13.52
 -11  10  -1  297.77   13.36
  11 -10  -3   46.62    3.05
  10 -11  -3   52.98    3.09
 -10  11  -3   50.55    3.78
 -11  10  -3   53.03    3.69
 -10 -11   3   46.05    2.81
 -11 -10   3   47.07    2.89
  11 -10  -5  318.01   14.05
  10 -11  -5  304.79   13.92
 -10 -11   5  301.28   13.81
 -11 -10   5  310.09   13.91
 -10  11  -5  270.16   14.93
 -11  10  -5  315.54   15.00
 -11 -10   7  126.62    5.40
 -11  10  -7  114.21    6.58
 -10  11  -9    0.27    1.28
 -11  10  -9    2.66    1.66
 -11 -10   9    3.13    0.91
 -11  10 -11  125.04    6.86
 -11 -11 -16   52.12    2.74
  11  11 -16   56.97    2.88
 -11 -11 -14  115.38    5.55
  11  11 -14  111.64    5.64
  11  11 -12    5.81    1.17
  11  11 -10  138.71    7.35
  11  11  -8  148.22    8.26
  11  11  -6   25.31    3.06
  11  11  -4  205.33   13.18
 -11  11   2  196.16    9.35
  11  11  -2  153.14   12.09
 -11 -11   0  292.70   13.44
  11 -11   0  303.87   13.76
 -11  11   0  303.37   14.11
  11 -11  -2  168.79    8.27
 -11  11  -2  179.68    8.95
 -11 -11   2  165.59    8.03
  11 -11  -4  231.64   10.61
 -11  11  -4  212.88   11.40
 -11 -11   4  224.40   10.42
 -11 -11   6   41.11    2.47
 -11  11  -6   29.49    3.27
 -11  11  -8  107.01    6.65
 -12   0   0  672.79   29.23
 -12   0   0  667.85   29.32
  12   0   0  647.82   29.61
  12   0   0  710.31   31.23
 -12   0  -2   12.40    1.23
  12   0   2    9.57    2.21
  12   0  -2   14.89    2.18
  12   0   2    9.06    1.49
 -12   0   2   11.89    1.25
  12   0  -2   13.66    1.61
  12   0   4   21.91    2.10
 -12   0  -4   24.08    1.88
  12   0  -4   25.19    2.76
   0  12  -4   27.54    3.85
 -12   0   4   24.77    1.92
   0  12  -6  262.90   15.24
  12   0  -6  269.54   13.78
 -12   0  -6  268.15   12.50
 -12   0   6  264.91   12.39
  12   0  -8   15.61    1.95
 -12   0  -8   14.82    1.84
   0  12  -8   13.31    2.89
 -12   0   8   16.56    1.84
  12   0  -8   16.03    2.31
  12   0 -10   82.04    4.99
   0  12 -10   86.35    6.98
 -12   0 -10   87.97    5.16
   0  12 -12    5.59    2.14
  12   0 -14   22.69    2.11
 -12   0 -14   27.49    2.34
  12   0 -16   16.41    1.53
 -12   0 -16   15.74    1.63
 -12   0 -18    6.44    0.98
 -12   0 -20   19.48    1.27
 -12   0  20   19.36    1.29
 -12  -1 -19   48.75    2.68
  12   1 -17   15.15    1.39
 -12  -1 -17   14.73    1.47
 -12  -1 -15   49.13    3.19
  12   1 -15   46.91    3.03
  -1  12  15   44.02    3.21
  12   1 -13   37.46    2.79
  -1  12  13   29.99    2.82
 -12  -1 -11  203.84   10.01
   1  12 -11  200.56   12.15
  12   1 -11  190.00    9.81
  12   1  -9   22.87    2.33
 -12  -1  -9   24.08    2.34
   1  12  -9   27.14    3.74
  12   1  -9   19.54    2.75
 -12  -1  -7   34.36    2.65
  12   1  -7   34.66    3.46
   1  12  -7   38.53    4.44
 -12   1   7   34.86    2.62
   1  12  -5  346.18   18.14
  12   1  -5  346.94   16.63
 -12   1   5  320.61   14.94
 -12  -1  -5  329.36   14.94
  12  -1   5  318.08   15.09
   1  12  -3   58.08    5.66
  12   1  -3   63.23    4.76
 -12  -1  -3   59.32    3.39
 -12   1   3   63.21    3.50
  12  -1   3   60.88    3.73
 -12   1   3   60.00    3.24
 -12  -1  -1  245.40   11.19
  12   1  -1  244.06   11.69
  12  -1   1  269.93   13.25
  12  -1   1  247.93   11.60
  12   1  -1  254.54   13.03
 -12   1   1  237.39   11.31
 -12   1   1  248.76   11.22
 -12   1  -1  262.39   11.70
 -12  -1   1  255.11   11.72
 -12   1  -1  258.26   11.71
  12  -1  -1  270.59   13.34
  12   1   1  245.64   12.07
  12   1   1  267.28   13.67
  12  -1  -1  245.82   11.96
 -12   1  -3   58.01    3.33
  -1  12  -3   58.29    5.21
  12   1   3   54.39    3.64
  12  -1  -3   64.27    4.63
  12  -1  -3   56.09    3.54
 -12  -1   3   62.05    3.38
 -12   1  -5  331.07   15.43
  -1  12  -5  364.44   18.78
  12  -1  -5  337.23   16.69
 -12  -1   5  338.48   15.34
  12  -1  -7   40.21    3.50
  -1  12  -7   37.55    4.54
 -12  -1   7   35.12    2.55
 -12   1  -7   36.86    2.69
 -12   1  -9   27.08    2.59
  12  -1  -9   29.64    2.57
  -1  12  -9   29.42    4.09
 -12  -1   9   27.80    2.37
  -1  12 -11  125.39    9.58
  12  -1 -11  158.96    7.83
 -12   1 -13   40.84    3.13
  12  -1 -13   40.21    2.95
 -12   1 -15   53.64    3.41
  12  -1 -15   53.26    3.30
 -12   1 -17   10.35    1.23
 -12   1 -19   52.02    2.79
 -12   2  20   20.90    1.37
 -12  -2 -20   21.11    1.36
 -12  -2 -18   26.27    1.86
  12   2 -18   27.53    1.78
  12   2 -16    8.13    1.18
  -2  12  16    6.78    1.21
 -12  -2 -14   25.29    2.36
  12   2 -14   24.57    2.12
  -2  12  14   20.06    2.21
 -12  -2 -12   90.80    5.14
  12   2 -12   83.38    4.91
   2  12 -10   83.21    5.22
   2  12 -10   92.68    7.18
  12   2 -10   87.94    5.17
 -12  -2 -10   87.60    5.12
 -12  -2  -8   49.68    3.37
   2  12  -8   50.28    3.74
  12   2  -8   45.31    4.29
   2  12  -8   52.06    5.23
 -12  -2  -6  371.64   16.70
   2  12  -6  358.42   17.13
  12   2  -6  371.44   18.33
  12  -2   6  364.78   16.84
  12   2  -6  353.51   16.92
   2  12  -6  359.55   19.44
 -12   2   6  374.74   16.77
 -12   2   4    3.30    0.75
  12  -2   4    5.65    1.37
 -12   2   4    3.45    0.96
 -12  -2  -4    2.29    0.90
  12   2  -4    3.37    1.49
   2  12  -4    7.02    2.43
 -12  -2  -2  108.05    5.34
   2  12  -2  104.38    8.04
  12  -2   2  109.93    5.74
  12   2  -2  118.18    7.12
 -12   2   2  101.42    5.47
 -12   2   2  112.26    5.36
  12  -2   0  822.68   36.47
  12  -2   0  774.98   34.97
  12   2   0  792.33   36.65
 -12   2   0  802.70   34.70
 -12  -2   2  107.44    5.39
  12  -2  -2  108.55    6.67
 -12   2  -2  111.22    5.47
  12   2   2  101.86    5.81
  12  -2  -2  107.92    5.65
  12   2   2  104.65    7.15
 -12  -2   4    2.34    0.86
  12  -2  -4    2.56    1.23
  -2  12  -4    1.14    1.76
 -12   2  -4    2.85    0.94
  12   2   4    1.67    1.67
  -2  12  -6  397.61   20.58
  12   2   6  370.24   19.65
 -12  -2   6  379.01   17.07
 -12   2  -6  370.89   17.21
  -2  12  -8   56.56    5.55
  12   2   8   49.81    5.30
 -12  -2   8   48.90    3.24
  12  -2 -10   84.19    4.89
  12   2  10   84.28    7.18
  12  -2 -12   97.44    5.41
 -12   2 -12   93.66    5.58
 -12   2 -14   21.50    2.11
  12  -2 -14   20.65    1.93
  12  -2 -16    9.79    1.12
 -12   2 -16    9.38    1.33
 -12   2 -18   33.17    2.09
 -12   2 -20   19.12    1.19
 -12  -2  20   19.00    1.24
  12   3 -19   28.19    1.68
  -3 -12 -19   29.27    1.85
 -12   3  19   26.55    1.77
 -12  -3 -19   29.59    1.80
  12   3 -17    6.21    1.00
  12   3 -15   12.21    1.53
 -12  -3 -15   14.57    1.69
  -3  12  15   11.82    1.59
   3  12 -13   24.35    2.24
  12   3 -13   20.23    2.11
 -12  -3 -13   23.99    2.35
 -12  -3 -11  110.51    6.07
  12   3 -11  104.66    5.92
   3  12 -11   97.87    7.71
   3  12 -11  104.45    6.01
 -12  -3  -9   49.82    3.50
   3  12  -9   55.53    5.34
   3  12  -9   57.30    4.04
 -12  -3  -7   56.70    3.50
   3  12  -7   56.18    4.14
  12   3  -7   51.39    4.67
  12   3  -7   54.38    3.71
   3  12  -7   57.07    5.46
 -12   3   7   54.97    3.15
  12  -3   5  279.15   12.87
 -12  -3  -5  275.95   12.53
   3  12  -5  267.81   13.08
  12   3  -5  267.56   14.32
  12   3  -5  252.81   12.94
   3  12  -5  261.20   15.33
 -12   3   5  272.13   12.76
 -12   3   5  277.95   12.40
 -12  -3  -3  382.99   17.22
  12  -3   3  398.15   17.65
  12   3  -3  399.57   19.30
   3  12  -3  393.82   20.66
 -12   3   3  377.05   17.47
 -12   3   3  383.46   17.24
  12  -3   1  174.56    8.38
  12   3  -1  159.21    9.67
 -12   3   1  172.05    8.10
 -12  -3   1  184.89    8.48
  12  -3  -1  176.37    9.86
  12  -3  -1  180.91    8.69
  12   3   1  168.94   10.21
 -12   3  -1  175.13    8.46
  12   3   3  345.64   18.02
 -12   3  -3  347.02   15.96
  12  -3  -3  368.57   17.26
 -12  -3   3  351.31   15.87
 -12   3  -5  280.08   13.17
  12   3   5  288.53   15.52
  12  -3  -5  290.36   13.23
 -12  -3   5  277.79   13.00
  12   3   7   48.14    5.13
  12   3   9   39.59    5.04
 -12  -3   9   48.14    3.17
 -12   3  -9   46.86    3.47
 -12   3 -11   82.77    5.28
  12  -3 -11   95.97    5.18
  12  -3 -13   18.36    1.85
 -12   3 -13   16.88    1.98
  12  -3 -15    8.03    1.15
 -12   3 -15    8.37    1.37
 -12   3 -17    5.27    0.90
 -12   3 -19   34.68    1.96
 -12  -4 -20   19.27    1.21
  -4 -12 -20   16.72    1.20
 -12   4  20   16.60    1.14
  12   4 -18   17.10    1.38
  -4 -12 -18   18.96    1.51
 -12   4  18   19.72    1.46
 -12  -4 -16   28.68    2.15
  12   4 -16   27.95    2.12
  12   4 -14   16.06    1.75
   4  12 -14   14.08    1.67
 -12  -4 -14   13.28    1.78
 -12  -4 -12   33.96    2.78
  12   4 -12   29.54    2.53
   4  12 -12   28.61    2.59
 -12  -4 -10   22.93    2.30
   4  12 -10   23.44    2.56
  12   4 -10   23.73    3.28
   4  12 -10   20.55    3.47
  12   4  -8   80.32    6.27
 -12  -4  -8   81.44    4.72
   4  12  -8   87.95    5.46
  12   4  -8   82.44    5.06
   4  12  -8   78.86    6.87
  12   4  -6  214.00   11.45
   4  12  -6  194.52   10.26
  12   4  -6  194.60    9.95
 -12  -4  -6  195.42    9.41
   4  12  -6  191.33   12.11
 -12   4   6  196.28    9.26
  12   4  -4  149.97    8.05
 -12  -4  -4  149.70    7.29
  12   4  -4  167.19    9.35
   4  12  -4  145.91   10.17
 -12   4   4  151.89    7.32
  12   4  -2  202.23   10.44
  12  -4   2  206.52    9.93
   4  12  -2  192.13   12.58
 -12   4   2  210.94    9.68
  12  -4   0  381.31   17.04
  12   4   0  362.64   18.82
 -12   4   0  373.09   16.87
 -12  -4   2  187.33    8.99
  12  -4  -2  200.86   10.32
  12   4   2  202.67   11.28
 -12   4  -2  188.56    9.11
 -12   4  -4  150.78    7.45
  12  -4  -4  150.85    7.52
  12   4   4  145.48    9.55
  12   4   6  181.98   11.58
  12  -4  -6  201.12    9.33
 -12  -4   6  183.34    9.04
 -12   4  -8   89.43    5.04
 -12  -4   8   83.08    4.68
 -12   4 -10   25.99    2.65
  12  -4 -10   25.69    2.30
 -12  -4  10   26.07    2.36
 -12   4 -12   22.77    2.42
  12  -4 -12   21.52    2.06
  12  -4 -14   16.92    1.62
 -12   4 -14   17.35    1.82
 -12   4 -16   29.00    2.13
 -12   4 -18   21.06    1.45
  12   5 -19   28.04    1.67
  -5 -12 -19   28.75    1.75
 -12   5  19   28.28    1.67
 -12  -5 -19   27.58    1.73
 -12  -5 -17   28.90    1.95
  12   5 -17   27.64    1.92
  -5 -12 -17   26.27    1.95
 -12   5  17   27.49    1.87
   5  12 -15    5.78    1.22
  12   5 -15    3.27    1.11
 -12  -5 -15    4.08    1.15
 -12  -5 -13   62.30    4.00
   5  12 -13   62.01    3.93
  12   5 -13   61.08    3.78
 -12  -5 -11   78.29    4.47
   5  12 -11   74.42    4.56
   5  12 -11   52.24    5.67
  12   5 -11   56.62    5.45
   5  12  -9   11.83    2.17
  12   5  -9   10.25    2.52
  12   5  -9   11.16    1.81
 -12  -5  -9    8.70    1.61
   5  12  -9   11.21    2.86
   5  12  -7   95.22    6.22
  12   5  -7   97.13    5.71
  12   5  -7   96.40    7.03
   5  12  -7   99.43    7.74
 -12   5   7   94.88    5.06
 -12  -5  -7   97.13    5.19
  12   5  -5  156.67    9.56
   5  12  -5  143.61    8.40
  12   5  -5  155.42    8.37
   5  12  -5  137.64   10.13
 -12   5   5  163.12    7.59
   5  12  -3   27.67    4.13
  12   5  -3   21.19    2.68
 -12   5   3   27.68    2.03
  12  -5   1  156.96    7.70
  12   5  -1  151.11    8.54
  12   5  -1  163.47    9.53
   5  12  -1  128.88   10.33
 -12   5   1  156.18    7.50
  12  -5  -1  135.87    7.89
  12   5   1  140.30    8.77
 -12   5  -1  133.34    6.73
  12   5   3   30.77    3.77
  12  -5  -3   29.47    2.34
 -12   5  -3   29.69    2.31
 -12  -5   3   30.33    2.19
  12  -5  -5  165.21    8.22
  12   5   5  161.22   10.64
 -12  -5   5  168.42    8.06
 -12   5  -7  102.04    5.94
 -12  -5   7  112.31    5.66
  12   5   7  103.43    8.29
 -12  -5   9    8.76    1.52
 -12   5  -9   10.49    1.92
 -12   5 -11   79.02    4.96
  12  -5 -11   80.79    4.60
 -12   5 -13   53.56    3.62
 -12   5 -15    5.18    1.19
 -12   5 -17   25.53    1.72
  -6 -12 -18    9.84    0.98
 -12  -6 -18    9.49    0.97
  12   6 -18    7.53    0.88
 -12   6  18    7.78    0.84
  12   6 -16   10.68    1.24
  -6 -12 -16    9.91    1.25
 -12   6  16   11.20    1.18
 -12  -6 -16   12.87    1.32
 -12  -6 -14   51.98    3.25
   6  12 -14   49.66    3.20
  12   6 -14   47.00    3.12
  -6 -12 -14   44.46    3.10
 -12  -6 -12   80.81    4.56
   6  12 -12   78.38    4.48
 -12  -6 -10   91.87    5.16
   6  12 -10   95.30    5.71
  12   6 -10   88.97    5.24
   6  12 -10   78.50    6.92
  12   6 -10   88.82    6.97
 -12  -6  -8   37.46    2.67
   6  12  -8   38.73    3.58
  12   6  -8   33.35    2.96
   6  12  -8   27.53    4.12
  12   6  -8   36.85    4.20
   6  12  -6   28.35    3.14
  12   6  -6   18.47    2.57
  12   6  -6   22.44    3.33
 -12   6   6   22.95    1.98
   6  12  -6   33.42    4.32
  12   6  -4   59.76    4.46
   6  12  -4   56.48    6.02
 -12   6   4   63.13    3.61
  12   6  -2   63.77    5.20
   6  12  -2   56.54    6.18
  12   6  -2   51.76    4.44
 -12   6   2   58.95    3.43
  -6  12   0   10.16    1.69
  12   6   0   11.07    2.54
 -12   6   0   11.34    1.43
 -12  -6   2   73.45    3.83
  12   6   2   70.96    5.98
  -6  12  -2   64.21    4.15
  12  -6  -2   65.80    3.96
  12  -6  -4   49.26    3.18
  12   6   4   46.46    5.12
 -12  -6   4   47.77    2.95
 -12   6  -4   46.68    3.20
  12  -6  -6   22.35    2.15
 -12  -6   6   22.91    2.00
  12   6   6   21.80    3.90
 -12   6  -6   26.97    2.41
 -12   6  -8   48.87    3.51
 -12  -6   8   43.06    2.97
 -12   6 -10   88.96    5.48
 -12   6 -12   62.01    4.09
 -12   6 -14   43.19    2.94
 -12   6 -16    9.82    1.09
 -12  -7 -19    8.78    0.78
 -12  -7 -17   12.15    1.15
  12   7 -17   14.50    1.20
  -7 -12 -17   12.76    1.17
 -12   7  17   11.27    1.03
 -12  -7 -15   26.05    1.97
   7  12 -15   25.10    2.01
  12   7 -15   26.45    1.99
  -7 -12 -15   24.90    1.94
 -12   7  15   21.55    1.76
   7  12 -13   10.68    1.58
  12   7 -13    9.16    1.44
 -12  -7 -13    9.68    1.57
  -7 -12 -13    9.32    1.46
   7  12 -11   13.86    1.89
  12   7 -11    9.15    1.52
 -12  -7 -11   10.24    1.65
  -7 -12 -11   11.65    1.62
 -12  -7  -9   31.40    2.43
   7  12  -9   32.97    3.20
  12   7  -9   29.65    2.69
  12   7  -9   30.51    3.90
   7  12  -9   30.31    4.10
   7  12  -7   49.89    4.49
  12   7  -7   56.24    4.00
   7  12  -7   55.62    5.72
  12   7  -7   47.43    4.86
  12   7  -5   50.10    4.04
 -12   7   5   50.00    3.16
   7  12  -5   43.86    5.32
   7  12  -3   14.72    3.76
  12   7  -3   14.07    2.44
 -12   7   3   14.96    1.63
  12   7  -3   15.24    2.80
   7  12  -1   17.16    4.22
  -7  12   1   14.11    1.82
 -12   7   1   13.76    1.56
  12   7  -1   13.27    2.75
  12  -7  -1   14.83    1.73
  12   7   1   12.31    2.83
 -12  -7   1   16.21    1.52
  -7  12  -1   12.04    1.83
  12  -7  -3   23.64    2.06
  -7  12  -3   22.54    2.34
 -12   7  -3   22.94    2.12
 -12  -7   3   21.69    1.78
  12  -7  -5   33.41    2.59
  12   7   5   32.45    4.63
 -12  -7   5   34.21    2.36
 -12   7  -5   35.02    2.80
  12  -7  -7   54.50    3.42
 -12  -7   7   49.98    3.23
 -12   7  -7   57.10    3.85
 -12  -7   9   35.87    2.56
 -12   7  -9   36.28    3.18
 -12   7 -11   12.71    1.94
 -12   7 -13    8.18    1.49
 -12   7 -15   20.49    1.64
  12   8 -18    5.06    0.66
 -12  -8 -18    5.14    0.67
  -8 -12 -18    5.44    0.64
   8  12 -16    5.99    0.97
  12   8 -16    6.90    0.98
 -12  -8 -16    6.95    0.96
  -8 -12 -16    6.40    0.94
  12   8 -14   16.38    1.59
  -8 -12 -14   14.29    1.51
   8  12 -14   15.32    1.58
 -12  -8 -14   14.46    1.56
  -8 -12 -12   15.25    1.62
   8  12 -12   10.57    1.74
  12   8 -12    9.51    1.49
 -12  -8 -12   11.97    1.65
 -12  -8 -10   34.99    2.62
   8  12 -10   40.47    3.38
  12   8 -10   37.55    2.91
  12   8  -8   12.86    2.70
   8  12  -8   17.21    2.58
  12   8  -8   14.90    2.07
   8  12  -8   14.41    3.04
   8  12  -6    6.62    2.36
 -12   8   6    6.42    1.31
   8  12  -6    5.35    1.99
  12   8  -6    6.98    1.93
  12   8  -4   92.97    7.17
  12   8  -4   87.01    6.17
   8  12  -4   90.27    8.21
 -12   8   4   99.10    5.22
   8  12  -2   25.97    4.63
  -8  12   2   31.44    2.68
  12   8  -2   25.12    3.64
 -12   8   2   29.82    2.34
  12   8   0   26.15    3.85
  -8  12   0   34.62    2.85
  12  -8   0   31.76    2.53
 -12  -8   2   21.26    1.79
  12   8   2   19.00    3.57
  12  -8  -2   22.27    2.10
  -8  12  -2   25.20    2.57
 -12   8  -2   20.62    2.12
  12  -8  -4   90.38    4.92
  12   8   4   79.60    7.67
  -8  12  -4   86.40    5.66
 -12   8  -4   91.60    5.22
 -12  -8   4   90.32    4.74
  12  -8  -6   13.21    1.55
 -12   8  -6   12.32    1.99
 -12  -8   6   13.20    1.45
 -12   8  -8   18.34    2.31
 -12  -8   8   13.53    1.52
 -12  -8  10   40.44    2.80
 -12   8 -10   45.42    3.63
 -12   8 -12   11.66    1.71
 -12   8 -14   13.23    1.38
  12   9 -17    3.86    0.65
 -12  -9 -17    3.15    0.60
  -9 -12 -17    2.90    0.54
 -12  -9 -15   23.18    1.68
   9  12 -15   20.37    1.65
  12   9 -15   23.48    1.69
  -9 -12 -15   19.48    1.59
   9  12 -13    3.15    1.05
  12   9 -13    1.84    0.92
 -12  -9 -13    1.52    0.88
  -9 -12 -13    2.30    0.91
 -12  -9 -11   36.25    2.59
   9  12 -11   40.85    3.09
  12   9 -11   38.11    2.82
  12   9  -9   21.31    2.29
   9  12  -9   20.53    2.71
   9  12  -7    9.76    2.32
  12   9  -7   18.90    2.37
  12   9  -5  108.90    7.36
   9  12  -5  118.21    9.60
  12   9  -5  114.97    8.66
  12   9  -3   44.15    4.92
   9  12  -3   42.59    5.85
  12   9  -1   42.70    4.96
  12  -9   1   50.79    3.28
  -9  12   1   50.26    3.53
 -12   9   1   42.91    3.13
 -12  -9   1   35.52    2.42
  -9  12  -1   38.22    3.10
  12   9   1   33.20    4.67
 -12   9  -1   38.72    2.82
  12  -9  -1   39.48    2.77
  12  -9  -3   52.68    3.27
   9 -12  -3   49.63    2.98
  -9  12  -3   51.37    3.85
 -12   9  -3   50.12    3.51
 -12  -9   3   46.17    2.96
  12  -9  -5  139.04    6.63
 -12  -9   5  135.89    6.45
 -12   9  -5  141.87    7.25
  12  -9  -7   17.41    1.68
 -12   9  -7   15.07    2.22
 -12  -9   7   17.01    1.59
 -12   9  -9   20.59    2.57
 -12  -9   9   17.91    1.75
 -12   9 -11   41.71    3.25
 -12   9 -13    1.64    0.83
 -12 -10 -16   34.19    1.97
  10  12 -16   37.22    2.07
  12  10 -16   36.52    2.06
 -12 -10 -14   33.89    2.17
  10  12 -14   32.89    2.24
  12  10 -14   36.80    2.27
  10  12 -12    1.27    0.97
  12  10 -12    0.50    0.86
  10  12 -10  130.19    7.24
  12  10 -10  134.50    7.03
  10  12  -8   51.62    4.20
  12  10  -8   53.29    3.86
  12  10  -6   22.88    2.83
  10  12  -4  112.55    9.20
  12  10  -4  103.28    8.11
  10  12  -2   53.30    6.78
 -10  12   2   64.33    4.20
 -12  10   2   70.26    4.04
  12  10  -2   57.94    6.04
  12  10   0   62.98    6.73
 -12 -10   0   71.68    3.99
  12 -10   0   75.81    4.33
 -10 -12   0   69.20    3.85
 -10  12   0   81.52    4.76
 -12  10   0   76.08    4.49
  10 -12  -2   74.55    4.04
  12 -10  -2   74.80    4.20
 -10  12  -2   67.88    4.72
 -12  10  -2   76.66    4.53
 -10 -12   2   63.71    3.73
 -12 -10   2   76.28    3.99
  12 -10  -4  121.40    5.98
  10 -12  -4  113.03    5.75
 -10  12  -4   96.64    6.62
 -12  10  -4  112.28    6.51
 -12 -10   4  118.33    5.79
 -12  10  -6   21.40    2.51
  12 -10  -6   23.06    1.81
 -12 -10   6   18.75    1.62
 -12 -10   8   54.30    3.29
 -12  10  -8   60.47    4.33
 -12  10 -10  119.19    6.76
 -12  10 -12    1.43    0.86
  12 -11  15   54.91    2.96
  11  12 -15   64.87    3.16
  12  11 -15   63.61    3.14
  11  12 -13   32.25    2.22
  12  11 -13   35.20    2.25
  11  12 -11   34.94    2.64
  12  11 -11   35.04    2.56
  11  12  -9   80.14    5.13
  12  11  -9   87.95    5.08
  11  12  -7   76.39    5.35
  12  11  -7   84.63    5.36
 -12  11   3   26.68    2.30
  12 -11   1  109.43    5.81
 -11  12   1  106.29    6.07
 -12  11   1  107.20    5.97
  12 -11  -1  112.51    5.80
 -11  12  -1  110.31    6.33
  11 -12  -1  113.87    5.76
 -12  11  -1  111.06    6.15
 -11 -12   1  100.97    5.39
 -12 -11   1  111.71    5.54
  11 -12  -3   22.20    1.87
  12 -11  -3   27.07    2.09
 -11  12  -3   20.43    2.56
 -12  11  -3   28.56    2.62
 -11 -12   3   21.92    1.71
 -12 -11   3   25.21    1.84
  12 -11  -5  189.15    8.38
 -12 -11   5  173.46    8.18
 -12  11  -5  174.66    9.28
 -12 -11   7   87.66    4.29
 -12  11  -7   98.09    5.62
 -12  11  -9   76.92    4.89
  12 -12  14   33.58    1.92
  12  12 -14   34.62    2.01
  12  12 -12   55.35    3.19
  12  12 -10  176.39    8.69
  12  12  -8   26.91    2.53
 -12 -12  -2   70.61    3.89
 -12  12   2   70.84    4.40
  12 -12   2   72.97    4.28
  12 -12   0    3.50    1.16
 -12 -12   0    4.43    0.87
 -12  12   0    4.52    1.41
 -12  12  -2   59.16    4.15
  12 -12  -2   60.61    3.55
 -12 -12   2   57.22    3.28
  12 -12  -4  271.59   12.13
 -12 -12   4  255.64   11.93
 -12  12  -4  257.28   13.04
 -12  12  -6   12.76    2.12
 -12  12  -8   21.01    2.29
 -13   0  -1   56.14    3.28
 -13   0  -1   58.98    3.38
  13   0   1   58.92    3.81
  13   0  -1   63.17    3.82
  13   0   1   68.19    5.13
  13   0  -1   62.11    4.85
 -13   0   1   59.29    3.42
 -13   0   1   57.44    3.21
 -13   0  -3   15.41    1.52
  13   0  -3   18.38    2.49
  13   0   3   17.83    2.86
 -13   0   3   15.07    1.55
  13   0   3   15.79    1.91
   0  13  -5  242.44   14.30
  13   0  -5  237.42   12.58
 -13   0  -5  236.12   11.09
 -13   0   5  229.83   11.07
 -13   0   7   11.70    1.62
 -13   0  -7   11.83    1.74
   0  13  -7    8.30    2.76
  13   0  -7   11.23    2.11
   0  13  -9   17.13    3.19
  13   0  -9   18.98    2.22
 -13   0  -9   20.60    2.17
 -13   0 -11   37.52    2.99
  13   0 -11   36.33    2.88
   0  13 -11   28.72    3.95
  13   0 -13   17.61    1.99
  13   0 -15    8.79    1.30
 -13   0 -15    9.58    1.44
  13   0 -17    2.95    0.71
 -13   0 -17    3.01    0.87
 -13   0 -19   33.03    1.91
  -1 -13 -20   18.20    1.19
 -13  -1 -18   27.70    1.74
  13   1 -18   22.79    1.54
  13   1 -16   18.11    1.60
 -13  -1 -16   17.62    1.64
  13   1 -14   57.69    3.60
  13   1 -12   14.86    1.86
 -13  -1 -12   14.39    2.11
 -13  -1 -10   90.01    5.31
   1  13 -10   77.38    6.96
  13   1 -10   93.13    5.30
 -13  -1  -8   93.93    5.12
   1  13  -8   82.30    7.08
 -13   1   8   84.21    4.97
  13   1  -8   85.23    6.16
 -13  -1  -6  155.28    7.54
  13  -1   6  145.84    7.69
  13   1  -6  145.54    8.90
   1  13  -6  150.98   10.21
 -13   1   6  146.52    7.51
 -13  -1  -4   17.71    1.66
  13   1  -4   17.69    2.65
   1  13  -4   15.72    3.17
 -13   1   4   18.91    1.74
  13  -1   4   15.02    1.94
 -13  -1  -2   66.67    3.61
  13  -1   2   61.48    4.00
  13  -1   2   73.18    5.52
  13   1  -2   63.86    5.11
 -13   1   2   66.55    3.74
 -13   1   2   64.68    3.51
 -13  -1   0  210.43    9.75
  13   1   0  197.23   10.13
  13  -1   0  210.05   10.07
  13  -1   0  210.19   11.52
  13   1   0  227.35   11.82
 -13   1   0  202.60    9.71
 -13   1   0  205.55    9.63
 -13   1  -2   54.50    3.17
 -13   1  -2   51.38    3.13
  13   1   2   55.66    3.66
  13  -1  -2   52.73    3.53
  13  -1  -2   57.35    4.52
 -13  -1   2   55.01    3.23
 -13   1  -4   22.79    1.96
  13   1   4   25.87    3.45
  13  -1  -4   29.91    3.08
 -13  -1   4   22.82    1.94
 -13   1  -6  148.88    7.39
  -1  13  -6  135.80    9.90
  13  -1  -6  135.64    8.34
  13   1   6  146.16    9.71
 -13  -1   6  146.19    7.28
  -1  13  -8   64.01    6.58
  13   1   8   81.57    7.01
 -13   1  -8   81.36    4.74
  13  -1  -8   79.74    4.77
 -13  -1   8   85.30    4.69
 -13   1 -10   88.90    5.14
  -1  13 -10   73.43    6.83
  13  -1 -10   88.88    5.05
  13   1  10   74.65    7.26
  13  -1 -12   12.79    1.72
  13  -1 -14   58.91    3.65
 -13   1 -14   61.35    3.74
  13  -1 -16   13.35    1.29
 -13   1 -16   12.66    1.40
 -13   1 -18   27.28    1.77
 -13  -2 -19   87.18    4.17
  -2 -13 -19   88.04    4.20
 -13   2  19   83.66    4.17
  13   2 -17   12.70    1.20
  13   2 -15    7.38    1.19
 -13  -2 -15    9.18    1.35
 -13  -2 -13   56.37    3.71
  13   2 -13   53.18    3.52
 -13  -2 -11  129.47    6.94
  13   2 -11  125.40    6.84
 -13  -2  -9   22.45    2.21
  13   2  -9   13.77    2.50
   2  13  -9   18.45    3.15
  13  -2   7   74.23    4.48
  13   2  -7   68.28    5.54
 -13  -2  -7   73.38    4.33
   2  13  -7   63.57    6.31
  13   2  -7   76.71    4.62
 -13   2   7   72.51    4.36
 -13  -2  -5  247.59   11.23
  13   2  -5  250.69   13.14
  13  -2   5  242.74   11.52
   2  13  -5  225.92   14.28
  13   2  -5  238.45   11.60
 -13   2   5  238.58   11.33
 -13   2   5  228.76   10.93
  13  -2   3  217.02   10.45
  13   2  -3  207.91   11.80
 -13  -2  -3  220.87   10.02
 -13   2   3  208.91   10.18
 -13   2   3  213.46    9.94
  13  -2   1  250.82   13.05
  13   2  -1  234.98   12.97
 -13   2   1  226.18   11.06
 -13   2   1  242.83   10.98
  13  -2   1  242.46   11.37
 -13  -2   1  240.17   10.93
  13  -2  -1  232.52   12.54
  13  -2  -1  233.83   11.21
 -13   2  -1  231.85   10.91
 -13   2  -3  216.07   10.05
  13   2   3  198.40   12.05
  13  -2  -3  208.50   10.21
  13  -2  -3  210.64   11.40
 -13  -2   3  211.93    9.96
 -13   2  -5  295.59   13.85
  13   2   5  303.53   16.50
  13  -2  -5  301.77   15.14
 -13  -2   5  299.05   13.78
  13   2   7   65.88    6.24
 -13   2  -7   66.20    4.10
 -13  -2   7   67.00    3.98
  13  -2  -9   23.80    2.24
 -13  -2   9   24.73    2.22
  13  -2 -11  129.77    6.90
  13  -2 -13   47.65    3.25
 -13   2 -13   51.39    3.45
  13  -2 -15    6.07    1.05
 -13   2 -15    5.97    1.19
 -13   2 -17   17.41    1.44
 -13   2 -19   95.22    4.49
  13   3 -18   39.86    2.17
  -3 -13 -18   38.08    2.24
 -13   3  18   36.70    2.21
  13   3 -16   13.03    1.34
 -13  -3 -16   11.69    1.34
 -13  -3 -14   25.04    2.22
  13   3 -14   26.48    2.17
 -13  -3 -12  131.85    7.08
  13   3 -12  129.08    6.85
   3  13 -10   28.41    3.91
  13   3  -8  106.49    7.58
  13  -3   8  109.48    6.21
   3  13  -8  116.28    6.81
  13   3  -8  112.22    6.32
   3  13  -8  112.33    8.47
 -13  -3  -8  118.69    6.10
  13  -3   6  444.91   20.06
   3  13  -6  436.35   20.46
  13   3  -6  437.00   21.76
  13   3  -6  449.39   20.24
   3  13  -6  422.45   22.90
 -13   3   6  430.85   19.52
 -13  -3  -4   27.16    2.02
  13  -3   4   29.90    2.57
  13   3  -4   26.37    3.21
  13   3  -4   23.95    2.50
 -13   3   4   25.17    2.22
   3  13  -4   29.92    4.35
 -13   3   4   26.71    1.96
  13  -3   2  170.95    8.46
  13   3  -2  167.58   10.00
 -13   3   2  168.14    8.06
 -13  -3   0  847.61   37.18
  13  -3   0  874.51   39.13
  13  -3   0  852.16   37.48
 -13   3   0  843.23   37.15
  13  -3  -2  177.78    8.77
  13   3   2  188.82   10.82
  13  -3  -2  181.52    9.93
 -13  -3   2  176.52    8.48
 -13   3  -2  173.20    8.51
  13   3   4   20.15    3.15
 -13   3  -4   18.02    1.76
  13  -3  -4   17.09    2.42
 -13  -3   4   18.98    1.77
 -13   3  -6  451.22   19.66
  13   3   6  398.77   22.04
 -13  -3   6  421.76   19.39
  13   3   8  100.85    8.06
 -13   3 -10   30.47    2.74
  13  -3 -10   32.17    2.60
  13   3  10   27.33    4.02
  13  -3 -12  124.23    6.41
 -13   3 -12  114.67    6.51
 -13   3 -14   26.19    2.21
  13  -3 -14   24.20    2.00
 -13   3 -16   14.55    1.42
 -13   3 -18   50.74    2.70
  -4 -13 -19   19.19    1.29
 -13   4  19   19.97    1.26
  13   4 -17    1.26    0.62
 -13  -4 -17    1.03    0.66
  -4 -13 -17    1.11    0.70
  13   4 -15   10.08    1.36
 -13  -4 -15   10.30    1.38
  13   4 -13    7.41    1.37
 -13  -4 -13    8.89    1.54
 -13  -4 -11   51.65    3.52
   4  13 -11   49.81    3.65
 -13  -4  -9  100.17    5.48
  13  -4   9  102.93    5.69
   4  13  -9  113.43    6.41
  13   4  -9   98.45    5.71
   4  13  -9  100.77    7.82
  13  -4   7   14.46    1.92
 -13   4   7    9.95    1.25
   4  13  -7   17.30    2.51
  13   4  -7   13.74    2.06
 -13  -4  -7   11.32    1.54
  13   4  -7   17.16    2.64
   4  13  -7   12.02    2.75
 -13  -4  -5  171.93    8.20
  13  -4   5  174.53    8.66
   4  13  -5  164.73    8.93
  13   4  -5  174.28   10.33
  13   4  -5  170.43    8.90
   4  13  -5  157.04   11.11
  13  -4   3  368.66   17.07
  13   4  -3  377.13   18.95
  13   4  -3  372.65   17.59
   4  13  -3  359.30   20.35
 -13   4   3  371.31   16.71
  13  -4   1  148.26    7.41
  13   4  -1  136.65    7.86
  13  -4   1  141.48    8.73
 -13   4   1  145.76    7.07
 -13  -4   1  137.41    6.70
  13  -4  -1  132.07    6.93
  13   4   1  135.75    8.72
 -13   4  -1  138.81    6.78
  13  -4  -1  126.36    7.97
  13  -4  -3  320.58   16.11
  13   4   3  362.74   18.67
 -13  -4   3  363.38   15.96
 -13   4  -3  363.55   16.07
 -13   4  -5  180.56    9.01
  13  -4  -5  189.15    9.10
  13   4   5  176.45   11.46
  13   4   7    9.08    2.81
 -13   4  -9  110.27    6.21
 -13  -4   9  116.90    5.94
 -13   4 -11   43.04    3.36
  13  -4 -11   44.27    3.07
 -13   4 -13    8.09    1.53
  13  -4 -13    9.88    1.34
 -13   4 -15    8.98    1.24
 -13   4 -17    0.56    0.57
  13   5 -18    1.90    0.55
 -13  -5 -18    3.38    0.63
  -5 -13 -18    2.84    0.64
 -13   5  18    3.15    0.58
  13   5 -16    2.17    0.77
 -13  -5 -16    0.84    0.77
  -5 -13 -16    0.72    0.75
  13   5 -14   11.04    1.47
 -13  -5 -14   13.27    1.55
   5  13 -12    4.05    1.40
 -13  -5 -12    2.70    1.35
 -13  -5 -10   26.26    2.24
  13   5 -10   20.68    2.25
   5  13 -10   23.97    2.65
 -13  -5  -8   88.13    4.92
   5  13  -8   99.13    6.14
  13   5  -8   88.96    5.26
   5  13  -8   87.72    7.38
  13   5  -8   78.56    6.59
  13   5  -6   25.10    2.59
 -13  -5  -6   19.72    1.85
   5  13  -6   23.31    2.79
  13   5  -6   23.22    3.33
 -13   5   6   22.93    1.90
   5  13  -6   16.27    3.41
  13   5  -4    8.66    2.20
  13  -5   4    9.18    1.60
 -13   5   4    7.15    1.22
  13   5  -4    5.19    1.90
   5  13  -4    8.67    2.79
  13  -5   2   91.21    5.19
  13   5  -2   81.47    5.74
 -13   5   2   98.27    4.96
  13  -5   0  210.05   10.22
  13  -5   0  220.93   11.63
  13   5   0  200.29   12.14
 -13   5   0  212.19   10.03
  13  -5  -2   89.56    5.09
  13   5   2   92.98    7.02
 -13   5  -2   95.53    5.08
  13  -5  -4    7.57    1.60
  13   5   4    7.71    2.51
 -13   5  -4    7.14    1.41
  13  -5  -6   27.11    2.40
 -13  -5   6   26.81    2.13
 -13   5  -8  100.88    5.76
 -13  -5   8  103.50    5.35
 -13   5 -10   25.84    2.51
  13  -5 -10   25.58    2.26
 -13  -5  10   24.68    2.19
 -13   5 -12    1.73    1.29
  13  -5 -12    1.37    0.97
 -13   5 -14   11.27    1.46
 -13   5 -16    1.70    0.69
 -13   5 -18    1.92    0.45
  13   6 -17   13.22    1.13
  -6 -13 -17   12.25    1.09
 -13  -6 -17   13.71    1.12
 -13   6  17   11.01    0.99
 -13  -6 -15   40.42    2.47
  13   6 -15   36.42    2.40
  -6 -13 -15   32.66    2.31
   6  13 -13   23.77    2.21
  -6 -13 -13   20.84    1.94
 -13  -6 -13   24.59    2.18
   6  13 -11    1.79    1.31
  13   6 -11    4.02    1.22
 -13  -6 -11    4.08    1.28
   6  13  -9    6.85    1.99
  13   6  -9    5.64    1.54
 -13  -6  -9    6.73    1.30
  13   6  -7   41.96    4.56
   6  13  -7   48.69    4.28
  13   6  -7   46.27    3.56
 -13  -6  -7   46.19    2.95
   6  13  -7   47.36    5.46
  13   6  -5   35.74    3.13
  13   6  -5   30.64    3.84
 -13   6   5   31.91    2.38
   6  13  -5   23.41    4.17
  13  -6   3   36.97    2.88
  13   6  -3   37.87    3.50
 -13   6   3   38.29    2.57
   6  13  -3   27.85    4.57
  13  -6   1   21.67    2.13
  13   6  -1   19.74    3.12
 -13   6   1   20.40    1.89
  13   6   1   16.60    2.91
  13  -6  -1   12.86    1.80
 -13   6  -1   14.66    1.66
  13  -6  -3   38.79    2.84
  13   6   3   34.53    4.35
 -13  -6   3   38.53    2.56
  13  -6  -5   39.09    2.82
 -13  -6   5   40.63    2.66
  13   6   5   32.14    4.50
 -13   6  -5   36.50    2.86
 -13  -6   7   54.27    3.32
 -13   6  -7   53.22    3.74
 -13  -6   9    6.49    1.32
 -13   6  -9    6.11    1.58
 -13   6 -11    4.90    1.45
  13  -6 -11    4.77    1.15
 -13   6 -13   19.93    1.97
 -13   6 -15   29.13    2.01
 -13   6 -17    9.88    0.86
  13   7 -18   11.14    0.86
 -13  -7 -18    9.69    0.83
 -13  -7 -16   19.74    1.48
  13   7 -16   20.53    1.48
  -7 -13 -16   20.10    1.44
 -13   7  16   18.29    1.32
   7  13 -14   24.13    2.03
  -7 -13 -14   25.30    1.88
 -13   7  14   19.60    1.66
 -13  -7 -14   27.28    1.99
   7  13 -12   40.21    3.02
  13   7 -12   33.25    2.61
  -7 -13 -12   40.37    2.67
   7  13 -10   60.39    4.37
  13   7 -10   62.16    3.87
 -13  -7 -10   57.74    3.60
   7  13  -8   69.24    5.24
  13   7  -8   70.48    4.47
   7  13  -6   10.24    2.19
  13   7  -6   15.50    2.21
  13   7  -6   15.48    2.82
 -13   7   6   15.46    1.70
   7  13  -6   14.44    3.29
  13   7  -4  212.07   11.16
   7  13  -4  190.68   13.56
 -13   7   4  218.68   10.19
  13  -7   2   95.04    5.54
  13   7  -2   95.99    7.41
 -13   7   2  106.87    5.40
  13  -7   0   88.45    5.05
  13   7   0   81.86    6.96
 -13   7   0   93.02    5.00
 -13  -7   2  122.77    5.99
  13  -7  -2  117.97    6.21
  13   7   2   98.42    8.34
  -7  13  -2  113.80    6.56
  13  -7  -4  208.20    9.91
  13   7   4  183.73   12.63
 -13  -7   4  203.04    9.68
 -13   7  -4  206.68   10.05
  13  -7  -6   13.35    1.71
 -13   7  -6   14.81    1.93
 -13  -7   6   13.75    1.57
 -13  -7   8   77.45    4.39
 -13   7  -8   78.89    4.96
  13  -7 -10   62.69    3.71
 -13  -7  10   62.06    3.71
 -13   7 -10   58.44    4.15
 -13   7 -12   22.54    2.21
 -13   7 -14   20.94    1.75
 -13   7 -16   17.29    1.24
 -13  -8 -17   24.13    1.48
  13   8 -17   26.14    1.54
  -8 -13 -15    9.80    1.02
 -13  -8 -15   10.60    1.12
   8  13 -13   42.75    2.79
  13   8 -13   40.24    2.57
 -13  -8 -13   43.70    2.64
   8  13 -11   14.42    1.96
  13   8 -11   15.31    1.69
 -13  -8 -11   12.78    1.50
   8  13  -9    3.90    1.79
  13   8  -9    3.82    1.41
   8  13  -7   49.95    5.05
  13   8  -7  112.58    5.44
  13   8  -5  194.51   10.09
   8  13  -5  162.90   12.37
 -13   8   5  202.88    9.30
  13   8  -5  161.29   11.16
   8  13  -3   55.47    6.73
  13   8  -3   54.21    5.40
 -13   8   3   65.10    3.82
  13  -8   1  173.00    8.37
  13   8  -1  143.63   10.41
 -13   8   1  163.77    8.16
 -13  -8   1  167.43    8.00
  13  -8  -1  169.37    8.30
  13   8   1  156.13   11.00
  -8  13  -1  159.48    8.74
  13   8   3   57.01    6.20
  13  -8  -3   62.47    3.90
  -8  13  -3   62.86    4.48
 -13   8  -3   69.74    4.11
 -13  -8   3   65.45    3.73
  13  -8  -5  213.08   10.35
 -13  -8   5  220.59   10.23
 -13   8  -5  213.44   10.66
 -13  -8   7  106.05    5.60
 -13   8  -7  112.10    6.28
 -13   8  -9    4.68    1.68
 -13  -8   9    4.12    1.14
 -13   8 -11   18.45    2.09
 -13   8 -13   33.29    2.36
 -13   8 -15    7.55    0.83
 -13  -9 -16    5.64    0.67
  13  -9  14    5.42    0.79
   9  13 -14    4.84    0.93
  13   9 -14    5.66    0.92
 -13  -9 -14    6.34    0.90
   9  13 -12    8.59    1.44
  13   9 -12   10.32    1.34
 -13  -9 -12   11.14    1.27
  13   9 -10   18.90    1.94
   9  13 -10   18.94    2.30
  13   9  -8   23.21    2.33
   9  13  -8   19.79    2.81
  13   9  -6  118.20    6.91
 -13   9   4   57.72    3.62
  13  -9   2   49.54    3.33
  13   9  -2   38.27    4.73
 -13  -9   0  159.70    7.64
  13  -9   0  167.16    7.96
  -9  13   0  150.30    8.37
  13  -9  -2   53.49    3.42
   9 -13  -2   51.20    3.12
  -9  13  -2   49.79    3.99
 -13   9  -2   57.85    3.65
  13   9   2   49.90    5.69
 -13  -9   2   55.83    3.21
  13  -9  -4   45.90    3.04
 -13  -9   4   45.56    2.84
 -13   9  -4   49.77    3.42
  13  -9  -6  122.21    6.46
 -13  -9   6  126.50    6.32
 -13   9  -6  130.14    7.05
 -13  -9   8   30.35    2.22
 -13   9  -8   30.13    2.90
 -13   9 -10   22.90    2.41
 -13   9 -12   10.45    1.33
  13  10 -15    7.96    0.85
  13 -10  13    4.72    0.82
  10  13 -13    5.10    0.97
  13  10 -13    4.85    0.90
  10  13 -11    7.08    1.32
  13  10 -11    7.45    1.22
  10  13  -9    9.34    1.84
  13  10  -9   13.71    1.70
  13  10  -7    6.04    1.58
  13 -10   3   31.09    2.62
  13 -10   1   50.71    3.27
 -13 -10  -1   44.68    2.84
 -10 -13  -1   42.80    2.64
 -13  10   1   48.07    3.23
  10 -13  -1   44.73    2.88
  13 -10  -1   45.33    3.09
 -10  13  -1   44.75    3.62
 -13  10  -1   46.62    3.28
 -13 -10   1   46.59    2.84
  13 -10  -3   30.19    2.36
 -10  13  -3   28.30    2.98
 -13  10  -3   31.76    2.76
 -13 -10   3   29.39    2.14
  13 -10  -5  102.41    4.42
 -13 -10   5   97.30    4.20
 -13  10  -5  102.48    5.12
 -13  10  -7    5.21    1.58
 -13 -10   7    4.67    1.00
 -13  10  -9   13.03    1.85
 -13  10 -11    6.87    1.22
  13 -11  14   19.20    1.30
  13  11 -14   24.99    1.49
  13 -11  12    8.44    1.04
  11  13 -12    6.01    1.04
  13  11 -12    7.88    1.04
  11  13 -10   53.31    3.40
  13  11 -10   49.07    3.21
  11  13  -8    6.54    1.53
  13  11  -8    7.95    1.45
  13 -11   4   59.43    3.85
  13 -11   2    6.35    1.40
 -13 -11  -2    5.01    1.00
 -11 -13  -2    3.85    0.84
 -13  11   2    6.26    1.28
 -13 -11   0   20.17    1.67
  13 -11   0   20.51    1.98
  11 -13   0   20.93    1.88
 -11  13   0   20.41    2.32
 -13  11   0   22.43    2.16
 -11 -13   0   19.08    1.53
 -13 -11   2    4.59    0.94
  11 -13  -2    3.57    0.98
 -11  13  -2    2.13    1.57
 -13  11  -2    5.24    1.45
  13 -11  -2    4.88    1.21
  13 -11  -4   64.81    3.57
 -13 -11   4   61.84    3.34
 -13  11  -4   61.43    4.10
 -13 -11   6    9.74    1.16
 -13  11  -6   11.83    1.96
 -13  11  -8    9.76    1.74
 -13 -11   8    7.06    1.00
 -13  11 -10   42.73    2.88
  12 -13  13    7.05    0.80
  13 -12  13    6.84    0.78
  13  12 -13    6.66    0.79
  13 -12  11   13.58    1.31
  12  13 -11   14.10    1.31
  13  12 -11   11.70    1.23
  13  12  -9  127.65    6.48
  13 -12   5    8.75    1.55
 -12 -13  -3  102.42    5.39
 -13 -12  -3  110.71    5.50
  12 -13   3  111.71    5.78
  13 -12   3  108.38    5.85
  13 -12   1    0.55    1.05
  12 -13   1    0.26    0.90
 -12 -13  -1    1.32    0.65
 -13 -12  -1    1.07    0.70
 -13  12   1    0.92    1.17
 -12 -13   1    2.16    0.65
  13 -12  -1    2.74    1.07
  12 -13  -1    0.94    0.83
 -12  13  -1   -0.21    1.27
 -13  12  -1    1.75    1.22
 -13 -12   1    1.63    0.71
  12 -13  -3  113.20    5.74
 -12  13  -3  101.87    6.55
  13 -12  -3  119.88    5.89
 -13  12  -3  119.78    6.55
 -13 -12   3  112.88    5.65
  13 -12  -5   10.37    1.21
 -12  13  -5    9.05    1.85
 -13  12  -5   12.12    1.96
 -13 -12   5    9.56    1.09
 -12  13  -7   12.49    1.80
 -13  12  -7   15.59    2.01
 -13  12  -9  127.98    6.52
  13 -13  12   40.55    2.23
  13 -13  10   72.66    3.88
  13 -13   6   35.22    2.60
 -13 -13  -4   59.57    3.41
  13 -13   4   64.81    3.79
  13 -13   2   43.87    2.83
 -13 -13  -2   37.26    2.42
 -13 -13   0    3.41    0.79
  13 -13   0    3.58    1.06
  13 -13  -2   41.84    2.63
 -13  13  -2   42.71    3.23
 -13 -13   2   38.32    2.37
 -13  13  -4   69.56    4.58
 -13  13  -6   32.03    2.71
  14   0   0    5.50    1.53
 -14   0   0    2.69    1.01
 -14   0   0    4.15    0.88
  14   0   0    2.01    1.59
 -14   0   2    7.87    1.25
  14   0   2    7.66    1.64
 -14   0  -2    7.71    1.19
  14   0   2    9.61    2.26
  14   0  -2    5.97    1.80
 -14   0  -2    6.94    1.12
 -14   0  -4   87.35    4.74
 -14   0  -4   85.44    4.70
  14   0   4   86.47    5.13
  14   0  -4   80.83    6.05
 -14   0   4   87.80    4.77
  14   0  -6    1.47    1.21
  14   0   6    0.27    1.90
 -14   0  -6    1.75    1.17
 -14   0   6    1.08    1.03
 -14   0  -8   20.10    2.04
  14   0   8   19.00    3.41
   0  14  -8   16.31    3.21
 -14   0   8   20.07    1.99
 -14   0 -10  150.54    7.89
  14   0 -10  149.85    7.85
 -14   0 -12   36.79    2.87
  14   0 -12   33.78    2.72
  14   0 -14   10.37    1.38
  14   0 -16   12.52    1.22
 -14   0 -16   12.65    1.29
 -14   0 -18    1.38    0.54
 -14  -1 -19   11.97    0.87
  -1 -14 -19   10.53    0.87
 -14   1  19   11.35    0.87
 -14  -1 -17   16.40    1.32
  14   1 -17   14.94    1.19
  14   1 -15   43.78    2.75
 -14  -1 -13   17.79    1.95
  14   1 -13   15.11    1.74
 -14  -1 -11   41.69    3.11
  14   1 -11   37.89    3.01
   1  14  -9  118.70    9.13
 -14  -1  -9  134.70    6.98
 -14  -1  -7   33.61    2.52
  14   1  -7   33.98    2.80
   1  14  -7   27.08    4.08
 -14   1   7   31.67    2.58
  14   1  -7   29.09    3.46
 -14  -1  -5   79.25    4.38
  14  -1   5   80.01    4.76
  14   1  -5   76.14    5.81
 -14   1   5   72.65    4.39
 -14  -1  -3   46.70    2.87
  14  -1   3   46.14    3.39
  14  -1   3   46.84    4.67
 -14  -1  -3   46.21    2.96
  14   1  -3   44.69    4.27
 -14   1   3   45.80    3.01
 -14  -1  -1   55.80    3.38
  14  -1   1   57.87    3.84
  14   1  -1   58.16    4.97
  14  -1   1   63.09    5.05
 -14   1   1   53.63    3.36
 -14   1   1   57.04    3.22
 -14  -1  -1   56.27    3.20
  14  -1  -1   68.58    4.38
  14  -1  -1   76.77    5.59
  14   1   1   76.26    5.87
 -14   1  -1   67.81    3.97
 -14  -1   1   72.08    4.02
 -14   1  -1   71.00    3.92
 -14   1  -3   48.35    3.02
  14   1   3   43.95    3.38
  14  -1  -3   44.68    4.12
 -14  -1   3   50.86    3.11
 -14   1  -5   74.17    4.15
  14   1   5   58.15    5.81
  14  -1  -5   68.79    5.24
 -14  -1   5   67.56    4.03
 -14   1  -7   30.08    2.43
  14   1   7   23.97    3.82
  -1  14  -7   24.36    3.96
 -14  -1   7   28.01    2.35
 -14   1  -9  138.03    7.24
  14  -1  -9  141.68    7.32
 -14   1 -11   33.21    2.88
  14  -1 -11   32.85    2.75
  14  -1 -13   19.14    1.92
 -14   1 -15   52.88    3.15
  14  -1 -15   49.70    3.02
 -14   1 -17   19.91    1.46
 -14  -1  19   14.36    0.98
  14   2 -18    2.42    0.47
  -2 -14 -18    2.94    0.61
 -14   2  18    2.95    0.58
  14   2 -16   24.32    1.74
 -14  -2 -16   24.26    1.77
 -14  -2 -14   50.71    3.17
  14   2 -14   47.42    3.08
  14   2 -12    8.19    1.53
 -14  -2 -12    9.90    1.70
 -14  -2 -10   77.97    4.64
  14   2  -8   71.94    5.81
 -14  -2  -8   78.02    4.57
   2  14  -8   64.24    6.52
 -14  -2  -6   95.15    5.08
  14  -2   6   92.73    5.42
  14   2  -6   90.96    6.68
   2  14  -6   87.48    7.61
  14   2  -6   94.18    5.51
 -14   2   6   91.12    5.19
 -14  -2  -4   18.47    1.66
  14  -2   4   17.14    2.11
  14   2  -4   20.87    2.88
  14   2  -4   16.05    2.09
 -14   2   4   15.72    1.76
  14  -2   4   20.33    3.09
 -14   2   4   16.65    1.45
 -14  -2  -2   81.04    4.44
  14  -2   2   91.88    6.49
  14  -2   2   82.88    4.88
  14   2  -2   87.47    6.24
 -14   2   2   72.46    4.42
 -14   2   2   79.83    4.27
 -14  -2   0  168.58    8.14
  14  -2   0  164.84    9.89
  14  -2   0  165.08    8.48
  14   2   0  154.92   10.01
 -14   2   0  171.07    8.05
  14  -2  -2   96.60    5.47
  14  -2  -2   94.14    6.52
 -14  -2   2   99.41    5.17
 -14   2  -2   95.46    5.10
 -14   2  -4   30.39    2.26
  14  -2  -4   26.25    3.04
  14   2   4   24.59    3.65
 -14  -2   4   25.86    2.17
 -14   2  -6   90.67    5.01
  14   2   6   74.41    6.89
 -14  -2   6   89.44    4.89
 -14   2  -8   82.85    4.86
 -14  -2   8   83.59    4.68
  14   2   8   69.25    6.82
  14  -2 -10   80.01    4.75
  14  -2 -12    8.00    1.45
 -14   2 -14   51.62    3.25
  14  -2 -14   50.72    3.15
 -14   2 -16   23.35    1.70
  14  -2 -16   21.66    1.53
 -14   2 -18    4.33    0.63
  14   3 -17   11.37    1.03
  -3 -14 -17    9.12    0.99
 -14  -3 -17   12.25    1.10
  14   3 -15    6.50    1.09
 -14  -3 -15    8.47    1.17
  14   3 -13    2.81    1.10
 -14  -3 -13    4.33    1.27
 -14  -3 -11   97.83    5.50
  14   3  -9   19.64    2.18
 -14  -3  -9   22.32    2.07
  14  -3   7   15.06    1.93
  14   3  -7   12.11    1.83
 -14  -3  -7   14.95    1.63
   3  14  -7   12.13    2.83
  14   3  -7   10.08    2.23
 -14  -3  -5  185.35    8.71
  14  -3   5  184.68    9.16
  14   3  -5  165.68   10.54
  14   3  -5  181.73    9.33
 -14   3   5  176.08    8.97
 -14   3   5  178.89    8.54
  14  -3   3  185.47    8.82
  14   3  -3  174.37   10.35
  14  -3   3  169.41   10.49
  14   3  -3  173.65    9.03
 -14   3   3  165.16    8.22
 -14  -3  -1   93.76    4.84
  14  -3   1   90.60    6.55
  14   3  -1   91.46    6.68
  14  -3   1   89.36    5.21
 -14   3   1   84.37    4.70
  14  -3  -1   85.60    4.94
 -14   3  -1   84.89    4.59
  14  -3  -1   77.09    5.86
 -14  -3   1   85.67    4.60
  14  -3  -3  138.94    8.73
  14   3   3  141.17    9.81
 -14  -3   3  155.37    7.51
 -14   3  -3  154.79    7.55
 -14   3  -5  184.52    9.10
 -14  -3   5  187.97    9.03
  14   3   5  175.58   11.52
 -14   3  -7   20.38    2.09
 -14  -3   7   20.07    1.93
  14   3   7   17.05    3.29
  14  -3  -9   18.23    1.99
 -14   3 -11   92.96    5.53
  14  -3 -11   96.35    5.33
 -14   3 -13    8.16    1.37
  14  -3 -13    5.33    1.18
  14  -3 -15    5.56    0.91
 -14   3 -15    9.02    1.15
 -14   3 -17   11.33    1.04
  14   4 -18    1.76    0.45
 -14  -4 -18    1.29    0.49
  -4 -14 -18    1.35    0.47
 -14   4  18    1.64    0.43
  14   4 -16    6.90    0.96
 -14  -4 -16    6.50    0.95
  -4 -14 -16    6.53    0.94
  14   4 -14   13.83    1.52
 -14  -4 -14   15.87    1.62
 -14  -4 -12   15.45    1.91
 -14  -4 -10   21.27    2.08
  14   4 -10   20.32    2.15
 -14  -4  -8   71.17    4.06
  14  -4   8   67.68    4.28
  14   4  -8   64.16    4.33
 -14  -4  -6   17.57    1.69
  14   4  -6   22.51    2.37
   4  14  -6   12.87    3.25
  14   4  -6   15.59    2.78
  14  -4   6   18.83    2.11
 -14   4   6   19.20    1.70
  14  -4   4   11.88    1.85
 -14   4   4    7.92    1.18
  14   4  -4    8.35    2.09
  14   4  -4    9.45    1.87
  14  -4   2   58.25    3.89
  14  -4   2   57.99    5.09
  14   4  -2   53.96    5.04
  14   4  -2   57.94    4.25
 -14   4   2   62.01    3.46
 -14  -4   0  212.27    9.86
  14  -4   0  211.39   10.16
  14  -4   0  199.87   11.48
  14   4   0  194.33   10.53
 -14   4   0  207.34    9.81
  14   4   2   48.32    4.93
 -14   4  -2   53.34    3.34
 -14  -4   2   54.34    3.29
 -14  -4   4    7.88    1.27
  14  -4  -4    8.14    1.62
  14   4   4    7.79    2.42
 -14   4  -4    8.70    1.42
 -14   4  -6   15.32    1.86
  14   4   6    7.51    2.57
  14  -4 -10   24.34    2.17
 -14   4 -10   19.63    2.22
 -14   4 -12   18.51    2.05
  14  -4 -12   14.67    1.71
  14  -4 -14   15.80    1.38
 -14   4 -14   10.70    1.43
 -14   4 -16    7.27    0.95
  14   5 -17   29.51    1.71
  -5 -14 -17   25.65    1.62
 -14   5  17   24.42    1.58
 -14  -5 -17   31.01    1.71
 -14  -5 -15   60.60    3.32
  14   5 -15   61.06    3.33
  -5 -14 -15   56.30    3.20
 -14  -5 -13   19.80    1.95
 -14  -5 -11   18.52    1.88
  14   5 -11   17.11    1.93
  14  -5   9   14.23    1.90
  14   5  -9   15.49    1.95
 -14  -5  -9   13.17    1.63
  14   5  -7  105.89    7.99
 -14  -5  -7  121.25    6.18
  14  -5   7  123.32    6.61
  14   5  -7  131.69    6.85
   5  14  -7  114.94    9.06
  14   5  -5   44.90    4.71
  14   5  -5   52.60    3.91
  14  -5   5   56.88    3.72
 -14   5   5   51.42    3.17
  14   5  -3   23.82    3.48
  14  -5   3   29.02    2.63
  14   5  -3   26.59    2.86
 -14   5   3   29.40    2.18
  14   5  -1   18.29    3.06
  14  -5   1   19.16    2.17
 -14  -5  -1   18.23    1.72
  14   5  -1   12.88    2.25
  14  -5   1   16.87    2.67
 -14   5   1   17.67    1.68
 -14  -5   1   15.40    1.65
 -14   5  -1   13.08    1.54
  14   5   1   14.38    2.78
  14  -5  -3   28.13    2.41
  14   5   3   23.09    3.63
 -14   5  -3   28.50    2.33
  14  -5  -5   51.89    3.46
 -14   5  -5   52.22    3.45
  14   5   7  113.07    9.35
 -14  -5   7  145.13    7.04
 -14   5  -9   20.01    2.21
 -14  -5   9   18.24    1.90
  14  -5 -11   17.48    1.79
 -14   5 -11   18.24    2.11
  14  -5 -13   15.73    1.54
 -14   5 -13   16.59    1.70
 -14   5 -15   58.10    3.23
 -14   5 -17   22.89    1.40
  14   6 -16    9.63    0.98
  -6 -14 -16    9.61    0.89
 -14  -6 -16    9.55    0.97
 -14   6  16    8.24    0.81
 -14  -6 -14   43.90    2.66
  -6 -14 -14   39.64    2.48
  14   6 -12   92.60    5.16
 -14  -6 -12  101.15    5.29
 -14  -6 -10   76.91    4.47
  14  -6  10   84.95    4.72
   6  14 -10   86.06    5.46
  14   6 -10   78.87    4.66
 -14  -6  -8   64.59    3.72
  14  -6   8   66.54    4.22
   6  14  -8   61.57    4.96
  14   6  -8   64.16    4.20
  14  -6   6   75.07    4.74
  14   6  -6   76.09    4.97
 -14   6   6   82.27    4.42
  14  -6   4  125.01    6.76
  14   6  -4  121.17    7.20
  14   6  -4  115.74    8.39
 -14   6   4  131.61    6.43
  14  -6   2   85.16    4.87
  14   6  -2   82.75    6.48
  14   6  -2   80.41    5.38
  14  -6   2   75.09    5.98
 -14   6   2   80.60    4.48
  14   6   0    5.81    1.99
 -14   6   0    6.08    1.34
  14  -6  -2   84.16    4.78
  14   6   2   73.85    6.55
 -14   6  -2   80.95    4.64
  14  -6  -4  125.62    6.54
 -14  -6   4  125.75    6.28
 -14  -6   6   89.68    4.77
 -14   6  -6   79.37    4.96
 -14  -6   8   77.88    4.38
 -14   6  -8   72.42    4.63
  14  -6 -10   94.85    5.24
 -14   6 -10   97.12    5.55
  14  -6 -12   91.03    4.92
 -14   6 -12   97.34    5.22
 -14   6 -14   38.55    2.46
 -14   6 -16   11.45    0.96
  14   7 -17   50.74    2.58
 -14  -7 -15   44.20    2.51
 -14  -7 -13   93.79    4.66
  14   7 -13   80.75    4.56
 -14  -7 -11   58.27    3.48
  14  -7  11   58.85    3.53
   7  14 -11   64.28    4.21
  14   7 -11   57.87    3.61
  14  -7   9   30.92    2.64
  14   7  -9   30.35    2.49
  14  -7   7  201.43    8.79
  14   7  -7  205.87    9.00
  14  -7   5  150.65    8.11
  14   7  -5  162.84    8.58
 -14   7   5  162.55    7.88
  14  -7   3    6.95    1.53
 -14   7   3    7.28    1.25
  14   7  -3    6.23    1.78
  14   7  -3    4.24    1.92
  14   7  -1  224.16   13.96
 -14   7   1  252.54   11.62
 -14  -7   1  252.62   11.74
  14  -7  -1  257.32   12.02
  14   7   1  217.91   14.28
 -14   7  -1  255.04   11.90
  14  -7  -3    6.36    1.42
 -14  -7   3    5.79    1.15
  14   7   3    5.37    2.18
  14  -7  -5  161.08    7.99
 -14  -7   5  155.66    7.75
 -14   7  -5  155.06    8.08
 -14  -7   7  202.78    9.61
 -14   7  -7  196.80   10.05
 -14  -7   9   32.80    2.43
 -14   7  -9   30.77    2.77
  14  -7 -11   61.03    3.53
 -14   7 -11   59.43    3.87
 -14   7 -13   81.23    4.40
 -14   7 -15   44.09    2.42
 -14  -8 -14   43.37    2.47
  14   8 -14   42.86    2.54
 -14  -8 -12   22.33    1.72
  14  -8  12   17.66    1.58
  14   8 -12   21.72    1.78
  14  -8  10  111.79    5.74
   8  14 -10   96.03    6.24
  14   8 -10  105.52    5.66
  14  -8   8  167.73    6.85
  14   8  -8  158.61    6.77
  14  -8   6    0.59    1.31
  14   8  -6    3.76    1.38
  14  -8   4  246.65   11.52
  14   8  -4  224.84   11.87
 -14   8   4  235.12   11.19
 -14   8   2  236.47   11.21
 -14  -8   0   23.67    1.95
  14  -8   0   25.20    2.32
 -14   8   0   21.87    2.10
  14  -8  -2  228.96   11.15
 -14  -8   2  236.23   10.94
  14  -8  -4  239.19   11.52
 -14  -8   4  243.57   11.33
 -14   8  -4  244.05   11.73
 -14  -8   6    3.02    1.00
 -14   8  -6    1.55    1.31
 -14  -8   8  144.15    7.04
 -14   8  -8  134.78    7.49
  14  -8 -10   96.36    5.13
 -14   8 -10  102.39    5.63
 -14   8 -12   16.35    1.63
 -14   8 -14   38.14    2.22
  14   9 -15    4.73    0.68
  14   9 -13   27.98    1.86
  14  -9  13   25.82    1.68
  14  -9  11   29.12    2.28
   9  14 -11   34.09    2.67
  14   9 -11   36.50    2.39
  14  -9   9    7.96    1.62
   9  14  -9    3.21    1.48
  14   9  -9    6.10    1.30
  14  -9   7   93.36    5.32
  14   9  -7   92.40    5.41
  14  -9   5  171.81    8.58
  14   9  -5  164.41    8.86
 -14   9   3   72.10    4.25
 -14  -9  -1  165.28    8.12
  14  -9   1  170.18    8.46
  14  -9  -1  172.87    8.45
   9 -14  -1  155.76    7.97
 -14  -9   1  178.12    8.17
  14  -9  -3   79.62    4.24
 -14   9  -3   77.26    4.44
 -14  -9   3   72.77    3.95
  14  -9  -5  172.94    8.54
 -14  -9   5  176.74    8.39
 -14   9  -5  168.91    8.86
 -14  -9   7   90.78    4.86
 -14   9  -7   94.35    5.48
 -14   9  -9    6.57    1.45
  14  -9  -9    6.84    1.08
 -14   9 -11   32.88    2.42
 -14   9 -13   26.06    1.71
  14  10 -14    6.35    0.75
  14 -10  12    2.36    0.73
  14  10 -12    3.31    0.82
  14 -10  10   27.24    2.17
  10  14 -10   26.09    2.32
  14  10 -10   29.81    2.14
  14 -10   8   24.44    2.16
  14  10  -8   19.38    2.00
  14 -10   6   73.47    4.41
  14  10  -6   69.44    4.43
 -14 -10  -2   49.09    3.07
  14 -10   2   52.39    3.48
  14 -10   0   65.41    4.06
  10 -14   0   63.30    3.76
 -14  10   0   69.69    4.12
 -14 -10   0   69.24    3.79
  14 -10  -2   44.55    2.98
 -14  10  -2   42.60    3.13
 -14 -10   2   42.63    2.73
  14 -10  -4   32.00    2.23
 -14 -10   4   31.65    2.00
 -14  10  -4   34.00    2.57
 -14 -10   6   75.05    4.14
 -14  10  -6   80.09    4.84
 -14  10  -8   16.30    2.00
 -14 -10   8   17.16    1.54
 -14  10 -10   21.29    1.93
 -14  10 -12    2.70    0.67
  14 -11  13    7.19    0.72
  14  11 -13    8.74    0.84
  14 -11  11   10.20    1.14
  14  11 -11   12.00    1.15
  14 -11   9   34.45    2.48
  14  11  -9   31.07    2.24
  14 -11   7   12.96    1.72
  14 -11   3    2.96    1.28
 -11 -14  -3    1.21    0.64
 -14 -11  -3    3.36    0.95
  14 -11   1    9.28    1.49
 -14 -11  -1    7.95    1.14
  11 -14   1    6.78    1.19
 -14  11   1    8.03    1.48
  11 -14  -1    8.38    1.18
 -14 -11   1   10.46    1.22
 -14  11  -1    8.78    1.50
  14 -11  -1   11.06    1.50
 -14 -11   3    2.52    0.81
  14 -11  -3    3.12    1.08
 -11  14  -3    1.63    1.29
 -14  11  -3    1.42    1.17
 -14 -11   5   32.05    2.17
 -14  11  -5   32.66    2.79
 -14 -11   7    9.54    1.12
 -14  11  -7    8.01    1.61
 -14  11  -9   28.99    2.25
  14 -12  12   19.80    1.29
  12 -14  12   20.11    1.35
  14 -12  10   77.56    4.04
  14 -12   8   11.55    1.45
 -12 -14  -4   45.04    2.73
 -14 -12  -4   49.05    2.91
  14 -12   4   50.20    3.22
  12 -14   4   49.25    3.11
  14 -12   2   17.00    1.75
  12 -14   2   16.57    1.64
 -12 -14  -2   13.48    1.26
 -14 -12  -2   17.17    1.46
 -14 -12   0    0.68    0.70
  12 -14   0    0.44    0.79
 -14  12   0    1.03    1.00
  14 -12   0    0.51    0.94
  12 -14  -2   17.49    1.55
  14 -12  -2   21.37    1.81
 -14  12  -2   21.26    2.15
 -14 -12   2   19.40    1.56
  14 -12  -4   51.22    3.01
 -14 -12   4   49.69    2.84
 -14  12  -4   48.03    3.50
 -14 -12   6    2.22    0.64
 -14  12  -6    1.94    1.19
 -14  12  -8   10.57    1.38
 -14 -13 -11   34.75    1.88
  14 -13  11   31.15    1.81
  13 -14  11   30.28    1.81
 -13 -14  -9   50.03    2.78
 -14 -13  -9   57.66    2.90
  14 -13   9   47.87    2.91
 -13 -14  -7   37.47    2.33
 -14 -13  -7   43.01    2.47
  13 -14   7   41.13    2.64
 -13 -14  -5   44.08    2.59
 -14 -13  -5   44.62    2.66
  14 -13   5   46.36    2.93
  13 -14   5   44.88    2.88
  14 -13   3   21.30    1.85
  13 -14   3   19.67    1.77
 -13 -14  -3   18.59    1.45
 -14 -13  -3   20.40    1.55
  14 -13   1   29.37    2.11
  13 -14   1   27.31    2.01
 -13 -14  -1   22.28    1.67
 -14 -13  -1   29.14    1.85
  14 -13  -1   31.52    2.10
  13 -14  -1   26.23    1.92
 -14 -13   1   25.18    1.78
  14 -13  -3   21.61    1.63
 -14 -13   3   18.80    1.44
 -14  13  -3   21.90    2.12
 -14  13  -5   39.39    2.92
 -14  13  -7   35.74    2.40
 -14 -14  -8   26.31    1.63
  14 -14   6    1.42    0.77
 -14 -14  -6    1.77    0.59
  14 -14   4   43.31    2.55
 -14 -14  -4   36.41    2.21
  14 -14   2   24.25    1.81
 -14 -14  -2   21.64    1.51
  14 -14   0   54.79    3.10
  14 -14  -2   23.04    1.63
  15   0  -1   59.08    5.20
  15   0   1   62.07    5.38
 -15   0   1   63.97    3.73
 -15   0  -1   59.77    3.67
 -15   0  -1   63.77    3.53
  15   0   3  228.92   11.50
  15   0  -3  230.64   12.88
 -15   0   3  231.65   11.06
 -15   0  -3  228.69   10.98
  15   0   3  222.61   13.34
 -15   0  -3  242.94   10.96
 -15   0   5    5.01    1.17
  15   0  -5    3.68    1.45
 -15   0  -5    3.35    1.00
 -15   0  -5    3.53    1.14
 -15   0  -7   34.67    2.66
 -15   0   7   34.18    2.66
 -15   0  -9  370.97   17.30
  15   0  -9  377.55   17.43
 -15   0 -11   28.00    2.51
  15   0 -11   28.11    2.42
 -15   0 -13   45.16    3.10
  15   0 -13   47.56    3.04
  15   0 -15  131.28    6.34
 -15   0 -17   21.20    1.40
 -15  -1 -18   23.42    1.38
  15   1 -16   22.21    1.52
 -15  -1 -14   50.54    3.06
  15   1 -14   48.83    3.02
  15   1 -12  150.97    7.83
 -15  -1 -12  162.22    8.01
 -15  -1 -10  128.86    6.80
  15   1 -10  127.64    6.88
 -15  -1  -8  102.56    5.65
 -15  -1  -6  107.33    5.50
  15   1  -6   90.72    6.81
  15   1  -6   99.16    5.80
 -15   1   6   98.38    5.50
 -15  -1  -4  168.68    8.00
 -15  -1  -4  164.18    8.09
  15  -1   4  155.07    8.46
  15  -1   4  174.31   10.59
  15   1  -4  155.32    9.80
 -15   1   4  160.60    8.10
  15  -1   2   56.30    5.20
  15   1  -2   62.25    5.35
 -15   1   2   55.30    3.56
  15  -1   2   67.31    4.17
 -15   1   2   57.82    3.33
 -15  -1  -2   59.68    3.41
 -15  -1  -2   62.13    3.65
  15  -1   0  145.44    7.69
  15   1   0  152.00    9.45
  15  -1   0  142.91    9.10
 -15   1   0  138.03    7.21
 -15   1   0  143.09    7.06
 -15  -1   0  153.15    7.31
  15  -1  -2   61.59    5.27
  15   1   2   66.04    5.76
 -15  -1   2   67.37    3.85
 -15   1  -2   57.32    3.66
 -15   1  -2   68.72    3.75
  15  -1  -4  144.81    9.15
 -15  -1   4  151.35    7.69
 -15   1  -4  160.97    7.73
  15   1   6   99.10    8.06
 -15  -1   6  110.92    5.82
 -15   1  -8  101.40    5.71
  15  -1  -8  101.94    5.83
 -15  -1   8  103.68    5.61
 -15   1 -10  116.39    6.34
  15  -1 -10  114.46    6.29
 -15   1 -12  156.48    7.85
  15  -1 -12  150.15    7.67
  15  -1 -14   52.01    3.09
 -15   1 -16   17.35    1.33
  15  -1 -16   14.77    1.18
 -15  -2 -17   21.42    1.33
  15   2 -17   20.05    1.27
 -15  -2 -15   36.76    2.34
  15   2 -15   36.73    2.30
 -15  -2 -13   23.77    2.07
  15   2 -13   21.83    1.96
  15   2 -11   12.54    1.74
 -15  -2 -11   12.81    1.74
 -15  -2  -9   41.17    2.94
  15   2  -9   42.02    3.21
 -15  -2  -7   23.71    2.20
  15  -2   7   26.14    2.51
  15   2  -7   29.20    2.58
 -15  -2  -5   24.31    1.98
  15   2  -5   24.82    3.16
  15  -2   5   25.63    2.50
  15  -2   5   19.18    3.29
  15   2  -5   26.67    2.54
 -15   2   5   23.04    2.16
 -15   2   3    3.83    1.09
  15  -2   3    4.19    1.50
 -15  -2  -3    3.77    1.11
  15   2  -3    1.73    1.45
 -15   2   3    3.04    0.79
 -15  -2  -3    2.61    0.80
  15   2  -3    4.60    1.50
  15  -2   3    0.47    1.54
  15  -2   1   14.17    2.65
 -15   2   1   13.08    1.59
  15  -2   1   14.70    2.04
  15   2  -1   13.27    2.59
 -15   2   1   14.09    1.44
 -15  -2  -1   15.65    1.62
 -15  -2   1   12.66    1.57
  15   2   1   19.16    3.07
 -15   2  -1   13.82    1.50
  15  -2  -1   11.37    2.30
  15  -2  -1   14.53    2.03
 -15  -2   3    1.70    1.06
 -15   2  -3    2.06    0.94
  15   2   3    2.33    1.85
  15  -2  -3    1.68    1.21
 -15   2  -5   26.73    2.28
 -15  -2   5   28.71    2.25
  15   2   5   21.89    3.62
 -15   2  -7   22.41    2.18
 -15  -2   7   19.97    1.98
 -15   2  -9   32.87    2.80
  15  -2  -9   38.02    2.87
  15  -2 -11   10.62    1.60
  15  -2 -13   24.50    2.01
 -15   2 -15   29.13    2.01
  15  -2 -15   29.65    1.89
 -15   2 -17   20.20    1.34
 -15  -3 -16    9.57    0.99
  15   3 -16   10.89    1.01
  -3 -15 -16    8.91    0.91
  15   3 -14    7.58    1.14
 -15  -3 -14    6.48    1.11
 -15  -3 -12   22.36    2.08
  15   3 -12   22.71    2.06
 -15  -3 -10   33.05    2.59
  15   3 -10   35.39    2.78
 -15  -3  -8   30.71    2.45
  15  -3   8   35.67    2.80
  15   3  -8   34.23    2.83
  15  -3   6    0.80    1.27
 -15  -3  -6    0.94    0.88
  15   3  -6    1.46    1.42
  15  -3   4   37.18    2.85
  15   3  -4   35.25    3.85
  15  -3   4   29.31    3.86
  15   3  -4   35.06    2.95
 -15   3   4   31.63    2.53
 -15   3   4   31.15    2.19
 -15  -3  -2   45.45    2.95
  15  -3   2   43.96    3.30
  15  -3   2   50.74    4.63
  15   3  -2   42.23    4.33
  15   3  -2   46.49    3.50
 -15   3   2   41.86    2.75
  15  -3   0   84.59    4.98
  15   3   0   84.09    5.21
  15   3   0   73.89    6.34
 -15   3   0   83.45    4.49
  15  -3   0   71.13    5.92
 -15  -3   0   86.98    4.64
  15  -3  -2   41.43    3.20
  15   3   2   39.84    4.56
  15  -3  -2   42.51    4.00
 -15  -3   2   45.46    2.93
 -15   3  -2   45.46    2.93
  15   3   4   29.33    4.03
 -15  -3   4   35.33    2.50
 -15   3  -4   33.11    2.49
 -15  -3   6    1.48    1.02
 -15   3  -6    1.44    1.12
 -15   3  -8   39.84    2.99
  15  -3  -8   33.71    2.89
 -15  -3   8   37.60    2.77
  15  -3 -10   35.84    2.81
 -15   3 -12   19.26    2.01
  15  -3 -12   18.19    1.82
 -15   3 -14    7.10    1.10
  15  -3 -14    5.57    0.96
 -15   3 -16   11.52    1.05
 -15  -4 -17   18.74    1.25
  15   4 -17   20.91    1.26
  15   4 -15   38.36    2.33
  -4 -15 -15   33.75    2.14
 -15  -4 -13   16.85    1.67
  15   4 -13   12.75    1.47
  15   4 -11    4.21    1.24
 -15  -4 -11    3.99    1.18
  15  -4   9    5.26    1.30
  15   4  -9    5.77    1.37
 -15  -4  -9    5.28    1.12
 -15  -4  -7  109.62    5.73
  15  -4   7  117.30    6.23
  15   4  -7  107.77    6.20
  15  -4   5   34.07    2.77
  15   4  -5   31.26    2.89
 -15   4   5   30.49    2.21
 -15  -4  -3   26.36    2.12
  15   4  -3   19.40    3.03
  15  -4   3   22.36    3.18
  15  -4   3   25.32    2.46
  15   4  -3   23.05    2.54
 -15   4   3   25.51    1.96
  15  -4   1   10.03    1.72
 -15  -4  -1   10.46    1.38
  15  -4   1    6.93    1.83
 -15   4   1    8.43    1.21
  15   4  -1    6.68    2.07
  15   4  -1    6.77    1.74
  15  -4  -1    9.43    1.70
 -15  -4   1    8.49    1.27
 -15   4  -1    9.18    1.27
  15   4   1    6.81    2.10
 -15  -4   3   24.22    2.13
  15   4   3   21.58    3.44
 -15   4  -3   26.62    2.20
 -15  -4   5   30.83    2.35
 -15   4  -5   27.95    2.44
 -15   4  -7  104.69    5.86
  15  -4  -9    4.59    1.28
 -15   4 -11    4.23    1.33
  15  -4 -11    3.07    1.14
 -15   4 -13   10.56    1.40
  15  -4 -13   11.34    1.30
 -15   4 -15   36.36    2.21
 -15   4 -17   17.72    1.14
 -15  -5 -16    8.81    0.86
  15   5 -16    9.54    0.91
 -15   5  16    8.04    0.73
 -15  -5 -14   29.30    2.00
 -15  -5 -12  120.13    5.97
  15   5 -12  109.72    5.85
 -15  -5 -10   70.33    4.01
  15  -5  10   65.16    3.94
  15   5 -10   73.89    4.23
 -15  -5  -8   30.71    2.25
  15  -5   8   33.04    2.73
  15   5  -8   30.84    2.66
  15  -5   6   77.74    4.74
  15   5  -6   81.67    4.95
 -15   5   6   77.27    4.29
  15  -5   4   16.32    2.01
  15   5  -4   13.70    2.08
 -15   5   4   17.35    1.59
  15  -5   2    7.14    1.56
 -15  -5  -2    5.93    1.21
 -15   5   2    7.48    1.19
  15   5  -2    7.68    1.80
  15  -5   2    8.96    2.01
 -15  -5   0    4.21    1.10
  15  -5   0    2.00    1.29
  15   5   0    2.02    1.58
 -15   5   0    2.94    1.02
 -15  -5   2    4.35    1.11
 -15   5  -2    5.82    1.23
  15   5   2    6.70    2.13
  15  -5  -4   11.04    1.74
 -15   5  -4   10.60    1.50
 -15   5  -6   72.57    4.42
 -15  -5   8   34.11    2.56
  15  -5 -10   72.52    4.30
 -15   5 -10   75.43    4.54
  15  -5 -12   99.80    5.28
 -15   5 -12  105.10    5.49
 -15   5 -14   29.80    2.02
 -15   5 -16    9.74    0.84
 -15  -6 -15  104.13    4.98
 -15  -6 -13   75.58    4.00
  15   6 -13   73.27    4.01
 -15  -6 -11   22.39    1.78
  15  -6  11   19.06    1.67
  15   6 -11   22.37    1.91
 -15  -6  -9  109.35    5.82
  15  -6   9  124.36    6.31
  15   6  -9  120.35    6.23
  15  -6   7  271.46   12.60
  15   6  -7  253.07   12.64
  15  -6   5    9.29    1.64
 -15   6   5    9.61    1.29
  15   6  -5   10.07    1.85
  15  -6   3   19.45    2.12
  15   6  -3   18.74    2.32
 -15   6   3   18.14    1.70
 -15  -6  -1   51.72    3.21
  15  -6   1   47.58    3.43
 -15   6   1   49.52    3.16
 -15   6  -1   52.08    3.34
  15  -6  -3   18.94    2.06
 -15   6  -3   18.11    1.87
 -15  -6   5    9.86    1.42
 -15  -6   7  294.87   13.24
 -15   6  -7  270.06   13.45
  15  -6  -9  113.48    5.95
 -15  -6   9  115.61    5.95
 -15   6  -9  109.82    6.15
  15  -6 -11   15.85    1.61
 -15   6 -11   17.47    1.88
 -15   6 -13   70.53    3.87
 -15   6 -15  101.38    4.83
 -15  -7 -14   25.47    1.64
  15   7 -14   25.32    1.72
 -15  -7 -12  107.41    5.43
  15   7 -12  110.89    5.52
  15  -7  10   64.24    3.87
  15   7 -10   70.51    3.97
  15  -7   8   47.27    3.31
  15   7  -8   44.15    3.18
  15  -7   6   86.76    4.96
  15   7  -6   79.50    5.00
  15  -7   4   56.28    3.79
  15   7  -4   52.18    3.91
 -15   7   4   59.30    3.46
  15  -7   2   67.98    4.27
 -15   7   2   67.95    3.98
 -15   7   0   26.74    2.22
  15  -7  -2   75.34    4.40
 -15   7  -2   71.00    4.23
 -15  -7   2   69.53    4.06
  15  -7  -4   68.65    4.11
 -15  -7   4   64.89    3.85
 -15  -7   6   92.26    4.88
 -15   7  -6   85.66    5.16
 -15  -7   8   52.49    3.24
 -15   7  -8   48.12    3.48
  15  -7 -10   66.33    3.86
 -15   7 -10   70.41    4.19
 -15   7 -12  112.35    5.73
 -15   7 -14   21.36    1.46
  15   8 -15    1.12    0.44
  15   8 -13   24.87    1.71
  15  -8  11   30.49    2.10
  15   8 -11   34.10    2.26
  15  -8   9    0.86    1.19
  15   8  -9    1.07    0.95
  15  -8   7   51.29    3.48
  15   8  -7   49.93    3.42
  15  -8   5   49.60    3.39
  15   8  -5   43.98    3.40
  15  -8   3    6.27    1.60
 -15   8   3   11.16    1.41
 -15  -8  -1   68.38    3.94
 -15   8   1   70.15    4.08
  15  -8  -1   75.73    4.55
 -15   8  -1   77.36    4.42
 -15  -8   1   75.88    4.27
  15  -8  -3   14.94    1.79
 -15  -8   3   14.12    1.50
 -15  -8   5   46.56    3.01
 -15   8  -5   49.77    3.39
 -15  -8   7   50.97    3.10
 -15   8  -7   46.84    3.40
 -15   8  -9    1.26    1.09
  15  -8  -9    0.68    0.80
 -15   8 -11   29.32    2.21
 -15   8 -13   24.93    1.65
  15   9 -14   10.43    0.90
  15  -9  12    2.70    0.63
  15   9 -12    1.88    0.67
  15  -9  10   12.48    1.47
  15   9 -10   16.82    1.49
  15  -9   8   28.62    2.41
  15   9  -8   26.85    2.20
  15  -9   6   64.98    3.97
  15   9  -6   60.82    3.89
  15  -9   4   10.52    1.71
 -15  -9  -4   10.73    1.41
 -15   9   4    9.26    1.38
 -15  -9  -2   70.06    4.02
 -15   9   2   72.43    4.15
  15  -9   0  101.01    5.16
 -15  -9   0   95.39    4.78
  15  -9  -2   76.60    4.55
 -15  -9   2   79.93    4.31
  15  -9  -4   12.71    1.60
 -15   9  -4   14.23    1.81
 -15  -9   4   13.31    1.41
 -15  -9   6   57.46    3.37
 -15   9  -6   58.62    3.82
 -15  -9   8   28.83    2.06
 -15   9  -8   25.27    2.31
 -15   9 -10   11.83    1.42
 -15   9 -12    2.84    0.65
  15  10 -13    1.35    0.45
  15 -10  11    8.60    0.98
  15  10 -11    9.01    0.98
  15 -10   9    6.82    1.22
  15  10  -9    7.63    1.09
  15 -10   7   17.17    1.80
  15  10  -7   13.62    1.52
 -15 -10  -5   62.13    3.55
  15 -10   5   58.09    3.76
 -15 -10  -3   48.46    3.00
 -15  10   3   49.01    3.15
  15 -10   1    9.15    1.54
 -15 -10  -1   11.75    1.35
  10 -15   1    9.46    1.24
  15 -10  -1   16.24    1.75
 -15  10  -1   14.99    1.75
 -15 -10   1   13.38    1.44
  15 -10  -3   42.03    2.82
 -15  10  -3   39.81    2.97
 -15 -10   3   39.93    2.57
 -15 -10   5   54.80    3.20
 -15  10  -5   55.95    3.65
 -15  10  -7   15.41    1.79
 -15 -10   7   13.51    1.35
 -15  10  -9    4.60    1.05
 -15  10 -11    6.70    0.86
  15 -11  10    6.09    0.94
  15  11 -10    7.41    0.85
  15 -11   8    1.05    0.94
 -15 -11  -6   23.21    1.78
  15 -11   6   18.68    1.92
  11 -15   4    4.23    1.10
 -15 -11  -4    5.63    1.02
  15 -11   2    8.71    1.45
 -15 -11  -2    7.31    1.11
  11 -15   2    6.22    1.16
  11 -15   0   11.39    1.22
 -15 -11   0   10.16    1.19
  15 -11   0    9.19    1.42
 -15  11   0   12.52    1.56
 -15 -11   2    6.76    1.01
  15 -11  -2    7.42    1.26
 -15  11  -2    9.20    1.48
 -15 -11   4    6.16    0.97
 -15  11  -4    5.51    1.36
 -15 -11   6   16.52    1.42
 -15  11  -6   19.13    1.92
 -15  11  -8    2.21    0.87
 -15  11 -10    9.05    0.96
 -15 -12 -11    4.79    0.68
 -12 -15  -9   18.29    1.36
 -15 -12  -9   24.27    1.61
  15 -12   9   21.42    1.61
  12 -15   9   23.41    1.64
  15 -12   7    7.77    1.23
  12 -15   7    7.29    1.14
 -15 -12  -7    9.45    1.07
 -15 -12  -5   22.71    1.72
  12 -15   5   21.98    1.83
  15 -12   3    0.79    1.06
 -15 -12  -3    3.24    0.85
  12 -15   3    2.14    0.90
 -15 -12  -1    2.52    0.77
  15 -12   1    3.34    1.06
  12 -15   1    1.92    0.77
 -15 -12   1    1.86    0.69
  15 -12  -1    1.85    0.94
 -15  12  -1    0.56    1.06
 -15 -12   3    2.76    0.71
  15 -12  -3    1.35    0.80
 -15  12  -3    2.40    1.11
 -15 -12   5   18.71    1.43
 -15  12  -5   23.17    2.02
 -15  12  -7    6.27    1.10
 -15  12  -9   19.46    1.37
  15 -13   8   10.53    1.11
  13 -15   8    9.55    1.10
 -15 -13  -8   11.37    0.98
  15 -13   6    1.43    0.84
 -15 -13  -6    0.56    0.58
  13 -15   6    0.86    0.76
  15 -13   4   31.16    2.13
  13 -15   4   27.58    2.00
 -15 -13  -4   29.26    1.88
  15 -13   2   14.47    1.44
  13 -15   2   13.00    1.28
 -15 -13  -2   13.18    1.18
  15 -13   0   21.70    1.68
  13 -15   0   17.28    1.45
 -15 -13   0   20.38    1.45
  15 -13  -2   11.83    1.20
 -15 -13   2   11.59    1.03
  15 -14   7   11.32    1.06
  14 -15   7   10.97    1.05
  15 -14   5   57.89    3.09
  14 -15   5   55.96    3.04
  15 -14   3   45.97    2.53
  14 -15   3   40.78    2.42
 -15 -14  -3   39.62    2.24
  15 -14   1   47.18    2.61
  14 -15   1   43.33    2.49
  16   0   0  255.34   14.58
 -16   0   0  267.57   12.44
 -16   0   2   41.40    2.80
 -16   0  -2   36.50    2.67
 -16   0  -2   37.83    2.53
 -16   0   4  125.31    6.60
 -16   0  -4  123.91    6.49
 -16   0  -4  132.75    6.53
 -16   0  -6  171.62    8.76
  16   0  -6  185.26    9.15
 -16   0   6  181.21    8.86
 -16   0  -8   71.74    4.29
 -16   0 -10   85.56    4.88
  16   0 -10   85.91    4.96
 -16   0 -12  213.90    9.84
  16   0 -12  194.11    9.68
 -16   0 -14   37.97    2.33
  16   0 -14   33.85    2.24
  16   0 -16   13.58    1.00
 -16  -1 -15   87.94    4.28
  16   1 -15   83.87    4.25
 -16  -1 -13   55.67    3.32
  16   1 -13   56.20    3.27
 -16  -1 -11   27.51    2.24
  16   1 -11   24.91    2.20
 -16  -1  -9  247.17   11.72
 -16  -1  -7   85.28    4.75
 -16  -1  -7   79.57    4.63
  16   1  -7   89.47    5.14
 -16  -1  -5   23.48    1.96
 -16  -1  -5   24.03    2.02
  16  -1   5   23.75    2.45
  16   1  -5   24.09    2.42
 -16   1   5   23.88    2.17
  16  -1   3  217.41   10.94
  16   1  -3  227.05   10.98
 -16   1   3  208.64   10.46
 -16  -1  -3  221.54   10.48
 -16  -1  -3  220.47   10.26
 -16   1   1   83.39    4.79
 -16   1   1   84.93    4.51
 -16  -1  -1   91.87    4.85
 -16   1  -1   81.24    4.69
 -16  -1   1   89.63    4.81
 -16   1  -1   84.53    4.56
 -16  -1   3  208.12   10.58
 -16   1  -3  235.32   10.57
 -16  -1   5   24.48    2.15
 -16   1  -5   24.64    2.10
 -16   1  -7   87.96    4.93
 -16  -1   7   83.35    4.85
 -16   1  -9  240.73   11.75
  16  -1  -9  250.77   11.85
 -16   1 -11   27.73    2.35
  16  -1 -11   28.36    2.32
 -16   1 -13   58.00    3.41
  16  -1 -13   58.32    3.37
  16  -1 -15   83.65    4.11
  16   2 -16    0.88    0.45
 -16  -2 -16    1.38    0.49
 -16  -2 -14   14.08    1.34
  16   2 -14   14.34    1.31
 -16  -2 -12   64.75    3.76
  16   2 -12   61.01    3.65
 -16  -2 -10   33.51    2.51
 -16  -2  -8    5.91    1.22
 -16  -2  -8    5.97    1.23
  16   2  -8    9.06    1.73
 -16  -2  -6   30.39    2.29
 -16  -2  -6   29.83    2.38
  16  -2   6   32.31    2.74
  16   2  -6   34.84    2.89
 -16  -2  -4   29.17    2.27
  16  -2   4   27.03    2.61
  16   2  -4   27.19    2.62
 -16   2   4   27.79    2.33
 -16  -2  -4   26.72    2.00
 -16   2   2    9.23    1.45
  16  -2   2   10.95    1.86
 -16  -2  -2   10.67    1.46
 -16   2   2    9.92    1.18
  16   2  -2    7.36    1.77
 -16  -2   0    7.81    1.28
  16  -2   0    6.03    1.48
 -16   2   0    5.16    1.01
 -16   2  -2   13.52    1.53
 -16  -2   2   15.75    1.71
 -16  -2   4   29.23    2.33
 -16   2  -4   29.18    2.31
 -16  -2   6   33.62    2.53
 -16   2  -6   31.60    2.53
 -16   2  -8   10.29    1.63
  16  -2  -8    7.28    1.67
 -16   2 -10   40.28    3.00
  16  -2 -10   43.03    3.02
  16  -2 -12   52.42    3.22
  16  -2 -14   11.44    1.15
 -16   2 -16    1.54    0.48
 -16  -3 -15   11.69    1.05
  16   3 -15   11.62    1.05
 -16  -3 -13   17.01    1.54
  16   3 -13   13.95    1.45
 -16  -3 -11   12.29    1.53
  16   3  -9    0.08    1.12
 -16  -3  -9    1.27    0.92
 -16  -3  -7   39.21    2.68
  16  -3   7   41.77    3.11
  16   3  -7   41.07    3.16
  16  -3   5   15.22    2.00
 -16  -3  -5   14.19    1.58
 -16  -3  -5   11.76    1.32
  16   3  -5   14.44    2.01
 -16  -3  -3   39.36    2.67
  16  -3   3   40.07    3.04
  16   3  -3   36.13    3.08
 -16   3   3   33.29    2.35
  16  -3   1    5.44    1.55
 -16  -3  -1    6.47    1.25
 -16   3   1    6.04    1.06
  16   3  -1    4.91    1.58
 -16  -3   1    7.20    1.28
  16  -3  -1    6.26    1.61
 -16   3  -1    8.05    1.22
 -16  -3   3   48.74    3.15
 -16   3  -3   46.32    3.07
 -16  -3   5   13.24    1.59
 -16   3  -5   15.20    1.71
  16  -3  -7   44.74    3.19
 -16  -3   7   43.03    3.04
 -16   3  -7   42.72    3.12
 -16   3  -9    1.97    1.23
  16  -3  -9    1.68    1.13
  16  -3 -11   11.65    1.49
  16  -3 -13   17.61    1.47
 -16   3 -13   13.68    1.49
 -16   3 -15   11.32    1.04
 -16  -4 -14   13.27    1.20
  16   4 -14   13.90    1.25
 -16  -4 -12   49.30    3.04
 -16  -4 -10   36.22    2.46
  16   4 -10   33.41    2.55
 -16  -4  -8   67.44    4.04
  16  -4   8   80.35    4.51
  16   4  -8   79.78    4.57
  16  -4   6   10.59    1.71
  16   4  -6    9.19    1.71
  16  -4   4    5.71    1.52
 -16  -4  -4    5.08    1.18
 -16   4   4    5.39    1.02
  16   4  -4    6.14    1.60
  16  -4   2   48.12    3.46
  16   4  -2   40.65    3.55
 -16   4   2   49.07    3.00
 -16  -4  -2   51.23    3.15
  16  -4   0   13.80    1.91
 -16  -4   0   15.41    1.65
 -16   4   0   15.02    1.57
  16  -4  -2   48.27    3.46
 -16  -4   2   45.41    3.09
 -16   4  -2   50.13    3.12
 -16  -4   4    3.90    1.13
 -16   4  -4    2.78    1.08
 -16  -4   6    8.88    1.42
 -16   4  -6    7.92    1.48
  16  -4  -8   71.43    4.24
 -16   4  -8   67.33    4.25
  16  -4 -10   36.58    2.67
  16  -4 -12   40.11    2.59
 -16   4 -12   43.51    2.79
 -16   4 -14   17.01    1.38
 -16  -5 -15   47.90    2.58
  16   5 -15   55.44    2.71
 -16  -5 -13   62.34    3.37
 -16  -5 -11   40.69    2.54
  16   5 -11   38.86    2.62
 -16  -5  -9   33.70    2.24
  16  -5   9   32.09    2.39
  16   5  -9   33.44    2.53
  16  -5   7  223.34   10.81
  16   5  -7  219.86   10.80
  16  -5   5   34.23    2.83
  16   5  -5   33.29    2.88
 -16  -5  -5   35.07    2.56
 -16   5   5   34.97    2.37
  16  -5   3    1.80    1.38
 -16  -5  -3    1.68    0.98
 -16   5   3    1.43    0.85
  16   5  -3    1.21    1.37
  16  -5   1   33.87    2.88
 -16   5   1   35.43    2.50
 -16  -5  -1   37.85    2.62
  16  -5  -1   38.50    3.03
 -16   5  -1   37.54    2.65
 -16  -5   1   41.12    2.77
 -16  -5   3    3.19    1.09
 -16   5  -3    1.29    1.01
 -16   5  -5   27.77    2.34
 -16   5  -7  215.16   10.49
  16  -5  -9   36.32    2.64
  16  -5 -11   33.62    2.33
 -16   5 -11   33.05    2.47
  16  -5 -13   55.05    2.99
 -16   5 -13   57.94    3.16
 -16   5 -15   49.91    2.56
 -16  -6 -14   13.53    1.03
 -16  -6 -14   11.88    0.95
  16   6 -14   15.11    1.14
 -16  -6 -12  207.04    9.48
  16   6 -12  204.84    9.56
  16  -6  10   50.75    3.05
  16   6 -10   57.50    3.30
  16  -6   8   33.27    2.65
  16   6  -8   31.72    2.51
  16  -6   6  160.20    8.07
  16   6  -6  153.43    8.07
 -16  -6  -4   41.45    2.81
  16  -6   4   43.67    3.09
  16   6  -4   35.70    3.09
 -16   6   4   41.28    2.70
 -16  -6  -2   26.21    2.14
  16  -6   2   26.21    2.48
 -16   6   2   25.83    2.08
  16  -6   0   65.87    4.26
 -16   6   0   66.90    3.98
 -16  -6   0   71.93    4.00
 -16   6  -2   28.92    2.36
 -16   6  -4   53.80    3.48
 -16  -6   6  175.13    8.54
  16  -6  -8   32.15    2.43
 -16  -6   8   32.01    2.35
 -16   6  -8   27.05    2.43
  16  -6 -10   57.22    3.36
 -16   6 -10   54.60    3.51
  16  -6 -12  185.00    8.81
 -16   6 -12  201.56    9.04
 -16   6 -14   13.42    1.07
  16   7 -13   41.29    2.35
  16   7 -11   16.46    1.45
  16  -7   9   25.21    2.02
  16   7  -9   23.84    2.00
  16  -7   7  111.31    5.95
  16   7  -7  108.10    5.88
  16  -7   5    5.50    1.43
 -16  -7  -5    7.38    1.26
  16   7  -5    6.68    1.37
  16  -7   3    4.50    1.44
 -16  -7  -3    3.41    1.06
 -16   7   3    3.54    0.99
  16  -7   1   23.18    2.41
 -16   7   1   26.51    2.09
 -16   7  -1   26.96    2.20
 -16  -7   3    6.18    1.22
  16  -7  -3    9.31    1.55
 -16   7  -3    6.10    1.33
 -16  -7   5    5.58    1.13
 -16  -7   7  117.00    5.91
 -16   7  -7  112.05    6.15
  16  -7  -9   17.61    1.70
 -16   7  -9   22.38    2.01
  16  -7 -11   17.35    1.40
 -16   7 -11   17.71    1.58
 -16   7 -13   38.94    2.22
  16   8 -12   16.00    1.26
  16  -8  10    2.71    0.79
  16   8 -10    3.07    0.80
  16  -8   8   21.39    2.01
  16   8  -8   16.95    1.69
  16  -8   6    1.48    1.13
 -16  -8  -6    1.90    0.95
  16   8  -6    0.28    0.92
  16  -8   4   22.20    2.14
 -16   8   4   17.43    1.69
  16  -8   2   49.84    3.41
 -16   8   2   49.93    3.16
 -16  -8   0    8.91    1.28
 -16   8   0    8.12    1.33
  16  -8  -2   56.39    3.55
 -16   8  -2   51.43    3.42
 -16  -8   2   53.71    3.24
 -16  -8   4   16.49    1.61
 -16  -8   6    0.96    0.81
 -16   8  -6    0.89    1.05
  16  -8  -8   20.58    1.78
 -16  -8   8   22.67    1.79
 -16   8  -8   21.49    2.02
 -16   8 -10    2.98    0.94
  16  -8 -10    2.37    0.73
 -16   8 -12   16.98    1.29
  16  -9  11    3.14    0.61
 -16  -9 -11    5.48    0.85
  16   9 -11    4.18    0.70
  16  -9   9   26.37    2.01
  16   9  -9   29.32    1.94
  16  -9   7   14.32    1.64
  16   9  -7   12.41    1.35
  16  -9   5   48.26    3.24
  16  -9   3  119.99    6.49
 -16   9   3  125.41    6.32
 -16  -9  -3  126.05    6.27
  16  -9   1   20.30    2.10
 -16   9   1   22.69    1.98
 -16  -9  -1   22.99    1.84
  16  -9  -1   22.22    2.09
 -16  -9   1   20.88    1.76
  16  -9  -3  121.01    6.28
 -16  -9   3  120.30    6.04
 -16  -9   5   56.75    3.21
 -16   9  -5   51.33    3.42
 -16   9  -7   14.99    1.76
 -16  -9   7   18.85    1.56
 -16   9  -9   23.95    1.92
 -16   9 -11    4.19    0.72
  16 -10  10    6.55    0.82
  16  10 -10    6.38    0.76
  16 -10   8   14.91    1.53
 -16 -10  -6   56.39    3.22
  16 -10   6   54.12    3.39
  16 -10   4   19.87    1.95
 -16 -10  -4   20.58    1.71
  16 -10   2   54.87    3.43
  10 -16   2   45.39    2.93
 -16  10   2   52.82    3.24
 -16 -10  -2   58.89    3.17
  16 -10   0   74.24    4.24
 -16 -10   0   71.33    3.94
  16 -10  -2   58.90    3.47
 -16  10  -2   52.65    3.45
 -16 -10   2   56.49    3.21
 -16 -10   4   18.87    1.55
 -16  10  -4   18.62    1.84
 -16 -10   6   59.27    3.30
 -16  10  -6   59.61    3.63
 -16  10  -8   19.03    1.69
 -16  10 -10    8.45    0.91
  16 -11   9    1.34    0.64
  11 -16   9    1.32    0.64
 -16 -11  -9    1.66    0.64
  16 -11   7    5.47    1.09
  11 -16   7    6.23    1.00
 -16 -11  -7    8.03    0.99
  16 -11   5   26.03    2.06
  11 -16   5   22.81    1.85
 -16 -11  -5   27.35    1.86
  16 -11   3   16.04    1.66
 -16 -11  -3   17.68    1.44
  16 -11   1   16.78    1.66
  11 -16   1   12.36    1.25
 -16 -11  -1   17.20    1.43
  16 -11  -1   15.39    1.58
 -16  11  -1   13.05    1.52
 -16 -11   1   13.94    1.31
 -16 -11   3   16.35    1.38
 -16  11  -3   16.18    1.66
 -16 -11   5   23.45    1.67
 -16  11  -5   24.79    2.02
 -16  11  -7    7.02    1.06
 -16  11  -9    1.04    0.52
  16 -12   8    3.46    0.71
 -16 -12  -8    5.05    0.71
  12 -16   8    3.41    0.74
 -16 -12  -6    1.37    0.59
  12 -16   6    0.87    0.68
 -16 -12  -4    7.44    0.98
  16 -12   4    9.12    1.23
  12 -16   4    7.98    1.03
 -16 -12  -2    9.19    1.01
  16 -12   2    8.22    1.17
  12 -16   2    7.25    0.95
 -16 -12   0    2.83    0.70
  16 -12   0    3.79    0.93
 -16 -12   2   10.12    1.00
 -16 -12   4    4.30    0.74
 -16  12  -4    4.58    1.04
 -16  12  -6    1.01    0.67
  16 -13   5   10.14    1.10
  13 -16   5    9.40    0.97
 -16 -13  -5    9.89    0.92
 -16 -13  -3    4.03    0.68
  16 -13   3    4.25    0.87
  13 -16   3    4.38    0.72
 -16 -13  -1    3.35    0.64
  16 -13   1    3.79    0.83
 -16 -13   1    3.35    0.58
 -17   0   1    6.07    1.24
 -17   0  -1    6.24    1.24
 -17   0   3   14.36    1.73
  17   0  -3   18.52    2.19
 -17   0  -3   15.13    1.53
 -17   0   5    2.99    1.10
 -17   0  -5    2.50    0.99
  17   0  -5    0.71    1.32
  17   0  -7   27.30    2.53
 -17   0  -7   29.34    2.25
 -17   0  -9   55.75    3.44
 -17   0 -11   11.01    1.39
  17   0 -11   12.35    1.45
  17   0 -13   16.70    1.40
 -17   0 -13   16.27    1.41
 -17   0 -15   39.13    2.10
  17   1 -14   10.08    0.97
 -17  -1 -14   11.14    1.00
 -17  -1 -12   55.62    3.30
  17   1 -12   57.45    3.27
 -17  -1 -10   31.40    2.35
 -17  -1  -8    1.43    0.92
  17   1  -8    2.91    1.30
  17   1  -6   26.54    2.50
 -17  -1  -6   22.16    1.90
  17   1  -4   39.60    3.09
 -17   1   4   35.08    2.62
 -17  -1  -4   33.89    2.55
 -17  -1  -4   34.09    2.36
 -17   1   2    4.36    1.14
 -17  -1  -2    4.05    1.12
  17   1  -2    3.74    1.59
 -17   1   0    9.21    1.38
 -17  -1   0   11.25    1.51
 -17   1   0    8.06    1.08
 -17  -1   2    3.93    1.14
 -17   1  -2    3.03    0.94
 -17  -1   4   25.74    2.19
 -17   1  -4   25.47    2.10
  17  -1  -6   22.45    2.27
 -17  -1   6   21.66    2.05
 -17   1  -6   19.72    1.89
 -17   1  -8    3.41    1.14
  17  -1 -10   32.47    2.50
 -17   1 -10   32.79    2.47
  17  -1 -12   47.75    2.93
 -17   1 -12   51.25    3.02
  17  -1 -14    6.36    0.82
 -17   1 -14    8.81    0.92
 -17  -2 -13   11.63    1.13
  17   2 -13    8.72    1.05
 -17  -2 -11   25.09    1.95
 -17  -2  -9    5.61    1.11
  17   2  -9    8.22    1.39
  17   2  -7   18.21    2.05
 -17  -2  -7   17.60    1.70
 -17  -2  -7   16.47    1.62
  17   2  -5   25.49    2.51
 -17  -2  -5   23.38    2.01
 -17  -2  -5   25.13    1.89
  17   2  -3   76.53    4.76
 -17   2   3   66.20    4.18
 -17  -2  -3   79.84    4.31
 -17  -2  -1   13.35    1.62
  17   2  -1   12.63    2.04
 -17   2   1   14.65    1.38
 -17  -2   1   14.72    1.70
  17   2   1   12.17    1.93
 -17   2  -1   13.16    1.44
 -17  -2   3   88.67    4.93
 -17   2  -3   90.51    4.85
 -17  -2   5   23.10    2.06
 -17   2  -5   23.57    2.05
 -17   2  -7   22.13    2.06
 -17   2  -9    4.44    1.19
  17  -2  -9    5.75    1.27
  17  -2 -11   21.51    1.85
 -17   2 -11   23.13    1.95
  17  -2 -13    9.90    1.07
 -17   2 -13   11.05    1.15
  17   3 -14   19.76    1.35
 -17  -3 -14   18.26    1.29
 -17  -3 -12    9.66    1.18
 -17  -3 -10   13.21    1.38
 -17  -3 -10   14.02    1.33
  17   3 -10   15.42    1.59
 -17  -3  -8   77.75    4.18
 -17  -3  -8   74.08    4.26
  17   3  -8   81.66    4.59
 -17  -3  -6   29.37    2.23
  17  -3   6   26.54    2.46
  17   3  -6   26.50    2.48
  17  -3   4   14.77    1.94
 -17  -3  -4   14.04    1.60
  17   3  -4   16.60    2.04
  17  -3   2  141.13    7.18
  17   3  -2  126.19    7.17
 -17   3   2  125.50    6.45
 -17  -3  -2  137.62    6.78
  17   3   0  112.48    6.41
 -17   3   0  109.95    5.76
 -17  -3   0  120.21    6.03
 -17  -3   2  123.97    6.40
 -17   3  -2  122.47    6.29
 -17  -3   4   24.57    2.06
 -17   3  -4   24.20    2.01
 -17  -3   6   35.63    2.63
 -17   3  -6   35.09    2.62
  17  -3  -8   85.29    4.73
 -17   3  -8   77.78    4.57
  17  -3 -10   13.58    1.56
 -17   3 -10   16.83    1.73
  17  -3 -12    9.02    1.09
 -17   3 -14   23.27    1.53
 -17  -4 -13   24.10    1.57
 -17  -4 -11   34.16    2.16
 -17  -4 -11   32.20    2.04
  17   4 -11   32.44    2.24
 -17  -4  -9   14.93    1.37
 -17  -4  -9   15.80    1.54
  17   4  -9   18.69    1.77
 -17  -4  -7   46.07    3.04
  17  -4   7   48.67    3.30
  17   4  -7   52.14    3.38
 -17  -4  -5   42.47    2.89
  17  -4   5   43.90    3.17
  17   4  -5   45.58    3.27
  17  -4   3  131.95    6.97
  17   4  -3  127.55    7.05
 -17   4   3  127.92    6.40
 -17  -4  -3  132.72    6.65
  17  -4   1   15.72    1.97
  17   4  -1   10.40    1.82
 -17   4   1   13.11    1.44
 -17  -4  -1   15.29    1.69
 -17  -4   1   18.95    1.82
 -17   4  -1   15.84    1.64
 -17  -4   3  152.60    7.67
 -17   4  -3  155.63    7.68
 -17  -4   5   43.38    2.94
 -17   4  -5   44.10    2.99
  17  -4  -7   47.97    3.28
 -17  -4   7   48.04    3.14
 -17   4  -7   50.09    3.26
  17  -4  -9   20.00    1.86
 -17   4  -9   17.23    1.82
  17  -4 -11   32.73    2.21
  17  -4 -13   20.00    1.41
 -17   4 -13   25.05    1.59
 -17  -5 -12   56.70    3.05
  17   5 -12   61.37    3.27
 -17  -5 -12   64.60    3.16
 -17  -5 -10   23.59    1.80
  17   5 -10   22.79    1.82
 -17  -5  -8   58.76    3.48
  17  -5   8   56.87    3.49
  17   5  -8   63.41    3.70
 -17  -5  -6   21.70    1.93
  17  -5   6   26.78    2.28
  17   5  -6   25.58    2.24
  17  -5   4   46.69    3.25
  17   5  -4   45.50    3.24
 -17   5   4   42.84    2.73
 -17  -5  -4   44.21    2.92
  17  -5   2   88.75    5.07
  17   5  -2   81.02    5.06
 -17   5   2   84.49    4.60
 -17  -5  -2   91.79    4.81
 -17  -5   0    0.65    0.91
  17  -5   0    1.32    1.28
 -17   5   0    0.37    0.84
 -17  -5   2   84.17    4.68
 -17   5  -2   84.17    4.67
 -17  -5   4   44.02    2.95
 -17   5  -4   47.20    3.07
 -17   5  -6   26.90    2.27
  17  -5  -8   54.45    3.43
 -17   5  -8   55.51    3.47
  17  -5 -10   21.34    1.78
  17  -5 -12   64.15    3.34
 -17   5 -12   65.66    3.48
 -17   5 -14   14.29    1.02
  17   6 -13   63.20    3.19
 -17  -6 -11   38.31    2.21
  17   6 -11   33.41    2.21
 -17  -6  -9   23.24    1.75
  17  -6   9   17.98    1.55
  17   6  -9   19.66    1.70
 -17  -6  -7  172.69    8.32
  17  -6   7  172.24    8.52
  17   6  -7  172.77    8.45
 -17  -6  -5   51.11    3.11
  17  -6   5   47.64    3.31
  17   6  -5   47.49    3.26
  17  -6   3    4.44    1.40
 -17  -6  -3    4.16    1.12
 -17   6   3    3.27    0.89
  17  -6   1   95.65    5.37
 -17   6   1   92.96    5.01
 -17  -6  -1   95.76    5.07
  17  -6  -1   98.46    5.55
 -17   6  -1   95.97    5.26
 -17  -6   1  103.39    5.30
 -17   6  -3    4.17    1.11
 -17   6  -5   53.75    3.38
  17  -6  -7  182.56    8.80
 -17  -6   7  180.04    8.72
  17  -6  -9   20.52    1.69
 -17   6  -9   17.32    1.74
  17  -6 -11   38.52    2.31
 -17   6 -11   42.38    2.49
 -17   6 -13   65.42    3.25
 -17  -7 -12   62.87    3.18
  17   7 -12   66.16    3.27
 -17  -7 -10   20.34    1.60
  17   7 -10   20.02    1.55
 -17  -7  -8   41.33    2.64
  17   7  -8   44.51    2.72
  17  -7   8   43.20    2.76
 -17  -7  -6   41.50    2.62
  17  -7   6   40.99    2.85
  17   7  -6   35.91    2.60
  17  -7   4   64.80    4.08
 -17  -7  -4   69.13    3.85
  17  -7   2   51.60    3.51
 -17   7   2   52.80    3.20
 -17  -7  -2   54.05    3.24
  17  -7   0   10.52    1.71
 -17   7   0   14.20    1.49
 -17   7  -2   46.51    3.06
 -17  -7   4   73.03    4.07
 -17   7  -4   73.96    4.23
 -17  -7   6   42.56    2.72
  17  -7  -8   39.66    2.57
 -17   7  -8   38.56    2.66
  17  -7 -10   18.26    1.41
 -17   7 -10   18.46    1.55
 -17   7 -12   71.37    3.55
 -17  -8 -11    4.56    0.70
  17   8 -11    4.46    0.64
  17  -8   9    1.93    0.69
 -17  -8  -9    2.13    0.74
  17   8  -9    1.97    0.67
 -17  -8  -7   55.93    3.22
  17  -8   7   60.65    3.50
  17   8  -7   53.39    3.17
  17  -8   5   52.22    3.41
 -17  -8  -5   54.69    3.18
  17  -8   3   59.95    3.57
 -17   8   3   53.27    3.18
 -17  -8  -3   48.93    3.16
 -17   8   1   70.19    3.96
  17  -8  -1   73.87    4.21
 -17   8  -1   65.72    3.91
 -17  -8   1   68.20    3.84
 -17  -8   3   43.97    2.78
 -17   8  -3   45.35    2.97
 -17  -8   5   53.25    3.13
  17  -8  -7   59.62    3.50
 -17  -8   7   64.23    3.48
 -17   8  -7   63.35    3.67
 -17   8  -9    1.81    0.77
  17  -8  -9    1.08    0.60
 -17   8 -11    3.84    0.65
 -17  -9 -10   30.94    1.89
 -17  -9  -8   66.03    3.49
  17  -9   8   63.99    3.52
  17  -9   6   38.07    2.52
 -17  -9  -6   32.64    2.24
  17  -9   4   94.17    4.61
   9 -17   4   72.55    4.14
 -17   9   2  107.23    5.60
 -17  -9  -2  112.61    5.57
  17  -9   0   69.93    3.96
 -17   9   0   61.39    3.75
 -17  -9   0   69.18    3.72
 -17  -9   2  111.04    5.58
 -17  -9   4   89.27    4.60
 -17  -9   6   36.07    2.25
 -17   9  -6   33.64    2.41
  17  -9  -8   62.01    3.28
 -17   9  -8   64.34    3.51
 -17   9 -10   24.40    1.57
  10 -17   9   10.56    1.03
 -17 -10  -9   11.97    1.05
  17 -10   7   19.60    1.61
  10 -17   7   16.87    1.46
  17 -10   5   52.77    3.12
 -17 -10  -5   58.99    2.99
 -17 -10  -3   79.51    4.16
  17 -10   1   40.30    2.72
 -17 -10  -1   40.30    2.50
  17 -10  -1   44.98    2.83
 -17 -10   1   41.99    2.60
 -17 -10   3   77.99    4.08
 -17  10  -3   80.42    4.30
 -17 -10   5   55.43    3.01
 -17  10  -5   53.01    3.20
  17 -10  -7   19.49    1.40
 -17  10  -7   21.97    1.63
 -17  10  -9    9.49    0.92
 -17 -11  -8   26.73    1.65
  17 -11   6    2.65    0.78
 -17 -11  -6    1.88    0.61
  11 -17   4   12.84    1.17
 -17 -11  -4   16.29    1.30
  17 -11   2   53.23    3.02
 -17 -11  -2   47.72    2.79
  17 -11   0   13.87    1.39
 -17 -11   0   11.90    1.16
 -17 -11   2   50.97    2.81
 -17  11  -2   51.22    3.03
 -17 -11   4   17.29    1.32
 -17  11  -4   16.75    1.49
 -17  11  -6    1.32    0.66
 -17 -12  -5   10.88    0.96
  17 -12   3    9.90    1.14
 -17 -12  -3   12.07    1.02
 -17 -12  -1    8.52    0.88
 -17 -12   1    9.15    0.91
  18   0   0   36.60    2.94
 -18   0   0   33.49    2.52
 -18   0   2   13.58    1.61
  18   0  -2   14.07    1.91
 -18   0   4    4.20    1.13
 -18   0  -4    4.38    0.93
  18   0  -4    6.71    1.52
 -18   0  -6    0.22    0.75
  18   0  -6   -0.08    1.17
  18   0  -8   18.01    1.78
 -18   0  -8   14.00    1.47
 -18   0 -10   11.08    1.29
  18   0 -10   10.97    1.33
  18   0 -12   15.28    1.30
 -18   0 -12   16.02    1.31
 -18  -1 -13    2.91    0.61
  18   1 -13    3.66    0.63
 -18  -1 -11   13.82    1.35
 -18  -1  -9    0.94    0.71
  18   1  -9    3.41    1.00
  18   1  -7   25.18    2.12
 -18  -1  -7   18.24    1.63
  18   1  -5   28.31    2.47
 -18  -1  -5   27.30    1.95
  18   1  -3   46.34    3.29
 -18  -1  -3   41.47    2.82
 -18  -1  -1   10.15    1.41
  18   1  -1    8.88    1.74
 -18  -1   1   12.68    1.53
  18   1   1   15.40    1.96
 -18   1  -1   11.91    1.25
  18  -1  -3   51.85    3.45
 -18  -1   3   47.03    3.07
 -18   1  -3   43.45    2.81
  18  -1  -5   24.13    2.29
 -18  -1   5   19.44    1.93
 -18   1  -5   21.57    1.84
  18  -1  -7   19.08    1.93
 -18   1  -7   15.51    1.58
 -18   1  -9    1.75    0.85
  18  -1  -9    2.70    0.98
  18  -1 -11   10.46    1.24
 -18   1 -11   14.59    1.39
 -18   1 -13    2.93    0.61
  18  -1 -13    2.86    0.59
 -18  -2 -12    8.68    0.93
  18   2 -10   19.31    1.60
 -18  -2 -10   16.56    1.43
  18   2  -8   75.36    4.20
 -18  -2  -8   70.32    3.85
  18   2  -6   73.94    4.26
 -18  -2  -6   65.63    3.78
  18   2  -4   29.73    2.52
 -18  -2  -4   22.38    1.99
  18   2  -2  100.09    5.71
 -18  -2  -2   97.15    5.27
  18   2   0  176.66    8.88
 -18  -2   0  181.34    8.57
 -18   2   0  168.03    8.20
 -18  -2   2  102.73    5.50
 -18   2  -2  104.21    5.31
  18  -2  -4   33.67    2.75
 -18  -2   4   33.78    2.48
 -18   2  -4   34.09    2.39
  18  -2  -6   82.09    4.64
 -18   2  -6   76.85    4.37
  18  -2  -8   73.52    4.27
 -18   2  -8   76.45    4.19
  18  -2 -10   15.90    1.53
 -18   2 -10   16.34    1.54
 -18   2 -12    8.38    0.95
  18  -2 -12    8.50    0.93
  18   3 -11   28.42    1.85
 -18  -3 -11   26.19    1.73
  18   3  -9   96.27    4.60
 -18  -3  -9   76.60    4.17
 -18  -3  -7    2.51    0.85
  18   3  -7    2.55    1.04
  18   3  -5   66.82    4.08
 -18  -3  -5   64.55    3.75
  18   3  -3  330.75   15.06
 -18  -3  -3  312.57   14.68
  18   3  -1   21.07    2.20
 -18   3   1   19.85    1.64
 -18  -3  -1   23.49    1.94
 -18  -3   1   24.56    2.09
 -18   3  -1   25.36    1.94
 -18  -3   3  344.23   15.94
 -18   3  -3  354.26   15.88
 -18  -3   5   65.63    3.80
 -18   3  -5   63.54    3.75
 -18   3  -7    1.33    0.94
  18  -3  -7    1.07    1.03
  18  -3  -9  100.98    5.27
 -18   3  -9  101.14    5.25
  18  -3 -11   34.15    2.19
 -18   3 -11   37.30    2.27
  18   4 -12    2.88    0.62
  18   4 -10   10.09    1.13
  18   4  -8   67.42    3.88
 -18  -4  -8   69.47    3.73
  18   4  -6   41.62    2.81
 -18  -4  -6   37.02    2.54
  18   4  -4   28.35    2.35
 -18  -4  -4   22.62    1.97
  18   4  -2  143.29    7.17
 -18   4   2  130.74    6.63
 -18  -4  -2  141.83    6.93
 -18   4   0   82.24    4.49
 -18  -4   0   88.38    4.69
 -18  -4   2  147.81    7.17
 -18   4  -2  138.96    7.06
 -18  -4   4   29.10    2.24
 -18   4  -4   29.63    2.23
  18  -4  -6   41.94    2.89
 -18  -4   6   40.87    2.72
 -18   4  -6   39.77    2.72
  18  -4  -8   65.42    3.79
 -18   4  -8   64.59    3.73
  18  -4 -10   12.65    1.27
 -18   4 -10   12.80    1.35
  18   5 -11   10.61    1.02
 -18  -5  -9    6.35    0.93
  18   5  -9    4.57    0.91
  18   5  -7   21.53    1.84
 -18  -5  -7   21.67    1.73
  18  -5   5   10.73    1.62
  18   5  -5   12.11    1.52
 -18  -5  -5   13.48    1.44
  18  -5   3   65.32    3.86
  18   5  -3   58.35    3.67
 -18   5   3   61.04    3.37
 -18  -5  -3   58.73    3.52
 -18  -5  -1   12.21    1.44
 -18   5   1   11.40    1.30
 -18  -5   1   11.82    1.48
 -18   5  -1   13.68    1.43
 -18  -5   3   72.83    4.09
 -18   5  -3   73.95    4.14
 -18  -5   5   15.15    1.55
 -18   5  -5   14.17    1.56
  18  -5  -7   25.31    1.98
 -18   5  -7   21.64    1.89
 -18   5  -9    6.30    1.09
  18  -5  -9    7.17    1.05
  18  -5 -11   10.08    0.95
 -18  -6 -10    5.24    0.71
  18   6 -10    5.62    0.80
  18   6  -8   21.42    1.65
 -18  -6  -8   21.34    1.62
  18  -6   6   31.61    2.28
  18   6  -6   28.42    2.10
 -18  -6  -6   29.06    2.05
  18  -6   4   34.10    2.59
 -18  -6  -4   37.27    2.44
  18  -6   2   44.95    3.13
 -18   6   2   45.71    2.82
 -18  -6  -2   49.90    2.97
 -18  -6   0   12.84    1.44
 -18   6   0   13.13    1.39
 -18  -6   2   54.75    3.15
 -18   6  -2   47.69    3.10
 -18  -6   4   31.03    2.24
 -18   6  -4   34.62    2.38
  18  -6  -6   33.82    2.37
 -18   6  -6   31.75    2.31
  18  -6  -8   22.08    1.75
 -18   6 -10    5.02    0.85
  18  -6 -10    4.62    0.70
 -18  -7  -9    2.95    0.73
  18   7  -9    2.06    0.56
  18  -7   7   60.39    3.29
  18   7  -7   55.25    3.11
 -18  -7  -7   57.73    3.20
  18  -7   5   18.61    1.82
 -18  -7  -5   20.27    1.62
  18  -7   3   21.25    1.97
 -18  -7  -3   23.87    1.83
 -18   7   1   40.05    2.59
 -18  -7  -1   42.17    2.65
 -18  -7   1   37.86    2.55
 -18   7  -1   43.06    2.66
 -18   7  -3   18.65    1.68
 -18  -7   5   20.87    1.67
 -18   7  -5   19.33    1.74
  18  -7  -7   67.22    3.67
 -18   7  -9    3.21    0.77
  18  -7  -9    2.80    0.68
  18  -8   8   34.28    2.10
 -18  -8  -8   40.88    2.24
  18  -8   6    1.13    0.88
 -18  -8  -6    1.18    0.68
  18  -8   4   58.45    3.44
 -18  -8  -4   56.41    3.20
  18  -8   2   60.01    3.60
 -18  -8  -2   60.68    3.38
 -18   8   0    6.80    1.08
 -18  -8   2   58.53    3.30
 -18   8  -2   58.74    3.41
 -18  -8   4   59.80    3.28
 -18   8  -4   57.77    3.37
  18  -8  -6    0.59    0.73
  18  -8  -8   36.04    2.18
 -18   8  -8   41.15    2.34
  18  -9   7   21.60    1.55
 -18  -9  -7   23.70    1.57
  18  -9   5   32.68    2.22
 -18  -9  -5   35.95    2.13
  18  -9   3  104.51    5.34
 -18  -9  -1   36.11    2.28
 -18   9  -1   31.73    2.21
 -18  -9   1   34.56    2.15
 -18  -9   3   97.16    4.70
 -18   9  -3   88.90    4.79
  18  -9  -5   37.49    2.22
 -18  -9   5   32.58    2.10
 -18   9  -7   18.91    1.46
  18 -10   6    3.62    0.74
 -18 -10  -4    5.79    0.80
  18 -10   4    4.87    0.92
 -18 -10  -2   35.07    2.13
 -18 -10   0   45.67    2.56
 -18 -10   2   36.85    2.17
 -18 -10   4    7.43    0.86
 -18  10  -4    7.77    1.01
  18 -10  -4    7.00    0.93
 -18  10  -6    5.15    0.78
 -18 -11  -3    2.02    0.53
 -18 -11  -1    5.00    0.72
 -18 -11   1    6.03    0.74
  19   0  -1   16.79    1.87
  19   0   1   15.40    1.84
 -19   0   1   16.93    1.60
  19   0  -3   37.26    2.78
  19   0  -5   13.71    1.70
 -19   0  -5   11.56    1.16
  19   0  -7   21.29    1.76
 -19   0  -7   17.02    1.42
 -19   0  -9    0.15    0.57
  19   0 -11    3.74    0.68
  19   1 -10   11.21    1.17
 -19  -1 -10   12.63    1.05
  19   1  -8   49.53    2.89
 -19  -1  -8   45.01    2.57
  19   1  -6    9.38    1.38
  19   1  -4    4.75    1.27
  19   1  -2   40.49    2.95
  19  -1   2   43.19    2.96
  19   1   0  100.05    5.51
  19  -1   0  108.67    5.62
 -19  -1   0   95.84    5.20
  19  -1  -2   38.78    2.81
 -19  -1   2   33.94    2.45
 -19   1  -4    3.96    0.86
  19  -1  -4    5.56    1.37
 -19   1  -6   10.93    1.18
  19  -1  -6   11.50    1.51
 -19   1  -8   45.93    2.66
  19  -1 -10   11.59    1.15
 -19   1 -10   11.62    1.11
  19   2 -11   10.62    0.96
  19   2  -9   47.47    2.73
  19   2  -7    2.29    0.91
  19   2  -5   66.87    3.96
  19   2  -3  203.87    9.46
 -19  -2  -3  185.69    9.07
  19   2  -1   34.87    2.58
 -19  -2  -1   31.60    2.32
  19  -2  -1   32.43    2.57
 -19  -2   1   30.54    2.28
  19  -2  -3  220.88    9.79
 -19  -2   3  197.99    9.47
 -19   2  -3  188.66    9.22
  19  -2  -5   68.15    3.89
 -19   2  -5   62.56    3.53
 -19   2  -7    1.55    0.73
  19  -2  -9   47.05    2.70
 -19   2  -9   43.47    2.60
  19  -2 -11   13.24    1.04
 -19   2 -11   12.13    1.02
  19   3 -10   10.97    1.04
  19   3  -8   51.55    2.95
  19   3  -6   98.78    5.03
 -19  -3  -6   92.82    4.74
  19   3  -4   50.03    3.04
 -19  -3  -4   42.56    2.72
  19   3  -2   96.72    5.18
 -19  -3  -2   94.81    4.98
 -19  -3   0  150.81    7.24
 -19   3   0  144.65    6.97
  19  -3  -2  109.33    5.56
 -19  -3   2   97.29    5.26
 -19   3  -2  100.15    5.09
  19  -3  -4   49.74    3.24
 -19  -3   4   52.04    3.07
 -19   3  -4   48.22    2.92
 -19   3  -6  111.35    5.56
  19  -3  -8   55.60    3.15
 -19   3  -8   52.49    3.02
  19  -3 -10    9.48    1.00
 -19   3 -10   10.75    1.04
  19   4  -9   46.64    2.59
 -19  -4  -7    5.67    0.84
  19   4  -7    4.79    0.94
  19   4  -5   45.77    2.78
 -19  -4  -5   42.44    2.60
  19   4  -3  166.80    8.12
 -19  -4  -3  169.81    8.04
 -19  -4  -1   12.15    1.36
 -19   4   1   11.26    1.14
 -19  -4   1   17.61    1.59
 -19   4  -1   16.20    1.45
  19  -4  -3  181.89    8.73
 -19  -4   3  182.77    8.55
 -19   4  -3  173.30    8.42
 -19   4  -5   42.71    2.63
 -19   4  -7    4.60    0.89
  19  -4  -7    4.63    0.96
  19  -4  -9   48.88    2.70
 -19   4  -9   47.36    2.69
  19   5  -8   13.68    1.18
 -19  -5  -8   13.66    1.13
 -19  -5  -6    0.94    0.64
  19   5  -6    0.34    0.63
 -19  -5  -4   10.98    1.20
 -19  -5  -2   56.54    3.25
 -19  -5   0    1.44    0.75
 -19   5   0    0.09    0.67
 -19  -5   2   59.74    3.38
 -19   5  -2   57.67    3.30
 -19  -5   4   12.28    1.33
 -19   5  -4   13.76    1.35
 -19   5  -6   -0.37    0.70
  19  -5  -6   -0.21    0.83
  19  -5  -8   14.27    1.25
 -19   5  -8   12.77    1.21
 -19   5 -10    6.65    0.78
  19   6  -7   14.51    1.18
 -19  -6  -7   16.86    1.28
 -19  -6  -5    4.49    0.79
 -19  -6  -3    4.32    0.90
 -19   6   1   20.66    1.59
 -19  -6  -1   22.67    1.69
 -19  -6   1   23.50    1.79
 -19   6  -1   24.77    1.79
 -19  -6   3    4.52    0.94
 -19   6  -3    3.61    0.84
 -19   6  -5    1.11    0.71
  19  -6  -5    2.46    0.87
  19  -6  -7   19.32    1.52
 -19   6  -7   19.88    1.52
 -19  -7  -6   12.40    1.08
 -19  -7  -4    3.04    0.73
 -19  -7  -2   17.41    1.43
 -19  -7   0    7.44    0.99
 -19   7   0    6.50    0.96
 -19  -7   2   17.75    1.47
 -19   7  -2   18.19    1.50
 -19   7  -4    2.65    0.77
  19  -7  -4    4.04    0.89
  19  -7  -6   14.05    1.24
 -19   7  -6   12.74    1.21
 -19  -8  -5    3.36    0.69
 -19  -8  -3   33.39    2.04
 -19  -8  -1    1.29    0.63
 -19   8  -1    0.95    0.66
  19  -8  -3   30.93    2.03
 -19  -8   3   28.93    1.90
 -19   8  -3   30.52    1.98
 -19   8  -5    5.59    0.84
  19  -8  -5    6.05    0.87
 -19  -9  -4    6.23    0.77
 -19  -9   0   58.49    3.07
 -19  -9   2   31.64    1.92
 -19   9  -4    5.52    0.78
  20   0   0   27.40    2.05
  20   0  -2    6.92    1.11
  20   0  -4    7.30    1.16
  20   0  -6    7.31    1.05
  20   0  -8    4.91    0.77
  20   1  -7   32.69    2.06
  20   1  -5   24.94    1.88
  20   1  -3    9.47    1.24
  20   1  -1    6.13    1.05
  20  -1   1    7.39    1.12
  20  -1  -1    9.06    1.24
  20  -1  -3   10.21    1.32
  20  -1  -5   23.81    1.83
  20  -1  -7   28.43    1.91
  20   2  -8   22.21    1.50
  20   2  -6   22.83    1.65
  20   2  -4    1.26    0.75
  20   2  -2   27.97    1.94
  20  -2   2   25.66    1.97
  20  -2   0   78.10    4.09
 -20  -2   0   68.92    3.81
  20  -2  -2   27.26    2.09
 -20   2  -4    1.36    0.53
  20  -2  -4   -0.10    0.84
  20  -2  -6   20.68    1.57
 -20   2  -6   17.25    1.30
  20   3  -7    5.01    0.70
  20   3  -5   32.23    2.03
  20  -3   3   92.62    4.46
 -20  -3  -3   79.53    4.20
  20  -3   1   18.23    1.57
 -20  -3  -1   14.73    1.33
  20  -3  -1   15.85    1.54
 -20  -3   1   14.56    1.37
  20  -3  -3   99.49    4.75
 -20   3  -3   82.87    4.30
  20  -3  -5   37.34    2.24
 -20   3  -5   29.92    1.93
 -20   3  -7    2.92    0.61
  20  -4   4   29.35    1.90
 -20  -4  -4   28.86    1.81
  20  -4   2   67.99    3.68
 -20  -4  -2   67.00    3.52
  20  -4   0   25.25    1.90
 -20  -4   0   24.05    1.73
  20  -4  -2   69.56    3.86
 -20  -4   2   76.40    3.76
 -20   4  -2   65.17    3.52
  20  -4  -4   35.01    2.19
 -20   4  -4   29.60    1.89
 -20   4  -6   18.64    1.35
 -20  -5  -3    7.41    0.89
  20  -5   1   46.91    2.72
 -20  -5  -1   44.08    2.56
  20  -5  -1   55.44    3.09
 -20  -5   1   52.88    2.90
 -20   5  -1   50.72    2.77
 -20   5  -3    8.21    0.89
  20  -5  -3    8.11    1.06
 -20   5  -5   29.50    1.84
 -20  -6  -4   15.29    1.15
 -20  -6  -2   28.75    1.81
  20  -6   0   16.01    1.40
 -20  -6   0   15.05    1.25
  20  -6  -2   32.35    2.06
 -20  -6   2   34.72    1.97
 -20   6  -2   27.46    1.85
 -20   6  -4   12.43    1.07
 -20  -7  -1   21.80    1.45
  20  -7  -1   20.74    1.51
 -20  -7   1   19.89    1.38
  20  -7  -3    3.60    0.72
   0   0   0    0.00    0.00


TITL Ag12bpy_O2_100K in I-42m
REM I-42m (#121 in standard setting)
CELL 1.54184  17.276801  17.276801  20.448187  90.0000  90.0000  90.0000
ZERR    2.00   0.000156   0.000156   0.000303   0.0000   0.0000   0.0000
LATT -2
SYMM -x,-y, z
SYMM  y,-x,-z
SYMM -y, x,-z
SYMM -x, y,-z
SYMM  x,-y,-z
SYMM -y,-x, z
SYMM  y, x, z
SFAC C H N O F S Ag
UNIT 160.00 208.00 16.00 16.00 24.00 16.00 24.00
TREF
HKLF 4
END
_computing_structure_solution     'SHELXT 2014/5 (Sheldrick, 2014)'
;
_shelx_hkl_checksum              89907
loop_
_space_group_symop_operation_xyz
'x, y, z'
'-x, -y, z'
'y, -x, -z'
'-y, x, -z'
'-x, y, -z'
'x, -y, -z'
'-y, -x, z'
'y, x, z'
'x+1/2, y+1/2, z+1/2'
'-x+1/2, -y+1/2, z+1/2'
'y+1/2, -x+1/2, -z+1/2'
'-y+1/2, x+1/2, -z+1/2'
'-x+1/2, y+1/2, -z+1/2'
'x+1/2, -y+1/2, -z+1/2'
'-y+1/2, -x+1/2, z+1/2'
'y+1/2, x+1/2, z+1/2'
loop_
_atom_site_label
_atom_site_type_symbol
_atom_site_fract_x
_atom_site_fract_y
_atom_site_fract_z
_atom_site_U_iso_or_equiv
_atom_site_adp_type
_atom_site_occupancy
_atom_site_site_symmetry_order
_atom_site_calc_flag
_atom_site_refinement_flags_posn
_atom_site_refinement_flags_adp
_atom_site_refinement_flags_occupancy
_atom_site_disorder_assembly
_atom_site_disorder_group
Ag1 Ag 0.5000 0.5000 0.29698(7) 0.0262(3) Uani 1 4 d S T P . .
Ag2 Ag 0.47109(4) 0.33951(4) 0.33376(5) 0.0351(2) Uani 1 1 d . . . . .
Ag3 Ag 0.41608(11) 0.5000 0.5000 0.0314(4) Uani 0.5 2 d S T P . .
C1 C 0.3746(7) 0.6254(7) 0.2173(8) 0.041(4) Uani 1 2 d DS T P . .
C2 C 0.2876(9) 0.6072(13) 0.2065(10) 0.075(5) Uani 1 1 d D . . . .
H2A H 0.2801 0.5510 0.2052 0.113 Uiso 1 1 calc GR . . . .
H2B H 0.2705 0.6299 0.1651 0.113 Uiso 1 1 calc GR . . . .
H2C H 0.2573 0.6291 0.2425 0.113 Uiso 1 1 calc GR . . . .
C3 C 0.4221(9) 0.5779(9) 0.1694(11) 0.064(6) Uani 1 2 d DS T P . .
H3A H 0.4375 0.5292 0.1901 0.096 Uiso 0.5 1 calc GR . . A -1
H3B H 0.4683 0.6071 0.1568 0.096 Uiso 0.5 1 calc GR . . A -1
H3C H 0.3909 0.5669 0.1305 0.096 Uiso 0.5 1 calc GR . . A -1
C4 C 0.3297(6) 0.3297(6) 0.4670(7) 0.038(4) Uani 1 2 d DS TU P . .
C5 C 0.2868(7) 0.2868(7) 0.4132(9) 0.056(5) Uani 1 2 d DS TU P . .
H5A H 0.2690 0.3239 0.3802 0.085 Uiso 0.5 1 calc GR . . B -1
H5B H 0.2422 0.2597 0.4319 0.085 Uiso 0.5 1 calc GR . . B -1
H5C H 0.3217 0.2492 0.3927 0.085 Uiso 0.5 1 calc GR . . B -1
C6 C 0.3764(10) 0.2747(12) 0.5082(12) 0.099(7) Uani 1 1 d D U . . .
H6A H 0.4170 0.2510 0.4813 0.148 Uiso 1 1 calc GR . . . .
H6B H 0.3425 0.2342 0.5256 0.148 Uiso 1 1 calc GR . . . .
H6C H 0.4003 0.3031 0.5445 0.148 Uiso 1 1 calc GR . . . .
C7 C 0.3413(7) 0.3413(7) 0.2142(8) 0.034(3) Uani 1 2 d S T P . .
C8 C 0.3056(7) 0.3056(7) 0.1516(8) 0.049(4) Uani 1 2 d DS TU P . .
C9 C 0.4260(7) 0.1594(7) 0.3155(6) 0.037(3) Uani 1 1 d . . . . .
H9 H 0.3795 0.1834 0.3013 0.045 Uiso 1 1 calc R . . . .
C10 C 0.4288(7) 0.0804(6) 0.3163(6) 0.034(2) Uani 1 1 d . . . . .
H10 H 0.3848 0.0510 0.3038 0.041 Uiso 1 1 calc R . . . .
C11 C 0.4971(7) 0.0433(5) 0.3357(5) 0.0299(19) Uani 1 1 d . . . . .
C12 C 0.5597(7) 0.0904(7) 0.3527(6) 0.037(3) Uani 1 1 d . . . . .
H12 H 0.6080 0.0684 0.3650 0.044 Uiso 1 1 calc R . . . .
C13 C 0.5498(7) 0.1692(6) 0.3512(5) 0.033(2) Uani 1 1 d . . . . .
H13 H 0.5925 0.2006 0.3637 0.039 Uiso 1 1 calc R . . . .
F1 F 0.2538(7) 0.2538(7) 0.1665(10) 0.127(7) Uani 1 2 d DS TU P . .
F2 F 0.3515(8) 0.2634(9) 0.1169(7) 0.124(5) Uani 1 1 d D U . . .
N1 N 0.4846(5) 0.2049(5) 0.3336(5) 0.0355(19) Uani 1 1 d . . . . .
O1 O 0.3989(6) 0.3057(6) 0.2338(5) 0.057(3) Uani 1 1 d . . . . .
S1 S 0.40035(14) 0.59965(14) 0.30221(19) 0.0295(7) Uani 1 2 d S T P . .
S2 S 0.39844(16) 0.39844(16) 0.42734(18) 0.0335(8) Uani 1 2 d S T P . .
O2 O 0.404(4) 0.086(4) 0.484(3) 0.101(19) Uiso 0.25 1 d . . . C -1
O3 O 0.473(3) 0.072(3) 0.498(4) 0.093(16) Uiso 0.25 1 d . . . C -1
O4 O 0.329(4) 0.075(3) 0.471(3) 0.101(16) Uiso 0.3 1 d . . . D 2
O5 O 0.280(5) 0.059(4) 0.449(4) 0.14(2) Uiso 0.3 1 d . . . D 2
loop_
_atom_site_aniso_label
_atom_site_aniso_U_11
_atom_site_aniso_U_22
_atom_site_aniso_U_33
_atom_site_aniso_U_23
_atom_site_aniso_U_13
_atom_site_aniso_U_12
Ag1 0.0238(4) 0.0238(4) 0.0309(7) 0.000 0.000 0.0012(6)
Ag2 0.0347(4) 0.0237(4) 0.0468(4) -0.0012(4) 0.0002(4) -0.0015(3)
Ag3 0.0245(9) 0.0360(10) 0.0338(10) -0.0103(10) 0.000 0.000
C1 0.042(6) 0.042(6) 0.038(9) 0.012(5) -0.012(5) 0.005(7)
C2 0.052(9) 0.110(15) 0.064(10) 0.015(10) -0.026(8) 0.013(9)
C3 0.075(9) 0.075(9) 0.043(10) 0.011(8) -0.011(8) 0.006(11)
C4 0.041(5) 0.041(5) 0.033(7) 0.004(4) 0.004(4) -0.015(6)
C5 0.065(8) 0.065(8) 0.040(9) -0.001(5) -0.001(5) -0.037(10)
C6 0.074(10) 0.112(13) 0.110(14) 0.082(12) -0.026(11) -0.038(10)
C7 0.034(5) 0.034(5) 0.033(8) -0.001(5) -0.001(5) -0.003(7)
C8 0.053(6) 0.053(6) 0.041(8) -0.010(5) -0.010(5) 0.000(8)
C9 0.034(6) 0.028(5) 0.050(7) 0.003(5) -0.004(5) 0.001(4)
C10 0.035(6) 0.024(5) 0.044(7) -0.004(4) 0.002(5) -0.007(4)
C11 0.037(5) 0.026(5) 0.026(4) 0.000(4) 0.001(5) -0.004(4)
C12 0.039(6) 0.029(6) 0.041(6) -0.006(5) -0.009(5) -0.001(5)
C13 0.039(6) 0.032(6) 0.027(5) -0.004(4) -0.006(4) 0.003(4)
F1 0.133(9) 0.133(9) 0.116(13) -0.041(9) -0.041(9) -0.035(11)
F2 0.115(10) 0.164(12) 0.092(8) -0.077(9) -0.024(8) 0.033(9)
N1 0.035(5) 0.025(4) 0.046(5) -0.006(4) 0.000(5) -0.005(3)
O1 0.066(7) 0.056(6) 0.048(5) -0.012(5) -0.019(5) 0.005(5)
S1 0.0279(10) 0.0279(10) 0.0327(17) 0.0050(10) -0.0050(10) 0.0084(14)
S2 0.0369(12) 0.0369(12) 0.0269(17) -0.0026(10) -0.0026(10) -0.0068(16)
loop_
_atom_type_symbol
_atom_type_description
_atom_type_scat_dispersion_real
_atom_type_scat_dispersion_imag
_atom_type_scat_source
C C 0.0181 0.0091 'International Tables Vol C Tables 4.2.6.8 and 6.1.1.4'
H H 0.0000 0.0000 'International Tables Vol C Tables 4.2.6.8 and 6.1.1.4'
Ag Ag 0.1306 4.2820 'International Tables Vol C Tables 4.2.6.8 and 6.1.1.4'
F F 0.0727 0.0534 'International Tables Vol C Tables 4.2.6.8 and 6.1.1.4'
N N 0.0311 0.0180 'International Tables Vol C Tables 4.2.6.8 and 6.1.1.4'
O O 0.0492 0.0322 'International Tables Vol C Tables 4.2.6.8 and 6.1.1.4'
S S 0.3331 0.5567 'International Tables Vol C Tables 4.2.6.8 and 6.1.1.4'
loop_
_exptl_crystal_face_index_h
_exptl_crystal_face_index_k
_exptl_crystal_face_index_l
_exptl_crystal_face_perp_dist
0 11 1 0.0900
0 -11 -1 0.0900
11 0 -4 0.0829
-11 0 4 0.0667
1 -1 -13 0.0344
-1 -1 13 0.0289
1 9 -9 0.0662
0 10 6 0.0805
1 5 -12 0.0468
1 1 -13 0.0324
loop_
_geom_angle_atom_site_label_1
_geom_angle_atom_site_label_2
_geom_angle_atom_site_label_3
_geom_angle
_geom_angle_site_symmetry_1
_geom_angle_site_symmetry_3
Ag2 Ag1 Ag2 105.02(4) . 7_665
Ag2 Ag1 Ag2 66.91(3) . 8
Ag2 Ag1 Ag2 66.91(3) 7_665 2_665
Ag2 Ag1 Ag2 150.11(6) 7_665 8
Ag2 Ag1 Ag2 150.11(6) . 2_665
Ag2 Ag1 Ag2 105.02(4) 2_665 8
S1 Ag1 Ag2 122.64(4) . .
S1 Ag1 Ag2 55.80(3) . 8
S1 Ag1 Ag2 122.65(4) 2_665 2_665
S1 Ag1 Ag2 55.80(3) 2_665 7_665
S1 Ag1 Ag2 55.80(3) 2_665 .
S1 Ag1 Ag2 122.65(4) . 7_665
S1 Ag1 Ag2 122.65(4) 2_665 8
S1 Ag1 Ag2 55.80(3) . 2_665
S1 Ag1 S1 174.97(19) 2_665 .
Ag1 Ag2 Ag2 56.546(16) . 8
N1 Ag2 Ag1 158.2(2) . .
N1 Ag2 Ag2 140.7(2) . 8
N1 Ag2 O1 79.2(4) . .
N1 Ag2 S1 108.9(2) . 2_665
N1 Ag2 S2 117.1(3) . .
O1 Ag2 Ag1 95.6(3) . .
O1 Ag2 Ag2 79.0(2) . 8
O1 Ag2 S1 109.3(3) . 2_665
O1 Ag2 S2 118.4(3) . .
S1 Ag2 Ag1 52.51(8) 2_665 .
S1 Ag2 Ag2 109.00(7) 2_665 8
S2 Ag2 Ag1 84.05(8) . .
S2 Ag2 Ag2 50.07(6) . 8
S2 Ag2 S1 117.64(12) . 2_665
Ag3 Ag3 Ag3 45.0 3_566 2_665
Ag3 Ag3 Ag3 90.0 3_566 4_656
Ag3 Ag3 Ag3 45.0 4_656 2_665
Ag3 Ag3 S2 63.77(6) 3_566 3_566
Ag3 Ag3 S2 63.77(6) 4_656 .
Ag3 Ag3 S2 128.89(10) 4_656 3_566
Ag3 Ag3 S2 128.89(10) 3_566 .
S2 Ag3 Ag3 97.55(8) . 2_665
S2 Ag3 Ag3 97.55(8) 3_566 2_665
S2 Ag3 S2 164.90(16) . 3_566
C2 C1 C2 111.9(19) . 7_665
C2 C1 S1 108.6(10) 7_665 .
C2 C1 S1 108.6(10) . .
C3 C1 C2 108.8(12) . 7_665
C3 C1 C2 108.8(12) . .
C3 C1 S1 110.3(12) . .
C1 C2 H2A 109.5 . .
C1 C2 H2B 109.5 . .
C1 C2 H2C 109.5 . .
H2A C2 H2B 109.5 . .
H2A C2 H2C 109.5 . .
H2B C2 H2C 109.5 . .
C1 C3 H3A 109.5 . .
C1 C3 H3B 109.5 . .
C1 C3 H3C 109.5 . .
H3A C3 H3B 109.5 . .
H3A C3 H3C 109.5 . .
H3B C3 H3C 109.5 . .
C5 C4 S2 107.8(11) . .
C6 C4 C5 111.1(13) 8 .
C6 C4 C5 111.1(13) . .
C6 C4 C6 111(2) . 8
C6 C4 S2 107.7(9) . .
C6 C4 S2 107.7(9) 8 .
C4 C5 H5A 109.5 . .
C4 C5 H5B 109.5 . .
C4 C5 H5C 109.5 . .
H5A C5 H5B 109.5 . .
H5A C5 H5C 109.5 . .
H5B C5 H5C 109.5 . .
C4 C6 H6A 109.5 . .
C4 C6 H6B 109.5 . .
C4 C6 H6C 109.5 . .
H6A C6 H6B 109.5 . .
H6A C6 H6C 109.5 . .
H6B C6 H6C 109.5 . .
O1 C7 C8 113.0(8) . .
O1 C7 C8 113.0(8) 8 .
O1 C7 O1 134.0(16) . 8
F1 C8 C7 110.8(14) . .
F2 C8 C7 115.8(10) 8 .
F2 C8 C7 115.8(10) . .
F2 C8 F1 99.4(14) . .
F2 C8 F1 99.4(14) 8 .
F2 C8 F2 113.1(19) 8 .
C10 C9 H9 118.0 . .
N1 C9 H9 118.0 . .
N1 C9 C10 124.0(11) . .
C9 C10 H10 120.3 . .
C9 C10 C11 119.4(10) . .
C11 C10 H10 120.3 . .
C10 C11 C11 121.0(11) . 2_655
C12 C11 C10 117.1(9) . .
C12 C11 C11 121.9(12) . 2_655
C11 C12 H12 120.8 . .
C13 C12 C11 118.4(11) . .
C13 C12 H12 120.8 . .
C12 C13 H13 117.7 . .
N1 C13 C12 124.7(11) . .
N1 C13 H13 117.7 . .
C9 N1 Ag2 120.7(7) . .
C9 N1 C13 116.4(9) . .
C13 N1 Ag2 122.9(7) . .
C7 O1 Ag2 124.0(9) . .
Ag1 S1 Ag2 71.69(7) . 8
Ag1 S1 Ag2 71.69(7) . 2_665
Ag2 S1 Ag2 131.22(14) 2_665 8
C1 S1 Ag1 107.4(5) . .
C1 S1 Ag2 110.47(15) . 8
C1 S1 Ag2 110.47(15) . 2_665
Ag2 S2 Ag2 79.86(11) 8 .
Ag3 S2 Ag2 99.42(8) 4_656 .
Ag3 S2 Ag2 136.98(17) . .
Ag3 S2 Ag2 99.42(8) . 8
Ag3 S2 Ag2 136.98(17) 4_656 8
Ag3 S2 Ag3 52.47(12) 4_656 .
C4 S2 Ag2 113.1(4) . .
C4 S2 Ag2 113.1(4) . 8
C4 S2 Ag3 106.7(4) . .
C4 S2 Ag3 106.7(4) . 4_656
loop_
_geom_bond_atom_site_label_1
_geom_bond_atom_site_label_2
_geom_bond_distance
_geom_bond_site_symmetry_2
Ag1 Ag2 2.9161(8) .
Ag1 Ag2 2.9161(8) 8
Ag1 Ag2 2.9161(8) 2_665
Ag1 Ag2 2.9161(8) 7_665
Ag1 S1 2.437(3) .
Ag1 S1 2.437(3) 2_665
Ag2 Ag2 3.2151(15) 8
Ag2 N1 2.338(8) .
Ag2 O1 2.464(9) .
Ag2 S1 2.5405(16) 2_665
Ag2 S2 2.505(3) .
Ag3 Ag3 2.050(3) 4_656
Ag3 Ag3 2.900(4) 2_665
Ag3 Ag3 2.050(3) 3_566
Ag3 S2 2.319(3) .
Ag3 S2 2.319(3) 3_566
C1 C2 1.551(15) .
C1 C2 1.551(15) 7_665
C1 C3 1.52(2) .
C1 S1 1.846(16) .
C2 H2A 0.9800 .
C2 H2B 0.9800 .
C2 H2C 0.9800 .
C3 H3A 0.9800 .
C3 H3B 0.9800 .
C3 H3C 0.9800 .
C4 C5 1.519(18) .
C4 C6 1.505(16) .
C4 C6 1.505(16) 8
C4 S2 1.866(16) .
C5 H5A 0.9800 .
C5 H5B 0.9800 .
C5 H5C 0.9800 .
C6 H6A 0.9800 .
C6 H6B 0.9800 .
C6 H6C 0.9800 .
C7 C8 1.55(2) .
C7 O1 1.237(12) 8
C7 O1 1.237(12) .
C8 F1 1.302(16) .
C8 F2 1.290(13) .
C8 F2 1.290(13) 8
C9 H9 0.9500 .
C9 C10 1.366(16) .
C9 N1 1.333(14) .
C10 H10 0.9500 .
C10 C11 1.400(17) .
C11 C11 1.499(18) 2_655
C11 C12 1.399(16) .
C12 H12 0.9500 .
C12 C13 1.373(16) .
C13 H13 0.9500 .
C13 N1 1.334(14) .
S1 Ag2 2.5405(16) 2_665
S1 Ag2 2.5405(16) 8
S2 Ag2 2.505(3) 8
S2 Ag3 2.319(3) 4_656
O2 O3 1.25(8) .
O4 O5 1.01(9) .
loop_
_geom_torsion_atom_site_label_1
_geom_torsion_atom_site_label_2
_geom_torsion_atom_site_label_3
_geom_torsion_atom_site_label_4
_geom_torsion
_geom_torsion_site_symmetry_1
_geom_torsion_site_symmetry_2
_geom_torsion_site_symmetry_3
_geom_torsion_site_symmetry_4
C2 C1 S1 Ag1 119.1(11) . . . .
C2 C1 S1 Ag1 -119.1(11) 7_665 . . .
C2 C1 S1 Ag2 -42.6(13) 7_665 . . 2_665
C2 C1 S1 Ag2 -164.5(10) . . . 2_665
C2 C1 S1 Ag2 42.6(13) . . . 8
C2 C1 S1 Ag2 164.5(10) 7_665 . . 8
C3 C1 S1 Ag1 0.000(2) . . . .
C3 C1 S1 Ag2 76.4(2) . . . 2_665
C3 C1 S1 Ag2 -76.4(2) . . . 8
C5 C4 S2 Ag2 -44.25(17) . . . .
C5 C4 S2 Ag2 44.25(17) . . . 8
C5 C4 S2 Ag3 152.52(10) . . . .
C5 C4 S2 Ag3 -152.52(10) . . . 4_656
C6 C4 S2 Ag2 -164.2(13) 8 . . .
C6 C4 S2 Ag2 -75.6(15) 8 . . 8
C6 C4 S2 Ag2 164.2(13) . . . 8
C6 C4 S2 Ag2 75.6(15) . . . .
C6 C4 S2 Ag3 -32.6(14) . . . 4_656
C6 C4 S2 Ag3 -87.6(14) . . . .
C6 C4 S2 Ag3 32.6(14) 8 . . .
C6 C4 S2 Ag3 87.6(14) 8 . . 4_656
C8 C7 O1 Ag2 -177.8(10) . . . .
C9 C10 C11 C11 -178.6(9) . . . 2_655
C9 C10 C11 C12 -0.7(17) . . . .
C10 C9 N1 Ag2 -177.7(9) . . . .
C10 C9 N1 C13 2.1(18) . . . .
C10 C11 C12 C13 1.9(17) . . . .
C11 C11 C12 C13 179.7(8) 2_655 . . .
C11 C12 C13 N1 -1.2(19) . . . .
C12 C13 N1 Ag2 179.0(9) . . . .
C12 C13 N1 C9 -0.8(18) . . . .
N1 C9 C10 C11 -1.4(19) . . . .
O1 C7 C8 F1 89.8(13) . . . .
O1 C7 C8 F1 -89.8(13) 8 . . .
O1 C7 C8 F2 -158.1(15) . . . 8
O1 C7 C8 F2 158.1(15) 8 . . .
O1 C7 C8 F2 22(2) 8 . . 8
O1 C7 C8 F2 -22(2) . . . .
O1 C7 O1 Ag2 2(3) 8 . . .
loop_
_exptl_oxdiff_crystal_face_indexfrac_h
_exptl_oxdiff_crystal_face_indexfrac_k
_exptl_oxdiff_crystal_face_indexfrac_l
_exptl_oxdiff_crystal_face_x
_exptl_oxdiff_crystal_face_y
_exptl_oxdiff_crystal_face_z
0.0000 11.0000 1.0000 0.0266 -0.0337 0.9843
-0.0000 -11.0000 -1.0000 -0.0266 0.0337 -0.9843
11.0000 -0.0000 -4.0000 -0.2735 0.9881 0.0181
-11.0000 0.0000 4.0000 0.2735 -0.9881 -0.0181
1.0000 -1.0000 -13.0000 -0.9700 0.1201 -0.1340
-1.0000 -1.0000 13.0000 0.9788 -0.1144 -0.0443
1.0000 9.0000 -9.0000 -0.7136 0.0828 0.7722
0.0000 10.0000 6.0000 0.4067 -0.0417 0.9136
1.0000 5.0000 -12.0000 -0.9213 0.1008 0.4046
1.0000 1.0000 -13.0000 -0.9788 0.1144 0.0443
