#------------------------------------------------------------------------------
#$Date: 2019-06-26 10:49:47 +0300 (Wed, 26 Jun 2019) $
#$Revision: 216575 $
#$URL: file:///home/coder/svn-repositories/cod/cif/1/55/19/1551910.cif $
#------------------------------------------------------------------------------
#
# This file is available in the Crystallography Open Database (COD),
# http://www.crystallography.net/
#
# All data on this site have been placed in the public domain by the
# contributors.
#
data_1551910
loop_
_publ_author_name
'Lauren N. McHugh'
'Matthew J. McPherson'
'Laura J. McCormick'
'Samuel A. Morris'
'Paul S. Wheatley'
'Simon J. Teat'
'David McKay'
'Daniel M. Dawson'
'Charlotte E. F. Sansome'
'Sharon E. Ashbrook'
'Corinne A. Stone'
'Martin W. Smith'
'Russell E. Morris'
_publ_section_title
;
 Hydrolytic stability in hemilabile metal-organic frameworks
;
_journal_name_full               'Nature Chemistry'
_journal_page_first              1096
_journal_page_last               1102
_journal_paper_doi               10.1038/s41557-018-0104-x
_journal_volume                  10
_journal_year                    2018
_chemical_formula_sum            'C10 H8 Cu O5'
_chemical_formula_weight         271.70
_space_group_crystal_system      trigonal
_space_group_IT_number           157
_space_group_name_Hall           'P 3 -2'
_space_group_name_H-M_alt        'P 3 1 m'
_atom_sites_solution_hydrogens   geom
_atom_sites_solution_primary     'dual space'
_atom_sites_solution_secondary   difmap
_cell_angle_alpha                90
_cell_angle_beta                 90
_cell_angle_gamma                120
_cell_formula_units_Z            18
_cell_length_a                   33.028(3)
_cell_length_b                   33.028(3)
_cell_length_c                   5.2047(6)
_cell_measurement_reflns_used    9920
_cell_measurement_temperature    300(2)
_cell_measurement_theta_max      24.07
_cell_measurement_theta_min      2.80
_cell_volume                     4916.9(8)
_computing_cell_refinement       'SAINT V8.34A Bruker-AXS, Madison WI'
_computing_data_collection       'Bruker APEX2 Bruker-AXS, Madison WI'
_computing_data_reduction        'SAINT V8.34A Bruker-AXS, Madison WI'
_computing_structure_refinement  'SHELXL-2016/4 (Sheldrick, 2016)'
_computing_structure_solution    'SHELXT 2014/4 (Sheldrick, 2014)'
_diffrn_ambient_temperature      300(2)
_diffrn_detector_area_resol_mean 10.42
_diffrn_measured_fraction_theta_full 0.998
_diffrn_measured_fraction_theta_max 0.998
_diffrn_measurement_device_type  'Bruker D8 with PHOTON 100 detector'
_diffrn_measurement_method       '\f and \w shutterless scans'
_diffrn_radiation_type           synchrotron
_diffrn_radiation_wavelength     0.7749
_diffrn_reflns_av_R_equivalents  0.0955
_diffrn_reflns_av_unetI/netI     0.0637
_diffrn_reflns_Laue_measured_fraction_full 0.998
_diffrn_reflns_Laue_measured_fraction_max 0.998
_diffrn_reflns_limit_h_max       34
_diffrn_reflns_limit_h_min       -34
_diffrn_reflns_limit_k_max       34
_diffrn_reflns_limit_k_min       -34
_diffrn_reflns_limit_l_max       5
_diffrn_reflns_limit_l_min       -5
_diffrn_reflns_number            26548
_diffrn_reflns_point_group_measured_fraction_full 0.999
_diffrn_reflns_point_group_measured_fraction_max 0.999
_diffrn_reflns_theta_full        24.079
_diffrn_reflns_theta_max         24.079
_diffrn_reflns_theta_min         2.329
_diffrn_source
;
Advanced Light Source, station 11.3.1
;
_exptl_absorpt_coefficient_mu    2.529
_exptl_absorpt_correction_T_max  0.951
_exptl_absorpt_correction_T_min  0.579
_exptl_absorpt_correction_type   multi-scan
_exptl_absorpt_process_details   'SADABS-2014/5 - Bruker AXS, Madison WI'
_exptl_crystal_colour            blue
_exptl_crystal_density_diffrn    1.652
_exptl_crystal_description       plate
_exptl_crystal_F_000             2466
_exptl_crystal_size_max          0.070
_exptl_crystal_size_mid          0.030
_exptl_crystal_size_min          0.020
_refine_diff_density_max         2.880
_refine_diff_density_min         -4.101
_refine_diff_density_rms         0.322
_refine_ls_abs_structure_details
;
 Refined as an inversion twin.
;
_refine_ls_abs_structure_Flack   0.55(12)
_refine_ls_extinction_coef       .
_refine_ls_extinction_method     none
_refine_ls_goodness_of_fit_ref   1.104
_refine_ls_hydrogen_treatment    constr
_refine_ls_matrix_type           full
_refine_ls_number_parameters     222
_refine_ls_number_reflns         4168
_refine_ls_number_restraints     76
_refine_ls_restrained_S_all      1.106
_refine_ls_R_factor_all          0.1685
_refine_ls_R_factor_gt           0.1515
_refine_ls_shift/su_max          0.000
_refine_ls_shift/su_mean         0.000
_refine_ls_structure_factor_coef Fsqd
_refine_ls_weighting_details
'w=1/[\s^2^(Fo^2^)+(0.0001P)^2^+507.3451P] where P=(Fo^2^+2Fc^2^)/3'
_refine_ls_weighting_scheme      calc
_refine_ls_wR_factor_gt          0.3291
_refine_ls_wR_factor_ref         0.3410
_reflns_Friedel_coverage         0.987
_reflns_Friedel_fraction_full    0.999
_reflns_Friedel_fraction_max     0.999
_reflns_number_gt                3680
_reflns_number_total             4168
_reflns_threshold_expression     'I > 2\s(I)'
_cod_data_source_file            41557_2018_104_MOESM3_ESM.cif
_cod_data_source_block           CuEtOipRTvac
_cod_original_cell_volume        4917.0(10)
_cod_database_code               1551910
_shelx_space_group_comment
;
The symmetry employed for this shelxl refinement is uniquely defined
by the following loop, which should always be used as a source of
symmetry information in preference to the above space-group names.
They are only intended as comments.
;
_shelx_estimated_absorpt_t_min   0.843
_shelx_estimated_absorpt_t_max   0.951
_shelx_res_file
;

TITL sad_a.res in P31m
 sad_a.res created by SHELXL-2016/4 at 17:56:52 on 01-Aug-2017
CELL  0.77490  33.0283  33.0283   5.2047   90.000   90.000  120.000
ZERR     18.00   0.0028   0.0028   0.0006    0.000    0.000    0.000
LATT  -1
SYMM  - Y,   X - Y,   Z
SYMM  - X + Y, - X,   Z
SYMM    Y,   X,   Z
SYMM    X - Y, - Y,   Z
SYMM  - X, - X + Y,   Z
SFAC  C    H    O    CU
DISP    H     0.00000    0.00000         0.67
DISP    C     0.00399    0.00197        13.60
DISP    O     0.01323    0.00737        40.17
DISP    Cu    0.29127    1.48033      6565.59
UNIT  180 144 90 18
LIST 4
MERG   2
TWIN
acta
FLAT 0.05 c25 o12 o13
flat 0.05 o12 o13 c25 c31
FLAT 0.100 C15 C16 C17 c18 c19 c20 C21
FLAT 0.10 C27 C28 C29 c30 c31 c26 o16 c25
flat 0.1 c25 c31 o12 o13
SADI c25 o12 c25 o13 c32 o14 c32 o15
SIMU 0.02 0.04 c9 c10 c9 c8 c9 c11
sadi c23 c24 c13 c14 c6 c7 c33 c34
simu 0.02 0.04 o16 c33 c34
simu 0.02 0.04 c26 c31 c27
simu 0.005 0.01 c31 c25 o12 o13 Cu4 o9 o10 Cu3 c22
delu 0.005 0.01 c31 c25 o12 o13 Cu4 o9 o10 Cu3 c22
simu 0.01 0.02 c29 c30 c31
dfix 21.00 0.02 c25 c31 c27 c32 c8 c9 c15 c21 c1 c2 c22 c17_$5
dfix 31.00 0.02 c2 c3 c2 c4 c4 c5 c9 c10 c9 c11 c11 c12
dfix 31.00 0.02 c16 c17 c17 c18 c18 c19 c19 c20 c20 c21 c21 c16
dfix 31.00 0.02 c26 c27 c27 c28 c28 c29 c29 c30 c30 c31 c31 c26
FMAP 2
PLAN 20
size 0.07 0.03 0.02
ACTA
BOND   $H
bind Cu1 o8_$1
eqiv $1   x, y, z-1
bind Cu2 o4_$2
eqiv  $2   x, y, z+1
bind Cu3 O12_$2
bind Cu4 o10_$1
bind Cu2 o12_$3
eqiv $3 x-y+1, -y+2, z+1
bind Cu4 o10_$4
eqiv $4  x-y+1, -y+2, z-1
eqiv  $5   -x+1, -x+y+1, z
sadi o3 c6 o6 c13 o16 c33 o11 c23
L.S. 10
TEMP    27.00
WGHT    0.000100  507.345093
BASF   0.54851
FVAR       0.18294   1.51050   1.38506
C1    1    0.735199    0.822572    0.385216    11.00000    0.00164
C2    1    0.776665    0.817658    0.452022    11.00000    0.00219
C3    1    0.781389    0.781389    0.352841    10.50000    0.01480
AFIX  43
H3    2    0.761387    0.761388    0.227071    10.50000   -1.20000
AFIX   0
C4    1    0.804412    0.843791    0.659069    11.00000    0.01861
AFIX  43
H4    2    0.797703    0.865592    0.730387    11.00000   -1.20000
AFIX   0
C5    1    0.840538    0.840538    0.767729    10.50000    0.04540
PART -1
C6    1    0.873246    0.912374    0.962020    10.50000    0.02382
AFIX  23
H6A   2    0.873921    0.918856    1.144229    10.50000   -1.20000
H6B   2    0.846683    0.913166    0.888204    10.50000   -1.20000
AFIX   0
C7    1    0.918058    0.951095    0.838377    10.50000    0.14540
AFIX  33
H7A   2    0.920169    0.980798    0.867322    10.50000   -1.50000
H7B   2    0.944678    0.951223    0.913348    10.50000   -1.50000
H7C   2    0.917405    0.945525    0.656990    10.50000   -1.50000
AFIX   0
PART 0
C8    1    0.715455    0.913638    0.105190    11.00000    0.01777
C9    1    0.752219    0.959271   -0.007058    11.00000    0.00131
C10   1    0.758087    1.000000    0.095904    10.50000    0.00590
AFIX  43
H10   2    0.739327    1.000000    0.229154    10.50000   -1.20000
AFIX   0
C11   1    0.778570    0.959965   -0.214785    11.00000    0.01858
AFIX  43
H11   2    0.771067    0.931621   -0.291436    11.00000   -1.20000
AFIX   0
C12   1    0.815162    1.000000   -0.314710    10.50000    0.02692
PART -1
C13   1    0.840171    0.957261   -0.568755    10.50000    0.00717
AFIX  23
H13A  2    0.808658    0.934566   -0.621691    10.50000   -1.20000
H13B  2    0.848439    0.944539   -0.423054    10.50000   -1.20000
AFIX   0
C14   1    0.874379    0.966656   -0.791162    10.50000    0.13542
AFIX  33
H14A  2    0.873088    0.937990   -0.839683    10.50000   -1.50000
H14B  2    0.865871    0.978949   -0.935415    10.50000   -1.50000
H14C  2    0.905545    0.988896   -0.737310    10.50000   -1.50000
AFIX   0
PART 0
C15   1    0.617278    0.758036    0.577748    11.00000    0.00336
same 0.005 c16 > c21
same 0.005 c16 c21 < c20
C16   1    0.571073    0.674143    0.571616    11.00000    0.07224
AFIX  43
H16   2    0.588027    0.673260    0.431191    11.00000   -1.20000
AFIX   0
C17   1    0.534762    0.635141    0.689210    11.00000    0.06546
C18   1    0.509092    0.634802    0.899021    11.00000    0.06731
AFIX  43
H18   2    0.485861    0.606851    0.968889    11.00000   -1.20000
AFIX   0
C19   1    0.519029    0.677383    1.002088    11.00000    0.05547
C20   1    0.554446    0.718228    0.900895    11.00000    0.03576
AFIX  43
H20   2    0.561932    0.747150    0.969495    11.00000   -1.20000
AFIX   0
C21   1    0.578440    0.714631    0.693646    11.00000    0.04873
C22   1    0.472172    1.058541    0.678721    11.00000    0.06114
C23   1    0.495919    0.719974    1.291796    11.00000    0.05234
AFIX  23
H23A  2    0.490685    0.736851    1.155402    11.00000   -1.20000
H23B  2    0.526742    0.740153    1.363383    11.00000   -1.20000
AFIX   0
C24   1    0.458647    0.706512    1.501704    11.00000    0.07170
AFIX  33
H24A  2    0.460269    0.734281    1.570084    11.00000   -1.50000
H24B  2    0.428214    0.686774    1.429422    11.00000   -1.50000
H24C  2    0.464165    0.690066    1.636797    11.00000   -1.50000
AFIX   0
C25   1    0.518371    0.946132    0.382139    11.00000    0.04980
same 0.005 c26 > c31
same 0.005 c26 c31 < c30
C26   1    0.551637    0.893238    0.312035    11.00000    0.07617
AFIX  43
H26   2    0.565858    0.906344    0.468151    11.00000   -1.20000
AFIX   0
C27   1    0.560748    0.858584    0.220547    11.00000    0.05806
C28   1    0.532041    0.836739    0.009198    11.00000    0.08381
AFIX  43
H28   2    0.534990    0.812704   -0.064703    11.00000   -1.20000
AFIX   0
C29   1    0.499784    0.846064   -0.105051    11.00000    0.07206
C30   1    0.499868    0.884777   -0.001898    11.00000    0.07196
AFIX  43
H30   2    0.480838    0.894062   -0.084106    11.00000   -1.20000
AFIX   0
C31   1    0.524855    0.911606    0.209533    11.00000    0.05820
C32   1    0.600726    0.851169    0.296905    11.00000    0.04945
C33   1    0.432315    0.820064   -0.358127    11.00000    0.10046
AFIX  23
H33A  2    0.439659    0.852214   -0.379243    11.00000   -1.20000
H33B  2    0.410086    0.805890   -0.218726    11.00000   -1.20000
AFIX   0
C34   1    0.413229    0.792172   -0.609498    11.00000    0.08921
AFIX  33
H34A  2    0.384999    0.791822   -0.657673    11.00000   -1.50000
H34B  2    0.436067    0.806635   -0.743271    11.00000   -1.50000
H34C  2    0.406737    0.760692   -0.584071    11.00000   -1.50000
AFIX   0
O1    3    0.714576    0.806995    0.155345    11.00000    0.03020
O2    3    0.727601    0.849289    0.506955    11.00000    0.01484
O3    3    0.866504    0.866504    0.930680    10.50000    0.03413
O4    3    0.697405    0.877433   -0.036286    11.00000    0.00395
O5    3    0.707238    0.914585    0.335168    11.00000    0.02031
O6    3    0.842117    1.000000   -0.496559    10.50000    0.02285
O7    3    0.623200    0.759098    0.350516    11.00000    0.01952
O8    3    0.636097    0.796462    0.724695    11.00000    0.02232
O9    3    0.464506    1.049408    0.434235    11.00000    0.05666
O10   3    0.496600    1.050517    0.777525    11.00000    0.06680
O11   3    0.493285    0.678377    1.190732    11.00000    0.06734
O12   3    0.501706    0.959075    0.205491    11.00000    0.04901
O13   3    0.527835    0.954203    0.612458    11.00000    0.03517
O14   3    0.607883    0.826264    0.146515    11.00000    0.02188
O15   3    0.619621    0.866797    0.508506    11.00000    0.02033
O16   3    0.473760    0.817411   -0.312453    11.00000    0.09600
CU1   4    0.658136    0.812824    0.126172    11.00000    0.01700    0.01601 =
         0.08384   -0.01676   -0.00220    0.00839
CU2   4    0.675471    0.859353    0.553747    11.00000    0.02155    0.01584 =
         0.04044   -0.01090   -0.00279    0.00964
CU3   4    0.513280    1.000000    0.705924    10.50000    0.01333
CU4   4    0.474974    1.000000    0.276968    10.50000    0.01824
HKLF    4




REM  sad_a.res in P31m
REM R1 =  0.1515 for    3680 Fo > 4sig(Fo)  and  0.1685 for all    4168 data
REM    222 parameters refined using     76 restraints

END

WGHT      0.0001    507.2336

REM Highest difference peak  2.880,  deepest hole -4.101,  1-sigma level  0.322
Q1    1   0.4813  1.0209  0.2658  11.00000  0.05    2.88
Q2    1   0.5228  1.0209  0.6884  11.00000  0.05    2.56
Q3    1   0.4828  1.0000  0.4592  10.50000  0.05    2.00
Q4    1   0.4770  1.0275  0.8713  11.00000  0.05    1.94
Q5    1   0.4856  1.0712  0.4985  11.00000  0.05    1.68
Q6    1   0.4814  0.8637  0.1738  11.00000  0.05    1.61
Q7    1   0.4745  1.0568  0.2568  11.00000  0.05    1.58
Q8    1   0.4913  1.0265  1.0242  11.00000  0.05    1.55
Q9    1   0.9211  1.0000  1.0553  10.50000  0.05    1.48
Q10   1   0.5033  0.9706  0.0658  11.00000  0.05    1.46
Q11   1   0.5254  1.0000  0.2558  10.50000  0.05    1.46
Q12   1   0.3333  0.6667 -0.8870  10.33333  0.05    1.43
Q13   1   0.9487  0.9487  0.4327  10.50000  0.05    1.36
Q14   1   0.3569  0.6921 -0.1525  11.00000  0.05    1.32
Q15   1   0.8849  0.8849  0.7999  10.50000  0.05    1.27
Q16   1   0.6695  0.8302  0.4016  11.00000  0.05    1.27
Q17   1   0.3333  0.6667 -0.3821  10.33333  0.05    1.26
Q18   1   0.6690  0.7969  0.5837  11.00000  0.05    1.26
Q19   1   0.6550  0.8522  0.5892  11.00000  0.05    1.25
Q20   1   0.6688  0.8463 -0.0009  11.00000  0.05    1.25
;
_shelx_res_checksum              49883
_shelx_hkl_file
;
   3  -3   0 7407.76  357.06
  -3   0   0 7604.64  357.76
   2  -4   0 9726.63  458.95
  -2  -2   0 9473.65  458.75
   4  -2   0 9999.00  461.35
  -4   2   0 9477.75  460.75
   4  -1   0   26.90    3.70
   3   1   0   27.20    4.50
   1  -4   0   26.60    4.50
  -4   3   0   21.00    4.40
   4  -1   0   28.00    4.10
  -3   4   0   19.60    3.20
  -3   4   0   23.70    3.90
  -1   4   0   22.10    4.20
  -4   1   0   27.40    3.80
   4  -3   0   21.60    2.90
   1   3   0   24.20    4.00
   4  -3   0   29.10    4.40
   1   3   0   31.50    4.70
  -1   4   0   31.80    5.50
  -3  -1   0   19.30    3.40
   3  -4   0   23.90    4.60
   4   0   0    3.90    4.10
  -4   4   0    1.40    2.80
   4   0   0    1.10    3.90
   4  -4   0    0.90    4.50
  -4   0   0    3.40    2.40
   0   4   0    2.60    4.30
   0   4   0    1.10    2.70
  -5   3   0  140.69    8.80
   5  -2   0  124.29    9.70
  -3   5   0  131.29    8.30
   2  -5   0  124.99    9.20
  -3   5   0  126.99    9.30
   5  -2   0  129.69    8.30
   3   2   0  132.29   10.10
   3  -5   0  118.99    9.80
   2   3   0  131.99    8.30
   5  -3   0  116.39    9.60
   2   3   0  135.79   10.10
  -5   2   0  151.28    8.40
   5  -3   0  123.39    7.70
  -2   5   0  131.79    9.50
  -2   5   0  138.59    8.60
   2   3   0  132.59    6.60
   4   1   0   64.99    5.40
   5  -1   0   61.49    8.20
   5  -1   0   70.99    7.50
  -4   5   0   72.79    6.70
   4   1   0   66.39    8.80
  -4   5   0   56.79    6.10
  -5   4   0   65.29    6.90
   1  -5   0   71.59    6.80
  -4  -1   0   66.19    6.00
   1   4   0   72.89    6.30
   5  -4   0   68.49    4.90
  -1   5   0   67.69    6.40
   5  -4   0   58.59    8.30
   1   4   0   69.69    8.70
  -1   5   0   68.49    8.30
  -5   1   0   79.59    5.90
   4  -5   0   62.69    9.10
   5   0   0   -1.20    5.50
  -5   5   0   -5.20    4.00
   5   0   0    8.70    5.40
   5  -5   0   -0.20    6.60
   0   5   0   -1.50    3.60
  -5   0   0    5.20    3.50
   0   5   0   -5.40    5.90
   6  -3   0 6326.47  308.77
   3   3   0 6156.68  304.87
   3  -6   0 6408.56  304.97
  -6   3   0 6584.04  309.27
  -3  -3   0 6319.57  304.87
  -6   4   0   61.69    7.70
  -4   6   0   66.89    9.60
   4   2   0   60.29   10.80
   4   2   0   69.59    4.50
   6  -2   0   83.89    9.90
  -4   6   0   64.49    7.90
   6  -2   0   59.89    7.90
   2  -6   0   55.69    9.10
  -2   6   0   60.59    7.50
   2   4   0   77.99    7.50
   2   4   0   87.69    9.10
  -4  -2   0   66.29    7.40
   6  -4   0   70.09    6.00
  -2   6   0   79.19    7.90
   6  -4   0   66.29    9.80
   4  -6   0   80.29    8.80
  -5   6   0  188.58   11.60
  -1  -5   0  214.88   12.10
   6  -1   0  199.58   13.60
  -6   5   0  188.88   12.80
   5   1   0  194.58   14.30
  -5   6   0  197.38   12.70
   5   1   0  215.18   11.50
   6  -1   0  211.68   13.60
   1  -6   0  179.68   12.80
   6  -5   0  166.98   15.10
  -1   6   0  193.38   12.20
   1   5   0  208.18   12.10
   5  -6   0  168.28   14.90
   6  -5   0  195.38   10.40
  -5  -1   0  200.98   11.90
  -1   6   0  154.48   14.40
   1   5   0  170.88   14.80
  -6   1   0  201.88   11.70
  -6   6   0 7242.58  356.26
   0  -6   0 7385.06  353.46
   6  -6   0 7697.13  357.36
   0   6   0 7089.59  353.56
  -6   0   0 7632.44  358.76
   3  -7   0    6.60    8.90
  -4   7   0    3.80    8.80
   7  -3   0   21.70    9.20
   4   3   0   -6.20    9.20
   7  -3   0    9.50    5.50
  -4   7   0    2.90    5.80
  -7   4   0    7.70    6.20
   7  -4   0   14.30    8.90
   3   4   0   22.90    5.80
   4  -7   0    0.70    9.20
   7  -4   0   10.30    5.00
   3   4   0   -3.60    9.10
  -3   7   0    3.10    5.80
   2  -7   0  730.63   40.30
   7  -2   0  805.92   41.10
  -5   7   0  865.51   39.80
   7  -2   0  776.22   40.00
  -5   7   0  837.72   39.80
   5   2   0  840.22   41.40
   5   2   0  726.43   38.10
  -7   5   0  850.01   39.80
  -5  -2   0  817.22   39.40
   2   5   0  823.82   39.60
   5  -7   0  741.83   41.60
   7  -5   0  791.72   38.60
  -2   7   0  795.72   39.60
   2   5   0  772.02   41.70
  -7   2   0  841.52   39.50
  -2   7   0  741.93   40.70
   1  -7   0  142.09   14.30
  -6   7   0  198.58   12.20
   7  -1   0  133.69   14.60
   6   1   0  143.49   17.10
  -6   7   0  142.49   13.20
  -1  -6   0  148.49   12.70
  -1   7   0  166.08   12.80
   7  -6   0  186.38    9.80
   1   6   0  181.58   12.90
  -6  -1   0  178.08   12.60
   7  -6   0  128.49   17.10
   6  -7   0  133.19   17.80
   0   7   0    1.70    6.60
  -7   0   0   14.00    6.30
   7  -7   0  -18.80   12.10
   4   4   0 1372.66   64.69
   4   4   0 1371.66   66.19
   8  -4   0 1196.08   67.49
   4  -8   0 1284.17   67.79
  -4   8   0 1395.66   67.19
   8  -4   0 1322.77   65.89
  -8   4   0 1489.65   66.69
   4   4   0 1423.96   68.39
  -4   8   0 1449.65   66.59
  -5   8   0   14.80    7.30
   3  -8   0   10.30   11.20
   5   3   0    1.40   11.80
   5   3   0   27.20    4.10
   8  -3   0   46.70   11.90
   8  -3   0   25.10    7.50
  -5   8   0   28.70   10.40
  -8   5   0   30.60    8.10
   5  -8   0   17.90   12.10
  -3   8   0    2.80   10.50
   8  -5   0   36.30    6.10
   3   5   0   36.00    7.40
   8  -5   0   29.70   11.90
  -3   8   0   27.50    7.60
   3   5   0    6.90   11.70
  -5  -3   0   16.50    7.60
  -6   8   0   74.79    8.80
   8  -2   0   68.19   10.10
   6   2   0   75.19   12.60
  -8   6   0   82.29    9.60
   2  -8   0   55.99   11.20
   2   6   0   55.59   13.20
  -2   8   0   59.69   12.40
   8  -6   0   79.69    7.90
   8  -6   0   88.79   12.90
   6  -8   0   79.19   13.90
  -6  -2   0   66.99   10.30
  -2   8   0   54.19   11.90
   2   6   0   83.39   12.30
   1  -8   0  398.76   24.60
  -7   8   0  435.36   24.50
  -7   8   0  463.15   23.00
   7   1   0  411.46   27.10
   7   1   0  483.65   23.10
  -1  -7   0  405.56   23.60
   8  -1   0  431.96   25.90
  -8   7   0  424.06   24.30
   1   7   0  373.46   27.30
   1   7   0  442.46   23.90
  -8   1   0  460.65   23.30
   8  -7   0  453.85   21.40
   8  -7   0  371.06   28.00
  -1   8   0  433.06   23.90
  -1   8   0  343.67   27.30
  -7  -1   0  455.95   23.70
   8   0   0    5.90   10.50
   8  -8   0   11.40   12.30
   0   8   0   25.80    7.30
   9  -4   0  436.86   27.90
   4  -9   0  405.16   28.00
  -9   5   0  495.25   25.60
  -5   9   0  443.76   27.10
   9  -4   0  439.96   24.50
  -5   9   0  495.45   25.90
   5   4   0  443.46   29.20
   5   4   0  431.06   21.90
   9  -5   0  398.36   27.30
   4   5   0  496.55   22.10
  -4   9   0  410.76   27.90
  -9   4   0  511.45   25.40
   5  -9   0  425.16   28.50
   4   5   0  448.56   28.30
  -4   9   0  477.25   25.70
   9  -5   0  450.85   24.10
   4   5   0  500.15   25.00
  -6   9   0  613.34   29.30
   9  -3   0  561.94   31.30
  -9   6   0  587.44   29.50
   9  -3   0  534.65   28.80
   3  -9   0  486.95   30.70
   6   3   0  535.25   26.00
  -6   9   0  541.45   30.00
   6   3   0  525.75   31.90
   9  -6   0  471.75   31.40
  -9   3   0  569.34   28.30
  -6  -3   0  556.94   28.60
   3   6   0  488.05   31.40
   9  -6   0  549.25   27.30
   6  -9   0  475.95   31.50
   3   6   0  579.54   28.70
  -3   9   0  496.15   30.60
  -3   9   0  556.84   28.90
   9  -2   0  161.28   16.00
  -9   7   0  150.48   14.60
  -7   9   0  171.48   14.50
   7   2   0  192.68   11.20
  -2  -7   0  206.08   13.70
   7   2   0  159.08   17.90
   2  -9   0  135.99   16.80
  -7   9   0  208.98   15.70
   2   7   0  151.08   19.60
   2   7   0  202.78   14.30
  -7  -2   0  190.38   13.60
   7  -9   0  144.09   19.60
   9  -7   0  171.08   19.80
   9  -7   0  203.48   11.10
  -2   9   0  175.68   14.30
  -9   8   0   -6.40    7.20
   1  -9   0  -16.50    8.80
  -8   9   0   22.80    6.70
   9  -1   0   35.60   10.60
  -8   9   0   -7.40    7.00
   8   1   0   -7.30   10.30
   9  -1   0   -2.00    9.10
  -1   9   0  -10.50   10.60
   1   8   0   10.60    6.60
   8  -9   0    5.70   12.20
  -8  -1   0    9.30    6.30
   9  -8   0    7.70    3.80
   9  -8   0    0.50   11.80
  -1   9   0    6.10    6.70
  -9   1   0   21.00    6.10
   0  -9   0  473.15   27.40
  -9   9   0  533.15   26.00
   9   0   0  520.55   29.90
  -9   9   0  545.25   27.80
   9   0   0  562.04   28.10
  -9   0   0  514.35   27.00
   9  -9   0  429.36   31.00
   0   9   0  476.05   30.10
   0   9   0  518.75   27.40
 -10   5   0 1208.98   57.79
   5 -10   0 1101.79   59.29
  -5  10   0 1259.57   57.99
   5   5   0 1187.18   57.69
   5   5   0 1148.19   59.49
  -5  10   0 1201.78   58.49
  10  -5   0 1221.38   57.39
  10  -5   0 1091.79   59.09
   5   5   0 1164.08   55.79
   6   4   0   97.89   13.50
  -6  10   0   66.59   12.10
 -10   6   0   62.99   12.80
  10  -4   0  122.79   16.50
  -6  10   0   89.99   11.50
  10  -4   0   78.09   10.80
   4 -10   0   74.49   12.60
  10  -6   0  107.59   17.00
  -6  -4   0   88.09    9.20
  10  -6   0   80.19    9.30
   4   6   0   80.29   12.80
  -4  10   0   66.79   11.40
   4   6   0   97.29   12.00
  -4  10   0   80.79   11.70
   6 -10   0   79.99   13.30
  -7  10   0  127.09   12.70
  10  -3   0  123.19   13.10
  -7  10   0  120.49   15.10
   7   3   0  123.19    7.70
  10  -3   0  153.58   17.50
   7   3   0  101.99   17.20
 -10   7   0  105.19   13.80
   3 -10   0   84.69   15.50
   3   7   0  130.49   14.10
  10  -7   0  120.79   18.20
   7 -10   0  123.19   14.90
  -3  10   0  129.09   13.10
  -3  10   0  131.29   12.60
   3   7   0  136.09   12.20
  -7  -3   0  115.09   11.70
  10  -7   0  131.39    9.60
  -8  10   0  538.25   27.50
  -2  -8   0  544.35   26.80
  10  -2   0  548.65   28.90
  10  -2   0  527.25   28.30
   8   2   0  473.45   25.30
   2 -10   0  468.95   28.60
  -8  10   0  546.95   27.60
 -10   8   0  546.65   27.90
   8   2   0  499.75   29.60
   2   8   0  513.35   27.30
  10  -8   0  538.45   25.20
 -10   2   0  486.65   26.20
  10  -8   0  416.16   29.50
  -2  10   0  456.15   29.10
   8 -10   0  447.66   30.20
   2   8   0  486.15   29.90
  -8  -2   0  508.55   26.90
  -2  10   0  510.35   27.20
   1 -10   0  -12.20    8.60
  10  -1   0   -2.40    9.00
  -9  10   0   10.30    6.60
 -10   9   0   -7.10    6.90
  -9  10   0  -11.50    6.70
  10  -1   0   13.00   10.30
   9   1   0   12.10    7.20
   9   1   0   -2.50   10.00
  10  -9   0    4.70    3.60
  -9  -1   0    4.30    6.00
 -10   1   0   12.80    6.00
   1   9   0   -7.20   10.10
   9 -10   0    3.80   11.50
  -1  10   0    5.10    6.70
  -1  10   0  -11.30   10.40
   1   9   0    2.40    6.60
  10  -9   0   -3.40   11.70
  10   0   0    8.50    8.80
 -10  10   0    4.80    6.00
  10   0   0   -0.20    9.60
 -10  10   0   -5.40    6.90
   0  10   0   -7.60   10.50
 -10   0   0    7.50    5.90
   0  10   0    6.70    6.80
  10 -10   0    9.30   12.10
  11  -5   0  247.98   15.70
  11  -5   0  244.98   20.40
   6   5   0  230.78   21.60
   5 -11   0  228.78   20.30
  -6  11   0  243.98   18.60
  -6  11   0  248.68   17.30
 -11   6   0  259.77   17.10
  -5  11   0  231.88   19.30
 -11   5   0  263.57   17.50
   5   6   0  267.47   16.00
   5   6   0  231.28   21.40
   6 -11   0  219.58   21.10
   5   6   0  251.07   12.50
  11  -6   0  233.88   15.10
  11  -6   0  240.28   20.80
  -5  11   0  252.77   16.70
  -7  11   0   54.79   10.50
   7   4   0   51.49   11.40
  11  -4   0   77.69   12.60
  -7  11   0   55.59    8.00
   4 -11   0   52.89   11.60
   7   4   0   46.70    4.30
  11  -4   0   56.79    8.30
 -11   7   0   51.19    8.50
  -4  11   0   53.19    8.10
  11  -7   0   48.80    8.40
   4   7   0   73.29   10.60
   7 -11   0   69.39   13.20
  11  -7   0   54.99   12.00
  -7  -4   0   50.49    7.70
   4   7   0   45.70   11.80
  -4  11   0   56.39   10.80
 -11   8   0   29.40    7.90
  -8  11   0   32.70    7.60
  11  -3   0   28.20    7.90
  -8  11   0   35.70    9.80
   3 -11   0   28.10   10.60
  11  -3   0   54.69   11.50
   8   3   0   36.20    5.30
   8   3   0   36.40   11.30
   3   8   0   41.70    7.50
  -3  11   0   27.60    7.40
   3   8   0   22.10   11.30
   8 -11   0   32.80   12.60
  -3  11   0   27.80   10.70
  11  -8   0   31.40   11.90
  11  -8   0   38.20    5.20
  -8  -3   0   32.50    6.80
   9   2   0  188.28   17.80
  11  -2   0  217.68   18.40
   9   2   0  177.38   11.70
  -9  11   0  181.98   14.40
 -11   9   0  176.08   15.90
  -2  -9   0  191.18   13.60
  11  -2   0  189.08   16.40
  -9  11   0  193.68   15.50
   2 -11   0  178.38   16.50
  11  -9   0  160.48   19.70
   9 -11   0  174.08   19.50
  -9  -2   0  192.28   13.60
  -2  11   0  188.88   15.20
 -11   2   0  207.38   13.20
  -2  11   0  179.28   18.80
  11  -9   0  192.08   11.10
   2   9   0  194.98   14.70
   2   9   0  171.28   19.40
  11  -1   0    7.30   10.20
 -10  11   0   12.40    7.00
  10   1   0    3.60   10.30
   1 -11   0   -6.70    8.70
  11  -1   0    7.40    9.00
 -10  11   0   -3.30    6.80
  10   1   0   13.10    7.20
   1  10   0    9.00    6.70
 -11   1   0   14.90    6.20
  -1  11   0    6.00    6.80
  11 -10   0    9.90   11.80
   1  10   0   -3.90   10.70
 -10  -1   0    8.90    6.10
  -1  11   0   -0.50   10.40
  10 -11   0    1.40   11.60
   0 -11   0   -8.70    8.10
  11   0   0    1.80    9.50
 -11  11   0    3.60    5.90
 -11  11   0   -6.60    7.20
  11   0   0    4.70    8.80
   0  11   0   -0.80    7.20
  11 -11   0    6.10   11.60
 -11   0   0   13.20    6.30
   0  11   0  -12.30   10.30
  12  -6   0  922.71   50.19
  12  -6   0  990.10   47.60
   6   6   0  947.81   50.39
 -12   6   0 1003.60   48.40
   6   6   0  991.50   45.80
   6 -12   0  920.91   50.19
  -6  12   0  984.40   48.30
   6   6   0  911.21   47.80
  -6  12   0  987.10   49.10
   5 -12   0   -1.70   11.10
 -12   7   0    5.30    7.60
   7   5   0    7.00   11.20
  12  -5   0   27.70   12.10
  12  -5   0    8.10    7.00
  -7  12   0   17.40    9.40
  -7  12   0   10.80    7.40
  -7  -5   0   10.50    7.30
  -5  12   0    7.80    7.00
  12  -7   0   17.20   11.60
  12  -7   0   10.60    5.70
   5   7   0   18.50    6.90
   5   7   0   10.20   10.90
 -12   5   0   24.50    7.80
  -5  12   0   13.10   10.10
   7 -12   0   13.60   12.20
  12  -4   0   40.20   11.90
  12  -4   0   31.80    7.70
  -8  12   0   29.70    7.50
 -12   8   0   25.70    8.00
   8   4   0   27.20    4.00
   8   4   0   18.60   10.90
   4 -12   0   24.70   11.10
  -8  12   0   21.00    9.70
  12  -8   0   34.40    5.60
   4   8   0   34.00    7.50
  -4  12   0   27.40    7.50
  12  -8   0   32.80   11.80
   4   8   0   15.50   11.50
  -4  12   0   22.90   10.30
   8 -12   0   29.30   12.60
  -8  -4   0   23.90    6.80
   3 -12   0 1051.49   54.69
  -9  12   0 1093.59   54.09
  12  -3   0 1086.29   53.99
  -3  -9   0 1174.18   53.09
   9   3   0 1033.40   51.79
  -9  12   0 1167.68   54.09
  12  -3   0 1068.09   54.89
   9   3   0 1128.29   55.59
 -12   9   0 1171.88   54.09
  -9  -3   0 1106.89   53.49
   9 -12   0 1048.30   56.19
   3   9   0 1062.19   53.69
  -3  12   0 1093.79   55.29
 -12   3   0 1012.60   53.19
   3   9   0 1092.19   55.89
  -3  12   0 1092.39   53.99
  12  -9   0 1101.79   52.29
  12  -9   0  915.31   55.19
   2 -12   0   -9.60    9.70
  10   2   0    3.60   10.70
 -12  10   0  -10.00    7.00
  10   2   0    8.50    5.50
 -10  12   0  -10.10    8.40
  12  -2   0   14.20   10.80
 -10  12   0   -0.10    6.90
  -2 -10   0   -6.70    6.90
  12  -2   0   -5.40    8.60
  -2  12   0    7.10    7.30
  12 -10   0    5.80    4.10
 -10  -2   0   10.20    6.60
  -2  12   0    3.10   10.60
   2  10   0   -0.90   10.80
   2  10   0    2.40    7.20
  12 -10   0    9.40   11.70
  10 -12   0    3.20   12.60
  12  -1   0   76.39   11.40
  11   1   0   63.49   10.60
 -12  11   0   68.29    9.50
 -11  12   0   80.09    8.80
  12  -1   0   87.49   11.70
 -11  12   0   58.79   12.20
  11   1   0   71.39   12.10
   1 -12   0   64.39   11.10
  12 -11   0   76.89   14.00
   1  11   0   76.49   13.10
 -11  -1   0   81.99   10.70
 -12   1   0   76.49   10.30
  -1  12   0   81.89   12.90
 -12  12   0  295.87   19.00
 -12  12   0  308.87   16.70
   0 -12   0  252.57   19.10
  12   0   0  271.27   23.50
  12   0   0  286.87   18.50
  12 -12   0  244.38   22.70
   0  12   0  268.17   22.00
 -12   0   0  288.97   17.50
   0  12   0  278.67   18.50
  13  -6   0  426.96   24.40
  -7  13   0  446.96   26.30
  13  -6   0  406.66   27.80
 -13   7   0  458.95   25.20
  -7  13   0  462.45   25.40
   6 -13   0  429.66   27.50
   7   6   0  460.85   28.40
   7 -13   0  420.16   28.00
   6   7   0  438.16   28.30
  13  -7   0  401.86   28.10
   6   7   0  449.16   24.40
 -13   6   0  449.66   25.50
  -6  13   0  470.15   25.30
  13  -7   0  424.96   23.60
  -6  13   0  452.15   26.80
  -8  13   0  418.66   23.50
  13  -5   0  357.76   26.60
   8   5   0  409.56   26.50
 -13   8   0  401.96   23.40
  13  -5   0  381.06   22.60
  -8  13   0  421.16   24.00
   5 -13   0  360.66   25.60
  13  -8   0  381.66   20.80
   5   8   0  340.37   25.80
  13  -8   0  373.66   26.50
   5   8   0  395.36   23.00
  -5  13   0  394.46   23.00
  -5  13   0  398.26   24.80
  -8  -5   0  397.16   22.40
   8 -13   0  360.26   26.20
 -13   5   0  392.36   23.30
 -13   9   0   61.39   13.20
  13  -4   0   91.99   15.90
   4 -13   0   98.79   13.00
  -9  13   0   84.09   11.90
  -9  13   0   83.09   14.10
   9   4   0   70.49    5.80
  13  -4   0   75.39   12.20
   9 -13   0   80.29   14.50
  13  -9   0   86.99    8.70
 -13   4   0  102.69   11.80
  13  -9   0   94.29   13.70
  -4  13   0  101.79   15.90
  -9  -4   0   87.19   11.00
  -4  13   0   78.59   13.60
   4   9   0   74.69   15.40
   4   9   0   88.09   13.70
 -10  13   0  112.59   12.30
  10   3   0   98.09    7.80
  -3 -10   0  119.49   11.10
  13  -3   0  117.59   16.80
 -10  13   0  103.59   13.10
  10   3   0  109.49   20.40
   3 -13   0   95.69   16.10
  13  -3   0  104.79   13.60
 -13  10   0   93.79   13.80
   3  10   0  110.39   14.00
  -3  13   0   97.59   16.80
  -3  13   0   94.79   16.00
  13 -10   0  106.09   14.70
 -13   3   0  137.09   12.10
   3  10   0  112.89   14.30
  13 -10   0  104.59    8.40
 -10  -3   0  108.59   12.10
   2 -13   0   27.60   10.60
  11   2   0   32.70    6.30
 -13  11   0   25.10    8.30
  11   2   0   34.10   11.80
 -11  13   0   28.30    7.90
  -2 -11   0   17.50    8.00
  13  -2   0   31.70   17.90
  13  -2   0   33.00   10.60
 -11  13   0   30.70    9.20
  -2  13   0   30.60    7.80
  13 -11   0   34.40    4.70
 -13   2   0   51.59    9.30
  13 -11   0   24.00   13.60
  11 -13   0   42.80   13.50
   2  11   0   35.60    7.70
   2  11   0   26.50   11.80
  -2  13   0   41.70   11.50
  13  -1   0  104.19   15.30
  12   1   0  120.09   17.20
  12   1   0  105.39   11.80
  -1 -12   0  110.39   11.40
  13  -1   0  106.39   20.50
 -12  13   0   98.39   12.40
   1 -13   0  107.09   12.60
  13 -12   0  110.19   15.10
   1  12   0  118.09   12.50
   1  12   0  107.59   18.10
  -1  13   0  121.19   13.50
  12 -13   0  108.29   15.50
 -12  -1   0  118.49   11.70
  -1  13   0  131.09   18.30
  13   0   0   -1.30    8.50
  13   0   0  -11.40    9.40
   0 -13   0   -1.40    9.10
 -13  13   0   -5.80    7.50
 -13  13   0    4.30    6.50
  13 -13   0    5.40   13.10
   0  13   0    4.00    7.50
   0  13   0   -0.30   11.60
 -13   0   0   11.20    6.60
  14  -7   0  885.51   43.80
 -14   7   0  865.01   46.50
   7 -14   0  871.71   47.10
  14  -7   0  888.81   46.70
   7   7   0  868.41   47.40
  -7  14   0  850.71   46.20
  -7  14   0  907.91   45.30
  -8  14   0   11.80    9.60
   6 -14   0    3.30   11.70
  14  -6   0   18.20    7.40
   8   6   0    5.70   11.10
  14  -6   0   28.10   12.40
  -8  14   0   23.80    9.90
  -6  14   0   18.90   10.10
  14  -8   0   18.00    5.90
  -6  14   0   15.40    7.70
  14  -8   0   21.70   12.40
   6   8   0   18.30    6.90
  -8  -6   0    4.10    7.20
 -14   6   0   18.30   10.80
   6   8   0    4.30   12.90
   5 -14   0   31.40   12.10
  -9  14   0   40.30    9.70
  14  -5   0   38.90   12.40
 -14   9   0   28.10    9.60
  14  -5   0   23.20    7.90
  -9  14   0   23.20    8.70
   9   5   0   32.60   11.80
  14  -9   0   32.40    5.90
  -5  14   0   27.00    7.80
   5   9   0   26.60    7.50
  -9  -5   0   17.20    6.90
  14  -9   0   36.30   12.80
  -5  14   0   37.80   11.30
 -14   5   0   47.00    9.00
   9 -14   0   30.90   13.20
  14  -4   0  267.67   21.00
 -14  10   0  258.47   18.60
  14  -4   0  260.97   18.00
  10   4   0  250.37   21.10
  -4 -10   0  286.17   15.90
 -10  14   0  239.58   18.70
 -10  14   0  268.37   18.10
   4 -14   0  232.28   20.50
  10   4   0  234.88   13.10
  -4  14   0  266.87   20.70
  -4  14   0  261.37   18.40
  14 -10   0  259.57   14.80
   4  10   0  242.68   17.20
 -10  -4   0  248.88   17.00
  10 -14   0  240.78   23.70
 -14   4   0  245.58   18.90
  14  -3   0    7.60    8.50
 -11  14   0   -1.70    7.00
  14  -3   0    7.00   11.40
  11   3   0    7.30   11.20
 -11  14   0  -11.80    9.80
  -3 -11   0   11.50    7.30
   3 -14   0    2.80   10.60
  11   3   0    7.60    4.30
 -11  -3   0    5.90    6.70
  11 -14   0   10.20   12.90
  14 -11   0   14.20   12.50
 -14   3   0   15.00    7.50
   3  11   0    8.30    7.30
  -3  14   0    1.20    7.10
  -3  14   0    4.20   11.00
   3  11   0   -2.00   13.60
  14 -11   0    2.20    4.20
   2 -14   0   13.10   10.60
  12   2   0   23.10   11.50
  -2 -12   0    7.50    8.20
 -14  12   0    9.60    8.40
 -12  14   0   18.50    7.90
  14  -2   0   28.50   12.20
  14  -2   0   30.60    9.90
  12   2   0   22.00    6.40
 -12  14   0   17.00    9.40
   2  12   0   18.60    7.90
  14 -12   0   19.50    4.40
   2  12   0   20.60   12.40
  -2  14   0   25.90   12.30
  12 -14   0   35.10   14.30
  14 -12   0   26.30   13.50
 -12  -2   0   29.90    7.50
  -2  14   0   32.10    8.00
  14  -1   0   92.39   15.00
  13   1   0  108.09   13.90
   1 -14   0   90.79   15.00
 -13  14   0   87.19   12.80
 -14  13   0   76.59   13.60
  14  -1   0   98.59   15.50
  -1 -13   0  108.99   12.00
  13   1   0   83.59   11.80
 -13  14   0   84.59   13.90
   1  13   0   95.79   12.80
   1  13   0  122.49   15.30
 -14   1   0  125.29   11.90
  13 -14   0   86.99   16.00
  -1  14   0  138.29   15.40
 -13  -1   0  100.39   12.40
  14 -13   0  115.19   15.90
  -1  14   0  105.39   13.10
 -14  14   0    4.40    7.60
  14   0   0   -2.30    9.20
  14   0   0    4.80   10.90
   0 -14   0   -5.30    9.60
 -14  14   0  -10.20    8.00
   0  14   0   -5.70   12.30
 -14   0   0    9.50    7.20
   0  14   0    0.00    7.80
  14 -14   0    7.90   13.80
  -8  15   0 1076.09   52.79
 -15   8   0  987.30   53.49
  15  -7   0 1042.90   51.99
  15  -7   0  943.51   54.39
   7 -15   0 1024.00   57.29
   8   7   0 1098.39   54.89
  -8  15   0 1086.69   53.29
  -7  15   0 1119.09   52.99
  15  -8   0 1014.60   51.59
 -15   7   0 1067.49   53.09
  -7  15   0 1094.59   53.29
   7   8   0 1026.70   52.19
   7   8   0 1107.99   55.49
  15  -8   0  998.50   54.59
   8 -15   0 1008.60   55.09
  15  -6   0   73.39   11.80
   9   6   0   73.49   13.30
 -15   9   0   75.19   10.70
  -9  15   0  115.59   14.90
   6 -15   0   69.89   15.80
  15  -6   0   76.49   13.90
  -9  15   0   76.19   12.70
   6   9   0   91.39   14.40
   6   9   0   92.79   11.90
  -6  15   0   89.89   12.50
  -6  15   0   64.99   13.60
   9 -15   0   85.09   15.20
  -9  -6   0   66.09   12.00
  15  -9   0   75.69    9.60
 -15   6   0   79.49   13.60
   5 -15   0  653.13   38.20
 -10  15   0  719.43   36.30
 -15  10   0  696.63   36.40
  15  -5   0  605.94   37.70
  15  -5   0  666.53   36.00
  10   5   0  729.63   38.80
 -10  15   0  688.23   36.40
  -5 -10   0  765.22   34.50
   5  10   0  671.53   35.90
   5  10   0  693.53   39.50
  15 -10   0  678.13   34.20
  -5  15   0  708.23   36.70
 -15   5   0  677.53   36.10
  -5  15   0  683.13   38.00
  10 -15   0  668.73   39.90
 -10  -5   0  693.83   35.80
  15 -10   0  584.24   38.40
 -15  11   0  620.14   33.40
 -11  15   0  636.64   33.00
   4 -15   0  598.34   34.70
  11   4   0  588.84   29.50
  15  -4   0  602.44   35.20
  -4 -11   0  656.53   31.70
  11   4   0  627.34   35.70
 -11  15   0  582.74   33.30
  15 -11   0  547.65   36.40
   4  11   0  603.74   32.70
  11 -15   0  564.14   37.30
  -4  15   0  619.64   35.00
   4  11   0  634.14   36.40
  15 -11   0  592.84   30.50
 -15   4   0  594.24   32.30
 -11  -4   0  615.04   32.30
  -4  15   0  648.74   33.50
  12   3   0   96.99    8.30
 -12  15   0  124.29   13.30
 -12  15   0  100.29   13.50
  12   3   0  114.59   18.10
  -3 -12   0   98.89   12.60
  15  -3   0   89.69   13.70
 -15  12   0   75.79   14.30
   3 -15   0  116.59   14.40
  15  -3   0  128.59   15.70
   3  12   0  122.29   15.70
  12 -15   0  133.89   17.20
 -12  -3   0  108.39   12.80
   3  12   0  111.99   13.10
  15 -12   0   99.09    8.70
 -15   3   0  124.39   12.20
  15 -12   0  105.39   16.00
  -3  15   0  113.79   18.70
  -3  15   0  108.69   13.60
 -13  15   0   62.39   11.20
  15  -2   0   78.09   12.00
 -15  13   0   63.69   10.30
 -13  15   0   59.39    9.90
  13   2   0   76.49   13.30
  15  -2   0   69.79   13.70
   2 -15   0   61.69   12.80
  13   2   0   71.09    8.00
  -2 -13   0   55.49   10.40
  13 -15   0   86.69   16.70
  15 -13   0   71.19   15.60
  -2  15   0   75.49   14.10
 -15   2   0   91.59   11.80
 -13  -2   0   54.89    8.90
   2  13   0   68.09   12.60
   2  13   0   81.69   14.50
  -2  15   0   72.39   10.40
  -1 -14   0  144.49   16.30
  14   1   0  177.78   20.10
 -15  14   0  201.18   13.60
 -14  15   0  148.69   15.60
 -14  15   0  164.08   16.40
  14   1   0  166.08   14.10
   1 -15   0  156.78   17.60
  15  -1   0  191.68   18.90
 -15  14   0  146.29   16.10
  15  -1   0  175.98   17.60
 -14  -1   0  168.28   15.30
  -1  15   0  177.68   16.00
  -1  15   0  174.28   21.00
  14 -15   0  180.78   22.70
 -15   1   0  178.28   15.00
   1  14   0  169.78   15.50
  15 -14   0  129.79   22.30
   1  14   0  167.58   21.40
  15   0   0  358.06   25.90
 -15  15   0  374.96   21.50
  15   0   0  343.37   22.90
   0 -15   0  374.06   24.20
 -15  15   0  331.27   22.80
 -15   0   0  354.86   22.10
   0  15   0  384.26   27.60
 -16   8   0 1870.21   89.39
   8 -16   0 1758.22   90.99
  16  -8   0 1808.32   88.39
   8   8   0 1766.52   90.79
  -8  16   0 1880.21   89.69
  -8  16   0 1878.01   89.49
  -9  16   0   13.60    8.50
  16  -7   0   25.60   13.90
   7 -16   0   22.40   13.80
  16  -7   0   23.90    7.90
  -9  16   0   43.50   11.40
 -16   9   0   13.30    8.80
   9   7   0   15.40   12.30
  16  -9   0   14.20    6.70
  -9  -7   0   13.30    8.20
  16  -9   0   26.20   14.00
   9 -16   0   11.80   14.10
   7   9   0   25.40    7.50
   7   9   0   18.80   13.40
 -16   7   0   16.60    9.20
  -7  16   0   17.50    8.20
  -7  16   0   29.70   11.60
 -10  16   0   27.10    8.80
 -16  10   0   15.90    9.30
  16  -6   0   41.90   13.20
 -10  16   0   44.60   11.00
  16  -6   0   28.00    8.60
   6 -16   0   27.50   13.70
  10   6   0   24.00   12.90
 -10  -6   0   18.40    8.00
   6  10   0   27.00    8.50
  10 -16   0   29.10   14.60
  16 -10   0   38.50   14.10
  16 -10   0   32.20    6.50
   6  10   0   21.10   13.10
 -16   6   0   38.30    9.40
  -6  16   0   54.29   12.50
  -6  16   0   25.10    8.90
  16  -5   0 1970.10   91.89
 -11  16   0 1970.70   92.09
  -5 -11   0 2010.50   90.49
 -16  11   0 1961.80   91.99
  11   5   0 1965.10   93.79
 -11  16   0 1900.41   91.49
  16  -5   0 1819.72   92.69
  16 -11   0 1883.01   90.09
  11 -16   0 1756.02   93.89
   5  11   0 1812.72   91.59
 -16   5   0 1707.73   90.99
   5  11   0 1862.81   93.49
 -11  -5   0 1850.41   91.49
  -5  16   0 1941.31   92.19
  16 -11   0 1720.23   93.39
  -5  16   0 1950.70   92.89
  -4 -12   0   94.89   11.90
  16  -4   0   84.09   14.60
 -12  16   0   77.49   13.20
  16  -4   0   74.29   11.10
  12   4   0   63.79    6.40
 -12  16   0   65.29   11.60
   4 -16   0   81.39   14.40
 -16  12   0   71.99   11.30
  12   4   0   91.69   15.20
  -4  16   0   76.99   14.00
  16 -12   0   82.09   16.00
  12 -16   0   74.79   16.40
  -4  16   0   72.49   13.40
   4  12   0   78.09   12.90
 -12  -4   0   68.59   12.90
   4  12   0   83.69   15.00
  16 -12   0   71.19    8.30
  -3 -13   0   -2.80    8.70
   3 -16   0   -1.20   11.90
  13   3   0    4.30    5.00
 -13  16   0   -1.10   11.40
  16  -3   0    1.60   13.40
 -13  16   0   -7.80    8.10
  16  -3   0    3.70    9.80
  13   3   0    2.00   11.90
  -3  16   0   10.10    8.40
 -13  -3   0   11.80    7.80
  13 -16   0    9.70   16.00
  16 -13   0   14.70   14.40
  -3  16   0    6.20   13.10
   3  13   0   12.30    9.00
   3  13   0   -3.90   13.20
  16 -13   0    2.70    4.60
 -14  16   0    6.10    9.00
   2 -16   0   11.10   12.20
  16  -2   0   13.70   10.70
  16  -2   0   17.60   12.80
  14   2   0   11.80   19.70
 -14  16   0    0.40   10.70
  14   2   0   12.60    6.90
  -2 -14   0    7.80   10.00
 -16  14   0   -4.80    9.10
 -14  -2   0   19.40    8.00
  16 -14   0   32.40   26.80
  -2  16   0   15.40   10.70
   2  14   0   13.40   10.10
  14 -16   0   21.10   17.00
  -2  16   0   34.30   13.90
   2  14   0   22.30   14.10
 -16   2   0   29.80    7.90
   1 -16   0  110.69   17.70
  16  -1   0  142.59   18.70
 -15  16   0  112.89   15.20
  -1 -15   0  118.09   16.40
 -16  15   0  148.49   13.10
 -16  15   0  104.29   15.30
  16  -1   0  136.99   16.70
  15   1   0  116.99   18.90
  15   1   0  125.39   13.50
 -15  16   0  122.49   15.10
 -15  -1   0  138.69   15.70
   1  15   0  122.59   21.50
  16 -15   0  141.79   18.90
 -16   1   0  161.68   14.60
  15 -16   0  155.08   19.60
   1  15   0  152.48   16.30
  -1  16   0  130.69   20.70
  -1  16   0  137.69   15.60
 -16  16   0   12.40    9.20
  16   0   0   23.50   12.40
   0 -16   0    8.80   11.70
  16   0   0   18.30   10.40
 -16  16   0    4.50   17.70
   0  16   0   17.90    9.20
   0  16   0   19.00   14.70
 -16   0   0   19.30   10.20
  16 -16   0   20.10   16.10
   9   8   0  744.93   41.10
  17  -8   0  716.03   37.60
  -9  17   0  769.02   39.80
  17  -8   0  662.93   41.50
   8 -17   0  702.53   42.10
 -17   9   0  721.33   39.10
  -9  17   0  742.03   38.90
 -17   8   0  752.52   38.90
  17  -9   0  678.93   41.90
   8   9   0  737.33   41.50
  17  -9   0  676.53   37.00
  -8  17   0  748.93   39.70
  -8  17   0  752.62   39.20
   9 -17   0  658.23   41.40
  -9  -8   0  780.72   38.70
  10   7   0   34.60   15.30
   7 -17   0   38.60   15.00
 -17  10   0   20.80   10.00
 -10  17   0   37.50    9.40
  17  -7   0   36.80   16.70
 -17   7   0   37.50   10.00
   7  10   0   54.69   14.80
  17 -10   0   42.40    7.30
  17 -10   0   48.70   15.50
 -10  -7   0   39.60    9.20
   7  10   0   63.29   12.00
  -7  17   0   34.80    9.70
  10 -17   0   42.60   15.60
  -7  17   0   50.99   13.20
  17  -6   0  268.27   20.00
 -11  17   0  294.87   21.40
  17  -6   0  242.78   24.20
   6 -17   0  261.97   25.40
 -11  17   0  339.57   22.20
  -6 -11   0  350.66   18.00
 -17  11   0  285.77   21.20
   6  11   0  302.57   27.50
  17 -11   0  282.17   17.50
  -6  17   0  318.17   23.10
  17 -11   0  253.27   25.50
   6  11   0  302.77   26.40
  -6  17   0  304.27   24.20
 -11  -6   0  296.67   19.60
 -17   6   0  305.27   21.40
  11 -17   0  296.77   27.90
  -5 -12   0  352.06   20.20
   5 -17   0  313.07   26.10
  17  -5   0  336.07   26.90
  17  -5   0  347.77   22.40
 -17  12   0  296.27   22.80
 -12  17   0  350.36   23.10
  12   5   0  363.36   28.90
 -12  17   0  348.77   22.10
 -12  -5   0  345.27   22.10
   5  12   0  290.97   24.80
  17 -12   0  324.67   28.50
 -17   5   0  347.07   22.20
   5  12   0  306.47   27.60
  -5  17   0  367.96   26.30
  17 -12   0  330.57   18.80
  -4 -13   0  588.74   29.80
  17  -4   0  545.35   31.40
 -17  13   0  530.95   31.30
  13   4   0  564.84   34.00
  17  -4   0  559.74   34.10
 -13  17   0  555.34   31.30
 -13  17   0  491.35   31.10
   4 -17   0  557.94   34.10
  13 -17   0  492.65   36.80
  -4  17   0  553.44   31.00
  -4  17   0  593.84   34.00
   4  13   0  557.74   35.40
  17 -13   0  483.75   37.10
 -13  -4   0  586.44   36.10
   4  13   0  539.75   30.60
  17 -13   0  499.15   27.50
 -17   4   0  526.35   29.80
 -14  17   0  369.36   26.80
  17  -3   0  437.46   29.10
  14   3   0  444.66   28.90
  -3 -14   0  421.06   25.00
  17  -3   0  396.96   26.00
  14   3   0  398.56   21.50
 -14  17   0  448.66   31.00
 -17  14   0  415.76   26.40
  -3  17   0  430.66   25.70
  17 -14   0  370.96   30.40
  -3  17   0  456.95   29.60
   3  14   0  439.46   25.30
  14 -17   0  412.66   32.70
  17 -14   0  366.76   21.40
 -17   3   0  417.16   24.80
   3  14   0  439.76   30.60
 -14  -3   0  422.56   32.60
  15   2   0   50.49    8.10
  15   2   0   50.79   13.80
 -15  17   0   44.30   13.10
 -17  15   0   41.70   18.20
   2 -17   0   60.99   13.90
  17  -2   0   58.49   13.90
  -2 -15   0   40.40   11.60
 -15  17   0   27.50   12.00
 -15  -2   0   65.09   12.50
   2  15   0   66.09   16.10
  -2  17   0   81.49   16.30
  17 -15   0   75.79   17.70
 -17   2   0   72.79   16.50
  15 -17   0   61.39   17.20
   2  15   0   49.40   10.20
  -2  17   0   57.89   10.50
  16   1   0  137.39   20.80
 -17  16   0  120.39   17.00
 -16  17   0  140.09   17.30
  -1 -16   0  150.58   17.80
  17  -1   0  152.18   18.60
 -16  17   0  132.69   17.80
 -17  16   0  182.08   14.40
  17  -1   0  157.08   18.60
   1 -17   0  146.89   19.80
  16   1   0  160.18   14.30
  -1  17   0  162.48   18.00
  -1  17   0  142.99   22.00
 -17   1   0  165.68   15.00
   1  16   0  159.58   16.90
   1  16   0  166.08   23.30
  16 -17   0  148.39   25.00
  17 -16   0  171.78   26.30
 -16  -1   0  175.38   16.30
 -17  17   0    2.40    9.60
 -17  17   0   12.70   10.20
  17   0   0   12.70   12.70
  17   0   0   16.70   11.00
   0 -17   0    4.00   12.40
 -17   0   0   24.70    8.70
  17 -17   0   29.50   18.60
   0  17   0    4.50   15.50
   0  17   0    9.60    9.40
   9   9   0 1810.72   89.39
   9 -18   0 1734.83   89.69
  -9  18   0 1853.81   87.69
  18  -9   0 1780.52   86.59
 -18   9   0 1751.92   87.39
  -9  18   0 1826.72   88.39
  18  -9   0 1720.13   89.79
 -10  18   0   87.09   13.90
  10   8   0   45.70   14.70
 -18  10   0   53.19   11.20
  18  -8   0   65.79   15.90
  18  -8   0   57.49    9.50
   8 -18   0   43.80   16.00
 -10  18   0   48.20   11.60
  18 -10   0   73.39   17.00
  -8  18   0   78.29   14.70
  -8  18   0   55.59   10.50
   8  10   0   46.30   15.20
  18 -10   0   57.29    8.60
 -10  -8   0   39.50   10.00
 -18   8   0   60.09   11.40
  10 -18   0   77.39   19.20
  11   7   0  152.28   21.00
   7 -18   0  155.38   19.30
  18  -7   0  158.48   15.30
 -11  18   0  129.19   18.00
  18  -7   0  134.09   20.10
  18 -11   0  169.48   24.00
   7  11   0  143.19   14.70
  -7  18   0  160.38   20.60
 -11  -7   0  136.99   15.30
   7  11   0  152.68   21.50
  -7  18   0  149.69   16.40
 -18   7   0  146.19   16.40
  18 -11   0  147.29   12.60
  11 -18   0  139.49   24.00
 -12  18   0  602.64   31.50
  18  -6   0  531.35   34.80
  12   6   0  534.25   33.90
   6 -18   0  498.35   34.60
  -6 -12   0  579.54   28.50
  18  -6   0  517.25   30.30
 -12  18   0  549.74   31.20
 -18  12   0  518.55   31.40
   6  12   0  491.45   30.20
  18 -12   0  531.65   27.90
  12 -18   0  516.85   36.90
  -6  18   0  522.55   31.40
 -18   6   0  533.45   30.60
  -6  18   0  537.65   33.40
  18 -12   0  550.74   35.80
 -12  -6   0  515.45   30.10
  13   5   0   75.29   15.40
   5 -18   0   91.69   16.80
 -18  13   0   71.19   12.80
 -13  18   0  113.29   16.50
  18  -5   0   84.29   15.20
  18  -5   0   94.89   16.50
 -13  18   0   68.59   14.20
  13 -18   0   82.59   18.50
  -5  18   0   89.89   14.90
   5  13   0   85.89   14.20
  -5  18   0  104.79   16.10
  18 -13   0   78.39    9.40
 -18   5   0  134.99   23.10
 -13  -5   0   78.29   14.10
  18 -13   0   91.89   20.20
  18  -4   0  198.28   18.60
 -14  18   0  170.28   19.00
  18  -4   0  200.38   23.80
  14   4   0  194.88   21.70
  -4 -14   0  163.18   16.60
  14   4   0  181.48   11.30
 -14  18   0  181.78   17.40
   4 -18   0  192.38   23.50
   4  14   0  202.58   17.40
   4  14   0  211.98   27.20
  -4  18   0  213.38   22.70
  18 -14   0  187.98   12.60
 -14  -4   0  210.18   17.10
 -18   4   0  220.18   17.60
  18 -14   0  224.98   26.70
  -4  18   0  206.28   18.00
  14 -18   0  178.68   27.60
  18  -3   0  791.92   43.90
   3 -18   0  794.92   45.00
  -3 -15   0  742.93   41.80
  15   3   0  758.92   39.10
  15   3   0  822.22   45.00
 -15  18   0  844.72   42.70
 -15  18   0  735.03   42.90
 -18  15   0  815.22   42.80
  18  -3   0  843.32   44.90
  15 -18   0  749.82   47.90
 -15  -3   0  793.12   42.10
   3  15   0  886.91   47.60
 -18   3   0  758.42   41.80
   3  15   0  833.52   42.90
  18 -15   0  772.72   47.60
  -3  18   0  796.22   46.60
  -3  18   0  836.62   43.30
 -16  18   0    0.30    9.70
 -18  16   0  -16.30    9.90
   2 -18   0   -8.40   14.30
  18  -2   0  -22.80   12.70
  16   2   0   -4.50    7.20
  18  -2   0   -0.50   11.00
  16   2   0    9.90   13.50
  -2 -16   0  -19.10   10.60
 -16  -2   0   13.10    8.80
   2  16   0  -12.70   15.50
  -2  18   0   10.70   15.70
   2  16   0    9.80    9.80
  -2  18   0    3.30   10.10
  18 -16   0   13.60   17.30
  16 -18   0    6.00   18.10
 -18  17   0    3.30   10.50
  18  -1   0   15.70   12.40
 -17  18   0   14.30   10.20
 -18  17   0   19.50   10.00
  17   1   0   14.20    9.50
  17   1   0   19.60   13.80
 -17  18   0    2.40   12.20
  -1 -17   0    3.60   13.00
  18  -1   0   20.20   12.60
  18 -17   0   26.10   18.40
  17 -18   0   31.00   18.80
 -18   1   0   31.90    9.30
  -1  18   0   33.80   16.20
  -1  18   0   17.50   10.70
   1  17   0   22.00   10.30
 -17  -1   0   24.40    9.50
   1  17   0   27.40   16.50
 -18  18   0   -5.60   10.60
 -18  18   0    3.00   11.30
   0 -18   0    9.80   14.40
  18   0   0   11.00   13.20
  18   0   0   -1.00   10.90
   0  18   0   11.90   10.70
   0  18   0    9.80   16.90
 -18   0   0   17.90    9.50
  18 -18   0   20.90   19.30
 -10  19   0   76.59   12.00
  10   9   0   86.19   16.40
  19  -9   0  117.79   17.90
  19  -9   0   80.59   12.60
 -19   9   0   82.59   21.50
  19 -10   0  122.09   18.80
   9  10   0   81.39   16.40
  -9  19   0   95.59   16.00
 -10  -9   0   72.69   14.80
  10 -19   0  101.49   18.70
  19  -8   0  125.79   14.30
  19  -8   0  156.38   18.40
   8 -19   0  179.68   20.80
  11   8   0  114.29   21.20
 -11  19   0  107.29   16.00
 -19  11   0  125.69   20.20
  -8  19   0  122.29   16.30
   8  11   0  158.38   15.40
  11 -19   0  168.98   21.30
  19 -11   0  156.28   20.50
  19 -11   0  118.99   12.60
   8  11   0  120.69   21.30
 -11  -8   0  129.89   15.60
  -8  19   0  179.28   21.80
 -19   8   0  119.09   19.10
 -19  12   0  137.69   19.30
  19  -7   0  146.19   16.10
  12   7   0  143.39   21.90
   7 -19   0  132.19   19.40
  19  -7   0  134.69   21.80
 -12  19   0  145.49   16.80
  -7  19   0  179.88   21.60
  -7  19   0  149.88   17.20
 -19   7   0  149.79   18.00
  19 -12   0  190.98   26.80
 -12  -7   0  154.48   15.90
   7  12   0  168.68   15.60
   7  12   0  145.89   22.50
  19 -12   0  146.19   12.70
  12 -19   0  170.78   21.40
  13   6   0   57.49   15.90
 -13  19   0   52.69   11.10
  19  -6   0   58.49   16.70
  19  -6   0   65.09   11.50
 -19  13   0   38.00   11.40
   6 -19   0   53.49   16.50
 -13  -6   0   54.59   10.30
  -6  19   0   43.70   11.00
 -19   6   0   60.69   11.60
   6  13   0   47.30   16.60
   6  13   0   49.30   10.40
  19 -13   0   75.99   18.20
  -6  19   0   85.69   16.10
  19 -13   0   51.09    7.40
  13 -19   0   43.30   18.40
  -5 -14   0   18.50    9.40
  14   5   0   -2.70   14.40
  19  -5   0   20.80   17.70
 -14  19   0   31.10   11.70
   5 -19   0   -0.20   15.20
  19  -5   0    6.40   16.50
 -14  19   0    6.80    9.50
  14 -19   0   28.60   18.70
  -5  19   0   22.80   15.20
   5  14   0   15.10   16.20
   5  14   0   16.50    9.70
  19 -14   0    4.20    5.70
 -14  -5   0    9.80    9.20
 -19   5   0   30.60    9.90
  -5  19   0   12.60   10.20
  19 -14   0   38.80   17.80
  19  -4   0   -0.80   15.40
  15   4   0    2.20   14.20
 -15  19   0   -3.00    9.90
  15   4   0   11.90    4.80
  19  -4   0   18.60   11.10
   4 -19   0   -9.00   14.90
 -15  19   0   20.80   12.10
  19 -15   0    0.60    5.50
   4  15   0   12.70    9.40
 -15  -4   0   15.10    9.40
   4  15   0   -3.00   16.30
  19 -15   0   30.40   17.70
  15 -19   0   17.20   18.50
  -4  19   0    7.80   10.00
 -19   4   0   27.30    9.70
  -4  19   0   18.40   16.30
  19  -3   0   -7.80   11.10
  19  -3   0   -4.40   14.10
 -16  19   0  -19.20   12.20
  16   3   0    5.90   14.10
  16   3   0    4.10    6.70
 -16  19   0    3.80   10.00
   3 -19   0  -10.90   15.00
 -16  -3   0   11.70    9.50
  -3  19   0    3.20   10.10
   3  16   0   11.20    9.70
  16 -19   0   -0.50   18.90
  19 -16   0   12.80   19.30
  -3  19   0   16.50   16.50
   3  16   0   -8.80   15.90
 -17  19   0 1804.92   86.39
  19  -2   0 1779.92   86.19
   2 -19   0 1751.12   87.29
  17   2   0 1771.82   87.89
 -19  17   0 1758.22   86.09
  -2 -17   0 1724.33   85.89
 -19  17   0 1916.01   84.39
 -17  19   0 1742.03   85.59
  17   2   0 1651.93   83.49
  19  -2   0 1739.63   86.69
  -2  19   0 1784.22   88.49
  -2  19   0 1788.62   86.69
   2  17   0 1730.33   86.19
 -19   2   0 1542.15   84.79
   2  17   0 1774.92   88.69
 -17  -2   0 1696.33   85.49
  17 -19   0 1596.84   89.89
  19 -17   0 1625.94   89.79
  18   1   0  242.88   18.50
  19  -1   0  240.18   23.50
 -19  18   0  223.58   22.00
  19  -1   0  213.58   22.00
  -1 -18   0  238.88   23.40
   1 -19   0  235.08   24.80
 -19  18   0  236.78   19.80
  18   1   0  265.37   24.50
 -18  19   0  195.18   22.50
 -18  19   0  216.08   20.90
 -18  -1   0  271.57   20.40
  -1  19   0  271.37   22.50
  -1  19   0  249.08   29.80
   1  18   0  275.77   21.40
  19 -18   0  259.27   30.80
   1  18   0  254.87   28.20
  18 -19   0  254.47   32.90
 -19   1   0  247.48   19.80
  19   0   0    1.60   11.80
  19   0   0   -2.00   14.10
   0 -19   0  -16.30   17.90
 -19  19   0  -13.90   11.20
 -19  19   0  -16.70   12.40
  19 -19   0   23.60   21.60
   0  19   0  -10.70   18.10
   0  19   0    8.30   10.70
 -19   0   0   19.80   10.50
 -20  10   0   74.39   13.00
  20 -10   0   90.99   18.40
  20 -10   0   84.79   12.90
  10  10   0   94.09   17.70
 -10  20   0  135.99   20.70
 -10 -10   0   81.39   12.60
  10 -20   0  105.19   19.60
 -10  20   0   78.39   12.20
   9 -20   0  127.49   20.00
  11   9   0   99.99   17.40
 -20  11   0  108.69   13.90
  20  -9   0  122.29   18.10
 -11  20   0   96.39   17.50
  20  -9   0  106.59   14.70
  11 -20   0  101.59   20.60
   9  11   0  109.99   17.80
 -20   9   0  109.59   14.10
  -9  20   0  135.89   21.80
 -11  -9   0  100.19   16.50
  20 -11   0  108.49   13.00
  -9  20   0  109.99   16.70
  20  -8   0  119.49   18.60
  12   8   0  129.59   18.90
 -20  12   0   79.89   17.20
 -12  20   0  100.69   17.10
   8 -20   0  104.49   19.60
  20  -8   0  120.99   15.50
   8  12   0  107.29   18.20
  12 -20   0  122.69   21.20
  20 -12   0  117.49   12.90
 -20   8   0  112.49   18.30
   8  12   0  118.69   15.10
 -12  -8   0  100.39   15.40
  -8  20   0  106.89   16.80
  -8  20   0  169.68   21.50
  20 -12   0  129.19   20.50
  20  -7   0  222.28   19.00
  -7 -13   0  259.67   15.70
  20  -7   0  202.18   24.70
 -13  20   0  203.18   20.10
 -20  13   0  169.98   20.50
  13   7   0  203.58   24.00
  13 -20   0  205.28   27.70
   7  13   0  179.18   26.30
  -7  20   0  215.48   19.90
  20 -13   0  275.87   28.70
 -13  -7   0  203.98   18.90
 -20   7   0  217.58   20.40
  -7  20   0  251.17   24.50
  20 -13   0  209.48   15.00
   7  13   0  211.38   18.90
   6 -20   0   -6.10   16.40
  -6 -14   0   -3.20    8.90
  20  -6   0  -12.40   16.40
  20  -6   0    9.90   12.30
 -14  20   0   -3.80   10.30
  14   6   0   -6.80   15.10
  -6  20   0   27.50   16.20
  20 -14   0   10.30   18.40
   6  14   0    2.10    9.70
  -6  20   0    2.60   10.50
 -20   6   0   18.80   11.30
 -14  -6   0    2.90    9.30
  20 -14   0   -0.80    6.10
   6  14   0   -1.80   16.50
  14 -20   0    8.70   18.90
 -15  20   0   -4.20   10.10
  20  -5   0  -19.10   18.70
  20  -5   0    3.90   11.40
  15   5   0   -5.30   15.10
 -15  20   0   24.20   12.20
   5 -20   0  -21.70   16.10
  -5  20   0   17.90   20.10
   5  15   0    2.50   10.30
  20 -15   0    0.60    5.90
 -15  -5   0    4.00   10.00
  -5  20   0   -4.10   10.50
  15 -20   0    5.40   19.80
   5  15   0   -7.60   16.70
  20 -15   0   24.30   18.90
 -20  16   0   99.59   15.30
 -16  20   0  129.99   19.70
   4 -20   0  162.08   20.30
  20  -4   0  110.79   19.00
 -16  20   0   97.29   17.80
  20  -4   0  132.59   19.60
  16   4   0  152.38   19.50
 -16  -4   0  145.39   16.70
  -4  20   0  137.49   18.50
 -20   4   0  144.79   16.70
   4  16   0  161.18   21.70
  -4  20   0  155.68   25.20
  16 -20   0  124.49   23.40
   4  16   0  143.19   18.60
  20 -16   0  152.58   23.30
  17   3   0  293.87   26.80
  20  -3   0  289.97   26.70
 -20  17   0  261.57   23.70
  17   3   0  303.77   17.80
 -17  20   0  276.67   24.10
  20  -3   0  299.47   25.00
   3 -20   0  319.07   28.50
   3  17   0  297.07   30.70
  20 -17   0  329.57   34.50
  -3  20   0  313.97   24.00
 -20   3   0  313.77   22.60
  -3  20   0  329.67   30.60
  17 -20   0  334.97   34.70
 -17  -3   0  317.67   22.60
   3  17   0  318.77   23.10
 -20  18   0   55.19   11.00
  20  -2   0   29.90   15.80
  18   2   0   19.10   15.70
  18   2   0   33.30    8.60
 -18  20   0   27.30   12.00
  20  -2   0   30.30   14.10
   2 -20   0   45.50   17.20
 -18  -2   0   43.60   11.70
   2  18   0   29.90   19.10
   2  18   0   39.40   12.10
  18 -20   0   42.70   22.30
  -2  20   0   35.90   12.50
  20 -18   0   69.89   22.20
  -2  20   0   46.40   19.50
  19   1   0  220.28   24.30
   1 -20   0  201.38   25.10
  19   1   0  218.68   18.30
 -19  20   0  196.18   22.40
  20  -1   0  222.18   22.50
 -20  19   0  206.58   20.50
  20  -1   0  205.78   24.00
 -20  19   0  173.58   22.00
  -1  20   0  224.78   30.90
  20 -19   0  244.88   32.30
   1  19   0  224.98   21.30
   1  19   0  232.38   29.20
  19 -20   0  259.17   34.60
  -1  20   0  235.58   22.50
 -19  -1   0  229.38   20.20
 -20   1   0  225.38   19.00
  20   0   0    4.30   12.20
   0 -20   0  -19.60   16.20
 -20  20   0   -7.40   12.40
 -20  20   0  -22.00   14.20
  20   0   0   -8.80   14.20
   0  20   0    4.20   12.00
 -20   0   0   23.90   11.10
  20 -20   0   23.70   24.00
   0  20   0    2.20   20.40
  10 -21   0  948.81   55.19
  11  10   0  943.81   53.39
 -11  21   0 1040.90   52.19
 -11  21   0  972.00   50.59
  21 -10   0  876.61   48.50
 -21  11   0  920.81   50.19
  21 -11   0  880.51   53.89
  21 -11   0  928.81   48.50
 -11 -10   0  984.10   50.49
 -21  10   0  968.00   50.89
 -10  21   0  967.50   50.79
 -10  21   0 1026.40   52.29
  10  11   0  945.11   53.39
  11 -21   0  951.60   55.69
  21  -9   0  199.48   25.30
  21  -9   0  202.28   17.70
  12   9   0  184.58   25.10
 -12  21   0  198.28   20.10
   9 -21   0  179.28   28.60
 -21  12   0  190.38   21.60
 -12  -9   0  213.08   19.90
 -21   9   0  181.48   20.90
  -9  21   0  253.37   25.00
  21 -12   0  227.98   28.50
   9  12   0  203.68   25.30
  12 -21   0  229.28   30.60
  21 -12   0  205.28   16.30
  -9  21   0  203.08   20.30
  21  -8   0  158.98   26.70
  13   8   0  173.38   24.80
   8 -21   0  176.68   27.50
 -21  13   0  175.38   20.60
 -13  21   0  193.38   19.50
  21  -8   0  201.98   22.50
  21 -13   0  241.38   29.70
  -8  21   0  258.87   24.90
   8  13   0  204.08   25.30
  -8  21   0  199.88   20.30
 -21   8   0  190.88   21.40
 -13  -8   0  193.08   18.80
   8  13   0  227.48   18.70
  13 -21   0  199.78   28.70
  21  -7   0   59.19   18.30
  21  -7   0   66.99   12.60
   7 -21   0   64.09   19.40
 -21  14   0   32.20   12.90
  -7 -14   0   37.10   10.10
 -14  21   0   46.50   12.30
  14   7   0   48.40   17.60
  -7  21   0   98.39   18.40
 -14  -7   0   62.49   11.70
  21 -14   0   59.29   10.50
 -21   7   0   69.79   13.10
  21 -14   0   88.69   21.40
   7  14   0   62.19   18.50
  -7  21   0   63.29   12.60
   7  14   0   87.39   15.50
  14 -21   0   72.19   21.70
 -15  21   0  654.13   38.60
 -21  15   0  660.23   38.60
  -6 -15   0  599.84   35.60
  21  -6   0  692.93   38.20
   6 -21   0  707.93   43.20
  15   6   0  678.53   41.20
  21  -6   0  687.03   42.50
 -21   6   0  657.33   38.40
  21 -15   0  695.63   45.10
  -6  21   0  680.23   39.00
 -15  -6   0  667.63   37.20
   6  15   0  694.73   38.20
  15 -21   0  636.44   45.70
   6  15   0  672.93   43.80
  21 -15   0  657.43   34.10
  -6  21   0  644.64   47.20
 -16  21   0  490.65   30.90
  16   5   0  483.35   34.50
 -21  16   0  443.56   31.70
 -16  21   0  567.34   31.80
  21  -5   0  463.85   36.20
  21  -5   0  495.05   31.50
   5  16   0  533.75   30.70
  21 -16   0  503.85   40.10
 -21   5   0  473.35   30.60
  -5  21   0  517.75   32.20
  -5  21   0  533.65   36.20
  16 -21   0  501.25   40.80
  21 -16   0  449.76   26.10
 -16  -5   0  508.55   30.10
   5  16   0  520.75   37.70
   4 -21   0   66.79   19.30
 -17  21   0   79.59   14.40
  17   4   0   55.19   17.30
  21  -4   0   50.59   14.00
 -17  21   0   47.00   12.80
 -21  17   0   35.70   13.30
 -17  -4   0   56.69   12.10
   4  17   0   68.39   20.40
  -4  21   0   90.69   20.60
  17 -21   0   69.79   23.10
  21 -17   0  101.09   23.60
   4  17   0   50.59   12.20
  -4  21   0   58.59   12.70
 -21  18   0  120.79   21.30
   3 -21   0  174.28   26.70
  21  -3   0  140.09   21.90
  18   3   0  174.38   24.10
 -21  18   0  209.98   17.40
  21  -3   0  157.28   23.30
 -18  21   0  148.89   20.20
  18   3   0  160.68   12.80
  21 -18   0  216.68   34.10
 -21   3   0  208.78   19.90
   3  18   0  175.08   20.60
  -3  21   0  176.68   29.40
  -3  21   0  174.38   21.00
   3  18   0  155.98   28.90
  18 -21   0  179.28   26.80
 -18  -3   0  197.78   20.00
 -19  21   0    7.90   12.30
  21  -2   0   15.60   16.10
  21  -2   0   10.40   14.10
   2 -21   0   13.40   17.90
  19   2   0   12.10    8.20
  19   2   0   11.90   16.00
 -21  19   0  -13.00   12.70
 -21  19   0   16.10   12.10
   2  19   0   13.80   20.80
  19 -21   0   55.89   22.90
 -19  -2   0   25.50   11.70
   2  19   0   28.50   12.50
  -2  21   0   24.40   12.50
  21 -19   0   69.09   24.10
  -2  21   0   22.80   21.40
   1 -21   0  100.69   19.70
  20   1   0  105.29   13.30
  21  -1   0   85.29   17.30
  20   1   0   79.19   17.70
 -20  21   0   73.69   15.20
 -21  20   0   85.69   15.40
  -1 -20   0   84.29   18.20
  21  -1   0   96.49   16.20
 -20  -1   0  117.69   18.10
   1  20   0   97.49   19.00
  -1  21   0  103.69   20.50
  20 -21   0  118.59   25.80
  21 -20   0  120.39   26.30
   1  20   0   98.29   23.30
  -1  21   0  109.89   23.80
 -21  21   0 2234.98  101.79
   0 -21   0 2085.19  102.89
  21   0   0 2063.49  100.39
  21   0   0 2020.90  102.69
 -21  21   0 2008.50  101.79
 -21   0   0 1823.82  100.49
  21 -21   0 2035.20  107.09
   0  21   0 2135.09  104.89
   0  21   0 2033.20  101.79
  22 -11   0  485.05   35.90
  11 -22   0  497.15   39.00
 -11  22   0  509.65   31.10
 -11 -11   0  459.85   30.30
  11  11   0  457.95   35.20
  22 -11   0  533.15   28.70
 -22  11   0  471.85   30.90
  12  10   0    6.30   17.20
  10 -22   0   31.30   20.50
  22 -10   0   30.30   17.80
 -12  22   0    2.70   11.70
 -22  12   0  -10.00   12.50
  22 -10   0   18.30   10.00
 -12 -10   0    2.30   11.10
 -10  22   0    7.60   11.80
 -22  10   0    2.60   12.40
 -10  22   0   34.80   17.30
  10  12   0   14.40   17.40
  22 -12   0   10.50    9.10
  22 -12   0   35.50   19.40
  12 -22   0   18.10   21.00
  13   9   0   14.90   17.30
 -13  22   0   21.30   12.10
   9 -22   0   30.50   20.60
  22  -9   0   25.00   12.20
 -22  13   0   -3.80   12.80
   9  13   0    4.30   17.30
 -13  -9   0   22.00   11.20
  13 -22   0   26.60   21.40
  22 -13   0   41.60   20.50
 -22   9   0   19.60   13.60
  -9  22   0   48.60   17.80
  22 -13   0   29.90    8.80
  -9  22   0   16.50   11.80
  22  -8   0   90.99   13.50
   8 -22   0   80.09   21.60
  14   8   0   79.49   19.10
 -22  14   0   66.59   14.40
  22  -8   0   87.59   20.30
 -14  22   0   79.69   14.00
  14 -22   0  118.79   23.70
  22 -14   0  126.69   23.00
   8  14   0  108.39   17.40
   8  14   0   89.09   19.90
  -8  22   0  138.79   24.60
 -14  -8   0   96.39   17.80
 -22   8   0   82.49   14.60
  22 -14   0   79.39   11.90
  -8  22   0   73.49   13.90
   7 -22   0  162.28   23.50
  15   7   0  141.89   26.30
 -15  22   0  135.59   20.30
 -22  15   0  102.59   21.90
  22  -7   0  154.58   20.10
  22  -7   0  163.68   23.10
  -7 -15   0  145.59   14.00
  22 -15   0  130.99   15.00
 -15  -7   0  156.28   18.80
   7  15   0  158.38   22.10
  -7  22   0  144.89   21.00
   7  15   0  187.18   18.70
  15 -22   0  170.58   25.20
  -7  22   0  172.38   38.40
 -22   7   0  164.28   19.80
  22 -15   0  170.88   29.60
   6 -22   0   49.50   20.50
  16   6   0   63.99   17.50
  22  -6   0   59.19   14.00
 -16  22   0   43.20   13.00
 -22  16   0   27.10   13.70
  22  -6   0   43.60   19.80
 -22   6   0   77.39   14.40
  16 -22   0   83.99   23.90
  22 -16   0   99.59   23.40
  22 -16   0   62.89   10.20
   6  16   0   58.09   12.90
 -16  -6   0   55.59   12.80
  -6  22   0   60.29   13.60
  -6  22   0  103.49   21.20
   6  16   0   40.90   19.60
  22  -5   0  139.69   21.90
 -17  22   0  136.29   19.00
  22  -5   0  153.38   20.80
  17   5   0  159.88   21.40
 -22  17   0  123.99   17.10
   5 -22   0  149.69   23.10
  -5  22   0  161.68   27.70
   5  17   0  163.08   24.60
  -5  22   0  129.89   20.20
   5  17   0  148.49   19.90
  17 -22   0  157.08   26.60
  22 -17   0  206.88   33.70
 -22   5   0  145.59   20.50
 -17  -5   0  153.38   19.10
  18   4   0   22.70   17.30
  22  -4   0   19.60   13.90
  22  -4   0   26.40   17.80
 -18  22   0    6.60   12.30
   4 -22   0   14.30   20.10
  18   4   0   26.30    6.60
  -4  22   0   22.70   13.60
   4  18   0   23.10   21.20
 -22   4   0   41.90   12.10
  22 -18   0   59.39   24.00
   4  18   0   32.60   12.20
 -18  -4   0   25.60   11.20
  18 -22   0   56.29   24.00
  -4  22   0   55.79   21.60
 -22  19   0   46.10   12.20
  22  -3   0   18.20   14.60
 -19  22   0  -10.80   13.70
 -19  22   0   -2.00   13.10
  19   3   0   18.70   17.00
  19   3   0   22.00    8.20
 -22   3   0   40.40   12.10
 -19  -3   0   31.00   12.30
   3  19   0   27.40   12.40
  22 -19   0   61.19   24.60
  -3  22   0   29.50   23.00
  19 -22   0   69.59   24.60
  -3  22   0   25.70   13.10
   3  19   0   13.00   21.60
 -22  20   0  280.77   23.30
  20   2   0  281.87   28.70
  20   2   0  253.87   18.10
  22  -2   0  270.37   25.70
   2 -22   0  254.17   31.20
 -22  20   0  235.48   25.50
  22  -2   0  260.87   26.70
 -20  22   0  232.28   25.30
  20 -22   0  351.16   37.00
  22 -20   0  369.56   39.30
  -2  22   0  278.97   24.40
  -2  22   0  294.67   34.50
 -22   2   0  289.67   23.10
   2  20   0  292.97   33.20
 -20  -2   0  310.07   23.60
   2  20   0  286.37   24.00
 -22  21   0  458.75   33.10
 -21  22   0  458.45   33.10
  22  -1   0  459.65   33.70
  21   1   0  469.45   33.90
  21   1   0  465.25   28.90
   1 -22   0  514.55   37.30
  22  -1   0  476.25   32.10
  -1 -21   0  457.15   35.30
 -22  21   0  479.15   32.40
   1  21   0  520.05   39.90
  21 -22   0  551.34   43.60
  22 -21   0  553.44   45.70
 -22   1   0  483.95   31.70
  -1  22   0  541.35   41.80
  -1  22   0  500.75   32.60
   1  21   0  507.45   33.40
 -21  -1   0  490.85   31.50
   0 -22   0   89.69   19.90
  22   0   0   80.69   15.30
  22   0   0   65.29   17.70
 -22  22   0   53.79   15.00
  22 -22   0  141.39   28.90
   0  22   0   67.89   14.90
   0  22   0   84.79   25.20
 -22   0   0  110.79   19.90
 -12  23   0   22.50   12.70
 -11 -12   0   19.30   12.70
 -23  12   0    2.80   13.70
  23 -11   0   35.30   19.10
  12  11   0   25.70   18.30
  11 -23   0   66.69   22.80
  23 -12   0   39.70   19.20
  11  12   0   14.70   18.20
 -12 -11   0   22.30   12.60
 -11  23   0   29.80   12.90
  12 -23   0   58.89   23.10
  23 -12   0   33.30   10.30
 -23  11   0   18.40   13.20
 -23  13   0  277.17   26.90
 -13  23   0  340.57   25.90
  23 -10   0  284.17   33.30
  10 -23   0  372.06   35.30
  13  10   0  308.57   30.50
  23 -10   0  348.67   23.50
  13 -23   0  335.77   36.90
 -23  10   0  316.67   26.50
 -10  23   0  342.27   26.10
  23 -13   0  331.67   21.70
  10  13   0  340.17   32.90
 -10  23   0  413.36   30.90
 -13 -10   0  328.57   25.20
  23 -13   0  345.87   35.20
 -23  14   0  597.14   37.30
  23  -9   0  625.44   35.70
 -14  23   0  630.04   37.90
   9 -23   0  555.44   43.50
  23  -9   0  538.05   42.10
  14   9   0  634.84   42.20
   9  14   0  646.24   42.80
  23 -14   0  614.54   33.30
  -9  23   0  615.04   38.20
 -14  -9   0  640.44   37.40
  -9  23   0  738.03   41.70
 -23   9   0  615.14   37.60
  14 -23   0  665.43   46.10
  23 -14   0  606.24   44.00
   8 -23   0  473.75   40.00
 -23  15   0  479.55   32.60
  15   8   0  466.15   36.60
 -15  23   0  454.65   31.80
  23  -8   0  478.85   30.10
   8  15   0  478.65   41.50
  -8  23   0  500.15   31.80
  15 -23   0  485.35   39.80
  23 -15   0  504.65   40.50
  23 -15   0  509.85   27.00
 -15  -8   0  482.55   31.10
 -23   8   0  488.75   31.40
   8  15   0  495.45   31.00
  -8  23   0  424.86   52.79
   7 -23   0   19.40   21.20
 -16  23   0   31.60   13.20
 -23  16   0   12.30   14.50
  23  -7   0   49.40   13.80
  23  -7   0    5.20   20.60
  16   7   0   41.40   18.30
  -7  23   0   93.19   21.90
 -23   7   0   53.79   14.30
  23 -16   0   82.99   23.80
   7  16   0   58.79   12.60
  -7  23   0   40.40   14.10
   7  16   0   42.30   19.90
  16 -23   0   81.59   24.80
 -16  -7   0   41.60   12.70
 -17  23   0   95.19   19.70
  23  -6   0  126.29   20.50
  23  -6   0   80.59   21.50
  17   6   0  117.19   20.40
   6 -23   0  103.59   23.10
  -6  23   0  180.28   24.60
 -23   6   0  129.99   21.50
  -6  23   0  114.39   21.50
  17 -23   0  146.69   27.00
 -17  -6   0  139.29   18.60
  23 -17   0   90.29   12.00
   6  17   0  129.49   19.30
   6  17   0  137.19   23.50
   5 -23   0   -9.70   20.50
  23  -5   0  -21.60   18.10
 -18  23   0   -9.90   12.70
  23  -5   0    3.70   13.60
  18   5   0   -3.10   16.70
   5  18   0   -0.40   20.20
  -5  23   0    2.80   12.50
 -23   5   0   24.00   13.30
  -5  23   0   51.39   22.20
 -18  -5   0   17.20   12.00
  23 -18   0   27.70   24.30
   5  18   0    9.40   12.60
  18 -23   0   40.00   24.90
  23  -4   0  733.43   42.50
 -19  23   0  804.82   41.00
  23  -4   0  678.83   43.80
 -19  23   0  708.53   41.50
  19   4   0  704.43   45.20
 -23  19   0  691.23   42.70
   4 -23   0  700.73   46.70
 -23   4   0  642.74   39.90
  -4  23   0  730.03   42.40
  -4  23   0  797.82   51.39
  23 -19   0  778.52   51.99
  19 -23   0  676.43   49.70
 -19  -4   0  739.63   40.80
   4  19   0  694.33   42.60
   4  19   0  739.73   48.10
  20   3   0  339.97   30.20
 -23  20   0  368.76   24.90
  20   3   0  342.47   20.10
  23  -3   0  327.77   28.80
 -20  23   0  370.66   27.20
 -20  23   0  307.67   27.60
   3 -23   0  336.07   34.00
 -23  20   0  288.07   28.30
  23  -3   0  342.57   33.60
  20 -23   0  399.26   39.70
  -3  23   0  363.36   28.10
 -23   3   0  341.37   26.60
   3  20   0  353.66   28.20
 -20  -3   0  376.16   26.30
  -3  23   0  393.26   36.50
  23 -20   0  438.86   39.30
   3  20   0  348.37   36.30
  23  -2   0   41.20   16.40
  23  -2   0   41.60   18.50
   2 -23   0   44.40   25.80
 -21  23   0   33.40   14.40
  21   2   0   39.30    9.90
 -23  21   0   24.00   14.70
  21   2   0   44.30   17.50
 -23  21   0   34.40   15.40
   2  21   0   50.99   14.00
  -2  23   0   64.79   25.20
   2  21   0   46.70   24.20
  23 -21   0  105.39   28.20
  -2  23   0   54.49   14.40
  21 -23   0   99.69   29.10
  23  -1   0   59.99   16.20
  23  -1   0   65.59   17.30
  22   1   0   46.10   17.60
  22   1   0   60.79   12.40
 -23  22   0   20.10   16.90
 -22  23   0   38.40   15.50
  -1 -22   0   80.89   19.10
   1 -23   0   79.69   23.90
  23 -22   0  145.49   29.30
  -1  23   0   69.39   15.30
  -1  23   0  106.99   26.80
   1  22   0   72.49   15.00
 -22  -1   0   71.29   14.60
   1  22   0   62.19   25.70
 -23   1   0   69.99   15.40
  22 -23   0  120.49   29.40
 -23  23   0   20.30   15.20
  23   0   0   45.10   17.30
  23   0   0   52.29   15.80
   0 -23   0   50.19   20.40
   0  23   0   43.10   15.10
 -23   0   0   58.59   14.60
  23 -23   0  120.89   29.70
   0  23   0   64.69   26.10
  24 -12   0  481.15   28.00
 -24  12   0  427.56   32.10
  12 -24   0  485.95   40.80
 -12 -12   0  480.85   30.70
 -12  24   0  468.15   32.10
  12  12   0  452.25   37.20
  24 -12   0  414.56   36.40
 -24  13   0  119.49   17.10
 -13  24   0  118.59   20.10
  11 -24   0  140.79   25.40
  13  11   0  122.79   21.70
  24 -11   0  130.99   23.20
 -11 -13   0  104.19   21.40
  24 -11   0  112.39   17.00
  24 -13   0  123.79   22.50
  24 -13   0  122.59   15.60
  13 -24   0  163.68   26.00
  11  13   0  125.59   21.70
 -11  24   0  144.39   20.80
 -13 -11   0  119.59   19.40
 -24  11   0  113.69   22.10
  24 -10   0  236.08   32.40
  10 -24   0  320.67   34.60
  14  10   0  244.78   31.10
 -24  14   0  237.08   26.20
 -14  24   0  286.27   25.90
  24 -10   0  292.07   22.80
  14 -24   0  320.57   37.10
 -10  24   0  279.67   24.90
  10  14   0  270.57   30.40
  24 -14   0  325.47   33.80
  24 -14   0  310.87   20.60
 -14 -10   0  271.17   24.40
 -24  10   0  273.57   26.80
 -24  15   0  238.58   25.20
  24  -9   0  298.77   23.20
 -15  24   0  278.47   24.50
  24  -9   0  250.67   32.20
   9 -24   0  248.28   34.50
  15   9   0  271.47   31.00
 -24   9   0  278.97   26.70
   9  15   0  247.48   30.60
  24 -15   0  317.87   34.30
  15 -24   0  306.67   37.70
  24 -15   0  308.57   19.50
 -15  -9   0  284.47   24.30
  -9  24   0  277.37   26.00
 -16  24   0   28.70   13.40
   8 -24   0   24.90   22.30
  24  -8   0   28.10   13.00
  24  -8   0  -23.10   20.90
 -24  16   0    4.30   14.90
  16   8   0   26.00   18.90
  24 -16   0   36.70    9.20
  -8  24   0   34.00   14.00
  24 -16   0   85.29   24.30
   8  16   0   22.20   20.30
 -24   8   0   25.80   15.00
  -8  24   0   75.79   22.10
 -16  -8   0   24.00   12.60
   8  16   0   43.90   12.50
  16 -24   0   55.09   25.30
   7 -24   0   13.40   21.80
 -17  24   0    2.80   13.20
  24  -7   0  -30.60   24.10
  24  -7   0   26.00   13.90
  17   7   0   17.80   18.40
   7  17   0   31.20   20.80
  17 -24   0   44.50   25.40
  -7  24   0   66.49   22.90
 -17  -7   0   31.10   13.30
  -7  24   0   18.00   13.80
  24 -17   0   63.89   24.30
  24 -17   0   23.20    8.70
 -24   7   0   26.90   14.50
   7  17   0   33.10   12.50
 -18  24   0  218.38   23.90
  18   6   0  242.48   28.40
  -6 -18   0  204.88   20.10
   6 -24   0  214.18   37.30
  24  -6   0  244.58   27.00
  24  -6   0  235.28   24.00
  -6  24   0  255.77   25.10
  24 -18   0  343.37   38.20
 -18  -6   0  265.87   23.40
   6  18   0  244.68   32.70
 -24   6   0  259.17   25.50
  18 -24   0  261.47   38.80
   6  18   0  258.67   23.70
  -6  24   0  297.87   34.30
   5 -24   0  116.39   24.20
  24  -5   0  122.59   22.00
  19   5   0   94.59   20.90
 -19  24   0   91.19   16.20
  24  -5   0  137.39   22.60
  -5  24   0  143.79   32.90
 -19  -5   0  131.19   20.70
   5  19   0  142.49   20.30
   5  19   0  120.59   24.00
  19 -24   0  149.09   28.40
  24 -19   0  163.08   28.40
  -5  24   0  117.39   22.90
 -24   5   0  137.79   20.10
 -20  24   0  106.89   22.30
   4 -24   0  137.99   24.50
  24  -4   0  121.39   18.60
 -24  20   0  157.08   18.70
  24  -4   0  125.39   22.20
  20   4   0  120.69   21.30
  20 -24   0  190.48   30.70
  -4  24   0  133.29   22.50
 -24   4   0  147.29   22.40
 -20  -4   0  135.79   21.90
  -4  24   0  201.18   27.90
   4  20   0  123.49   25.60
   4  20   0  130.19   20.70
  24  -3   0  161.58   24.20
   3 -24   0  176.18   25.10
 -21  24   0  132.59   23.30
 -24  21   0  159.08   21.80
  24  -3   0  162.68   26.20
  21   3   0  142.69   12.90
 -24  21   0  151.18   19.00
  21   3   0  144.19   25.20
   3  21   0  209.28   28.80
  21 -24   0  233.38   37.50
  24 -21   0  272.47   39.60
   3  21   0  151.78   21.70
 -21  -3   0  189.38   20.70
 -24   3   0  209.48   21.90
  -3  24   0  211.98   34.70
  -3  24   0  161.38   24.50
   2 -24   0   24.40   21.00
 -24  22   0   -0.70   16.30
  22   2   0   13.70   17.20
 -24  22   0   -4.00   14.20
  22   2   0   20.90   11.30
  24  -2   0   23.10   16.60
 -22  24   0    8.90   14.60
  -2  24   0   71.09   26.70
  24 -22   0   74.69   27.70
 -22  -2   0   55.99   13.80
   2  22   0   29.70   14.70
  -2  24   0   27.70   14.30
  22 -24   0   56.29   27.90
   2  22   0   29.20   25.00
 -24   2   0   44.20   13.60
  -1 -23   0   29.10   18.80
 -24  23   0   -7.40   14.20
  23   1   0   -4.80   10.50
 -23  24   0   -5.10   14.10
   1 -24   0    3.80   20.00
  24  -1   0   -1.70   16.20
  23   1   0  -18.90   16.40
  24  -1   0  -16.40   15.20
   1  23   0   35.80   25.40
   1  23   0   18.10   13.90
 -23  -1   0   23.60   14.30
  23 -24   0   49.80   28.00
 -24   1   0   22.90   13.50
  -1  24   0   35.10   25.70
  24 -23   0   63.89   28.10
  -1  24   0    6.00   14.40
  24   0   0  -10.40   14.50
 -24  24   0  -14.60   13.90
  24   0   0   -5.20   15.90
   0  24   0   14.30   25.30
 -24   0   0   21.10   14.20
  24 -24   0   40.30   27.40
   0  24   0    2.90   13.90
 -25  13   0  330.57   29.10
 -13  25   0  350.56   27.90
  25 -12   0  329.47   36.10
 -12 -13   0  314.47   27.90
  12 -25   0  398.86   38.70
  25 -12   0  382.56   24.70
  13  12   0  342.77   34.30
  25 -13   0  378.76   24.60
  25 -13   0  314.67   34.10
 -25  12   0  332.37   28.00
 -13 -12   0  355.06   27.10
 -12  25   0  369.66   29.00
  12  13   0  311.07   32.60
  13 -25   0  386.56   39.00
 -11 -14   0  243.08   24.90
 -14  25   0  257.67   25.10
 -25  14   0  228.88   26.40
  14  11   0  232.78   31.20
  25 -11   0  250.97   33.80
  11 -25   0  293.87   35.50
  25 -11   0  264.47   21.80
 -25  11   0  215.28   25.00
 -11  25   0  257.17   25.00
 -14 -11   0  257.27   23.20
  14 -25   0  302.27   37.40
  11  14   0  260.47   30.30
  25 -14   0  260.67   32.00
 -25  15   0    0.60   14.80
  10 -25   0   55.19   24.00
  25 -10   0   -2.30   21.20
  25 -10   0   31.00   16.20
  15  10   0   24.40   19.40
 -15  25   0   10.10   13.70
  15 -25   0   49.80   25.90
  25 -15   0   33.60   10.00
 -10  25   0   18.20   14.20
 -15 -10   0   23.10   13.80
 -25  10   0   12.90   15.90
  10  15   0    5.40   19.40
  25 -15   0   78.09   22.80
  25  -9   0   17.80   13.60
   9 -25   0   -0.50   23.10
  16   9   0    7.20   18.80
 -16  25   0    7.00   13.70
  -9  25   0   63.39   23.80
  25 -16   0    3.90    8.70
  25 -16   0   57.49   23.90
 -16  -9   0   16.20   13.00
  -9  25   0    0.10   14.10
 -25   9   0   -7.90   15.40
  16 -25   0   44.20   26.20
   9  16   0    5.30   20.60
   8 -25   0  322.47   36.50
 -17  25   0  320.47   28.10
  25  -8   0  363.26   26.70
  17   8   0  336.87   33.50
 -25  17   0  282.97   28.70
 -25   8   0  342.97   28.80
  -8  25   0  453.75   35.90
  25 -17   0  410.66   39.20
   8  17   0  356.16   34.10
  -8  25   0  360.26   29.80
  17 -25   0  358.16   38.90
   8  17   0  375.36   27.90
 -17  -8   0  348.37   26.80
  25 -17   0  356.26   22.00
 -25  18   0  178.38   25.80
  25  -7   0  185.98   27.90
   7 -25   0  221.48   33.20
 -18  25   0  234.38   25.40
  25  -7   0  262.57   23.90
  18   7   0  245.48   28.80
  18 -25   0  306.77   39.90
  -7  25   0  263.87   25.30
  25 -18   0  235.38   17.50
 -25   7   0  252.67   24.60
 -18  -7   0  274.17   25.20
   7  18   0  240.18   33.90
  25 -18   0  336.77   38.40
   7  18   0  301.27   23.50
  19   6   0  145.59   22.40
  25  -6   0  141.89   24.40
 -19  25   0  120.39   22.60
  25  -6   0  129.39   22.70
   6 -25   0  150.88   26.00
  19 -25   0  174.68   30.20
  -6  25   0  221.18   45.10
   6  19   0  173.58   21.70
 -19  -6   0  178.78   21.20
 -25   6   0  161.28   24.00
  -6  25   0  137.99   23.90
  25 -19   0  225.38   34.90
   6  19   0  182.18   26.00
 -25  20   0   42.10   13.70
 -20  25   0    3.00   13.50
   5 -25   0  -16.10   21.70
  25  -5   0   -9.10   20.10
  25  -5   0   -3.90   15.40
  20   5   0   -9.90   17.80
  25 -20   0   73.19   26.90
  20 -25   0   33.20   27.70
 -20  -5   0   22.60   13.70
 -25   5   0   14.20   14.40
   5  20   0    1.60   23.10
  -5  25   0   27.90   25.10
  -5  25   0    4.20   14.70
   5  20   0   13.20   13.20
 -25  21   0    3.80   13.90
  25  -4   0  -16.20   19.00
  21   4   0   -7.40   17.70
 -21  25   0  -16.30   13.30
  25  -4   0   -3.20   15.30
   4 -25   0   -8.20   21.60
 -21  -4   0   16.50   14.10
  21 -25   0   17.90   29.00
  25 -21   0   75.89   27.40
  -4  25   0   -4.00   14.50
   4  21   0   10.50   14.30
   4  21   0    4.30   22.80
  -4  25   0   41.50   26.20
 -25   4   0   19.50   13.40
 -25  22   0    0.60   16.10
  25  -3   0   10.70   15.80
 -22  25   0    6.60   14.20
  22   3   0   12.00   17.40
  22   3   0   13.90    8.50
   3 -25   0   14.60   21.40
  25  -3   0    0.60   19.30
 -25   3   0   30.10   14.50
  -3  25   0   34.00   26.30
  25 -22   0   61.69   27.70
 -22  -3   0   29.40   14.00
   3  22   0   25.40   24.10
   3  22   0   16.90   13.70
  -3  25   0   18.00   14.60
  22 -25   0   46.90   27.90
  -2 -23   0  210.98   24.00
 -23  25   0  206.48   25.40
  23   2   0  196.08   26.00
  23   2   0  232.68   21.00
  25  -2   0  201.28   26.20
   2 -25   0  213.68   31.10
 -25  23   0  198.48   25.40
  25  -2   0  186.78   28.70
 -25  23   0  172.08   24.90
 -25   2   0  233.28   22.90
   2  23   0  221.18   23.90
  23 -25   0  256.17   41.00
  -2  25   0  303.87   33.70
   2  23   0  264.57   33.70
  25 -23   0  291.67   37.70
 -23  -2   0  236.98   22.50
  -2  25   0  205.18   25.50
  24   1   0   18.10   13.40
  25  -1   0    2.00   16.00
  24   1   0   27.00   17.00
 -24  25   0   39.50   22.70
 -24  25   0    1.50   14.30
  -1 -24   0   56.19   18.50
  25  -1   0   12.20   16.50
   1 -25   0    8.70   20.30
 -25  24   0   -1.60   14.30
  25 -24   0   65.19   28.00
   1  24   0   17.50   15.30
   1  24   0   41.80   24.70
 -25   1   0   35.00   14.10
  24 -25   0   82.19   28.30
  -1  25   0   54.39   25.70
 -24  -1   0   37.70   14.90
  -1  25   0   22.20   15.30
  25   0   0  -21.40   12.10
  25   0   0    8.60   16.10
 -25  25   0   -6.00   13.70
   0 -25   0    0.90   19.20
  25 -25   0   67.99   28.50
   0  25   0   37.40   24.70
 -25   0   0   26.90   14.90
   0  25   0   13.40   13.50
  26 -13   0  202.08   33.80
 -26  13   0  191.18   25.60
 -13 -13   0  209.38   24.90
  13  13   0  188.58   29.60
  26 -13   0  249.48   20.60
 -13  26   0  221.38   24.00
  13 -26   0  279.97   37.40
 -14  26   0   41.40   15.10
 -26  14   0   38.40   16.10
  14  12   0   40.40   19.90
  12 -26   0   92.39   25.80
  26 -12   0   61.29   13.40
  26 -12   0   -4.30   22.10
 -12 -14   0   30.90   14.30
  12  14   0   48.60   21.60
 -26  12   0   37.80   15.90
  26 -14   0   55.59   22.30
 -12  26   0   45.70   15.40
  26 -14   0   64.89   12.10
  14 -26   0   96.19   26.60
 -14 -12   0   50.29   14.50
 -26  15   0   62.99   16.70
 -15  26   0   55.89   15.30
  11 -26   0  114.89   26.30
  15  11   0   73.29   20.70
  26 -11   0   13.30   22.10
 -11 -15   0   77.79   16.90
  26 -11   0   94.49   14.40
  26 -15   0   86.49   14.90
  11  15   0   84.59   22.40
 -11  26   0   74.79   15.70
 -15 -11   0   79.09   16.00
  26 -15   0   85.39   23.00
 -26  11   0   51.29   16.70
  15 -26   0   99.19   27.50
  26 -10   0  307.27   24.70
 -26  16   0  250.67   27.80
  10 -26   0  292.17   36.60
  26 -10   0  230.08   30.00
 -16  26   0  306.87   26.70
  16  10   0  271.37   32.20
 -10  26   0  300.87   26.80
  16 -26   0  333.17   40.60
  10  16   0  316.37   34.70
  26 -16   0  291.77   35.50
 -26  10   0  306.27   27.90
 -16 -10   0  300.07   25.30
  26 -16   0  316.47   20.70
 -26  17   0   78.29   18.30
 -17  26   0  102.69   17.10
  17   9   0   92.49   21.30
  26  -9   0  126.59   21.10
   9 -26   0  119.49   26.10
  26 -17   0  134.29   26.30
   9  17   0  129.19   24.10
  26 -17   0  108.19   13.90
 -17  -9   0  123.79   20.50
 -26   9   0  110.09   18.40
  -9  26   0   88.09   17.40
  17 -26   0  120.99   28.60
   8 -26   0  107.29   25.40
  26  -8   0  118.49   16.90
 -18  26   0   93.39   16.60
  18   8   0   86.89   21.10
  18 -26   0  149.39   29.50
 -18  -8   0  104.99   21.50
  26 -18   0   93.09   13.90
 -26   8   0   99.29   17.80
  -8  26   0  110.89   22.00
   8  18   0  131.59   23.00
   8  18   0   90.89   24.30
  26 -18   0  154.78   27.20
 -19  26   0  102.19   17.20
   7 -26   0  110.29   25.30
  19   7   0  115.29   21.50
  26  -7   0  123.19   21.60
  26 -19   0  165.38   28.30
  19 -26   0  171.88   30.70
  -7  26   0  249.58   52.09
   7  19   0  152.38   26.10
 -26   7   0  136.69   23.00
 -19  -7   0  125.59   20.50
   7  19   0  138.89   21.80
  -7  26   0  118.49   22.80
  20   6   0    6.60   18.40
 -26  20   0  -21.10   15.30
   6 -26   0    2.20   22.70
  26  -6   0   44.60   23.10
  26  -6   0   10.30   14.90
 -20  26   0   -0.90   14.30
   6  20   0   21.00   22.60
 -26   6   0   21.30   15.50
  20 -26   0   53.19   28.30
  -6  26   0   15.40   15.30
  26 -20   0   68.39   26.60
 -20  -6   0   25.30   14.00
  -6  26   0   75.49   26.60
   6  20   0   13.20   14.00
 -26  21   0   54.29   17.00
  26  -5   0  102.79   17.60
 -21  26   0   76.39   16.10
  21   5   0   92.99   20.20
   5 -26   0   89.59   23.90
   5  21   0   76.29   16.70
 -26   5   0   85.29   18.10
   5  21   0  104.49   25.30
  -5  26   0   96.39   17.60
  26 -21   0  153.98   29.10
  21 -26   0  138.29   31.20
 -21  -5   0  109.39   21.10
  26  -4   0   13.00   16.00
 -22  26   0   15.20   14.00
  26  -4   0   12.50   19.70
  22   4   0   33.20   18.30
 -26  22   0   34.50   16.50
   4 -26   0   24.20   22.10
  26 -22   0   68.69   27.60
  22 -26   0   71.09   28.90
  -4  26   0   12.30   14.20
   4  22   0   21.20   14.40
  -4  26   0   97.09   27.00
   4  22   0   34.10   24.20
 -22  -4   0   35.60   13.70
 -26   4   0   21.90   16.50
   3 -26   0   17.70   21.40
  26  -3   0  -13.90   18.00
 -26  23   0   -7.40   14.20
  26  -3   0   18.10   15.50
 -23  26   0   12.60   14.10
  23   3   0    5.20   16.50
 -26  23   0   -5.20   16.00
   3  23   0   51.59   23.90
   3  23   0   19.30   13.50
  26 -23   0   76.89   28.10
 -26   3   0   27.40   16.20
  -3  26   0   74.59   26.80
  -3  26   0   15.90   14.30
  23 -26   0   63.79   28.20
 -23  -3   0   30.30   15.70
  24   2   0   62.59   18.20
  -2 -24   0   50.19   18.50
 -24  26   0   57.09   15.70
  26  -2   0   64.29   17.90
 -26  24   0   42.20   15.00
  26  -2   0   52.29   16.60
   2 -26   0   37.80   21.40
 -26   2   0   59.29   18.30
  26 -24   0   94.19   28.00
  -2  26   0   50.59   15.90
   2  24   0   95.19   25.20
  24 -26   0  122.59   29.90
   2  24   0   57.59   14.80
  25   1   0   -7.00   15.60
 -25  26   0  -11.90   13.90
  26  -1   0    4.40   15.20
 -26  25   0  -13.40   14.30
   1 -26   0   -3.50   19.20
   1  25   0   26.70   23.60
 -26   1   0   32.30   14.90
  -1  26   0   53.79   24.60
 -25  -1   0   13.20   15.40
  26 -25   0   67.89   27.30
   1  25   0    6.90   13.50
  -1  26   0    6.20   13.90
  25 -26   0   42.50   27.80
  26   0   0    8.80   15.40
   0 -26   0   18.20   18.70
 -26  26   0   -0.10   13.60
   0  26   0   76.79   24.80
  26 -26   0   63.49   27.80
 -26   0   0   30.60   14.30
   0  26   0   17.50   13.60
 -27  14   0  -26.50   15.50
 -13 -14   0  -15.80   13.50
  13 -27   0   31.00   25.90
  14  13   0   -4.00   19.60
 -14  27   0   -5.90   14.20
  27 -13   0   -1.50   12.30
 -14 -13   0  -16.70   13.60
  14 -27   0   35.60   26.30
  27 -14   0  -34.80   21.00
 -13  27   0   -9.00   14.50
  13  14   0  -20.80   19.50
  27 -14   0    2.00   11.90
 -15  27   0  296.47   27.70
  12 -27   0  366.76   38.80
 -12 -15   0  285.37   25.90
  15  12   0  268.17   30.90
 -27  15   0  260.47   27.80
  27 -12   0  323.57   24.50
  27 -12   0  284.97   30.40
 -27  12   0  242.08   26.30
 -12  27   0  304.97   27.10
  27 -15   0  299.67   22.70
  15 -27   0  328.57   40.10
 -15 -12   0  306.37   25.50
  27 -15   0  231.58   33.30
  12  15   0  269.37   34.10
 -27  16   0  539.65   36.50
  11 -27   0  595.44   45.40
  27 -11   0  577.84   34.80
 -16  27   0  573.84   36.30
  16  11   0  562.04   39.90
  27 -16   0  476.05   41.60
  11  16   0  584.14   41.50
 -16 -11   0  539.65   37.20
  27 -16   0  585.54   32.40
 -11  27   0  586.44   38.00
  16 -27   0  583.24   47.40
 -27  11   0  565.04   37.40
  10 -27   0  427.86   40.60
  17  10   0  412.26   36.60
 -27  17   0  440.16   34.30
  27 -10   0  453.35   30.70
 -17  27   0  451.15   32.10
  17 -27   0  461.15   44.50
  27 -17   0  446.46   38.80
 -17 -10   0  457.15   30.70
 -10  27   0  466.45   32.50
  10  17   0  440.86   39.10
 -27  10   0  443.26   33.50
   9 -27   0  212.68   34.60
  18   9   0  242.18   30.60
  27  -9   0  235.18   23.60
 -27  18   0  198.08   29.30
 -18  27   0  232.78   25.00
  27 -18   0  257.67   19.10
 -18  -9   0  252.27   25.50
 -27   9   0  221.38   26.00
  18 -27   0  296.27   39.80
  27 -18   0  275.37   35.00
  -9  27   0  254.57   26.00
   9  18   0  258.97   33.90
 -19  27   0    1.20   13.70
  19   8   0   10.70   18.30
   8 -27   0    8.00   22.90
  27  -8   0   18.00   14.90
 -27   8   0    3.10   15.60
  19 -27   0   53.29   28.30
  -8  27   0    7.60   14.70
 -19  -8   0    6.00   13.50
   8  19   0   19.60   13.70
  27 -19   0   27.60   24.50
  27 -19   0   -7.10    8.90
   8  19   0    5.90   21.40
   7 -27   0   -1.10   22.50
  27  -7   0    4.10   13.80
  20   7   0    4.30   17.70
 -20  27   0    4.20   14.00
  20 -27   0   66.09   29.50
  27 -20   0   47.80   24.70
 -27   7   0    5.40   17.50
   7  20   0   23.20   14.50
   7  20   0   27.80   22.40
 -20  -7   0   23.30   15.00
  -7  27   0   11.70   14.80
 -27  21   0  141.99   20.60
  27  -6   0  184.58   24.40
 -21  27   0  160.68   22.40
  27  -6   0  203.88   23.50
   6 -27   0  197.48   27.60
  21   6   0  187.08   26.20
  -6  27   0  184.18   24.20
  21 -27   0  231.98   40.20
 -27   6   0  183.18   23.80
   6  21   0  202.98   32.60
   6  21   0  187.58   22.60
 -21  -6   0  202.98   22.50
  27 -21   0  273.87   36.70
 -27  22   0  161.28   20.90
  22   5   0  111.29   20.00
  27  -5   0  109.79   18.30
   5 -27   0  117.19   25.20
 -22  27   0  110.59   17.10
  -5  27   0  136.99   23.00
   5  22   0  129.19   21.10
 -27   5   0  132.29   21.80
 -22  -5   0  136.69   24.20
   5  22   0  189.58   26.80
  22 -27   0  165.58   31.70
  27  -4   0  -32.40   19.00
  27  -4   0    3.90   14.80
   4 -27   0  -10.50   21.10
 -27  23   0  -12.30   16.20
 -27  23   0  -21.30   13.80
  23   4   0    1.60   16.10
 -23  27   0   -1.90   13.20
 -23  -4   0   24.00   13.50
  -4  27   0   -0.70   13.60
  -4  27   0   64.59   26.20
   4  23   0   13.50   13.50
  27 -23   0   71.59   26.30
  23 -27   0   42.70   27.60
   4  23   0   28.10   22.90
 -27   4   0   27.30   14.10
 -27  24   0   58.59   16.40
   3 -27   0   86.89   22.70
  27  -3   0   72.89   16.80
 -24  27   0   60.09   15.70
  24   3   0   68.99   17.90
  27  -3   0   64.39   19.70
 -27  24   0   44.80   19.50
 -24  -3   0   65.09   16.30
  24 -27   0  109.39   29.50
 -27   3   0  100.19   18.80
   3  24   0  122.39   25.20
  -3  27   0   59.79   15.30
   3  24   0   64.69   15.30
  27 -24   0  141.09   27.70
  27  -2   0   46.20   18.40
 -27  25   0   59.99   15.40
  27  -2   0   76.29   17.20
  25   2   0   68.99   16.80
  -2 -25   0   98.49   20.30
 -25  27   0   67.89   15.40
   2 -27   0   62.99   21.60
 -27   2   0   71.79   17.40
  27 -25   0  124.39   27.80
 -25  -2   0   99.09   19.40
  -2  27   0   61.09   15.80
  25 -27   0  127.59   29.10
   2  25   0   60.19   14.90
 -27  26   0  106.49   17.20
 -26  27   0   93.89   17.00
  -1 -26   0  118.99   21.40
   1 -27   0   96.79   22.60
  27  -1   0  109.89   17.90
  26   1   0  111.19   18.60
  -1  27   0   86.29   16.10
  26 -27   0  174.68   30.60
  27 -26   0  165.08   29.40
 -27   1   0   75.09   18.70
   1  26   0  100.59   21.10
 -26  -1   0   82.99   18.50
   0 -27   0  245.18   32.00
 -27  27   0  281.77   26.80
  27   0   0  309.87   27.90
 -27   0   0  313.57   26.20
  27 -27   0  374.06   40.40
   0  27   0  275.17   27.00
 -28  14   0  152.48   24.70
  28 -14   0  146.09   25.60
  28 -14   0  220.48   20.90
  14  14   0  232.88   30.70
 -14 -14   0  184.58   23.40
  14 -28   0  218.88   34.80
 -14  28   0  211.68   25.50
 -13 -15   0   64.09   15.60
  13 -28   0   60.99   26.30
  28 -13   0   54.29   13.80
  15  13   0   60.19   20.30
 -28  15   0   24.10   20.50
 -15  28   0   35.70   15.10
  13  15   0   56.19   20.60
  28 -15   0   13.20   21.70
  15 -28   0   63.09   26.80
 -13  28   0   55.29   15.60
 -15 -13   0   38.10   15.50
 -28  13   0   39.50   16.60
  28 -15   0   70.99   13.30
 -28  16   0  112.79   18.30
  16  12   0  138.09   22.90
  12 -28   0  169.28   28.30
 -12 -16   0   98.29   18.00
 -16  28   0  105.79   22.20
  28 -12   0  135.79   20.30
  28 -16   0  138.79   16.90
 -12  28   0  116.59   22.20
  16 -28   0  153.18   28.70
  28 -16   0  101.69   24.30
 -28  12   0   78.89   19.60
  12  16   0  129.49   23.60
 -16 -12   0  110.29   22.40
  17  11   0  184.98   27.70
  11 -28   0  228.08   35.50
 -28  17   0  157.98   25.90
  28 -11   0  131.49   27.10
 -17  28   0  215.88   23.40
  28 -11   0  241.38   22.40
 -11  28   0  223.58   24.50
  28 -17   0  218.58   18.60
 -28  11   0  183.28   24.20
 -17 -11   0  214.08   22.80
  17 -28   0  265.77   38.20
  11  17   0  229.28   32.10
  28 -17   0  175.58   30.50
  10 -28   0   34.00   24.10
  18  10   0   51.69   18.90
  28 -10   0   45.10   14.00
 -28  18   0   -0.80   18.90
 -18  28   0   40.30   15.10
 -18 -10   0   46.80   14.50
 -10  28   0   27.00   15.00
  18 -28   0   77.89   27.90
  28 -18   0   51.29   22.00
  28 -18   0   44.30   11.50
 -28  10   0   18.20   19.60
  10  18   0   51.79   21.10
   9 -28   0  109.09   25.50
  28  -9   0  114.99   20.60
 -19  28   0  100.99   16.80
  19   9   0   92.29   20.00
 -28  19   0   66.29   17.60
 -19  -9   0  129.69   20.40
 -28   9   0   90.59   18.10
  28 -19   0  111.09   25.10
  -9  28   0   80.79   16.90
   9  19   0  104.29   23.30
  28 -19   0   94.29   12.60
  19 -28   0  130.99   29.80
 -20  28   0  101.49   20.30
   8 -28   0  113.79   25.40
  20   8   0  111.99   20.10
 -28  20   0   77.89   18.10
  28  -8   0  128.19   21.60
   8  20   0  117.69   20.80
 -20  -8   0   82.79   17.00
  20 -28   0  165.28   30.90
 -28   8   0  114.49   18.50
   8  20   0  129.99   24.20
  28 -20   0  123.79   25.80
  -8  28   0   95.19   16.70
 -21  28   0    2.90   13.00
  21   7   0   16.80   17.00
  28  -7   0   14.70   14.00
   7 -28   0    5.10   22.10
   7  21   0   20.80   13.00
  28 -21   0   55.49   24.30
  21 -28   0   50.89   28.80
  -7  28   0   12.30   14.50
 -28   7   0   19.50   18.50
 -21  -7   0   26.70   13.80
   7  21   0   30.30   21.60
  28  -6   0   12.30   14.10
 -22  28   0    0.20   13.30
   6 -28   0    0.50   21.50
  22   6   0    6.30   16.20
  22 -28   0   28.70   27.30
 -22  -6   0   14.60   14.90
   6  22   0    2.00   12.60
 -28   6   0   14.80   18.50
   6  22   0    5.80   21.10
  -6  28   0    1.80   13.90
 -28  23   0   -4.80   16.20
  28  -5   0  -14.60   19.60
  23   5   0   -0.40   15.60
   5 -28   0  -29.40   20.40
 -23  28   0   -9.70   13.10
  28  -5   0    0.20   14.10
   5  23   0    7.40   13.60
  -5  28   0    0.50   13.50
  23 -28   0   39.30   27.60
  28 -23   0   42.80   24.60
 -23  -5   0   12.20   13.90
   5  23   0   20.40   21.70
 -28  24   0   -5.40   13.80
   4 -28   0    2.20   20.40
  28  -4   0  -14.50   19.00
  24   4   0   17.30   16.00
 -24  28   0    0.60   12.80
  28  -4   0   15.10   14.80
 -28  24   0  -15.70   17.40
  28 -24   0   56.09   25.20
   4  24   0   16.50   13.70
  24 -28   0   55.59   27.60
  -4  28   0   12.80   13.70
 -28   4   0   30.60   17.60
   4  24   0   49.40   23.20
 -24  -4   0   24.10   14.60
   3 -28   0  138.29   24.10
 -25  28   0  154.18   22.10
  -3 -25   0  169.68   22.20
 -28  25   0  149.19   23.30
  25   3   0  158.98   24.30
  28  -3   0  143.09   21.30
  28  -3   0  150.28   22.70
   3  25   0  146.99   22.70
 -28   3   0  161.58   23.10
  25 -28   0  233.38   38.90
  -3  28   0  148.39   23.60
 -25  -3   0  137.59   23.30
 -26  28   0   63.29   15.50
  26   2   0   87.59   17.70
  28  -2   0   43.50   19.60
   2 -28   0   71.29   22.40
 -28  26   0   79.69   16.30
  28  -2   0   76.09   17.00
 -26  -2   0   93.89   19.30
   2  26   0   81.89   16.30
  26 -28   0  124.29   29.40
  28 -26   0  141.89   28.40
 -28   2   0  102.39   19.80
  -2  28   0   52.79   16.60
 -27  28   0   61.79   15.80
  28  -1   0   66.19   17.00
   1 -28   0   55.09   22.20
  -1 -27   0   62.69   21.70
 -28  27   0   55.09   15.80
  27   1   0   62.99   17.00
   1  27   0   60.19   17.40
  -1  28   0   40.50   16.80
 -27  -1   0   49.10   17.70
  27 -28   0  114.99   29.10
 -28   1   0   42.60   17.00
  28 -27   0  132.79   28.10
 -28  28   0   21.50   15.10
  28   0   0   10.40   15.80
   0 -28   0   -7.50   21.10
 -28   0   0   40.40   15.50
   0  28   0   94.69   26.90
  29 -14   0  327.17   23.30
 -15  29   0  280.27   26.20
 -29  15   0  266.57   27.30
  29 -14   0  266.77   31.90
 -14 -15   0  268.87   27.90
  14 -29   0  327.27   38.00
  15  14   0  303.47   31.80
  14  15   0  296.97   31.70
  29 -15   0  312.37   23.00
 -14  29   0  268.67   27.60
  29 -15   0  227.48   33.10
 -29  14   0  232.38   28.70
 -15 -14   0  303.77   25.90
  15 -29   0  315.27   38.60
  29 -13   0  241.78   28.70
 -29  16   0  169.68   36.20
  29 -13   0  238.78   22.00
  16  13   0  247.88   28.50
  13 -29   0  238.88   36.10
 -16  29   0  234.18   23.90
 -13 -16   0  184.28   27.20
 -29  13   0  187.28   25.30
  16 -29   0  287.67   38.00
  29 -16   0  209.18   27.30
 -13  29   0  216.38   25.40
  29 -16   0  240.68   20.40
  13  16   0  244.88   29.10
 -16 -13   0  226.48   24.30
  17  12   0   -1.50   18.10
 -12 -17   0  -23.30   13.60
  29 -12   0   -3.30   12.40
 -17  29   0    8.10   13.50
  12 -29   0   12.80   23.80
 -17 -12   0   -2.40   14.50
 -12  29   0   -5.90   14.20
  29 -17   0   -4.30   21.00
  12  17   0   -1.90   19.30
  29 -17   0   -2.90   11.80
 -29  12   0  -17.60   16.00
  17 -29   0   18.30   26.50
  11 -29   0   30.30   23.80
  18  11   0   -2.50   17.40
  29 -11   0    1.80   12.70
 -29  18   0  -29.10   16.80
 -18  29   0   -8.90   13.00
 -11  29   0   -2.50   14.10
  29 -18   0   -5.40   19.70
 -18 -11   0    3.50   14.00
 -29  11   0  -20.60   14.50
  11  18   0   -0.60   19.00
  29 -18   0   -8.70    9.30
  18 -29   0    1.60   26.30
  29 -10   0  131.39   19.70
 -29  19   0   90.49   18.50
  19  10   0  126.79   20.50
 -19  29   0  114.99   20.60
  10 -29   0  153.88   26.80
  19 -29   0  144.99   30.20
  29 -19   0  142.29   24.00
  10  19   0  116.19   23.00
 -19 -10   0  135.59   21.30
  29 -19   0  103.39   14.00
 -10  29   0  129.49   21.70
 -29  10   0   89.49   21.60
  29  -9   0  233.78   23.30
 -29  20   0  169.78   26.10
 -20  29   0  219.38   24.10
  20   9   0  214.58   26.20
   9 -29   0  219.38   34.10
 -20  -9   0  205.28   25.30
  20 -29   0  287.97   37.70
  29 -20   0  195.28   31.90
  -9  29   0  233.78   24.50
 -29   9   0  165.58   28.00
   9  20   0  246.28   29.20
   8 -29   0  113.09   24.50
 -21  29   0   87.09   15.60
  29  -8   0   98.99   17.30
  21   8   0   97.99   19.10
 -29   8   0   94.49   17.10
  29 -21   0   86.59   23.70
   8  21   0  109.09   19.50
  -8  29   0  102.69   21.10
 -21  -8   0  109.59   20.90
   8  21   0  104.89   23.00
  21 -29   0  157.98   30.40
  22   7   0   10.00   15.70
   7 -29   0    4.20   21.60
  29  -7   0   16.70   14.00
 -22  29   0    3.50   13.10
 -22  -7   0   11.00   14.40
   7  22   0   36.70   21.10
  29 -22   0   59.79   23.50
   7  22   0   14.10   12.40
 -29   7   0   20.40   15.00
  -7  29   0   13.00   14.30
  22 -29   0   40.80   27.60
   6 -29   0   96.79   23.80
 -29  23   0   70.89   19.00
  23   6   0  111.79   19.00
  29  -6   0  114.69   20.00
 -29  23   0  137.89   23.90
 -23  29   0   94.69   15.90
  29 -23   0  125.69   25.10
   6  23   0   73.09   16.90
 -29   6   0  116.39   20.60
 -23  -6   0   76.99   17.10
  -6  29   0   81.89   16.60
 -29  24   0    4.40   14.10
  29  -5   0   20.80   14.50
  24   5   0    8.70   15.70
   5 -29   0    6.00   21.50
  29  -5   0  -11.20   17.90
 -24  29   0   15.80   13.60
  24 -29   0   54.59   27.80
   5  24   0   42.70   22.50
 -24  -5   0   26.30   14.10
   5  24   0   20.20   14.50
 -29   5   0   20.40   15.80
  -5  29   0   12.00   13.70
  29 -24   0   55.39   24.10
  29  -4   0  191.18   23.40
 -25  29   0  199.48   23.60
 -29  25   0  182.38   24.50
   4 -29   0  223.28   27.40
  25   4   0  174.58   25.30
  -4 -25   0  174.78   31.10
   4  25   0  174.48   23.70
 -29   4   0  178.28   24.60
  -4  29   0  190.88   24.50
  25 -29   0  282.67   39.70
  29 -25   0  267.37   35.70
   4  25   0  249.08   32.20
 -25  -4   0  142.29   23.90
 -26  29   0  119.09   20.20
  29  -3   0  110.79   18.20
  26   3   0  106.09   18.70
  29  -3   0   95.09   20.80
   3 -29   0  100.79   24.40
  -3 -26   0  127.19   23.30
 -29  26   0  104.89   21.40
   3  26   0  117.19   21.20
 -26  -3   0  132.19   21.30
  -3  29   0   86.19   18.40
 -29   3   0   80.29   18.60
  29 -26   0  136.79   27.90
  26 -29   0  199.18   46.00
  -2 -27   0   14.20   21.40
 -27  29   0   42.00   15.40
  27   2   0   37.70   17.00
  29  -2   0   32.40   15.90
 -29  27   0   26.00   15.30
   2 -29   0   -6.00   22.20
  -2  29   0   17.90   16.00
  27 -29   0   95.39   32.80
 -29   2   0   38.80   16.90
   2  27   0   25.30   15.50
 -27  -2   0   42.40   15.80
   1 -29   0  -24.00   23.30
 -29  28   0   26.60   15.50
  -1 -28   0  -22.90   22.70
  29  -1   0   28.10   16.60
 -28  29   0   31.40   15.10
  29 -28   0   86.09   27.80
  28 -29   0   77.09   28.00
 -29   1   0   30.10   17.00
  -1  29   0   27.60   14.70
   1  28   0   25.60   15.40
 -28  -1   0   45.30   15.40
  29   0   0   10.20   17.90
 -29  29   0   -3.00   15.20
   0  29   0    3.30   14.10
  29 -29   0   33.00   26.70
  15 -30   0  315.67   37.30
  30 -15   0  281.37   31.40
 -15 -15   0  227.88   24.30
  15  15   0  230.58   27.70
 -30  15   0  171.28   28.50
  30 -15   0  263.87   22.00
 -15  30   0  226.98   24.10
 -16  30   0   98.29   20.60
  30 -14   0  114.79   24.50
  16  14   0  104.89   20.40
  14 -30   0  133.19   27.20
 -14 -16   0   86.39   16.20
  30 -14   0  118.29   17.70
 -30  16   0  106.29   18.60
  16 -30   0  154.58   28.60
  30 -16   0  112.69   17.10
  14  16   0  102.49   20.70
  30 -16   0  139.29   24.20
 -16 -14   0   85.29   17.40
 -30  14   0  106.99   17.50
 -14  30   0  105.69   20.90
  30 -13   0  117.99   24.70
  30 -13   0  177.48   20.10
 -17  30   0  149.88   21.60
  17  13   0  151.28   26.50
  13 -30   0  193.28   28.50
 -30  17   0  112.69   20.90
  13  17   0  188.68   27.90
  30 -17   0  144.69   17.20
 -17 -13   0  169.98   22.20
 -13  30   0  148.79   22.00
  30 -17   0  154.98   25.00
  17 -30   0  211.18   36.60
  30 -12   0  120.59   19.10
  18  12   0  130.79   21.90
 -12 -18   0   73.19   17.80
  30 -12   0   75.69   23.70
  12 -30   0  155.28   27.10
 -30  18   0  132.79   20.00
 -18  30   0  102.69   20.00
  30 -18   0   91.89   14.90
  30 -18   0  119.49   23.90
  18 -30   0  152.68   29.50
 -18 -12   0  123.99   20.20
 -30  12   0  103.49   18.10
 -12  30   0  106.19   21.10
  12  18   0  118.29   21.70
  11 -30   0   70.49   23.90
 -30  19   0    4.20   16.10
  30 -11   0   39.80   14.30
  19  11   0   53.39   18.60
 -19  30   0   31.10   13.50
  11  19   0   47.50   20.10
  30 -19   0   21.60    9.90
  30 -19   0   15.00   20.40
 -11  30   0   32.20   13.90
  19 -30   0   62.79   27.60
 -30  11   0   23.70   15.50
 -19 -11   0   27.50   15.00
 -20  30   0    6.60   13.10
  30 -10   0   14.90   13.20
 -30  20   0  -14.90   14.40
  10 -30   0   15.80   22.60
  20  10   0    1.00   16.20
  20 -30   0   54.99   27.60
 -10  30   0    8.20   13.90
  30 -20   0   12.20   19.80
 -30  10   0   -1.70   18.20
 -20 -10   0    2.80   14.70
  10  20   0   -0.10   19.50
   9 -30   0   17.00   22.50
 -30  21   0  -12.90   15.90
 -21  30   0   12.60   13.50
  30  -9   0   23.60   14.90
  21   9   0   -6.00   15.90
   9  21   0    8.50   20.10
  30 -21   0   15.40   20.90
 -30   9   0   -7.40   18.30
  21 -30   0   48.10   28.20
 -21  -9   0   16.90   14.00
  -9  30   0    3.30   13.70
 -22  30   0   11.30   13.20
  22   8   0    5.50   16.20
   8 -30   0   -3.60   21.30
  30  -8   0   14.10   14.10
 -30  22   0  -11.40   15.20
 -30   8   0   -2.50   17.90
  30 -22   0   -6.00   21.30
   8  22   0   15.10   12.90
  -8  30   0   10.50   14.30
  22 -30   0   48.10   27.50
   8  22   0   28.10   20.70
 -22  -8   0   11.80   13.90
   7 -30   0   89.39   24.50
  30  -7   0  102.59   16.80
 -23  30   0   94.39   15.70
 -30  23   0   64.49   17.40
  23   7   0  102.19   18.40
 -30   7   0   62.09   19.30
   7  23   0   60.99   16.30
  30 -23   0  115.39   24.20
  -7  30   0   71.49   16.40
   7  23   0  135.19   24.40
 -23  -7   0   70.39   17.70
  23 -30   0  132.69   29.60
 -30  24   0   95.19   17.90
  30  -6   0   40.30   22.60
  24   6   0  103.39   19.00
   6 -30   0  107.19   25.20
 -24  30   0   90.19   16.30
  30  -6   0  104.59   17.10
   6  24   0  154.38   25.40
 -30   6   0   66.69   19.20
  24 -30   0  193.38   33.00
  30 -24   0  117.89   25.90
  -6  30   0   87.09   16.60
 -24  -6   0  120.69   20.90
   6  24   0  105.29   17.70
   5 -30   0  -18.90   21.90
  25   5   0    3.90   18.50
  30  -5   0    3.40   14.30
 -30  25   0   -7.90   14.70
 -25  30   0    1.00   13.50
 -30   5   0   -5.10   18.10
  30 -25   0   32.60   24.40
 -25  -5   0    8.20   14.90
   5  25   0   45.40   23.30
 -26  30   0   12.60   13.70
 -30  26   0   -1.60   15.30
   4 -30   0  -28.90   22.00
  30  -4   0   10.00   14.80
  -4  30   0   -0.90   14.20
   4  26   0   12.20   14.50
   4  26   0   56.59   24.40
  26 -30   0   41.40   28.60
 -26  -4   0   11.90   15.90
 -30   4   0   22.80   18.40
  27   3   0   10.90   16.50
  30  -3   0    2.60   15.20
   3 -30   0  -15.40   22.50
 -27  30   0   15.00   14.40
 -30  27   0    3.70   14.80
 -30   3   0   21.00   17.10
 -27  -3   0   18.90   14.90
  30 -27   0   51.19   25.20
   3  27   0    4.70   14.70
  27 -30   0   66.89   28.00
   3  27   0   72.09   25.60
  -3  30   0   14.10   14.60
   2 -30   0  -34.50   22.80
 -30  28   0    0.00   15.30
  28   2   0   12.30   16.00
  28 -30   0   31.40   27.20
  -2  30   0    7.90   14.40
   2  28   0   10.30   16.00
  30 -28   0   31.50   25.70
   2  28   0   66.39   26.30
   1 -30   0  115.89   26.90
  30  -1   0  148.09   24.40
  29   1   0  129.39   23.40
  29 -30   0  204.88   35.30
  30 -29   0  156.28   29.20
   1  29   0  128.49   23.50
 -29  -1   0  128.89   20.90
  -1  30   0  128.39   23.60
 -30  30   0  137.29   25.80
  30   0   0  115.99   20.00
   0 -30   0   71.49   27.40
 -30   0   0   93.49   21.20
  30 -30   0  156.08   28.70
   0  30   0   71.59   18.30
  31 -15   0   -1.20   12.40
 -16  31   0   -9.00   12.90
 -15 -16   0   -2.80   13.30
  31 -15   0    0.70   21.70
  16  15   0   10.80   17.30
 -31  16   0   -5.60   16.80
  15 -31   0   23.90   25.10
  16 -31   0   20.20   25.80
  15  16   0    6.10   17.40
 -15  31   0   -8.10   13.20
  31 -16   0   -8.70   11.50
 -31  15   0  -15.20   14.10
  31 -16   0    9.50   21.10
 -16 -15   0   -3.70   13.70
  31 -14   0   97.49   24.00
 -14 -17   0  110.99   22.20
  14 -31   0  183.78   29.30
  17  14   0  149.29   26.40
  31 -14   0  137.29   18.40
 -31  17   0  113.69   19.00
 -17  31   0  127.19   21.00
  31 -17   0  110.99   17.20
 -14  31   0  106.69   21.70
 -31  14   0   86.99   20.10
  31 -17   0  142.59   24.90
 -17 -14   0   77.69   17.20
  17 -31   0  158.68   29.70
  14  17   0  136.49   21.50
  31 -13   0  262.47   24.30
 -31  18   0  231.48   28.50
  13 -31   0  294.97   37.70
  18  13   0  257.67   29.20
 -18  31   0  260.57   24.10
 -13 -18   0  213.68   26.20
  31 -13   0  203.48   28.50
  31 -18   0  254.77   21.20
 -13  31   0  248.98   26.00
  31 -18   0  250.57   32.20
 -18 -13   0  235.08   23.80
  13  18   0  242.18   28.50
  18 -31   0  284.57   38.60
  19  12   0  238.48   27.10
 -12 -19   0  187.48   26.70
  31 -12   0  185.58   27.70
  31 -12   0  255.77   22.60
  12 -31   0  262.87   36.50
 -31  19   0  193.18   27.30
 -19  31   0  231.68   23.50
  19 -31   0  297.57   39.20
 -31  12   0  250.77   25.40
 -19 -12   0  212.18   25.50
  31 -19   0  256.27   32.70
  12  19   0  268.87   30.10
 -12  31   0  223.08   25.90
  31 -19   0  238.08   19.00
  20  11   0   40.00   18.30
  11 -31   0   49.90   24.20
 -20  31   0   22.80   13.30
 -31  20   0   13.40   15.30
  31 -11   0   29.00   14.00
 -11  31   0   14.00   14.20
  31 -20   0   33.20   21.50
 -20 -11   0   24.00   15.20
  11  20   0   32.90   19.30
  20 -31   0   59.59   27.50
 -31  11   0    0.80   15.80
 -21  31   0  109.99   21.50
  10 -31   0  131.09   26.40
  21  10   0  121.99   20.80
  31 -10   0  107.69   17.50
 -31  21   0   75.19   18.90
  21 -31   0  137.29   30.90
  10  21   0  125.29   22.50
 -10  31   0  115.29   22.80
  31 -21   0  109.59   23.60
 -31  10   0   86.69   21.20
 -21 -10   0  114.99   20.70
  31  -9   0   20.50   14.00
  22   9   0    3.30   22.30
   9 -31   0   17.40   23.50
 -31  22   0   -4.00   15.00
 -22  31   0   10.20   13.70
 -22  -9   0   11.00   14.70
 -31   9   0    2.70   18.30
   9  22   0   20.10   19.90
  -9  31   0   12.30   14.70
  31 -22   0   19.20   21.20
  22 -31   0   34.90   28.10
  31  -8   0  120.39   20.80
   8 -31   0  109.79   25.70
 -31  23   0   81.89   18.70
 -23  31   0  120.19   19.90
 -23  -8   0   75.79   18.60
   8  23   0  146.39   24.70
  31 -23   0  101.69   24.40
 -31   8   0   88.39   21.00
  23 -31   0  163.18   44.40
 -31  24   0   83.79   18.20
 -24  31   0  110.69   20.90
  24   7   0   87.59   19.20
  31  -7   0  102.19   18.40
   7 -31   0  128.59   26.50
  -7  31   0   91.69   25.00
  24 -31   0  106.59   34.30
 -24  -7   0  107.59   21.90
 -31   7   0   83.19   20.90
  31 -24   0   85.99   24.50
   7  24   0   95.99   17.70
 -25  31   0   51.39   14.80
  31  -6   0   68.99   16.90
   6 -31   0   53.99   24.60
 -31  25   0   54.29   17.10
  25   6   0   70.89   18.00
 -25  -6   0   50.19   17.60
  25 -31   0  113.89   29.90
  -6  31   0   43.20   16.10
   6  25   0   48.40   14.60
 -31   6   0   79.49   20.20
  31  -5   0   42.80   16.30
  26   5   0   59.69   17.60
   5 -31   0   19.20   24.10
 -26  31   0   48.00   15.60
 -31  26   0   37.20   19.60
  31 -26   0   61.99   24.90
 -31   5   0   39.10   19.10
   5  26   0  109.89   25.80
   5  26   0   48.10   15.90
  -5  31   0   37.00   16.50
  26 -31   0   80.69   29.50
 -31  27   0   36.10   15.80
  31  -4   0   40.60   16.30
  27   4   0   34.40   16.90
   4 -31   0   40.20   25.30
  -4  31   0   21.10   16.10
   4  27   0  105.39   26.70
  31 -27   0   58.99   25.20
   4  27   0   38.70   15.70
  27 -31   0  110.69   29.90
  31  -3   0   97.39   19.90
  28   3   0   90.39   18.50
 -28  31   0   67.89   17.80
   3 -31   0   54.19   26.00
  -3  31   0   62.19   16.60
   3  28   0   59.59   16.20
  28 -31   0  142.19   31.00
  31 -28   0  102.39   27.00
 -31  29   0  215.58   27.90
 -29  31   0  201.48   24.60
   2 -31   0  172.18   29.90
  29   2   0  187.48   25.90
  31  -2   0  202.68   25.30
  -2  31   0  181.88   25.30
 -29  -2   0  164.98   25.80
 -31   2   0  125.59   24.90
  31 -29   0  266.47   37.00
   2  29   0  155.58   27.20
  29 -31   0  266.17   36.80
 -16  32   0   67.59   15.80
 -16 -16   0   82.49   16.90
  32 -16   0   95.09   24.30
  16 -32   0  139.39   29.10
 -32  16   0  101.89   17.90
  16  16   0   87.69   20.40
  32 -16   0   83.59   15.10
 -15 -17   0   33.80   16.00
 -17  32   0   31.40   14.60
  32 -15   0   31.00   22.70
  32 -15   0   29.00   13.20
  15 -32   0   56.09   27.30
 -32  17   0   21.80   17.40
  17  15   0   60.39   21.20
 -15  32   0   24.80   14.30
 -32  15   0   25.40   18.00
  32 -17   0   28.20   12.60
  15  17   0   24.10   18.40
  32 -17   0   59.19   22.90
 -17 -15   0   44.00   16.20
  17 -32   0   54.69   27.70
  32 -14   0  -38.50   20.90
  14 -32   0   64.99   26.40
 -14 -18   0   18.80   17.90
 -18  32   0   22.50   13.80
 -32  18   0   12.00   17.40
  32 -14   0   25.60   13.40
  32 -18   0   14.70   11.40
  14  18   0   33.00   19.20
  18 -32   0   45.70   27.50
 -18 -14   0   11.30   14.60
  32 -18   0   44.90   22.20
 -14  32   0   19.10   14.40
 -19  32   0   33.90   14.20
  13 -32   0   35.90   25.60
 -32  19   0   38.00   17.20
  32 -13   0  -12.00   21.70
  32 -13   0   37.60   14.30
  32 -19   0   24.70   12.50
 -19 -13   0   25.00   14.90
 -13  32   0   31.90   15.10
  13  19   0   39.80   19.50
  19 -32   0   67.39   27.90
  32 -19   0   63.59   22.90
 -32  13   0    4.30   17.70
 -20  32   0   23.20   13.70
  20  12   0   31.70   25.10
  12 -32   0   34.60   25.80
  32 -12   0   19.80   14.00
  32 -12   0  -31.20   20.60
 -32  20   0   -5.40   17.70
 -32  12   0   14.40   16.80
  32 -20   0   48.00   23.00
  12  20   0   33.20   19.10
  20 -32   0   36.60   27.70
 -20 -12   0   10.80   15.40
 -32  21   0   42.70   17.90
  21  11   0   48.90   18.20
  32 -11   0   52.19   16.90
  32 -11   0   -5.30   21.00
 -21  32   0   27.80   14.10
  11 -32   0   59.59   25.80
 -32  11   0   42.40   16.20
  32 -21   0   52.79   23.50
  11  21   0   49.40   20.40
  21 -32   0   70.19   38.60
 -32  22   0   31.30   17.50
 -22  32   0   35.10   14.80
  10 -32   0   27.40   24.80
  32 -10   0   32.30   15.10
  22  10   0   22.30   17.10
  32 -22   0   70.99   23.80
  10  22   0   47.10   21.10
 -10  32   0   34.10   15.40
 -32  10   0   34.80   19.60
  22 -32   0   57.89   43.60
  23   9   0    9.80   16.90
 -23  32   0    8.00   14.20
 -32  23   0   -9.50   17.40
   9 -32   0    3.30   24.20
  32  -9   0    8.60   15.80
  -9  32   0    6.90   15.00
   9  23   0   52.99   21.90
 -32   9   0   -5.00   18.30
  23 -32   0   35.30   28.20
  32 -23   0   -2.70   22.20
  32  -8   0    7.80   14.70
 -32  24   0   -4.90   15.90
   8 -32   0   14.90   24.60
  24   8   0    8.40   16.70
 -24  32   0    0.20   20.60
   8  24   0   13.60   15.20
 -24  -8   0   13.40   17.10
  24 -32   0   50.39   29.50
  -8  32   0  -13.60   14.70
 -32   8   0    9.80   18.70
   8  24   0   33.10   22.30
  32  -7   0    3.40   14.70
  25   7   0    3.60   15.70
   7 -32   0  -15.10   23.90
 -32  25   0   -7.00   16.00
 -32   7   0   -6.90   19.10
   7  25   0    4.60   13.60
 -25  -7   0    8.40   16.00
  -7  32   0    3.40   14.80
  25 -32   0   31.60   29.00
  32 -25   0  -10.80   21.70
   6 -32   0   46.80   25.70
  32  -6   0   66.89   17.40
 -32  26   0   52.09   23.00
  26   6   0   58.89   18.20
 -26  32   0   56.29   16.00
  -6  32   0   57.79   16.80
  32 -26   0   65.79   24.00
 -26  -6   0   63.49   18.10
  26 -32   0   91.99   29.70
   6  26   0  122.49   26.10
   6  26   0   68.49   16.90
   5 -32   0  261.87   38.00
  27   5   0  340.27   29.70
 -27  32   0  352.26   28.40
  32  -5   0  319.07   36.50
   5  27   0  263.07   31.60
  -5  32   0  314.37   30.00
  27 -32   0  425.96   43.60
  32 -27   0  334.57   37.30
 -33  17   0  186.08   24.10
  33 -16   0  177.18   27.90
  33 -16   0  200.78   22.30
  17  16   0  170.68   28.10
 -16 -17   0  174.78   24.30
  16 -33   0  242.48   37.80
  17 -33   0  226.88   33.40
 -17 -16   0  157.38   25.20
  16  17   0  194.38   28.30
  33 -17   0  188.98   32.00
 -33  16   0  163.08   27.60
  33 -17   0  198.68   19.50
 -16  33   0  173.08   28.40
  33 -15   0   18.00   13.40
 -15 -18   0   18.00   16.10
  33 -15   0  -25.70   22.00
 -33  18   0   11.10   18.10
  15 -33   0   46.70   26.50
  18  15   0   31.40   18.60
 -18 -15   0   19.80   15.40
 -15  33   0   29.30   15.30
  33 -18   0   47.60   23.30
  33 -18   0   18.80   15.10
  18 -33   0   26.70   27.70
 -33  15   0    7.60   18.00
  15  18   0   40.70   19.40
  14 -33   0   29.50   26.30
  33 -14   0  -14.20   22.00
  19  14   0   39.60   18.20
 -14 -19   0   25.20   16.50
 -33  19   0   16.20   19.40
  33 -14   0   36.60   14.80
  33 -19   0   49.70   23.40
 -33  14   0    9.20   17.40
 -14  33   0   33.30   15.30
 -19 -14   0   18.60   15.40
  14  19   0   54.49   28.20
  19 -33   0   44.40   34.60
  33 -13   0  -15.00   21.90
 -33  20   0   -5.00   16.90
 -20  33   0    2.80   19.30
  33 -13   0   -3.90   13.70
  20  13   0   11.70   17.60
  13 -33   0   24.50   26.00
 -13 -20   0   -4.10   14.80
  33 -20   0   25.90   23.20
 -20 -13   0    1.90   15.20
  20 -33   0   37.00   41.40
 -33  13   0   -2.60   17.60
 -13  33   0    2.70   14.00
  33 -12   0   31.90   22.60
  21  12   0   61.89   18.70
 -12 -21   0   39.60   15.20
 -21  33   0   53.49   19.20
  33 -12   0   65.69   16.90
 -33  21   0   48.80   18.00
  12 -33   0   61.59   26.70
 -12  33   0   43.90   15.90
  33 -21   0   88.59   24.50
 -33  12   0   49.10   19.30
 -21 -12   0   64.39   17.30
  21 -33   0   80.89   30.00
 -11 -22   0  143.49   26.30
  33 -11   0   97.69   25.00
 -22  33   0  116.59   22.40
  22  11   0  142.19   21.70
  33 -11   0  167.88   22.50
 -33  22   0  138.09   28.90
  11 -33   0  153.18   29.30
  22 -33   0  149.39   31.80
 -22 -11   0  158.98   25.60
 -11  33   0  130.09   25.30
 -33  11   0  138.59   26.80
  33 -22   0  194.08   33.60
 -23  33   0   50.79   15.40
  33 -10   0   47.10   16.10
 -33  23   0   38.50   19.30
  23  10   0   43.30   17.60
  33 -10   0   39.70   23.10
  10 -33   0   48.40   26.20
 -33  10   0   47.90   20.60
 -23 -10   0   52.39   17.50
  23 -33   0   61.59   29.80
 -10  33   0   41.00   15.90
  24   9   0    1.60   16.70
   9 -33   0    5.00   24.90
 -24  33   0   12.40   14.70
  33  -9   0   10.10   15.10
 -33  24   0    1.50   16.50
 -24  -9   0    7.00   16.00
  -9  33   0   10.30   15.80
  24 -33   0   26.50   29.20
  33 -24   0   13.10   23.50
  33  -8   0   88.19   17.70
 -25  33   0   81.59   16.60
   8 -33   0   89.89   27.90
  25   8   0   73.59   18.80
  25 -33   0  115.99   31.30
 -25  -8   0   47.50   18.20
  33 -25   0   91.09   25.50
  -8  33   0   83.89   17.70
 -26  33   0   37.30   15.10
 -33  26   0   45.30   19.70
  -7  33   0   27.00   15.70
   7  26   0   38.00   17.10
 -33   7   0   27.40   19.90
 -26  -7   0   36.80   15.30
 -17  34   0   11.00   14.20
 -34  17   0    5.40   18.00
 -17 -17   0    8.90   14.10
  17  17   0   12.10   18.10
  34 -17   0    4.70   12.70
  34 -17   0  -11.80   22.90
  34 -16   0  -20.20   22.30
 -34  18   0   10.00   18.40
  18  16   0   10.90   17.70
 -18  34   0   12.20   14.40
  34 -16   0   -0.20   14.10
  16 -34   0   27.40   28.10
 -16 -18   0   -4.20   15.00
  16  18   0   26.30   18.60
 -34  16   0   -5.00   18.40
  34 -18   0   16.20   23.70
 -16  34   0   -0.30   13.90
 -18 -16   0    5.20   15.00
  18 -34   0    1.30   38.00
  34 -15   0   40.00   16.30
  34 -15   0   15.00   23.40
 -34  19   0   33.60   19.90
 -15 -19   0   35.10   16.80
  19  15   0   52.09   19.00
  15 -34   0   26.50   27.80
 -19  34   0   33.50   14.90
  34 -19   0   49.60   24.10
 -15  34   0   22.00   15.00
 -19 -15   0   25.70   15.80
 -34  15   0   23.90   19.50
  15  19   0   53.79   19.70
  19 -34   0   50.79   28.90
  34 -14   0   26.40   15.20
 -14 -20   0   30.00   19.00
  14 -34   0   47.50   27.60
  20  14   0   22.00   17.60
 -20  34   0   17.30   14.50
 -34  20   0   20.70   19.40
  34 -14   0   18.10   23.10
  20 -34   0   42.80   29.70
 -14  34   0   21.20   14.90
 -20 -14   0   12.10   15.80
  14  20   0   52.59   19.90
  34 -20   0   29.40   23.40
  34 -13   0  -10.10   22.00
 -21  34   0    9.30   14.10
  13 -34   0    4.00   26.90
  21  13   0   24.80   17.90
 -13 -21   0    2.40   15.30
  34 -13   0   22.40   17.20
 -13  34   0   11.40   15.00
  34 -21   0   38.10   24.00
 -21 -13   0   14.00   15.30
  21 -34   0   42.00   29.70
  13  21   0   31.10   19.70
  34 -12   0  -43.80   21.70
  12 -34   0    9.60   26.40
  22  12   0    1.70   16.60
  34 -12   0    4.00   14.90
 -22  34   0    4.50   14.20
 -12 -22   0   -4.80   15.20
 -22 -12   0    0.40   15.00
  12  22   0   23.80   20.10
  22 -34   0    4.50   28.50
 -12  34   0    9.90   14.40
 -11 -23   0  -16.80   16.80
  23  11   0    2.40   16.40
  34 -11   0  -20.10   21.80
 -23  34   0    1.10   13.40
  11 -34   0   -0.90   26.40
  34 -11   0   -0.90   15.40
 -23 -11   0   -3.30   15.00
  34 -23   0   42.90   25.20
  23 -34   0   22.60   28.40
 -34  11   0   -9.80   19.10
 -11  34   0    4.50   15.30
  11  23   0   33.80   20.50
   0   0  -1 1986.80   90.19
   0   0   1 1800.42   90.99
   0   0  -1 1914.41   90.49
   1   0  -1   17.60    5.00
   1   0   1   21.00    9.00
  -1   1   1   29.70    7.70
   0  -1  -1   21.90    5.10
  -1   1  -1   14.40    4.30
   0  -1   1   17.70    6.60
   0   1  -1   20.70    4.80
   1  -1  -1   16.40    3.20
  -1   0  -1   24.60    4.70
  -1   0  -1   22.60    4.50
   1  -1   1   19.50    7.30
   1  -1  -1   20.30    5.40
   0   1   1   14.50    8.30
  -1   0   1    8.40    6.80
  -1  -1  -1  491.85   24.60
  -1   2  -1  502.25   24.90
  -1  -1  -1  508.65   24.80
  -2   1   1  507.65   26.30
  -1   2  -1  488.15   24.50
   1   1   1  498.05   29.30
   1  -2   1  478.85   25.70
   2  -1  -1  486.75   25.30
  -2   1  -1  106.69    9.90
   1  -2  -1  121.19    7.20
  -2   1  -1  108.49    8.10
   2  -1   1  129.39   14.50
  -1   2   1  115.89   13.90
   1   1  -1  125.99    9.30
   1   1  -1  108.49    7.60
   1  -2  -1  115.29    9.40
   2   0   1  333.07   22.10
  -2   2  -1  344.77   18.40
   2   0  -1  285.77   16.40
   0  -2  -1  341.87   18.20
  -2   2  -1  324.17   17.10
   0  -2  -1  353.96   17.20
   2   0  -1  325.57   18.20
  -2   2   1  379.06   20.80
   2  -2   1  321.37   19.90
   0   2  -1  340.67   17.50
   2  -2  -1  306.57   18.40
   0   2  -1  305.67   17.40
   0   2   1  352.96   23.60
  -2   0  -1  333.87   17.20
  -2   0  -1  385.96   18.00
  -1  -2  -1   21.10    4.50
   2   1   1   39.80   13.60
  -2   3  -1   14.70    4.30
  -3   2   1    2.30    8.50
  -1  -2  -1   22.20    5.70
   3  -1  -1   31.90    6.70
  -1   3  -1   14.20    4.80
   1   2   1   31.80   12.60
   3  -2  -1   36.20    7.70
  -2  -1  -1   17.50    4.80
  -2  -2  -1  600.24   29.20
  -2   4  -1  548.35   28.70
   2  -4   1  496.15   29.70
   2   2   1  633.54   37.10
   4  -2  -1  590.14   31.00
  -2  -2  -1  601.04   28.70
  -2   4  -1  607.04   29.90
  -3   2  -1  469.45   24.70
   3  -1   1  498.75   29.00
   2   1  -1  415.56   23.10
   1  -3  -1  462.35   23.30
  -2   3   1  478.75   27.10
   1  -3  -1  466.75   24.90
   2   1  -1  529.45   24.00
   2   1  -1  473.45   24.00
  -3   2  -1  433.66   23.30
   3  -2   1  471.05   27.80
  -3   1  -1  448.26   23.40
   1   2  -1  511.85   23.70
   2  -3  -1  463.15   25.10
  -3   1  -1  522.85   24.80
  -1   3   1  476.45   28.50
   1   2  -1  471.45   23.90
   1   2  -1  425.96   23.50
   3   0  -1   51.09    7.50
   3   0  -1   55.99    8.10
   0  -3  -1   34.70    4.90
  -3   3  -1   41.30    5.30
  -3   3   1   47.30    9.40
   3   0  -1   33.10    5.00
   3   0   1   66.09   14.40
   0  -3  -1   52.79    8.80
   0   3  -1   28.00    5.40
   0   3  -1   45.20    5.60
   3  -3   1   73.99   13.30
   0   3   1   67.59   13.70
  -3   0  -1   44.40    5.10
   3   1   1   88.59   16.40
  -1  -3  -1   56.89    8.20
  -3   4  -1   49.20    7.10
  -3   4  -1   33.30    7.70
  -1  -3  -1   72.69    9.30
  -4   3   1   44.90   10.80
  -3  -1  -1   58.09    6.80
  -1   4  -1   46.60    6.70
   1   3   1   86.89   16.20
  -1   4  -1   59.29    7.40
   3   2   1  474.25   35.30
  -2  -3  -1  482.95   26.10
  -2  -3  -1  504.75   25.80
  -3   5  -1  504.85   25.50
   5  -2  -1  559.64   26.10
   5  -2  -1  505.35   28.00
  -3   5  -1  503.25   27.40
   2   3   1  540.45   35.10
  -3  -2  -1  520.55   26.50
  -2   5  -1  498.55   25.60
  -2   5  -1  506.35   27.00
  -2   5  -1  546.45   25.10
   5  -3  -1  561.64   28.90
   3  -5   1  425.56   26.20
  -3  -2  -1  509.65   25.40
  -5   2   1  457.05   24.60
  -3   6  -1 1192.38   55.69
   6  -3  -1 1148.29   56.59
  -3  -3  -1 1150.18   54.19
  -3  -3  -1 1122.09   54.99
   3   3   1 1089.99   60.19
  -6   3   1 1065.49   53.89
  -3   6  -1 1063.99   54.29
   6  -3  -1 1192.58   54.79
   2   2  -1  910.61   46.10
  -4   2  -1  887.51   45.90
  -2   4   1  999.30   49.90
   2   2  -1  974.60   46.40
   2  -4  -1  980.00   47.50
   2   2  -1 1008.70   46.40
  -4   2  -1  969.00   47.20
   4  -2   1  941.51   50.29
  -2   4   1  933.41   45.90
   3   1  -1  249.18   13.70
  -4   3  -1  195.88   16.10
   3   1  -1  207.88   12.70
  -4   3  -1  205.68   12.70
  -3   4   1  224.28   12.50
  -3   4   1  232.98   19.10
   4  -1   1  237.98   23.70
   1  -4  -1  261.37   16.20
   3   1  -1  240.48   14.60
   4  -3   1  272.07   19.90
   3  -4  -1  271.47   17.20
  -4   1  -1  199.28   12.50
   1   3  -1  224.28   13.30
   1   3  -1  244.08   13.60
  -1   4   1  258.77   24.40
   1   3  -1  197.38   13.60
  -4   4   1   59.69   10.30
   4   0   1   57.89   16.80
  -4   4  -1   29.20    8.20
  -4   4  -1   42.10    7.00
  -4   4   1   36.20    5.70
   4   0  -1   64.89   10.20
   0   4   1   77.89   17.50
  -4   0  -1   48.20    6.00
   0   4  -1   52.79    7.80
   0   4  -1   46.00    6.70
  -1  -4  -1  190.48   12.70
  -5   4   1  123.79   17.20
  -4   5  -1  127.19   14.20
  -1  -4  -1  137.19   12.70
   5  -1  -1  183.98   14.30
   5  -1  -1  175.18   12.00
   4   1   1  199.38   20.60
  -4   5  -1  163.98   11.00
  -1   5  -1  135.39   13.00
  -4  -1  -1  163.88   10.00
   1   4   1  204.18   25.90
  -1   5  -1  159.28   11.00
  -5   1   1  171.98    9.80
  -1   5  -1  190.48   11.00
  -2  -4  -1   40.20    6.80
  -4   6  -1   54.99    6.30
  -2  -4  -1   64.79    9.00
  -4   6  -1   31.90    8.70
   4   2   1   25.10   17.40
  -2   6  -1   44.60    7.40
   2   4   1   33.20   18.30
  -2   6  -1   33.70    7.50
  -6   2   1   61.09    6.50
   4  -6   1   53.19    7.20
  -4  -2  -1   46.00    6.30
   7  -3  -1  173.48   12.10
  -3  -4  -1  169.58   11.10
  -7   4   1  144.29   10.90
  -3  -4  -1  158.98   13.00
  -4   7  -1  163.68   11.20
   4   3   1  186.38   19.80
  -4   7  -1  135.39   14.10
  -3   7  -1  177.28   10.40
  -4  -3  -1  169.08   10.00
   3   4   1  175.78   20.60
  -4  -3  -1  172.98   12.90
  -3   7  -1  137.59   14.40
  -7   3   1  184.98   11.10
  -3   7  -1  152.98   10.90
   7  -4  -1  209.68   17.80
   7  -4  -1  203.08   11.80
   8  -4  -1  426.06   23.00
  -4  -4  -1  461.15   22.00
  -4   8  -1  431.26   22.80
  -4  -4  -1  469.45   23.90
  -4   8  -1  452.45   21.90
   4   4   1  424.36   32.00
  -4   8  -1  449.86   24.90
   8  -4  -1  407.76   27.10
  -8   4   1  426.16   22.60
  -3   5   1  835.12   42.10
   3   2  -1  794.42   37.90
  -3   5   1  721.23   37.20
  -5   3  -1  768.72   38.90
  -5   3  -1  752.72   37.10
   3   2  -1  719.03   37.40
   2  -5  -1  821.52   39.60
   5  -2   1  730.73   42.70
   3   2  -1  767.62   37.90
   5  -3   1  796.82   42.10
   2   3  -1  747.33   37.50
   2   3  -1  671.63   37.50
  -5   2  -1  730.73   37.00
  -2   5   1  827.22   43.80
  -5   2  -1  766.02   38.80
   2   3  -1  740.83   37.60
  -2   5   1  760.72   37.50
   3  -5  -1  819.72   40.20
  -4   5   1   56.69   12.00
  -5   4  -1   35.70    5.70
   4   1  -1   37.70    6.60
   5  -1   1    6.20   16.00
   4   1  -1   37.90    7.40
   4   1  -1   34.30    7.80
  -4   5   1   30.30    4.80
  -1   5   1   67.59   16.20
   1   4  -1   21.30    6.30
   1   4  -1   38.70    6.20
  -1   5   1   45.10    8.70
  -5   1  -1   40.10    5.10
   1   4  -1   33.30    5.80
   5   0  -1   62.29   10.40
  -5   5   1   55.79   10.60
  -5   5  -1   57.99    7.90
  -5   5  -1   28.40    9.20
  -5   5   1   45.60    5.10
   5   0   1   27.20   16.80
   5   0  -1   74.19    9.60
   0   5  -1   51.09    7.70
   0   5  -1   42.30    7.20
   0   5   1   82.29   17.80
  -5   0  -1   48.40    6.60
   5   1   1  189.28   27.50
  -5   6  -1  256.67   14.70
   6  -1  -1  289.37   18.10
  -6   5   1  222.18   19.70
  -6   5   1  220.48   14.00
  -5   6  -1  213.48   18.30
  -1  -5  -1  285.07   16.30
   6  -1  -1  272.27   15.60
  -1   6  -1  277.37   14.60
  -1   6  -1  220.98   16.50
  -5  -1  -1  238.58   13.50
  -5  -1  -1  282.07   16.90
  -1   6  -1  254.97   14.60
   6  -5  -1  311.27   21.10
   1   5   1  269.57   28.20
  -6   1   1  264.77   14.00
  -2  -5  -1   94.29    9.30
  -2  -5  -1   85.89    8.50
  -5   7  -1   64.79    9.30
  -5   7  -1   86.89    9.10
   7  -2  -1   74.69    9.40
   5   2   1   69.79   17.00
   7  -2  -1  103.39   14.30
  -2   7  -1   75.79    7.80
  -5  -2  -1   73.19    6.30
  -2   7  -1   65.79    7.90
  -7   2   1   64.39    7.10
  -2   7  -1   78.79    8.80
   5  -7   1   48.70    9.40
  -5  -2  -1   96.09   11.40
   2   5   1   77.99   17.80
  -3  -5  -1   34.50    6.90
  -5   8  -1   49.10    6.30
  -8   5   1   37.10    5.30
  -5   8  -1   29.20    8.10
  -3  -5  -1   44.90    7.60
   5   3   1   13.00   16.90
   8  -3  -1   54.49    8.50
   3   5   1   12.10   16.10
  -3   8  -1   29.10    7.30
  -3   8  -1   42.80    7.10
  -5  -3  -1   37.20    5.00
  -5  -3  -1   38.30    6.80
  -3   8  -1   43.40    6.70
   9  -4  -1  188.58   12.50
  -4  -5  -1  178.88   11.00
   9  -4  -1  195.58   18.60
  -9   5   1  192.58   12.40
   5   4   1  152.98   24.60
  -4  -5  -1  188.58   13.60
  -5   9  -1  196.48   12.50
  -5   9  -1  181.98   15.50
  -4   9  -1  189.38   11.00
   9  -5  -1  232.08   19.80
  -5  -4  -1  174.88   10.30
  -4   9  -1  192.88   12.10
  -4   9  -1  185.68   15.30
  -5  -4  -1  194.18   13.60
  -9   4   1  204.18   12.50
   4   5   1  164.98   27.10
   9  -5  -1  201.48   12.80
  -5  10  -1  803.42   38.70
  -5  -5  -1  781.02   37.60
  -5  -5  -1  800.42   39.50
  -5  10  -1  822.22   40.20
  -5  10  -1  765.32   37.70
  10  -5  -1  748.33   38.80
 -10   5   1  773.82   38.70
  10  -5  -1  765.42   42.10
   5   5   1  790.52   45.10
   3   3  -1 2572.44  123.89
   3   3  -1 2668.23  124.09
  -3   6   1 2640.34  123.79
   6  -3   1 2590.54  125.79
   3  -6  -1 2508.65  124.99
  -6   3  -1 2715.33  124.79
   3   3  -1 2598.14  123.79
  -6   3  -1 2575.94  123.59
  -3   6   1 2569.44  126.09
  -4   6   1 1481.55   73.99
   4   2  -1 1453.85   71.49
  -6   4  -1 1442.06   71.19
   4   2  -1 1498.65   71.69
   6  -2   1 1473.45   74.69
   4   2  -1 1470.15   71.39
  -4   6   1 1448.06   71.19
   2  -6  -1 1499.65   72.79
  -6   4  -1 1519.45   72.59
   2   4  -1 1452.25   71.59
  -6   2  -1 1600.54   72.69
   2   4  -1 1476.75   71.19
   4  -6  -1 1418.96   73.19
   2   4  -1 1539.75   71.69
  -2   6   1 1497.05   71.49
  -6   2  -1 1523.65   71.09
   6  -4   1 1453.05   73.99
  -2   6   1 1554.24   75.49
   5   1  -1  724.93   34.30
  -6   5  -1  716.03   33.60
  -5   6   1  671.53   36.70
  -5   6   1  643.64   33.50
   6  -1   1  645.64   40.00
   1  -6  -1  686.63   35.40
   5   1  -1  648.54   34.40
   5   1  -1  678.13   33.40
  -6   5  -1  671.33   35.70
  -6   1  -1  691.53   33.10
   5  -6  -1  733.43   36.80
  -1   6   1  698.13   34.30
   1   5  -1  647.64   33.30
  -6   1  -1  685.23   34.80
  -1   6   1  724.23   42.40
   6  -5   1  695.93   37.30
   1   5  -1  681.23   34.00
   1   5  -1  617.14   34.20
   6   0  -1  223.98   15.20
  -6   6   1  233.68   17.50
   0  -6  -1  236.08   16.20
  -6   6  -1  231.58   13.50
  -6   6   1  209.18   13.10
   6   0  -1  236.18   14.40
  -6   6  -1  182.78   17.70
   0   6   1  229.38   26.60
  -6   0   1  219.48   12.90
  -6   0  -1  236.68   15.20
   6  -6   1  266.37   18.60
   0   6   1  235.98   14.70
  -6   0  -1  205.58   12.00
   0   6  -1  210.08   13.00
   0   6  -1  218.08   13.90
   0   6  -1  200.08   14.90
  -6   7  -1   16.30    5.70
  -1  -6  -1   30.40    7.40
   7  -1  -1   29.10    9.10
  -7   6   1   -5.20    9.30
   7  -1  -1   16.70    6.20
   6   1   1  -24.60   15.10
  -1   7  -1   12.40    4.90
  -6  -1  -1    9.40    3.70
   1   6   1   21.40    5.80
  -7   1   1   15.20    4.40
  -1   7  -1    3.40    6.80
  -1   7  -1   13.70    5.20
   7  -6  -1   37.10   11.50
   1   6   1   -5.70   17.00
  -6  -1  -1   15.90    6.70
   8  -2  -1    7.30    5.70
  -6   8  -1    7.00    5.60
  -8   6   1   -3.30    4.80
  -2  -6  -1   17.20    7.00
   8  -2  -1   19.30    9.30
  -2   8  -1    2.10    4.80
  -8   2   1    8.00    4.00
  -6  -2  -1   11.50    6.40
   8  -6  -1   29.00   11.60
  -6  -2  -1    1.60    3.30
  -2   8  -1    0.70    4.70
  -2   8  -1   -5.60    6.30
  -9   6   1   47.90    9.00
  -3  -6  -1   64.19    8.40
  -6   9  -1   68.49    8.60
   9  -3  -1   71.89    9.70
   9  -3  -1  105.59   15.20
   6   3   1   64.39   15.70
  -6   9  -1   65.09    9.30
  -3  -6  -1   76.89    8.10
  -6  -3  -1   58.59    5.40
   9  -6  -1  105.59   17.30
  -3   9  -1   64.99    8.80
  -6  -3  -1   72.69   11.00
  -3   9  -1   70.69    7.60
   9  -6  -1   78.69    8.70
  -9   3   1   86.69    8.10
   6  -9   1   72.69    7.50
   3   6   1   61.49   16.70
  -3   9  -1   81.69    8.20
  10  -4  -1   19.30    5.90
   6   4   1   -2.80   14.90
  -4  -6  -1    3.10    6.80
  -4  -6  -1   11.80    4.70
  -6  10  -1   22.20    5.70
  10  -4  -1   30.80   11.20
  -6  10  -1    2.90    7.30
 -10   6   1   13.30    5.70
  -6  -4  -1    7.90    2.90
  -6  -4  -1    9.10    6.30
  -4  10  -1   15.10    5.30
   4   6   1    6.80   15.60
  10  -6  -1   17.70    5.50
  -4  10  -1   15.00    4.20
  10  -6  -1   25.70   11.70
  -4  10  -1    4.50    7.40
  11  -5  -1  110.39   16.40
  -6  11  -1   80.09   12.80
  -5  -6  -1   78.79   11.10
   6   5   1   80.29   17.10
  -6  11  -1   93.89    9.50
  11  -5  -1   89.09    9.80
  -6  11  -1   80.59    6.30
  -5  -6  -1   88.09    6.80
 -11   6   1  100.59   10.20
  -6  -5  -1   81.49    5.70
  -6  -5  -1   76.99   11.20
  11  -6  -1  114.99   17.50
  -5  11  -1   84.69    7.00
  -5  11  -1  102.19    9.40
   5   6   1   88.69   17.50
  -5  11  -1   73.29   12.20
  11  -6  -1   95.09    9.70
 -11   5   1  111.69    9.80
  -6  12  -1  169.08   13.20
  -6  -6  -1  183.78   14.70
  12  -6  -1  188.98   18.20
   6   6   1  187.48   24.20
 -12   6   1  197.48   13.00
  12  -6  -1  187.28   13.60
  -6  12  -1  170.38   10.30
   4   3  -1   27.10    6.00
  -4   7   1   29.90    5.60
  -7   4  -1   43.90    7.60
   4   3  -1   34.80    6.40
  -4   7   1   41.40   13.70
   4   3  -1   29.20    6.70
   7  -3   1   -4.90   13.70
  -7   4  -1   18.60    8.40
   3   4  -1   23.50    6.20
   3   4  -1   30.20    5.80
  -3   7   1   38.60   14.80
  -3   7   1   28.50    6.10
  -7   3  -1   39.20    8.90
  -7   3  -1   30.40    5.50
   3   4  -1   26.40    6.70
   7  -4   1   13.50   12.60
   5   2  -1  274.77   16.10
   7  -2   1  233.78   24.80
   2  -7  -1  299.37   19.60
  -5   7   1  314.37   22.90
   5   2  -1  262.07   16.40
   5   2  -1  258.67   17.30
  -7   5  -1  301.27   15.70
  -5   7   1  286.07   16.10
  -7   5  -1  307.07   20.00
  -2   7   1  292.27   17.00
   2   5  -1  265.57   15.60
   2   5  -1  251.57   16.80
   5  -7  -1  339.87   22.40
  -2   7   1  314.67   28.50
  -7   2  -1  313.17   15.40
   2   5  -1  265.87   16.80
   7  -5   1  249.28   21.80
   6   1  -1  284.77   17.80
  -7   6  -1  303.87   16.50
  -6   7   1  274.27   16.20
   6   1  -1  285.37   17.60
   1  -7  -1  319.97   19.30
  -6   7   1  322.77   21.40
  -7   6  -1  259.27   19.90
   6  -7  -1  314.87   22.00
   1   6  -1  284.47   15.80
   1   6  -1  278.57   17.60
   7  -6   1  262.97   20.50
  -7   1  -1  323.67   18.10
  -7   1  -1  296.57   15.40
   1   6  -1  292.27   17.00
  -1   7   1  299.57   17.30
  -1   7   1  273.47   26.90
  -7   7   1  285.97   16.30
   0  -7  -1  322.17   19.10
   7   0  -1  282.57   17.80
   7   0  -1  290.67   17.40
   7   0   1  260.87   25.90
  -7   7  -1  317.17   16.60
  -7   7  -1  263.17   19.10
  -7   7   1  293.17   19.40
   0   7  -1  277.27   16.60
   0   7   1  281.07   28.20
  -7   0  -1  303.37   15.30
   7  -7   1  304.07   19.50
   0   7  -1  263.97   17.50
  -7   0  -1  304.27   17.90
   0   7  -1  287.67   15.90
   0   7   1  304.87   17.60
  -7   0   1  297.27   16.20
   7  -7  -1  350.16   23.40
  -7   8  -1 1039.30   51.49
   7   1   1 1082.59   56.29
  -8   7   1 1096.99   52.89
   8  -1  -1 1025.40   51.99
  -1  -7  -1 1082.19   52.09
  -8   7   1 1085.59   51.49
   8  -1  -1  986.90   52.59
  -7   8  -1 1167.38   53.39
  -7  -1  -1 1107.19   50.79
  -1   8  -1 1058.39   51.59
  -1   8  -1 1075.79   52.39
   7  -8   1 1012.60   51.79
  -7  -1  -1 1092.99   52.49
   8  -7  -1  996.70   54.59
  -8   1   1  961.00   51.19
   1   7   1 1123.49   57.89
  -1   8  -1 1055.99   51.29
   1   7   1 1083.79   52.19
  -7   9  -1  794.92   38.40
  -9   7   1  762.92   36.20
   9  -2  -1  716.23   36.70
  -2  -7  -1  707.83   36.20
   9  -2  -1  730.23   37.90
  -7   9  -1  724.93   36.20
   7   2   1  752.82   43.20
   2   7   1  735.03   37.00
  -9   2   1  673.03   35.80
  -7  -2  -1  692.33   36.90
   9  -7  -1  703.23   40.30
  -7  -2  -1  778.02   35.10
  -2   9  -1  717.53   35.80
  -2   9  -1  728.43   37.30
  -2   9  -1  710.93   36.00
   2   7   1  763.62   43.10
  10  -3  -1  252.77   15.80
  -3  -7  -1  235.88   15.00
 -10   7   1  246.88   15.10
  -7  10  -1  265.67   18.40
   7   3   1  231.28   24.60
  -7  10  -1  255.47   14.90
  10  -3  -1  283.27   19.70
  10  -7  -1  262.17   14.90
   3   7   1  205.98   27.10
  10  -7  -1  293.37   22.50
  -3  10  -1  243.58   16.90
  -3  10  -1  254.47   14.50
  -3  10  -1  249.88   14.60
  -7  -3  -1  255.37   12.90
 -10   3   1  250.37   14.70
  -7  -3  -1  265.57   16.90
  -7  11  -1   21.20    8.30
  -4  -7  -1   22.30    7.60
  -4  -7  -1   37.20    5.40
  11  -4  -1   34.80    6.70
  11  -4  -1   46.30   11.40
   7   4   1   21.40   15.00
 -11   7   1   36.30    6.10
  -7  -4  -1   26.80    4.00
  -4  11  -1   36.10    6.20
   4   7   1   25.30   15.70
  11  -7  -1   33.30    5.90
  11  -7  -1   39.50   12.20
  -4  11  -1   30.20    7.90
  -7  -4  -1   24.50    7.00
  -4  11  -1   32.70    5.30
  12  -5  -1  115.09   11.00
 -12   7   1  126.49   11.40
   7   5   1   95.69   20.80
  12  -5  -1  115.69   17.70
  -5  -7  -1  120.79   12.50
  -5  -7  -1  110.19    8.00
   5   7   1  112.99   20.50
 -12   5   1  142.39   11.20
  -5  12  -1  120.49    9.90
  12  -7  -1  112.79   10.20
  12  -7  -1  129.09   17.40
  -5  12  -1  104.89   19.30
  -5  12  -1  112.09    8.70
  -6  -7  -1    1.90    6.90
  13  -6  -1   13.00    5.90
 -13   7   1   14.80    6.50
  -7  13  -1    4.80    7.70
  13  -6  -1    9.80   11.70
   7   6   1   -3.10   15.40
  -7  13  -1    8.20    3.30
 -13   6   1   19.40    6.90
  13  -7  -1   15.70    5.50
  -6  13  -1    5.40    7.90
  -7  -6  -1    8.30    6.70
  -6  13  -1   11.30    4.00
   6   7   1   -6.50   14.50
  14  -7  -1 1076.89   59.79
  -7  14  -1 1188.48   58.39
  -7  14  -1 1144.99   55.59
 -14   7   1 1171.18   56.99
  -7  -7  -1 1184.68   57.69
   7   7   1 1203.88   62.69
  -8   4  -1 1161.28   52.59
   4   4  -1 1038.80   52.49
   4   4  -1 1064.29   53.09
   4   4  -1 1056.89   53.39
  -4   8   1 1086.79   52.99
  -8   4  -1 1115.19   54.09
   4  -8  -1 1055.29   55.09
  -4   8   1 1083.69   56.79
   8  -4   1 1132.99   55.89
   5   3  -1 1520.55   74.59
  -8   5  -1 1634.54   75.59
  -5   8   1 1511.95   74.19
   3  -8  -1 1502.05   75.49
   5   3  -1 1482.75   74.19
   5   3  -1 1543.85   74.09
   8  -3   1 1562.04   76.59
  -8   5  -1 1568.04   73.99
  -5   8   1 1517.45   76.79
  -8   3  -1 1602.44   73.79
  -3   8   1 1568.24   74.49
   8  -5   1 1497.65   75.69
   5  -8  -1 1527.45   76.29
  -8   3  -1 1601.84   75.19
   3   5  -1 1534.95   74.49
  -3   8   1 1520.25   77.89
   3   5  -1 1519.25   73.79
   3   5  -1 1573.24   74.59
   6   2  -1  556.44   28.70
  -8   6  -1  600.44   31.00
  -8   6  -1  610.54   28.60
   8  -2   1  534.55   34.30
  -6   8   1  552.44   32.30
   6   2  -1  581.34   29.60
  -6   8   1  554.74   28.70
   6   2  -1  549.95   29.10
   2  -8  -1  596.44   31.40
   2   6  -1  548.35   29.30
  -2   8   1  588.14   29.50
   6  -8  -1  593.24   32.80
   2   6  -1  546.75   28.20
  -8   2  -1  567.84   30.00
  -8   2  -1  607.24   28.20
   8  -6   1  553.24   31.30
  -2   8   1  571.54   36.70
   2   6  -1  529.85   29.40
   1  -8  -1  859.81   42.80
  -8   7  -1  831.12   41.40
   7   1  -1  837.22   42.10
  -8   7  -1  855.91   43.20
  -7   8   1  850.41   41.60
   8  -1   1  810.22   46.20
  -7   8   1  843.22   43.90
   7   1  -1  831.42   42.00
  -1   8   1  864.81   42.20
  -1   8   1  878.61   47.80
   7  -8  -1  801.02   44.70
   1   7  -1  872.81   42.00
   1   7  -1  841.72   41.10
   8  -7   1  831.02   42.80
   1   7  -1  834.22   42.10
  -7  -1   1  891.31   41.50
  -8   1  -1  867.31   40.90
  -8   1  -1  829.62   42.50
   0  -8  -1   41.50    8.90
   8   0  -1   28.80    7.70
   8   0   1   14.50   13.90
   8   0  -1   24.00    6.40
  -8   8   1   13.10    5.20
  -8   8   1    7.80    8.90
  -8   8  -1   29.30    5.80
   8  -8   1   25.10    7.90
   0   8  -1   24.90    5.00
   0   8  -1   25.60    6.00
  -8   0  -1   26.80    6.80
   0   8  -1   20.90    6.90
  -8   0  -1   28.10    4.40
   0   8   1   20.00   16.40
   0   8   1   20.70    6.50
   8  -8  -1   48.30   13.00
  -8   0   1   23.20    4.90
   8   1   1  132.29   21.90
  -1  -8  -1  151.68   13.20
  -8   9  -1  149.19   14.70
  -9   8   1  153.78   14.60
  -9   8   1  147.79   11.10
   9  -1  -1  156.38   14.10
   9  -1  -1  154.18   12.70
   1   8   1  163.68   13.00
   1   8   1  151.78   19.20
   9  -8  -1  186.48   20.70
  -8  -1  -1  152.28   12.70
  -9   1   1  124.79   10.30
  -1   9  -1  145.69   12.80
  -1   9  -1  139.89   11.10
  -8  -1  -1  147.99    9.00
  -1   9  -1  152.38   10.10
 -10   8   1  158.58   12.00
  10  -2  -1  154.48   12.50
  -2  -8  -1  166.48   12.50
  -8  10  -1  167.78   15.20
  10  -2  -1  178.78   15.30
   8   2   1  125.99   23.30
  -8  -2  -1  165.88   13.10
  -2  10  -1  153.18   11.30
   2   8   1  173.28   20.00
  -2  10  -1  165.78   11.00
   2   8   1  172.38   13.20
 -10   2   1  167.98   11.20
  10  -8  -1  170.68   19.70
  -2  10  -1  151.38   13.50
  -8  -2  -1  167.38    9.30
   8   3   1   -5.20   15.00
  11  -3  -1   23.20   10.50
 -11   8   1   11.00    5.70
  11  -3  -1   13.90    6.40
  -8  11  -1    6.60    8.10
  -3  -8  -1   19.70    6.30
  -3  11  -1   13.10    5.40
  -8  -3  -1   18.10    6.90
  -3  11  -1    5.30    7.40
  11  -8  -1   34.90   13.20
   3   8   1    6.30   16.30
  -8  -3  -1   17.00    3.40
  11  -8  -1   18.00    5.30
 -11   3   1   22.40    5.00
  -3  11  -1   21.20    5.50
  -8  12  -1   67.39   13.00
  12  -4  -1   80.39    9.60
  -4  -8  -1   77.49    8.30
 -12   8   1   75.09   10.70
   8   4   1   65.89   18.70
  12  -4  -1   97.49   16.10
  12  -8  -1   76.89    8.80
   4   8   1   66.59   19.10
  -4  12  -1   84.19    9.00
  -4  12  -1   82.29    8.40
  -8  -4  -1   57.19   10.40
 -12   4   1   99.89    9.70
  -8  13  -1   37.10    8.90
 -13   8   1   48.40    7.30
  -5  -8  -1   38.20    6.20
  -5  -8  -1   40.50    8.20
  13  -5  -1   52.09   12.50
   8   5   1   34.10   16.10
  -5  13  -1   48.20    7.10
  -5  13  -1   41.30    8.50
  13  -8  -1   56.29   13.90
  -5  13  -1   58.89    8.20
  13  -8  -1   42.20    6.50
   5   8   1   43.00   16.80
  -8  -5  -1   40.80    7.60
  -6  -8  -1   -7.10    7.40
   8   6   1  -10.80   15.70
  -8  14  -1   -2.00    7.90
  14  -6  -1   20.90   13.80
 -14   8   1   11.90    6.90
  14  -6  -1    4.40    5.90
  14  -8  -1    5.80    6.60
  -8  -6  -1    3.50    7.20
  -6  14  -1    6.60    4.80
 -14   6   1   17.10    7.20
  -6  14  -1   -0.60    8.20
   8 -14   1   -4.40   12.90
   6   8   1  -20.70   16.20
  14  -8  -1   12.50   13.10
  15  -7  -1  234.58   21.60
  -8  15  -1  250.27   19.20
   7 -15   1  240.38   23.80
   8   7   1  188.08   28.50
  -7  -8  -1  231.38   17.10
  15  -7  -1  207.18   15.20
 -15   8   1  241.78   16.50
   8 -15   1  225.58   22.90
 -15   7   1  251.47   16.90
   7   8   1  204.38   27.20
  -8  -7  -1  243.88   16.90
  15  -8  -1  227.48   14.80
  -7  15  -1  201.78   13.10
  15  -8  -1  228.38   23.40
  -7  15  -1  225.08   18.30
   8 -16   1  371.26   28.70
  -8  -8  -1  398.86   24.30
  16  -8  -1  361.26   27.70
  -8  16  -1  348.27   18.70
  16  -8  -1  343.07   20.70
 -16   8   1  367.16   21.60
  -9   5  -1  103.99   14.20
   5   4  -1  125.69   11.60
  -5   9   1  121.39   16.00
  -5   9   1  113.29   10.80
   5   4  -1  123.29    9.80
   5   4  -1  129.79   10.80
   9  -4   1  122.39   14.30
  -4   9   1  125.59   22.10
   9  -5   1  104.59   16.70
  -9   4  -1  145.09    9.40
  -9   4  -1  116.39   14.20
   4   5  -1  122.69    9.50
   4   5  -1  134.89   11.50
   4   5  -1  122.09   11.40
   5  -9  -1  156.68   17.30
  -4   9   1  116.09   11.40
   3  -9  -1 1462.15   70.69
   6   3  -1 1482.75   68.99
   6   3  -1 1416.66   69.69
  -9   6  -1 1486.05   70.39
  -6   9   1 1378.66   71.39
  -6   9   1 1389.76   69.09
   6   3  -1 1393.06   69.09
   9  -3   1 1446.46   71.89
   6  -9  -1 1396.26   71.69
  -3   9   1 1449.46   73.39
  -3   9   1 1489.55   69.59
   3   6  -1 1439.66   69.49
  -9   3  -1 1460.25   70.09
  -9   3  -1 1407.76   68.59
   3   6  -1 1459.15   69.49
   9  -6   1 1386.56   70.29
   3   6  -1 1420.06   68.59
   9  -2   1  441.96   30.70
  -7   9   1  489.45   28.90
  -7   9   1  470.65   24.90
   2  -9  -1  492.05   27.70
   7   2  -1  481.75   26.00
  -9   7  -1  475.85   27.10
   7   2  -1  482.75   25.20
  -2   9   1  487.85   25.60
  -2   9   1  487.75   33.60
   2   7  -1  486.15   25.40
   9  -7   1  434.26   26.90
  -9   2  -1  471.15   26.50
  -9   2  -1  470.05   23.90
   2   7  -1  468.05   24.00
   2   7  -1  480.05   25.70
   7  -9  -1  523.05   30.40
   9  -1   1   85.89   15.30
   8   1  -1   97.29   11.00
   1  -9  -1  113.99   13.60
  -8   9   1   89.89   10.00
   8   1  -1   86.29   11.00
  -8   9   1  104.99   15.10
  -9   8  -1   71.79   13.80
   8  -9  -1  145.59   18.50
  -9   1  -1  123.19   11.90
  -1   9   1   97.69   11.00
  -8  -1   1  118.29    9.40
   1   8  -1   88.09   10.10
   1   8  -1   86.99   10.60
  -1   9   1   87.59   17.60
   9  -8   1   89.59   11.90
   1   8  -1   90.19    8.00
   9   0  -1   30.00    7.40
  -9   9   1   23.90    5.70
   9   0   1    5.00   13.70
  -9   9  -1   16.00    8.30
   0  -9  -1   47.00    8.90
  -9   9   1   30.70    9.10
   9   0  -1   40.50    8.30
   0   9  -1   35.30    5.30
   0   9  -1   28.20    6.50
   0   9  -1   24.00    6.90
   9  -9  -1   40.20   13.10
  -9   0   1   20.10    5.50
   0   9   1   23.60   15.90
   0   9   1   30.90    6.80
   9   1   1  144.59   18.00
  -1  -9  -1  152.78   13.40
  -9  10  -1  146.39   15.90
  10  -1  -1  156.18   14.40
  10  -1  -1  152.38   13.00
 -10   9   1  164.08   14.60
 -10   9   1  148.59   11.70
 -10   1   1  140.79   10.90
  -1  10  -1  155.48   14.00
  10  -9  -1  190.08   21.40
   1   9   1  157.28   13.40
  -1  10  -1  145.79   11.70
  -1  10  -1  148.99   10.40
   1   9   1  153.58   23.80
  -9  -1  -1  161.28   13.10
 -11   9   1   40.90    9.20
 -11   9   1   35.40    6.20
  11  -2  -1   42.30    9.90
   9   2   1   14.90   14.70
  -9  11  -1   25.30   10.00
  11  -2  -1   35.10    7.40
  -2  -9  -1   43.20    7.90
   2   9   1   51.59   10.10
  -2  11  -1   33.20    6.60
  -9  -2  -1   30.20    8.40
 -11   2   1   49.30    7.90
  -2  11  -1   38.20    6.00
  11  -9  -1   59.19   17.60
  -2  11  -1   29.50    8.00
   2   9   1   24.60   16.80
  12  -3  -1  868.71   45.20
  -3  -9  -1  850.01   42.80
 -12   9   1  912.81   43.30
  -9  12  -1  939.91   45.30
   9   3   1  919.61   50.89
 -12   3   1  783.62   42.80
  -3  12  -1  838.02   42.90
  -9  -3  -1  871.41   44.20
  12  -9  -1  790.72   46.70
  -3  12  -1  900.31   42.90
   3   9   1  932.31   49.99
 -13   9   1  190.08   13.90
  13  -4  -1  201.68   13.90
  -9  13  -1  206.28   17.40
  -4  -9  -1  197.18   14.20
  13  -4  -1  216.78   18.90
   9   4   1  174.98   25.30
   9 -13   1  180.18   21.70
  -4  13  -1  203.58   16.20
  -4  13  -1  190.08   12.80
   4   9   1  199.08   25.40
  13  -9  -1  183.88   12.70
  13  -9  -1  208.98   21.20
  -9  -4  -1  199.58   15.60
 -13   4   1  225.48   13.90
  -5  -9  -1  101.29    8.60
   9   5   1  118.29   18.80
 -14   9   1  125.19   12.10
  -9  14  -1  120.99   14.60
  14  -5  -1  122.79   11.90
   5   9   1  124.99   19.00
   9 -14   1  113.79   16.30
  -9  -5  -1  118.09   12.80
  -5  14  -1  112.99    9.90
  14  -9  -1  155.18   21.30
  14  -9  -1  133.39   10.60
  -5  14  -1  136.49   15.20
   9   6   1   67.39   17.90
  -9  15  -1   63.99   10.40
  15  -6  -1   65.19   10.00
  -6  -9  -1   68.49    9.90
  15  -6  -1   81.99   14.70
 -15   9   1   67.69   12.00
   6   9   1   49.60   18.20
  15  -9  -1   61.99    9.60
   9 -15   1   64.19   15.30
  -6  15  -1   70.29   13.50
  -9  -6  -1   65.59   12.80
  15  -9  -1  104.39   16.60
  -6  15  -1   62.79    8.40
 -15   6   1   94.89   12.20
 -16   9   1  148.79   14.70
  -7  -9  -1  141.99   17.10
  16  -7  -1  133.99   12.70
  16  -7  -1  173.28   20.90
   7 -16   1  151.38   21.20
  16  -9  -1  148.79   21.20
  16  -9  -1  139.89   11.90
   9 -16   1  137.69   22.60
 -16   7   1  175.08   15.50
  -7  16  -1  131.19   10.50
 -17   9   1   60.89    9.70
  17  -8  -1   96.69   16.30
  17  -8  -1   61.89   10.60
  -9  17  -1   50.19   11.10
  -8  -9  -1   43.60    9.60
   9   8   1   49.10   18.90
 -17   8   1   61.89   12.70
  17  -9  -1   60.39   10.10
  -9  -8  -1   51.89    9.70
  -8  17  -1   49.30   10.70
   8   9   1   34.80   18.90
   9 -17   1   51.99   16.00
  -8  17  -1   52.19    7.50
  17  -9  -1   72.69   16.50
  -9  -9  -1 1239.18   61.69
  18  -9  -1 1165.28   60.19
 -18   9   1 1213.68   61.39
   9   9   1 1249.47   66.89
   9 -18   1 1263.07   65.29
  -9  18  -1 1251.57   62.69
  -9  18  -1 1190.78   58.69
   5   5  -1 1823.92   89.89
  -5  10   1 1831.52   93.19
  10  -5   1 1936.91   92.09
   5   5  -1 1857.51   90.89
   5 -10  -1 1834.12   92.29
 -10   5  -1 2058.09   91.69
   5   5  -1 1813.42   90.49
  -5  10   1 1919.41   90.59
  -6  10   1  313.07   18.50
   6   4  -1  331.17   19.80
  -6  10   1  300.17   25.60
  10  -4   1  298.67   23.80
   4 -10  -1  365.06   23.40
 -10   6  -1  310.57   20.90
   6   4  -1  333.07   17.80
   6   4  -1  321.27   18.70
  10  -6   1  298.57   21.80
   4   6  -1  353.26   19.50
   4   6  -1  334.67   19.20
  -4  10   1  305.57   27.50
 -10   4  -1  327.17   20.70
   6 -10  -1  361.56   24.60
   4   6  -1  320.07   17.30
  -4  10   1  314.57   18.80
  10  -3   1  156.68   19.40
   3 -10  -1  187.88   17.40
   7   3  -1  152.08   11.50
  -7  10   1  180.88   19.80
   7   3  -1  167.68   14.10
  -7  10   1  165.78   12.30
 -10   7  -1  154.88   15.60
 -10   3  -1  182.38   14.60
  10  -7   1  159.08   15.60
  -3  10   1  172.58   22.40
   7 -10  -1  197.58   19.20
   3   7  -1  165.28   13.30
   3   7  -1  160.08   13.60
  -3  10   1  156.98   13.10
   3   7  -1  164.68   10.50
   8   2  -1  182.38   14.60
  10  -2   1  172.38   21.20
   8   2  -1  195.78   13.80
  -8  10   1  205.28   13.50
 -10   8  -1  195.68   16.60
   2 -10  -1  212.48   18.00
  -8  10   1  224.78   19.00
  -2  10   1  202.78   14.60
   2   8  -1  178.68   14.50
 -10   2  -1  237.88   16.00
   2   8  -1  192.98   14.80
   2   8  -1  182.08   11.70
  10  -8   1  194.68   20.00
  -8  -2   1  212.58   13.50
  -2  10   1  197.88   26.10
   8 -10  -1  228.88   20.60
  10  -8   1  195.38   15.30
   9   1  -1  106.89   11.60
  -9  10   1  111.59   15.30
 -10   9  -1   75.99   15.00
   1 -10  -1  124.89   14.90
  -9  10   1  101.69   10.40
   9   1  -1   97.19   11.20
  10  -1   1  105.49   15.50
   1   9  -1   97.99   11.80
  -1  10   1  102.79   17.60
  10  -9   1   97.29   10.40
  -1  10   1  110.29   11.60
 -10   1  -1  127.79   12.20
   1   9  -1  100.79    8.40
   9 -10  -1  125.99   18.60
  10  -9   1  102.09   14.70
   1   9  -1   98.09   12.10
 -10  10   1  138.89   15.40
  10   0   1  120.39   21.70
  10   0  -1  121.49   12.50
   0 -10  -1  151.28   14.20
 -10  10   1  133.89   11.10
  10   0  -1  135.49   13.00
 -10  10  -1  116.29   15.40
  10   0   1  168.48   14.40
 -10   0   1  107.19   10.40
  10 -10  -1  148.49   22.60
   0  10  -1  137.09   12.20
  10 -10   1  135.69   18.40
   0  10  -1  133.99    9.50
 -10   0  -1  143.29   12.60
   0  10  -1  121.39   12.50
   0  10   1  135.69   12.40
   0  10   1  163.58   19.60
  11  -1  -1  553.04   31.60
 -11  10   1  592.04   30.20
  11  -1  -1  523.45   32.90
  -1 -10  -1  591.34   30.80
  10   1   1  589.94   37.00
 -11  10   1  591.84   31.50
 -10  11  -1  638.34   32.70
  10   1   1  639.94   30.90
   1  10   1  613.54   31.30
  -1  11  -1  587.64   30.40
 -11   1   1  576.14   29.80
  10 -11   1  545.35   36.70
  -1  11  -1  596.84   29.40
 -10  -1  -1  542.85   31.20
  11 -10  -1  532.45   34.90
   1  10   1  616.04   38.90
  -1  11  -1  616.44   31.70
 -12  10   1  131.09   12.10
 -12  10   1  141.59   13.90
  10   2   1  163.28   12.10
  12  -2  -1  139.29   14.80
  10   2   1  125.39   21.30
  -2 -10  -1  133.89   12.50
  12  -2  -1  146.59   12.90
 -10  12  -1  129.99   14.80
  12 -10  -1  167.68   20.30
   2  10   1  135.19   19.70
  -2  12  -1  122.09   13.50
  -2  12  -1  141.19   12.10
 -12   2   1  152.68   11.10
  10 -12   1  148.79   20.00
  -2  12  -1  143.09   10.40
 -10  -2  -1  149.49   13.30
  -3 -10  -1  148.29   12.40
  10   3   1  150.38   22.70
  13  -3  -1  160.08   13.20
 -10  13  -1  161.28   15.70
 -13  10   1  168.28   13.50
  13  -3  -1  167.38   17.70
  -3  13  -1  163.48   14.80
  13 -10  -1  198.08   22.60
  -3  13  -1  158.88   12.60
  -3  13  -1  155.58   12.50
 -13   3   1  180.08   12.50
   3  10   1  166.38   14.30
   3  10   1  141.39   24.90
  10 -13   1  178.48   21.20
 -10  -3  -1  177.48   14.80
  14  -4  -1    8.50   11.70
  10   4   1   -7.80   15.00
 -14  10   1   -1.20    6.60
  14  -4  -1    0.30    6.90
 -10  14  -1   -3.00    8.60
  -4 -10  -1    4.10    5.80
  -4  14  -1    1.10    6.30
 -10  -4  -1    7.10    7.20
   4  10   1   -8.30   16.70
  -4  14  -1    2.50    7.80
  10 -14   1    1.30   12.40
  14 -10  -1    4.10    5.40
  14 -10  -1   12.10   14.20
 -10  15  -1   25.00    9.70
 -15  10   1   36.40    8.40
  -5 -10  -1   37.80    6.30
  15  -5  -1   52.99   13.80
  10   5   1   21.70   16.40
  15  -5  -1   41.60    7.90
 -10  -5  -1   33.90    8.20
  15 -10  -1   48.30   15.40
  -5  15  -1   39.80    7.00
   5  10   1   12.90   17.60
  10 -15   1   25.80   14.60
  -5  15  -1   38.20    9.60
  -6 -10  -1   66.89   12.30
 -16  10   1   70.99    9.50
 -10  16  -1   42.70   15.90
   6 -16   1   66.19   15.70
  16  -6  -1   63.99   11.20
  16  -6  -1   95.89   15.70
  16 -10  -1   61.49    9.60
 -16   6   1   94.89   13.00
  -6  16  -1   64.49    9.60
  16 -10  -1   80.79   16.70
 -10  17  -1  886.81   45.70
   7 -17   1  840.12   50.69
  10   7   1  856.01   51.39
  -7 -10  -1  892.01   44.50
 -17  10   1  858.51   44.00
  17  -7  -1  800.82   43.10
  17  -7  -1  818.02   46.80
  -7  17  -1  831.82   42.10
 -10  -7  -1  844.62   44.20
 -17   7   1  857.61   43.90
  10 -17   1  853.71   48.10
  -7  17  -1  863.61   45.30
   7  10   1  896.81   51.29
  17 -10  -1  818.12   42.60
  17 -10  -1  891.11   51.99
  18  -8  -1   58.79    8.80
 -18  10   1   75.49   11.00
  18  -8  -1   84.09   16.90
  10   8   1   58.59   19.40
  -8 -10  -1   49.50   10.60
 -10  18  -1   52.99   11.70
   8 -18   1   65.29   16.50
  -8  18  -1   75.29    8.80
  18 -10  -1   65.19   10.30
 -18   8   1   92.39   15.10
  10 -18   1   67.19   17.00
  -8  18  -1   65.69   11.70
  18 -10  -1   63.59   17.60
   8  10   1   41.10   19.60
 -10  -8  -1   73.19   14.80
 -19  10   1  256.17   19.60
  10   9   1  205.98   29.30
   9 -19   1  234.08   25.70
  19  -9  -1  217.28   26.10
  -9 -10  -1  234.08   19.20
 -10  19  -1  250.77   21.00
  19 -10  -1  241.48   16.20
  -9  19  -1  232.28   20.70
  -9  19  -1  215.88   14.00
   9  10   1  187.18   29.50
  10 -19   1  214.58   25.90
 -10  -9  -1  238.98   19.00
 -19   9   1  244.28   19.20
  19 -10  -1  227.38   27.00
  10 -20   1  123.69   20.70
 -10  20  -1  106.59    9.40
 -20  10   1  108.49   17.20
  20 -10  -1  128.19   20.40
  20 -10  -1  101.89   12.60
 -10 -10  -1  111.09   16.20
 -10  20  -1  100.79   14.30
  10  10   1  107.09   22.60
   6   5  -1  151.48   13.30
   6   5  -1  156.48   12.40
  -6  11   1  150.58   12.70
   6   5  -1  151.38   10.30
 -11   6  -1  144.49   15.20
  -6  11   1  141.59   20.50
  11  -5   1  153.68   18.20
   5 -11  -1  175.48   19.00
  11  -5   1  138.79   17.80
  -5  11   1  160.58   22.80
  11  -6   1  132.29   15.80
   5   6  -1  147.29   12.40
 -11   5  -1  143.39   16.00
   6 -11  -1  185.18   19.60
   5   6  -1  158.68   13.40
   5   6  -1  149.09   10.00
  11  -6   1  142.39   17.90
  -5  11   1  148.79   12.40
   7   4  -1   49.20    9.10
 -11   7  -1   44.80    9.80
   4 -11  -1   64.89   12.60
  -7  11   1   48.90   14.20
  11  -4   1   39.70   12.50
   7   4  -1   61.09    8.60
  11  -4   1   46.30   11.30
  -7  11   1   40.20    7.00
   7   4  -1   54.39    6.60
   7 -11  -1   57.39   13.40
  -4  11   1   42.10   14.80
 -11   4  -1   43.80    9.20
   4   7  -1   51.09    5.60
  11  -7   1   46.00    9.90
   4   7  -1   48.00    7.60
   4   7  -1   48.20    8.40
  11  -7   1   45.80   12.40
  -4  11   1   44.80    7.30
  -8  11   1  688.93   42.50
   8   3  -1  687.93   34.70
   3 -11  -1  695.33   37.70
   8   3  -1  685.03   36.10
  11  -3   1  667.13   39.00
 -11   8  -1  743.73   37.20
  11  -3   1  749.62   37.60
  -8  11   1  712.93   35.50
  -3  11   1  702.93   36.00
  -3  11   1  715.53   41.50
   3   8  -1  693.83   34.20
   3   8  -1  717.03   36.20
   3   8  -1  695.33   36.00
   8 -11  -1  683.03   39.50
  11  -8   1  665.53   35.90
 -11   3  -1  682.63   36.50
  11  -8   1  687.33   38.70
  -9  11   1  418.56   22.50
  -9  11   1  412.66   26.20
  11  -2   1  442.66   25.00
   2 -11  -1  416.06   25.50
  11  -2   1  396.06   28.00
   9   2  -1  401.96   22.20
   9 -11  -1  373.96   28.40
   2   9  -1  395.76   20.90
  -2  11   1  429.66   23.30
  11  -9   1  415.96   22.30
  -2  11   1  413.36   31.50
  -9  -2   1  387.86   22.20
   2   9  -1  392.86   23.20
  11  -9   1  440.96   27.80
   2   9  -1  390.96   23.10
   1 -11  -1 1134.09   54.99
 -10  11   1 1040.70   55.29
  11  -1   1 1158.68   54.69
  10   1  -1 1024.30   53.49
  10   1  -1 1068.79   54.39
 -11  10  -1 1161.48   55.39
  11  -1   1 1137.29   57.59
 -10  11   1 1134.69   53.79
 -10  -1   1 1054.09   53.49
   1  10  -1 1067.09   54.29
 -11   1  -1 1064.19   54.49
   1  10  -1 1097.99   54.09
  -1  11   1 1099.59   54.29
   1  10  -1 1097.99   52.89
  -1  11   1 1168.38   59.59
  10 -11  -1 1022.10   58.49
  11   0  -1  283.37   18.60
  11   0   1  327.87   30.30
 -11  11   1  291.57   17.70
 -11  11  -1  285.77   20.20
 -11  11   1  280.97   20.50
  11   0   1  306.87   19.00
   0 -11  -1  298.77   19.70
  11   0  -1  276.67   18.40
 -11   0   1  291.07   17.10
 -11   0  -1  288.47   19.00
   0  11  -1  318.77   21.20
   0  11   1  299.17   19.70
  11 -11   1  285.27   23.30
   0  11  -1  303.47   18.30
  11 -11  -1  302.17   24.30
   0  11  -1  302.77   16.40
   0  11   1  300.47   31.60
  -1 -11  -1   52.49    9.30
  12  -1  -1   39.80    8.00
  11   1   1   41.50   14.90
  12  -1  -1   43.30    9.90
  11   1   1   74.99   11.80
 -12  11   1   44.80    7.00
 -11  12  -1   36.10    9.90
 -12  11   1   52.89    9.60
  12 -11  -1   53.49   14.40
   1  11   1   42.80    8.10
  11 -12   1   52.99   13.60
   1  11   1   45.10   17.90
  -1  12  -1   37.80    7.60
  -1  12  -1   49.60    7.50
  -1  12  -1   39.10    8.40
 -11  -1  -1   52.49   10.80
  11   2   1    8.10   14.70
  13  -2  -1   21.00    7.60
 -13  11   1   20.80    6.70
  13  -2  -1   37.80   10.20
 -11  13  -1   11.80    8.90
 -13  11   1   25.50    9.20
  -2 -11  -1   34.30    8.10
  -2  13  -1   28.00    6.20
   2  11   1   24.60    7.80
 -13   2   1   27.80    5.90
 -11  -2  -1   19.40    7.50
  13 -11  -1   27.60   14.40
  -2  13  -1   36.10    7.40
   2  11   1    7.30   16.60
  -2  13  -1   20.10    8.10
  11 -13   1   10.60   12.90
  -3 -11  -1  391.06   23.80
 -11  14  -1  460.25   26.80
 -14  11   1  463.65   24.70
  14  -3  -1  425.06   24.80
  14  -3  -1  451.95   27.10
  11   3   1  424.46   33.00
   3  11   1  452.65   35.40
   3  11   1  445.76   25.30
  11 -14   1  437.56   30.10
 -14   3   1  443.16   23.90
  -3  14  -1  438.06   23.10
  14 -11  -1  444.86   31.40
 -11  -3  -1  428.66   25.30
  -3  14  -1  430.86   24.10
  -3  14  -1  439.56   25.80
  11   4   1   54.49   17.40
  -4 -11  -1   55.69    9.40
 -15  11   1   56.99    8.90
  15  -4  -1   68.19   11.10
 -11  15  -1   48.60   10.50
   4  11   1   63.69   12.70
  -4  15  -1   62.29   10.40
  15 -11  -1   72.99   16.30
  11 -15   1   54.79   14.90
  -4  15  -1   65.29   10.70
   4  11   1   46.60   18.20
 -11  -4  -1   58.29    9.40
  16  -5  -1  493.35   31.50
  16  -5  -1  467.35   27.40
  -5 -11  -1  502.35   25.50
  11   5   1  536.25   47.40
 -11  16  -1  502.55   29.60
 -16  11   1  496.05   27.60
  11 -16   1  541.15   36.40
 -11  -5  -1  515.55   28.70
  16 -11  -1  443.46   25.90
  -5  16  -1  484.75   26.50
 -16   5   1  533.15   27.70
  16 -11  -1  456.65   33.40
 -11  17  -1  180.48   18.00
  17  -6  -1  187.88   22.10
   6 -17   1  207.78   23.60
  17  -6  -1  179.48   15.00
  11   6   1  159.78   26.00
 -17  11   1  182.28   16.80
 -17   6   1  207.28   19.00
  -6  17  -1  181.88   13.90
   6  11   1  156.78   27.80
 -11  -6  -1  183.48   17.10
  17 -11  -1  164.48   12.90
  11 -17   1  190.28   24.50
  17 -11  -1  172.98   28.00
  -6  17  -1  188.18   17.70
  11   7   1  163.48   26.00
 -11  18  -1  177.28   18.40
  18  -7  -1  186.08   22.40
   7 -18   1  155.18   24.20
  -7 -11  -1  160.38   17.20
 -18  11   1  175.88   16.30
  -7  18  -1  161.18   18.30
 -11  -7  -1  171.98   16.40
  18 -11  -1  175.78   13.60
  18 -11  -1  212.08   26.10
   7  11   1  164.28   23.20
  -7  18  -1  167.58   13.40
  11 -18   1  180.68   24.00
 -19  11   1   55.99   10.60
  19  -8  -1   50.19    9.10
  11   8   1   29.00   19.20
  -8 -11  -1   35.90   10.80
 -11  19  -1   47.30   12.70
   8 -19   1   48.20   16.80
 -19   8   1   65.09   11.50
  -8  19  -1   48.40   12.00
  19 -11  -1   57.09    8.50
  -8  19  -1   59.29    7.90
  11 -19   1   49.00   17.80
 -11  -8  -1   49.10   10.30
   8  11   1   30.10   20.10
  19 -11  -1   61.59   18.30
  11   9   1  119.99   22.70
 -11  20  -1  102.69   19.80
   9 -20   1  119.59   20.40
  -9 -11  -1  123.09   17.10
 -20  11   1  138.39   17.20
  20  -9  -1  132.19   13.70
  20  -9  -1  146.49   24.90
  -9  20  -1  124.69   11.00
  20 -11  -1  158.88   26.90
 -11  -9  -1  120.99   16.80
   9  11   1  119.69   23.10
  -9  20  -1  116.39   20.10
 -20   9   1  154.28   17.70
  11 -20   1  147.09   22.00
  21 -10  -1   23.50    8.80
 -10 -11  -1   11.60   11.20
  10 -21   1   10.40   19.10
  21 -10  -1   32.30   18.70
  11  10   1   12.20   20.90
 -11  21  -1   12.10   12.80
 -21  11   1   27.50   11.80
 -10  21  -1   13.50   12.70
 -10  21  -1   28.30    6.40
  10  11   1    9.50   20.40
  21 -11  -1   25.50    8.50
 -11 -10  -1   13.50   11.40
  21 -11  -1   25.80   19.20
 -21  10   1   32.10   11.70
  11 -21   1   17.00   19.70
  11  11   1  583.14   45.80
  22 -11  -1  584.54   32.50
 -11  22  -1  602.54   37.60
 -11 -11  -1  592.84   35.60
 -22  11   1  645.44   37.30
  11 -22   1  599.24   42.30
  22 -11  -1  567.04   41.40
 -12   6  -1  119.39   18.20
  -6  12   1  120.99   11.70
   6   6  -1  112.79   12.90
  -6  12   1  140.69   17.70
  12  -6   1  132.99   17.10
   6 -12  -1  129.69   18.30
   6   6  -1  110.59    9.00
  12  -6   1  135.79   16.30
   6   6  -1  116.69   12.00
  12  -5   1  405.26   25.70
   7   5  -1  354.36   24.20
  -7  12   1  406.16   22.20
 -12   7  -1  406.96   25.80
   7   5  -1  396.06   20.60
  -7  12   1  379.16   27.90
   7   5  -1  383.16   22.00
  12  -5   1  400.86   25.80
   5 -12  -1  424.46   26.10
  -5  12   1  415.66   29.70
 -12   5  -1  375.36   24.80
  12  -7   1  391.16   23.80
   7 -12  -1  387.16   26.90
   5   7  -1  412.06   23.10
   5   7  -1  379.06   20.20
  -5  12   1  406.46   22.40
  12  -7   1  391.46   26.90
   5   7  -1  392.76   22.40
   4 -12  -1  147.29   18.00
  -8  12   1  124.89   12.10
  12  -4   1  123.59   16.20
 -12   8  -1  114.69   14.80
   8   4  -1  127.59   10.30
   8   4  -1  125.19   14.70
  12  -4   1  126.49   17.20
  -8  12   1  111.59   15.90
  -4  12   1  127.29   12.60
   4   8  -1  126.49    9.10
  -4  12   1  127.39   18.00
  12  -8   1  133.99   13.80
   4   8  -1  140.79   12.80
  12  -8   1  135.39   18.60
   8 -12  -1  172.28   19.50
 -12   4  -1  135.99   14.70
   4   8  -1  122.89   12.70
 -12   9  -1 1991.30   90.99
  12  -3   1 1907.01   90.69
   9   3  -1 1839.42   89.09
   9   3  -1 1805.42   90.09
  12  -3   1 2004.80   92.09
   3 -12  -1 1889.91   91.09
  -9  12   1 1872.71   89.79
  -9  12   1 1914.11   91.79
  12  -9   1 1857.31   91.89
   3   9  -1 1876.31   90.19
   9 -12  -1 1651.63   91.89
   3   9  -1 1867.51   90.19
  -3  12   1 1836.32   89.99
 -12   3  -1 1665.53   89.99
   3   9  -1 1811.32   88.79
  -9  -3   1 1889.31   89.59
  12  -9   1 1865.01   89.49
  -3  12   1 1963.40   93.79
 -12  10  -1  668.43   34.90
 -10  12   1  633.24   32.80
  12  -2   1  653.73   37.00
  10   2  -1  608.44   32.30
 -10  12   1  625.24   35.80
   2 -12  -1  628.54   34.90
  10   2  -1  647.34   33.80
  12  -2   1  624.14   34.20
   2  10  -1  633.04   31.40
 -12   2  -1  609.94   33.20
  -2  12   1  650.93   39.30
   2  10  -1  660.13   33.60
  10 -12  -1  614.94   36.50
 -10  -2   1  631.54   32.50
   2  10  -1  670.33   33.40
  -2  12   1  637.74   33.20
  12 -10   1  591.84   31.80
 -12  11  -1  232.68   19.00
  12  -1   1  267.07   18.70
 -11  12   1  248.58   19.20
 -11  12   1  257.77   15.80
   1 -12  -1  230.88   19.40
  11   1  -1  226.68   15.40
  12  -1   1  241.58   23.10
  11   1  -1  235.18   16.80
   1  11  -1  217.88   17.70
 -11  -1   1  230.98   15.20
 -12   1  -1  238.78   16.50
   1  11  -1  237.68   13.60
  12 -11   1  226.88   22.40
  11 -12  -1  256.77   23.30
   1  11  -1  240.58   16.80
  12   0   1   19.90    9.50
  12   0   1   -2.10   13.40
  12   0  -1    4.70    7.90
   0 -12  -1   11.80    9.60
  12   0  -1    4.10    7.20
 -12  12   1   -0.30    6.10
 -12  12   1    6.70    9.60
  12 -12  -1   19.40   13.20
 -12   0  -1   13.00    7.00
 -12   0   1   11.70    5.50
  12 -12   1    1.10   12.60
   0  12  -1    9.40    5.10
   0  12  -1    6.50    7.30
   0  12   1    6.20    7.00
   0  12  -1    8.10    7.30
   0  12   1   -9.00   16.80
  13  -1  -1  170.68   16.20
  -1 -12  -1  177.98   15.60
 -12  13  -1  145.49   16.70
  12   1   1  165.88   23.30
  12   1   1  207.68   16.20
 -13  12   1  168.58   13.80
  13  -1  -1  176.58   15.20
 -13  12   1  158.08   16.60
 -12  -1  -1  166.78   14.60
  -1  13  -1  186.58   12.00
  12 -13   1  158.98   20.70
   1  12   1  171.98   25.70
  -1  13  -1  180.18   16.10
   1  12   1  188.48   15.50
 -13   1   1  169.68   13.10
  13 -12  -1  200.48   21.70
  -1  13  -1  193.08   14.60
 -14  12   1  248.98   17.20
  14  -2  -1  287.27   19.60
 -14  12   1  275.17   19.20
  12   2   1  259.07   26.40
  14  -2  -1  269.47   17.50
  12   2   1  274.67   17.40
  -2 -12  -1  228.38   17.20
 -12  14  -1  262.07   19.90
  14 -12  -1  268.37   24.70
  -2  14  -1  246.68   17.20
  -2  14  -1  259.37   16.20
  -2  14  -1  246.48   18.70
 -14   2   1  239.38   16.20
  12 -14   1  238.88   23.50
   2  12   1  244.98   18.00
   2  12   1  255.37   30.40
 -12  -2  -1  246.58   17.90
  15  -3  -1 1234.88   63.39
  -3 -12  -1 1192.28   62.49
 -15  12   1 1334.97   63.29
  15  -3  -1 1280.77   65.49
  12   3   1 1322.57   67.59
  15 -12  -1 1282.57   67.39
  12 -15   1 1419.06   75.19
 -15   3   1 1175.68   62.69
  -3  15  -1 1229.58   62.99
  -3  15  -1 1279.87   64.29
 -12  -3  -1 1324.67   67.79
   3  12   1 1269.47   63.69
   3  12   1 1378.06   69.59
 -16  12   1   91.49   13.50
 -12  16  -1   94.89   16.00
  -4 -12  -1  111.49   11.40
  16  -4  -1  121.09   19.40
  12   4   1  122.49   21.40
  16  -4  -1  110.19   12.50
  16 -12  -1  111.59   22.40
   4  12   1  133.19   21.80
  12 -16   1   98.09   17.60
  -4  16  -1  141.69   13.50
  -4  16  -1  107.79   15.50
 -12  -4  -1  120.69   14.40
 -12  17  -1  514.75   29.80
   5 -17   1  512.55   33.10
 -17  12   1  448.56   29.70
  17  -5  -1  479.95   31.20
  12   5   1  547.35   35.40
  -5 -12  -1  447.06   25.00
  17 -12  -1  458.95   25.40
  12 -17   1  495.15   34.50
 -17   5   1  477.65   28.90
  -5  17  -1  478.85   26.50
 -12  -5  -1  495.85   28.20
  17 -12  -1  482.45   33.50
  -5  17  -1  496.55   29.20
   5  12   1  457.85   38.40
  18  -6  -1   55.79   15.60
 -12  18  -1   35.40   11.30
  18  -6  -1   40.40    9.10
 -18  12   1   43.00    9.70
   6 -18   1   46.00   16.60
  12   6   1   33.20   17.80
  18 -12  -1   47.60    7.60
  12 -18   1   28.40   16.50
  -6  18  -1   51.79    8.60
  -6  18  -1   34.70   11.00
  18 -12  -1   44.40   17.20
   6  12   1   31.00   20.50
 -12  -6  -1   42.30   10.40
  19  -7  -1   49.80   16.90
  19  -7  -1   44.30    9.10
  12   7   1   19.10   18.80
 -12  19  -1   34.90   11.90
   7 -19   1   36.20   16.50
 -19  12   1   50.39   10.80
  -7 -12  -1   18.40   10.80
  -7  19  -1   34.50   11.50
  19 -12  -1   42.20   18.10
  -7  19  -1   48.10    8.40
   7  12   1    9.20   19.80
  19 -12  -1   42.70    7.70
  12 -19   1   29.20   17.30
 -12  -7  -1   39.90   10.00
  12   8   1   82.99   22.10
  20  -8  -1   98.99   18.30
 -12  20  -1   79.79   14.00
 -20  12   1   98.79   12.60
   8 -20   1   83.69   18.70
  -8 -12  -1   82.29   12.70
  20  -8  -1   80.39   13.50
  20 -12  -1   88.29   11.90
  -8  20  -1   83.29   12.10
 -12  -8  -1   96.99   15.80
  20 -12  -1  102.89   20.40
 -20   8   1  113.09   16.80
   8  12   1   62.19   23.30
  12 -20   1   98.49   21.10
  -8  20  -1   74.59   13.50
  21  -9  -1  258.17   19.10
  12   9   1  232.08   32.70
 -12  21  -1  260.07   23.60
 -21  12   1  278.57   22.70
  -9 -12  -1  272.47   22.00
  21  -9  -1  267.07   28.50
   9 -21   1  247.48   30.00
  -9  21  -1  281.17   17.60
 -12  -9  -1  253.77   22.20
 -21   9   1  299.97   22.60
   9  12   1  241.48   34.80
  -9  21  -1  270.97   23.30
  21 -12  -1  249.18   31.30
  21 -12  -1  263.37   18.50
  12 -21   1  246.38   30.90
  10 -22   1   -0.30   20.20
  22 -10  -1   12.10    9.40
  22 -10  -1   14.80   19.20
 -10 -12  -1   -6.10   11.60
 -12  22  -1    3.30   12.60
  12  10   1   -1.30   21.00
 -22  12   1   19.60   13.60
  22 -12  -1   22.80   20.40
 -10  22  -1   15.00    6.80
 -10  22  -1   -1.10   13.20
 -12 -10  -1   10.50   11.10
  10  12   1  -13.40   22.40
  22 -12  -1   15.20    8.40
  12 -22   1    2.30   20.80
 -22  10   1   25.40   12.30
 -12  23  -1   29.40   14.60
 -11 -12  -1   27.80   12.20
  11 -23   1   15.00   22.10
  23 -11  -1   44.00   20.60
  12  11   1  -11.90   22.20
  23 -11  -1   24.70    9.70
 -23  12   1   37.60   13.50
  23 -12  -1   28.30    9.40
 -12 -11  -1   27.10   12.30
 -23  11   1   35.10   13.20
  11  12   1  -18.30   22.30
  23 -12  -1   16.80   20.70
 -11  23  -1   18.60   14.30
  12 -23   1   25.20   22.10
  12 -24   1  260.67   36.80
 -12  24  -1  284.17   26.80
 -24  12   1  326.57   27.20
  24 -12  -1  297.87   32.70
 -12 -12  -1  288.47   25.80
  24 -12  -1  287.27   20.50
  12  12   1  252.67   35.50
   6 -13  -1   26.90   12.20
  13  -6   1   22.00   10.40
  -7  13   1    6.20   14.70
   7   6  -1   19.10    6.80
 -13   7  -1   13.20    9.20
  13  -6   1   25.50   11.30
   7   6  -1   28.00    8.60
   7   6  -1   20.40    5.10
  -7  13   1   18.20    6.80
   6   7  -1   21.80    7.10
   6   7  -1   23.00    4.90
   6   7  -1   19.60   10.80
   7 -13  -1   33.00   13.10
  13  -7   1   27.20    9.70
  -6  13   1   22.40    7.00
  13  -7   1   15.70   11.60
  -6  13   1    0.10   14.10
 -13   6  -1    6.10    8.50
   8   5  -1  927.81   45.50
  -8  13   1  903.91   50.49
  -8  13   1  937.41   46.80
 -13   8  -1  972.10   48.20
   8   5  -1  902.91   47.40
   5 -13  -1  932.21   48.80
  13  -5   1  920.51   48.40
  13  -5   1  950.00   48.60
   8   5  -1  904.71   46.50
   5   8  -1  935.01   48.40
  13  -8   1  911.11   49.40
  13  -8   1  941.51   47.30
  -5  13   1  955.90   47.00
   5   8  -1  941.31   45.30
   8 -13  -1  829.72   50.09
  -5  13   1 1012.30   51.99
 -13   5  -1  984.20   47.80
   5   8  -1  957.50   47.10
  -9  13   1  600.24   31.10
   9   4  -1  596.14   29.90
   4 -13  -1  597.34   33.50
  13  -4   1  609.14   33.50
  -9  13   1  558.64   35.30
  13  -4   1  568.84   34.10
   9   4  -1  585.74   32.20
 -13   9  -1  609.54   33.40
   4   9  -1  604.84   31.70
   4   9  -1  592.34   29.30
   4   9  -1  598.24   31.90
  13  -9   1  571.74   31.00
  -4  13   1  594.14   38.30
  -4  13   1  602.44   31.60
 -13   4  -1  605.64   32.30
   9 -13  -1  551.64   35.20
  10   3  -1  212.48   16.70
 -10  13   1  203.48   20.90
 -10  13   1  208.48   14.60
  13  -3   1  234.88   19.30
  13  -3   1  211.58   21.00
   3 -13  -1  214.08   18.40
  10   3  -1  185.18   13.70
 -13  10  -1  203.98   17.90
 -13   3  -1  235.58   16.10
  -3  13   1  189.18   25.90
   3  10  -1  180.28   19.90
   3  10  -1  209.98   12.40
   3  10  -1  196.08   16.10
  -3  13   1  198.68   17.00
  13 -10   1  214.78   14.30
 -10  -3   1  195.48   14.30
  13 -10   1  225.38   21.60
  10 -13  -1  259.17   22.60
  11   2  -1   50.29    8.30
  11   2  -1   63.69    9.40
 -11  13   1   50.49   10.00
 -11  13   1   54.29   12.70
  13  -2   1   60.59   14.20
   2 -13  -1   77.99   12.40
  13  -2   1   70.79   11.60
   2  11  -1   62.19   12.40
  13 -11   1   53.09    7.60
  13 -11   1   49.80   13.70
   2  11  -1   78.79   12.90
  -2  13   1   66.09   11.90
   2  11  -1   57.89    7.50
  11 -13  -1   79.19   15.10
 -11  -2   1   47.70    9.50
   1 -13  -1  946.71   49.99
  12   1  -1  937.11   48.30
 -12  13   1 1006.50   48.80
 -13  12  -1 1030.90   50.39
  13  -1   1  953.10   52.39
  12   1  -1  949.60   49.40
 -12  13   1  990.30   50.69
  13  -1   1 1030.80   50.09
  12 -13  -1  948.61   52.49
  -1  13   1 1051.89   55.89
   1  12  -1  980.40   47.50
   1  12  -1  984.90   49.80
 -12  -1   1  988.30   48.60
  -1  13   1 1008.30   49.60
   1  12  -1  959.30   49.20
 -13   1  -1  907.61   49.00
  13 -12   1  941.11   52.09
 -13  13   1  136.49   13.50
   0 -13  -1  146.29   17.10
 -13  13   1  150.98   16.80
  13   0   1  162.48   21.60
 -13  13  -1  130.69   16.80
  13   0   1  190.48   17.10
  13   0  -1  156.98   14.50
  13   0  -1  171.08   15.50
   0  13   1  143.49   26.40
   0  13  -1  144.19   15.70
 -13   0  -1  151.48   14.40
  13 -13  -1  205.18   21.40
   0  13  -1  154.48   14.90
  13 -13   1  137.39   20.70
 -13   0   1  170.68   12.70
   0  13  -1  144.39   10.80
   0  13   1  142.39   14.30
  13   1   1 1658.53   81.19
 -14  13   1 1669.73   78.19
 -13  14  -1 1734.53   79.09
  14  -1  -1 1555.94   77.89
 -14  13   1 1622.44   77.39
  13   1   1 1637.24   77.29
  14  -1  -1 1440.36   77.49
  -1 -13  -1 1561.74   77.69
 -14   1   1 1443.06   76.79
  -1  14  -1 1550.94   77.49
  13 -14   1 1607.24   80.89
   1  13   1 1596.64   77.99
 -13  -1  -1 1528.05   77.69
  14 -13  -1 1462.55   80.29
   1  13   1 1744.03   83.59
  -1  14  -1 1599.54   78.19
  15  -2  -1  286.17   21.50
  13   2   1  279.87   27.00
 -13  15  -1  274.27   21.80
  13   2   1  251.57   18.10
 -15  13   1  298.77   20.40
  -2 -13  -1  283.97   19.00
 -15  13   1  268.57   18.80
  15  -2  -1  293.07   20.70
  -2  15  -1  305.77   21.10
  -2  15  -1  296.37   19.50
 -13  -2  -1  282.17   20.20
 -15   2   1  264.97   17.30
  15 -13  -1  242.48   32.50
  13 -15   1  245.08   28.70
   2  13   1  297.97   19.60
   2  13   1  303.87   31.90
  -2  15  -1  282.17   16.50
  16  -3  -1  136.49   16.20
  -3 -13  -1  131.79   13.60
  13   3   1  144.89   23.50
 -16  13   1  141.09   13.80
 -13  16  -1  143.49   17.20
  16  -3  -1  142.59   18.00
   3  13   1  152.48   15.90
  13 -16   1  148.89   24.30
  16 -13  -1  195.88   23.10
 -13  -3  -1  155.38   16.00
  -3  16  -1  138.29   16.40
  -3  16  -1  143.49   14.80
  13   4   1   77.89   18.90
  -4 -13  -1   89.69   12.30
   4 -17   1  153.58   18.70
 -17  13   1   92.69   16.40
  17  -4  -1  118.89   14.10
  17  -4  -1  137.79   19.00
 -13  17  -1   83.99   16.80
  13 -17   1  116.39   19.10
  -4  17  -1  106.89   15.60
   4  13   1   96.89   22.30
  17 -13  -1  167.78   25.00
  -4  17  -1  115.29   14.30
   4  13   1  111.69   14.20
 -13  -4  -1  114.19   14.50
  13   5   1  249.08   28.90
  18  -5  -1  276.47   18.50
  -5 -13  -1  245.98   16.00
 -13  18  -1  267.47   21.80
 -18  13   1  256.47   19.70
  18  -5  -1  279.97   24.10
   5  13   1  203.48   31.00
 -13  -5  -1  261.97   19.80
  18 -13  -1  291.87   28.40
  -5  18  -1  273.67   21.30
  -5  18  -1  255.47   18.70
  13 -18   1  225.88   27.30
   5  13   1  260.67   19.50
  13   6   1    0.40   18.30
 -19  13   1    6.20    9.40
  19  -6  -1    4.50   15.40
 -13  19  -1    4.60   11.10
   6 -19   1   -4.50   15.70
  19  -6  -1   17.40    9.20
 -13  -6  -1   10.60    9.30
  19 -13  -1   38.70   17.80
   6  13   1   -0.10   19.80
  13 -19   1    5.90   18.10
  19 -13  -1   12.10    6.90
  -6  19  -1   16.90    9.20
  -6  19  -1   10.40   11.00
 -13  20  -1 1301.27   64.89
  13   7   1 1289.57   69.09
   7 -20   1 1265.77   67.29
 -20  13   1 1328.37   63.79
  20  -7  -1 1216.98   62.69
  20  -7  -1 1243.58   69.19
  -7  20  -1 1290.77   62.19
   7  13   1 1311.37   71.49
  -7  20  -1 1262.57   65.19
  13 -20   1 1272.87   68.49
 -13  -7  -1 1257.87   64.19
  20 -13  -1 1148.79   61.49
 -20   7   1 1261.67   63.09
  20 -13  -1 1149.19   67.29
 -21  13   1  163.08   20.10
  13   8   1  138.49   24.00
 -13  21  -1  134.99   21.80
   8 -21   1  148.29   22.20
  21  -8  -1  168.38   16.10
  -8 -13  -1  157.18   20.10
  21  -8  -1  152.08   26.90
 -13  -8  -1  162.58   18.60
  21 -13  -1  174.08   27.60
  -8  21  -1  162.38   21.70
   8  13   1  132.59   25.90
  -8  21  -1  171.68   15.50
  13 -21   1  149.69   24.80
  21 -13  -1  148.89   20.90
  13   9   1   91.49   23.60
 -13  22  -1   94.79   16.00
  22  -9  -1  104.69   20.10
  -9 -13  -1   76.69   14.40
 -22  13   1   96.99   18.10
   9 -22   1   68.69   21.50
  22  -9  -1   92.79   14.90
  13 -22   1   96.69   23.60
  22 -13  -1   97.09   13.30
  22 -13  -1  138.29   23.40
  -9  22  -1  105.99   13.50
   9  13   1   83.59   24.60
 -13  -9  -1  107.59   17.90
  -9  22  -1   85.39   15.10
 -23  13   1    8.00   12.20
  23 -10  -1    6.50   19.50
  23 -10  -1    8.60    9.60
  10 -23   1  -29.20   20.80
  13  10   1  -32.30   22.00
 -10 -13  -1   -6.40   11.80
 -13  23  -1  -12.20   13.20
 -13 -10  -1    7.30   12.10
  13 -23   1  -31.20   22.20
 -10  23  -1   -3.20   13.00
 -23  10   1   19.90   12.60
  10  13   1  -23.30   22.20
  23 -13  -1    8.00   21.00
 -10  23  -1   12.20    8.50
  23 -13  -1    7.00    8.90
  24 -11  -1   43.90   10.90
 -24  13   1   51.89   15.00
  11 -24   1   42.60   23.70
 -13  24  -1   30.60   14.80
 -11 -13  -1   45.70   13.90
  24 -11  -1   34.80   21.30
  13  11   1   25.50   23.20
  13 -24   1   41.30   24.60
 -11  24  -1   33.70   14.70
  24 -13  -1   46.40   10.20
 -13 -11  -1   46.80   13.90
  24 -13  -1   47.00   22.20
 -24  11   1   63.99   14.60
 -11  24  -1   66.39    8.60
  11  13   1   27.30   23.80
  25 -12  -1   58.29   11.70
 -13  25  -1   56.89   16.10
  12 -25   1   45.20   25.40
 -25  13   1   74.59   16.30
  25 -12  -1   56.99   23.00
  13  12   1   10.30   23.80
 -12 -13  -1   56.29   14.20
  12  13   1   24.70   24.40
  25 -13  -1   36.30   23.00
 -13 -12  -1   62.09   14.90
 -25  12   1   93.59   16.90
  13 -25   1   75.29   26.40
  25 -13  -1   69.59   11.20
 -12  25  -1   65.79   15.50
  26 -13  -1  152.88   26.30
 -13  26  -1  165.78   24.00
 -13 -13  -1  166.38   24.10
  13  13   1  155.18   28.50
  26 -13  -1  187.98   17.50
  13 -26   1  212.88   30.70
 -26  13   1  225.98   24.90
  -7  14   1 5448.25  258.87
  14  -7   1 5757.72  260.07
 -14   7  -1 5788.62  259.47
   7   7  -1 5220.88  258.77
  -7  14   1 5385.36  260.77
   7   7  -1 5332.57  259.17
   7 -14  -1 5032.40  259.87
  14  -7   1 5789.52  259.37
   7   7  -1 5265.77  257.67
  -8  14   1 1187.08   60.19
   8   6  -1 1234.38   58.69
 -14   8  -1 1243.88   61.19
   8   6  -1 1232.18   60.99
   6 -14  -1 1180.38   63.49
   8   6  -1 1194.38   59.89
  14  -6   1 1220.58   61.59
  -8  14   1 1135.49   64.39
  14  -6   1 1254.67   62.49
   8 -14  -1 1108.59   62.39
  14  -8   1 1260.07   62.79
  -6  14   1 1242.98   60.29
  14  -8   1 1201.28   60.59
  -6  14   1 1257.17   64.59
   6   8  -1 1102.19   63.49
   6   8  -1 1264.57   60.89
   6   8  -1 1255.57   58.59
 -14   6  -1 1329.17   61.39
  -9  14   1 1054.09   56.39
 -14   9  -1 1181.48   54.19
   9   5  -1 1073.69   51.39
   5 -14  -1 1003.50   54.79
  14  -5   1 1083.99   54.99
   9   5  -1 1077.49   53.69
  14  -5   1 1087.29   54.89
  -9  14   1 1120.59   52.79
   5   9  -1 1067.49   51.09
  14  -9   1  927.71   56.79
 -14   5  -1 1039.20   53.39
  -5  14   1 1070.19   57.89
   5   9  -1 1045.50   53.39
   5   9  -1 1001.60   53.19
   9 -14  -1 1071.69   55.69
  -5  14   1  958.60   56.79
  14  -9   1 1091.19   52.79
   4 -14  -1 1182.28   62.49
  14  -4   1 1290.17   63.79
 -14  10  -1 1295.87   62.49
  14  -4   1 1289.37   62.89
 -10  14   1 1216.08   64.29
  10   4  -1 1242.88   60.09
 -10  14   1 1301.97   61.29
  10   4  -1 1227.98   61.79
   4  10  -1 1216.68   59.59
  -4  14   1 1294.37   61.69
   4  10  -1 1226.98   61.59
  -4  14   1 1308.77   66.19
 -10  -4   1 1261.77   60.89
  14 -10   1 1210.18   60.49
 -14   4  -1 1171.28   61.39
   4  10  -1 1148.09   61.59
  14 -10   1 1237.68   63.69
  10 -14  -1 1166.68   63.89
 -11  14   1 1122.79   54.89
  14  -3   1 1146.39   56.89
  11   3  -1 1144.99   53.99
 -14  11  -1 1184.88   56.49
 -11  14   1 1095.39   57.79
  11   3  -1 1136.69   55.59
   3 -14  -1 1115.89   56.19
  14  -3   1 1026.90   59.49
  11 -14  -1  946.71   57.39
 -11  -3   1 1165.98   54.59
   3  11  -1 1155.58   53.39
   3  11  -1 1113.09   55.29
 -14   3  -1 1049.70   55.19
  14 -11   1 1075.09   57.89
  14 -11   1 1055.99   53.59
  -3  14   1 1064.69   60.89
  -3  14   1 1134.29   55.19
 -14  12  -1  725.33   38.00
 -12  14   1  729.63   36.10
 -12  14   1  678.43   39.10
  14  -2   1  732.63   38.80
  12   2  -1  715.23   36.80
  12   2  -1  713.83   35.50
  14  -2   1  697.03   40.40
   2 -14  -1  652.23   38.20
   2  12  -1  696.63   34.50
 -14   2  -1  668.43   36.50
  14 -12   1  630.44   34.00
 -12  -2   1  716.33   35.70
  12 -14  -1  685.83   40.20
  -2  14   1  699.83   44.40
   2  12  -1  677.03   36.80
   2  12  -1  708.03   37.20
  -2  14   1  692.83   37.00
  14 -12   1  682.33   40.40
  13   1  -1 2038.80   99.79
  13   1  -1 1977.30   98.59
  14  -1   1 2111.99   99.79
   1 -14  -1 1981.60   99.79
 -13  14   1 2061.39   99.19
  14  -1   1 2144.99  102.19
 -13  14   1 2045.00  100.29
 -14  13  -1 2270.77  100.89
   1  13  -1 1996.20   97.99
  13 -14  -1 1874.71  101.59
  14 -13   1 2031.80  101.89
  -1  14   1 2053.29   99.69
 -13  -1   1 2035.10   98.89
   1  13  -1 2004.20   99.79
  -1  14   1 2262.17  104.39
   1  13  -1 2004.40   99.49
 -14   1  -1 1988.00   99.59
  14   0   1   78.59   16.50
 -14  14  -1   66.99   15.40
 -14  14   1   59.09   12.30
   0 -14  -1  111.59   16.20
  14   0  -1   80.49   13.10
 -14  14   1   68.29   12.60
  14   0   1  109.49   15.90
   0  14   1   90.99   13.10
 -14   0  -1   96.99   17.20
   0  14   1   87.09   20.10
  14 -14   1   80.99   26.10
   0  14  -1   92.09   13.80
   0  14  -1  125.29   15.10
 -14   0   1   90.39   13.50
  15  -1  -1  410.76   25.90
  14   1   1  402.66   25.20
  15  -1  -1  445.96   26.30
 -14  15  -1  429.16   27.90
  14   1   1  463.65   32.40
 -15  14   1  449.26   25.00
 -15  14   1  464.05   26.60
  -1 -14  -1  419.86   26.50
  -1  15  -1  423.46   26.20
  14 -15   1  440.06   31.50
   1  14   1  465.15   30.70
  -1  15  -1  411.26   22.90
  15 -14  -1  412.76   30.50
   1  14   1  445.06   37.20
 -14  -1  -1  429.86   25.90
  14   2   1  113.59   18.80
  14   2   1   68.89   11.70
  16  -2  -1   91.69   13.50
 -14  16  -1   91.29   13.10
 -16  14   1   93.79   11.80
 -16  14   1   96.99   14.40
  -2 -14  -1   92.39   14.50
  14 -16   1   96.59   18.50
 -16   2   1  113.59   12.10
 -14  -2  -1   96.09   13.90
   2  14   1   66.99   35.50
   2  14   1   91.39   15.10
  -2  16  -1   99.89   15.60
  -2  16  -1   96.89   16.00
  16 -14  -1   98.29   17.60
  -3 -14  -1   73.19   11.20
  17  -3  -1   91.19   14.50
 -17  14   1   85.39   12.40
 -17  14   1   72.39   13.80
  14   3   1   47.80   17.80
  17  -3  -1   76.09   13.10
  14 -17   1   66.19   18.30
   3  14   1   57.99   21.60
   3  14   1   84.49   14.40
 -14  -3  -1   80.49   15.30
  17 -14  -1   76.49   17.60
  -3  17  -1   73.89   15.30
 -17   3   1  105.49   12.20
  -3  17  -1   86.09   15.10
   4 -18   1  313.97   29.60
 -14  18  -1  310.77   24.60
  18  -4  -1  307.17   21.20
  -4 -14  -1  289.67   19.60
  18  -4  -1  336.97   24.90
 -18  14   1  317.87   21.50
  14   4   1  287.37   31.10
  18 -14  -1  299.57   28.80
   4  14   1  287.07   33.20
  -4  18  -1  319.07   22.00
 -18   4   1  332.57   20.30
   4  14   1  297.37   21.80
 -14  -4  -1  295.87   21.30
  -4  18  -1  308.97   23.00
  14 -18   1  291.67   29.80
  19  -5  -1  582.54   35.90
 -19  14   1  560.74   31.90
  14   5   1  539.55   39.30
  -5 -14  -1  525.45   29.00
  19  -5  -1  538.55   31.10
   5 -19   1  565.14   37.40
 -14  19  -1  550.54   34.30
   5  14   1  546.05   31.60
  19 -14  -1  563.84   38.90
 -14  -5  -1  546.75   31.80
  14 -19   1  560.74   40.50
 -19   5   1  549.95   30.70
   5  14   1  527.95   43.50
  -5  19  -1  541.85   30.90
  -5  19  -1  567.74   33.10
  14   6   1   54.89   20.60
   6 -20   1   67.89   18.80
  20  -6  -1   71.19   11.40
 -20  14   1   67.79   12.20
 -14  20  -1   59.99   13.30
  20  -6  -1   88.59   21.50
  -6  20  -1   67.09   13.50
  14 -20   1   71.99   21.30
   6  14   1   55.09   23.40
 -14  -6  -1   95.79   17.00
  20 -14  -1   89.49   20.30
  -6  20  -1  103.89   14.90
  20 -14  -1   71.59   10.40
  14   7   1  212.08   31.10
 -21  14   1  268.47   21.80
   7 -21   1  176.78   28.90
  21  -7  -1  243.28   19.60
  21  -7  -1  223.98   26.80
 -14  21  -1  252.77   23.20
  21 -14  -1  244.28   17.70
  -7  21  -1  261.07   19.60
  -7  21  -1  246.78   24.00
 -14  -7  -1  262.67   21.20
  21 -14  -1  281.47   32.30
   7  14   1  207.28   28.90
  14 -21   1  210.08   31.70
 -14  22  -1  492.85   34.00
  -8 -14  -1  533.55   32.30
  22  -8  -1  491.55   37.70
 -22  14   1  541.85   31.60
  22  -8  -1  489.85   29.40
   8 -22   1  483.45   38.60
  14   8   1  456.35   40.10
  22 -14  -1  469.65   27.60
  -8  22  -1  490.15   33.70
  -8  22  -1  505.55   28.80
   8  14   1  477.05   43.30
  22 -14  -1  508.25   40.10
  14 -22   1  460.25   41.90
 -22   8   1  595.34   32.20
 -14  -8  -1  496.75   32.20
 -23  14   1   30.10   13.90
  14   9   1    5.90   22.00
  23  -9  -1   36.10   11.00
  23  -9  -1   25.50   19.90
  -9 -14  -1   13.20   13.00
 -14  23  -1   26.90   14.80
   9 -23   1    4.90   21.80
 -23   9   1   59.39   14.90
   9  14   1   -2.70   23.60
  -9  23  -1   38.80   10.10
  14 -23   1    9.90   23.70
  -9  23  -1   28.80   14.10
  23 -14  -1   29.80    8.80
  23 -14  -1   47.00   22.40
 -14  -9  -1   30.60   13.00
 -24  14   1    8.40   13.90
  10 -24   1  -36.90   22.10
 -14  24  -1   -0.70   13.50
 -10 -14  -1   -4.40   13.00
  24 -10  -1   -6.20   19.30
  14  10   1  -25.90   21.50
  24 -10  -1   20.70   10.90
 -10  24  -1   25.50    9.50
  24 -14  -1   17.80   22.80
  10  14   1  -15.10   23.10
  24 -14  -1   10.70    9.30
  14 -24   1    5.30   24.10
 -10  24  -1    4.40   13.80
 -24  10   1   41.50   14.40
 -14 -10  -1    8.20   12.70
  25 -11  -1    5.70   20.10
 -11 -14  -1    4.20   13.60
  14  11   1   -9.40   23.20
  11 -25   1  -32.60   23.20
 -14  25  -1   -2.40   14.60
  25 -11  -1   14.00   10.60
 -25  14   1   13.30   14.10
  25 -14  -1   -7.50   22.20
  25 -14  -1    9.20    9.80
 -11  25  -1   11.10    8.30
  14 -25   1  -10.40   25.30
  11  14   1    6.40   24.40
 -11  25  -1    0.90   14.40
 -14 -11  -1    3.30   13.30
  12 -26   1   23.70   25.50
 -26  14   1   48.00   15.20
  14  12   1    3.90   24.50
 -14  26  -1    9.30   15.60
  26 -12  -1   -2.90   21.20
  26 -12  -1   24.70   11.20
 -12 -14  -1   17.20   13.80
 -12  26  -1   22.40   15.00
  12  14   1   -1.40   24.70
  14 -26   1   21.00   26.90
  26 -14  -1   -5.10   22.40
  26 -14  -1   26.00   10.80
 -26  12   1   46.80   15.80
 -14 -12  -1   15.10   13.90
 -13 -14  -1   19.30   14.30
  13 -27   1   34.20   25.80
  27 -13  -1   31.50   11.00
  14  13   1   -7.60   24.90
 -14  27  -1   16.70   14.80
 -27  14   1   46.40   15.90
  14 -27   1   38.20   26.90
 -14 -13  -1   24.00   14.80
  27 -14  -1   33.50   10.90
  27 -14  -1  -24.10   21.00
 -13  27  -1   26.30   15.50
  13  14   1   17.80   24.40
 -27  13   1   45.60   16.00
 -14  28  -1  286.57   28.10
  28 -14  -1  274.47   30.50
  14 -28   1  309.47   39.60
  28 -14  -1  317.47   21.90
  14  14   1  324.27   37.10
 -14 -14  -1  292.17   27.30
  15  -7   1   77.39   11.60
  15  -7   1   75.29   14.80
   8   7  -1   74.79   13.20
  -8  15   1   58.19   16.60
   7 -15  -1   81.49   14.70
   8   7  -1   68.69   11.50
   8   7  -1   71.89    7.10
 -15   8  -1   49.90   10.70
   7   8  -1   59.49    7.20
   7   8  -1   64.09   12.10
 -15   7  -1   57.39   11.30
  -7  15   1   72.29   17.20
   7   8  -1   63.79   10.50
  15  -8   1   79.69   14.30
  -7  15   1   61.49    9.90
   8 -15  -1   94.29   15.00
  -9  15   1  -17.70   15.80
  15  -6   1    4.90   11.10
   6 -15  -1   27.50   13.00
   9   6  -1   12.20    8.90
   9   6  -1   11.30    5.20
  -9  15   1    4.00    7.40
  15  -6   1   12.50   13.20
   6   9  -1   10.50    7.80
   6   9  -1    4.50    9.10
  -6  15   1    0.40   16.60
   6   9  -1   13.30    4.70
 -15   6  -1   -0.30    9.40
  15  -9   1   16.20    8.80
   9 -15  -1   29.90   14.10
  15  -9   1   14.30   14.40
  -6  15   1    8.60    7.50
  10   5  -1  272.17   15.70
  10   5  -1  257.57   19.50
  15  -5   1  300.27   24.40
 -10  15   1  225.48   25.80
   5 -15  -1  293.17   30.50
  15  -5   1  269.07   22.50
 -15  10  -1  256.27   21.70
 -10  15   1  268.07   18.00
  15 -10   1  296.07   26.10
   5  10  -1  271.67   15.00
 -15   5  -1  280.47   20.30
  -5  15   1  279.77   18.70
 -10  -5   1  234.88   19.00
   5  10  -1  258.77   19.70
   5  10  -1  277.97   19.00
  10 -15  -1  282.67   25.10
  15 -10   1  273.17   18.00
 -11  15   1  121.29   13.20
  15  -4   1  150.58   20.90
 -15  11  -1  103.79   17.60
  11   4  -1  139.29   15.90
   4 -15  -1  121.29   19.30
  11   4  -1  129.59   11.20
 -11  15   1  102.39   17.40
   4  11  -1  125.39   15.00
  -4  15   1  106.99   19.80
  15 -11   1  128.09   11.60
 -15   4  -1  160.48   16.20
  15 -11   1  108.29   17.40
  11 -15  -1  160.48   20.80
   4  11  -1  118.19    9.40
 -11  -4   1   91.89   14.70
   4  11  -1  123.99   13.90
  -4  15   1  122.49   13.80
  15  -3   1  912.21   49.40
  12   3  -1  884.71   44.90
  12   3  -1  948.31   51.79
 -15  12  -1 1068.89   56.39
   3 -15  -1  912.11   47.90
  15  -3   1  978.60   48.80
 -12  15   1  900.91   46.20
 -12  15   1  865.21   49.50
   3  12  -1  873.21   46.50
 -12  -3   1  886.51   45.90
  15 -12   1  898.71   50.09
  15 -12   1  840.82   44.20
  12 -15  -1  804.32   49.20
   3  12  -1  892.31   44.20
  -3  15   1  951.60   46.60
  -3  15   1  946.91   53.09
   3  12  -1  855.81   46.70
  13   2  -1  337.27   22.50
   2 -15  -1  373.16   24.30
  15  -2   1  381.86   25.00
  13   2  -1  338.17   20.10
  15  -2   1  318.97   27.20
 -13  15   1  310.57   25.40
 -13  15   1  297.17   23.30
 -15  13  -1  322.87   25.80
  13 -15  -1  351.46   41.70
   2  13  -1  350.06   22.70
   2  13  -1  350.36   18.60
 -13  -2   1  353.96   20.60
   2  13  -1  335.67   22.60
  -2  15   1  342.67   34.20
 -15   2  -1  334.67   22.30
  -2  15   1  341.67   21.70
  15 -13   1  317.97   27.80
 -14  15   1  106.09   18.50
   1 -15  -1  115.09   17.60
 -15  14  -1   81.59   13.00
  15  -1   1  136.09   17.30
  15  -1   1   88.39   16.80
  14   1  -1  109.79   14.40
  14   1  -1  112.39   12.10
  -1  15   1  118.59   13.90
 -14  -1   1  131.89   12.50
  15 -14   1   94.19   18.60
  -1  15   1  109.89   21.40
   1  14  -1   98.79   14.80
   1  14  -1  136.99   18.70
  14 -15  -1  115.19   18.20
   1  14  -1  111.09   10.10
  15   0  -1  241.08   18.70
  15   0   1  192.18   18.60
  15   0  -1  222.08   17.40
 -15  15   1  206.58   16.90
 -15  15   1  223.98   20.20
 -15  15  -1  210.48   19.80
   0 -15  -1  203.78   20.10
  15   0   1  211.98   27.00
   0  15  -1  215.78   19.00
  15 -15   1  208.48   27.40
 -15   0   1  226.38   15.90
   0  15  -1  217.88   14.10
   0  15   1  188.78   31.50
 -15   0  -1  210.88   17.10
  15 -15  -1  275.37   26.30
   0  15   1  215.28   17.90
  15   1   1  218.38   27.20
 -15  16  -1  237.98   21.10
 -16  15   1  232.78   17.80
 -16  15   1  249.08   20.90
  16  -1  -1  257.17   19.00
  16  -1  -1  247.48   20.10
  -1 -15  -1  254.87   20.60
   1  15   1  237.68   34.10
 -16   1   1  235.98   17.30
  16 -15  -1  260.97   25.80
   1  15   1  260.57   19.80
 -15  -1  -1  258.97   18.90
  -1  16  -1  255.57   19.70
  -1  16  -1  255.47   20.10
  15 -16   1  243.18   27.30
 -17  15   1   33.20   13.30
 -17  15   1   24.10    9.00
  17  -2  -1   41.80   10.30
  -2 -15  -1   38.60   11.40
  15   2   1   17.40   16.80
 -15  17  -1   13.90   11.10
  17  -2  -1   32.60   12.30
  -2  17  -1   28.50   10.30
  17 -15  -1   47.10   17.50
  -2  17  -1   44.70   11.20
   2  15   1   18.50   20.20
 -17   2   1   53.49   11.00
 -15  -2  -1   34.30    9.90
   2  15   1   33.50    9.80
  15 -17   1   27.80   18.40
  18  -3  -1 1040.30   56.49
 -15  18  -1 1147.59   58.19
 -18  15   1 1209.88   57.19
  -3 -15  -1 1064.69   55.79
 -18  15   1 1132.99   56.69
  18  -3  -1 1156.18   57.99
   3 -18   1 1187.98   60.79
  15   3   1 1126.39   62.69
   3  15   1 1158.28   64.29
 -15  -3  -1 1097.29   56.99
  15 -18   1 1197.58   63.29
  -3  18  -1 1086.59   56.69
 -18   3   1 1018.10   55.69
  18 -15  -1 1075.99   61.29
   3  15   1 1108.79   57.19
  -3  18  -1 1138.09   58.19
 -19  15   1  129.99   17.00
  19  -4  -1  148.69   16.80
  -4 -15  -1  132.39   15.00
 -15  19  -1  126.69   19.30
  19  -4  -1  161.68   20.80
   4 -19   1  143.69   20.40
  15   4   1  122.89   21.60
 -19  15   1  108.39   16.80
  15 -19   1  139.29   23.50
  -4  19  -1  173.48   18.00
 -15  -4  -1  153.58   17.30
  19 -15  -1  192.18   28.20
  -4  19  -1  144.79   18.70
   4  15   1  153.98   16.40
   4  15   1  133.99   25.40
   5 -20   1   34.20   17.80
  20  -5  -1   58.69   17.50
 -20  15   1   48.60   11.70
  -5 -15  -1   48.10    9.70
 -15  20  -1   44.10   13.30
  15   5   1   41.30   20.00
  20  -5  -1   37.50   10.90
   5  15   1   59.79   11.70
  -5  20  -1   62.89   13.00
  20 -15  -1   71.49   20.00
 -15  -5  -1   53.29   11.60
   5  15   1   26.30   23.70
  15 -20   1   25.60   21.30
  -5  20  -1   43.40   12.90
  21  -6  -1   57.99   11.90
  15   6   1   36.40   21.30
  21  -6  -1   86.19   19.10
   6 -21   1   57.59   19.80
 -15  21  -1   58.39   14.10
  21 -15  -1   81.69   20.90
  -6  21  -1   49.99   13.80
  -6  21  -1   76.49   12.40
 -15  -6  -1   59.69   12.40
  15 -21   1   48.00   22.80
   6  15   1   38.80   24.40
  22  -7  -1   59.89   19.50
   7 -22   1   40.20   20.50
 -22  15   1   59.59   13.20
  15   7   1   28.40   22.50
  22  -7  -1   57.89   11.90
 -15  22  -1   58.49   14.60
 -15  -7  -1   58.99   12.70
  15 -22   1   33.20   23.80
  22 -15  -1   49.70    9.60
   7  15   1   27.90   24.50
  -7  22  -1   41.70   14.00
  -7  22  -1   69.59   12.40
  22 -15  -1   93.49   21.90
  15   8   1   -6.00   22.40
   8 -23   1   -4.00   21.50
  23  -8  -1   19.70   11.20
  23  -8  -1   27.70   19.50
 -15  23  -1  -10.40   13.90
  -8 -15  -1   -0.80   13.70
 -23  15   1   17.20   12.70
  15 -23   1   -4.90   23.60
   8  15   1  -15.60   24.40
  23 -15  -1   13.10    8.40
 -15  -8  -1   31.30   12.80
  -8  23  -1   20.10   14.00
  23 -15  -1   25.40   22.00
  -8  23  -1   31.10   11.10
  24  -9  -1  575.84   43.40
  15   9   1  596.14   48.10
 -24  15   1  656.73   38.00
 -15  24  -1  631.34   39.10
  24  -9  -1  607.84   35.40
   9 -24   1  583.34   46.00
  -9  24  -1  673.23   35.10
  15 -24   1  636.64   47.70
  24 -15  -1  590.84   45.20
 -24   9   1  726.83   38.90
  24 -15  -1  593.24   33.70
  -9  24  -1  618.74   39.00
   9  15   1  591.74   49.00
 -15  -9  -1  638.94   37.80
 -25  15   1   64.79   16.00
 -15  25  -1   42.50   15.00
  25 -10  -1   61.59   12.30
  10 -25   1   26.10   24.10
  25 -10  -1   49.40   21.70
  15  10   1   20.80   24.50
 -10 -15  -1   31.30   14.70
  25 -15  -1   64.99   23.80
  10  15   1   22.00   25.00
 -10  25  -1   66.49   11.30
 -15 -10  -1   60.79   14.70
 -10  25  -1   46.80   15.70
  15 -25   1   52.29   27.70
  25 -15  -1   46.20   10.50
  26 -11  -1   19.30   12.00
  26 -11  -1   -9.30   20.70
 -26  15   1   44.70   17.00
 -11 -15  -1   29.90   14.80
 -15  26  -1   18.20   15.60
  15  11   1    6.60   24.50
  11 -26   1    1.60   24.60
 -11  26  -1   26.60   15.70
  26 -15  -1  -19.80   22.80
  11  15   1    1.50   24.70
 -26  11   1   54.89   16.30
  26 -15  -1   27.80   10.40
 -11  26  -1   24.50    9.40
  15 -26   1   22.10   26.70
 -15 -11  -1   32.10   14.30
 -27  15   1   39.20   15.70
  15  12   1   -2.30   24.90
 -15  27  -1   17.70   15.80
  27 -12  -1  -31.90   19.60
  12 -27   1    8.40   25.30
 -12 -15  -1   19.70   14.50
  27 -12  -1   26.00   11.50
  27 -15  -1   17.70   10.20
 -12  27  -1    9.50   14.90
 -27  12   1   50.69   15.70
  15 -27   1    6.00   26.90
  12  15   1   10.00   23.90
  27 -15  -1  -10.50   22.10
 -15 -12  -1   25.00   14.20
 -13 -15  -1   19.20   13.80
  15  13   1   17.50   23.80
  28 -13  -1   36.20   11.50
  13 -28   1   22.30   25.20
 -15  28  -1   24.20   14.80
 -28  15   1   45.70   16.50
 -15 -13  -1   16.10   13.90
  13  15   1    7.30   24.00
 -28  13   1   36.60   17.30
 -13  28  -1   23.40   14.80
  15 -28   1   14.00   26.20
  28 -15  -1   22.30   10.50
  15  14   1   60.79   24.50
 -14 -15  -1   69.49   15.30
  29 -14  -1   75.09   12.10
 -15  29  -1   60.79   15.50
 -29  15   1   93.89   19.20
  14 -29   1   70.79   27.00
  14  15   1   48.40   24.40
 -14  29  -1   59.49   15.90
 -15 -14  -1   67.79   15.00
 -29  14   1   91.99   19.80
  15 -29   1   82.19   27.40
  29 -15  -1   67.79   12.20
  15  15   1   57.59   23.70
  15 -30   1   81.59   27.30
  30 -15  -1   57.99   11.90
 -15 -15  -1   41.30   13.80
 -15  30  -1   42.00   15.20
  -8  16   1  843.62   47.20
   8   8  -1  760.92   39.20
   8   8  -1  772.72   42.30
  16  -8   1  862.71   46.10
  -8  16   1  833.42   41.90
   8   8  -1  790.82   41.60
  16  -8   1  838.72   42.50
   8 -16  -1  740.53   44.50
   9   7  -1  394.06   23.30
   9   7  -1  403.06   24.80
  16  -7   1  416.36   25.90
  -9  16   1  375.46   23.70
  16  -7   1  407.66   29.20
  -9  16   1  319.87   31.40
   9   7  -1  388.06   20.60
   7 -16  -1  409.56   28.00
   7   9  -1  408.56   23.80
   9 -16  -1  372.96   28.50
  -7  16   1  396.46   34.20
  16  -9   1  384.06   24.60
  -7  16   1  400.26   23.90
   7   9  -1  386.66   20.40
  16  -9   1  399.46   30.40
   7   9  -1  404.16   24.60
 -10  16   1  578.24   38.80
 -10  16   1  632.54   33.00
  16  -6   1  644.54   37.60
  10   6  -1  641.94   30.50
  16  -6   1  613.34   35.30
   6 -16  -1  534.65   35.60
  10 -16  -1  612.74   37.10
  16 -10   1  625.34   38.40
   6  10  -1  621.44   34.10
  16 -10   1  592.74   32.40
   6  10  -1  628.64   33.20
  -6  16   1  590.94   32.80
 -16   6  -1  544.55   41.70
   6  10  -1  616.44   30.30
 -11  16   1 1645.74   83.49
 -16  11  -1 1830.42   82.49
  16  -5   1 1703.23   82.89
 -11  16   1 1761.52   80.79
  11   5  -1 1567.44   82.59
  16  -5   1 1551.94   88.49
  11   5  -1 1694.33   79.09
   5 -16  -1 1504.15   81.69
  -5  16   1 1684.13   80.89
   5  11  -1 1637.24   78.79
  11 -16  -1 1424.46   82.39
 -11  -5   1 1741.23   80.49
   5  11  -1 1561.24   80.99
 -16   5  -1 1697.43   81.49
  16 -11   1 1596.54   79.59
   5  11  -1 1614.34   80.79
  16 -11   1 1668.73   83.99
  -5  16   1 1705.43   85.29
  12   4  -1   61.19   11.00
  16  -4   1   87.09   15.50
 -12  16   1   45.00    9.00
  16  -4   1   65.59   14.60
 -12  16   1   34.90   16.10
  12   4  -1   55.59    9.50
 -16  12  -1   38.40   11.60
   4  12  -1   86.09   14.20
  -4  16   1   65.99   13.10
  16 -12   1   54.89   16.70
   4  12  -1   72.49   14.20
  12 -16  -1   58.29   18.80
 -12  -4   1   56.09    8.70
   4  12  -1   63.69    7.60
 -16   4  -1   83.99   14.40
  -4  16   1   61.19   19.30
  16 -12   1   50.59    7.30
  16  -3   1  259.57   23.00
  16  -3   1  231.98   24.30
 -13  16   1  209.98   24.20
 -16  13  -1  223.88   20.80
  13   3  -1  233.38   19.80
   3 -16  -1  253.77   22.30
  13   3  -1  246.28   15.90
 -13  16   1  226.18   17.60
 -16   3  -1  254.37   18.70
   3  13  -1  279.27   21.20
  16 -13   1  210.88   14.00
  13 -16  -1  266.47   26.30
  -3  16   1  244.18   31.40
   3  13  -1  231.78   20.00
 -13  -3   1  246.78   17.00
  -3  16   1  240.48   18.60
   3  13  -1  243.88   14.40
 -14  16   1   25.10    8.30
  14   2  -1   39.40    9.00
  14   2  -1   42.50   10.20
  16  -2   1   36.60   15.10
   2 -16  -1   53.99   13.40
 -14  16   1   20.20   13.80
 -16  14  -1   12.70   10.90
  16  -2   1   53.49   12.80
  -2  16   1   37.00   20.40
   2  14  -1   26.30    9.90
   2  14  -1   35.20   11.20
  14 -16  -1   62.19   16.80
   2  14  -1   40.60    6.70
 -14  -2   1   34.20    8.20
  16 -14   1   34.70   16.90
 -16   2  -1   66.09   13.40
 -15  16   1   93.89   15.00
  16  -1   1   77.29   13.20
 -16  15  -1   55.99   12.60
  15   1  -1   85.19   12.00
 -15  16   1   67.09   13.50
  15   1  -1   80.09   12.10
   1 -16  -1   98.09   14.10
   1  15  -1   81.89   14.70
  -1  16   1   82.09   13.70
  15 -16  -1   87.79   18.00
  16 -15   1   61.19   17.90
 -15  -1   1   91.49   12.10
  -1  16   1   74.89   22.40
   1  15  -1   89.69   12.70
   1  15  -1   84.39    9.50
  16   0  -1  372.26   22.30
  16   0  -1  364.06   23.00
  16   0   1  324.97   30.10
 -16  16  -1  338.27   24.80
 -16  16   1  340.57   25.40
 -16  16   1  353.16   22.20
  16   0   1  302.07   23.80
   0 -16  -1  328.17   24.70
   0  16   1  327.87   36.00
 -16   0  -1  343.17   22.40
   0  16  -1  378.76   24.20
  16 -16   1  362.46   32.40
   0  16   1  342.37   22.80
 -16   0   1  341.07   21.30
   0  16  -1  348.97   23.40
  16 -16  -1  332.07   29.10
  17  -1  -1 1373.36   65.19
  -1 -16  -1 1299.57   64.99
 -17  16   1 1352.66   64.59
  16   1   1 1125.79   64.09
  16   1   1 1343.87   69.29
  17  -1  -1 1237.48   66.39
 -16  17  -1 1405.96   66.29
 -17  16   1 1256.17   67.39
   1  16   1 1355.86   70.79
 -16  -1  -1 1188.18   64.29
  16 -17   1 1378.56   70.49
 -17   1   1 1228.98   63.69
  -1  17  -1 1271.17   65.49
  17 -16  -1 1250.47   67.89
  -1  17  -1 1277.27   64.89
   1  16   1 1293.97   65.29
 -18  16   1  244.08   20.10
  18  -2  -1  238.78   19.90
 -18  16   1  261.47   21.60
  16   2   1  253.87   29.90
  -2 -16  -1  260.57   21.10
 -16  18  -1  248.48   22.60
  18  -2  -1  267.47   22.50
   2 -18   1  257.77   26.10
  16 -18   1  244.18   30.60
   2  16   1  286.27   20.80
  18 -16  -1  315.67   29.90
  -2  18  -1  277.17   24.70
 -16  -2  -1  279.47   21.20
   2  16   1  257.47   35.80
 -18   2   1  256.87   18.50
  -2  18  -1  255.97   21.40
 -19  16   1  713.53   38.00
 -16  19  -1  699.33   39.30
  -3 -16  -1  611.74   36.60
  19  -3  -1  683.13   37.60
  16   3   1  652.93   45.00
   3 -19   1  679.13   43.40
  19  -3  -1  687.53   39.20
 -19  16   1  668.63   37.50
  19 -16  -1  700.23   44.20
 -19   3   1  654.73   36.40
   3  16   1  695.13   49.10
  16 -19   1  686.03   46.50
 -16  -3  -1  658.13   37.60
  -3  19  -1  691.13   38.80
   3  16   1  696.43   38.50
  20  -4  -1  364.86   28.60
 -20  16   1  383.86   26.40
  20  -4  -1  365.46   24.70
  16   4   1  324.77   35.80
 -16  20  -1  358.46   27.80
   4 -20   1  365.06   31.90
 -20  16   1  345.37   25.60
  -4 -16  -1  377.66   23.50
   4  16   1  379.16   40.30
 -20   4   1  453.05   32.50
  16 -20   1  347.97   36.10
   4  16   1  391.06   25.10
  -4  20  -1  382.36   28.10
  -4  20  -1  423.46   27.50
  20 -16  -1  379.36   33.10
 -16  -4  -1  386.16   25.80
   5 -21   1   59.99   19.30
  -5 -16  -1   70.79   11.20
 -16  21  -1   74.59   15.50
  21  -5  -1   74.79   12.80
 -21  16   1   77.29   13.20
 -21  16   1   84.99   14.00
  16   5   1   43.70   21.60
  -5  21  -1  104.79   16.70
  21 -16  -1  106.69   22.00
 -16  -5  -1   91.69   18.40
  -5  21  -1   70.49   13.80
   5  16   1   50.59   24.30
   5  16   1  108.59   16.80
  16 -21   1   41.20   22.80
  22  -6  -1   55.69   12.20
  16   6   1   38.90   22.60
 -16  22  -1   35.50   14.10
  22  -6  -1   52.59   19.10
   6 -22   1   38.80   20.30
 -22  16   1   50.69   13.00
 -16  -6  -1   58.29   13.00
  -6  22  -1   76.59   14.70
  22 -16  -1   77.79   22.00
  16 -22   1   39.20   24.10
  -6  22  -1   38.10   13.80
   6  16   1   34.40   24.90
 -23  16   1  154.78   21.30
  16   7   1  132.99   26.00
 -16  23  -1  135.29   21.90
  23  -7  -1  164.88   18.50
  23  -7  -1  155.28   27.50
   7 -23   1  167.98   25.00
  23 -16  -1  173.98   30.00
 -16  -7  -1  159.58   21.20
  -7  23  -1  146.99   21.90
  -7  23  -1  166.38   19.70
   7  16   1  124.29   27.20
  16 -23   1  129.39   27.60
 -16  24  -1  130.69   23.60
 -24  16   1  145.69   20.90
  16   8   1  128.09   26.80
  24  -8  -1  169.88   24.30
   8 -24   1  149.19   25.90
  24  -8  -1  145.09   18.30
  -8 -16  -1  144.59   22.50
  24 -16  -1  137.69   14.60
   8  16   1  134.59   28.40
  24 -16  -1  166.08   26.40
  -8  24  -1  158.58   18.60
  16 -24   1  181.58   30.20
  -8  24  -1  145.79   22.70
 -16  -8  -1  160.58   22.10
  -9 -16  -1  112.49   17.50
  25  -9  -1  103.19   17.60
  16   9   1  109.09   27.70
  25  -9  -1  119.79   23.40
 -25  16   1  124.59   22.10
   9 -25   1  100.59   25.70
 -16  25  -1  109.79   18.40
  25 -16  -1  101.09   13.70
 -16  -9  -1  113.49   20.30
  16 -25   1  120.89   29.30
  -9  25  -1   94.59   17.60
   9  16   1   82.69   27.40
  25 -16  -1  109.99   25.60
  -9  25  -1  146.29   17.80
  10 -26   1  376.16   40.50
 -26  16   1  460.25   30.80
  16  10   1  380.96   42.10
 -10 -16  -1  402.26   29.80
  26 -10  -1  412.06   27.30
 -16  26  -1  383.46   30.60
  26 -10  -1  355.46   36.40
  10  16   1  360.06   41.20
 -10  26  -1  414.26   31.40
  16 -26   1  413.46   44.50
  26 -16  -1  340.47   36.80
 -16 -10  -1  411.96   30.00
  26 -16  -1  399.66   24.90
 -10  26  -1  468.55   26.50
  11 -27   1  184.18   29.50
  27 -11  -1  154.18   25.40
  27 -11  -1  179.98   18.40
 -16  27  -1  139.09   24.70
 -11 -16  -1  168.88   23.50
 -27  16   1  226.58   24.90
  16  11   1  167.98   29.20
  11  16   1  140.59   28.20
  27 -16  -1  155.48   16.70
  16 -27   1  190.58   31.20
 -11  27  -1  171.78   25.70
 -11  27  -1  211.48   17.20
 -16 -11  -1  151.28   24.00
  27 -16  -1  125.29   26.70
 -16  28  -1   12.00   15.30
  12 -28   1   12.20   24.70
 -12 -16  -1   17.50   13.60
  28 -12  -1   31.00   11.40
  16  12   1    4.40   23.20
 -28  16   1   30.50   17.10
 -12  28  -1   16.40   15.30
  16 -28   1   32.40   27.30
 -28  12   1   45.70   17.70
  28 -16  -1   25.50   10.10
  12  16   1    9.90   23.30
 -16 -12  -1   12.00   14.70
  16  13   1    9.20   22.50
  13 -29   1   25.90   25.30
 -13 -16  -1   13.50   13.70
 -29  16   1   39.20   17.60
  29 -13  -1   25.50   10.90
 -16  29  -1   17.40   14.50
 -13  29  -1   17.40   14.70
  29 -16  -1   24.90   10.30
 -16 -13  -1   30.90   14.50
  13  16   1   17.70   23.70
  16 -29   1   31.20   26.80
 -29  13   1   43.30   16.00
  14 -30   1  160.28   28.70
  30 -14  -1  113.59   16.40
 -30  16   1  146.49   26.90
  16  14   1   88.89   23.90
 -14 -16  -1  101.79   21.10
 -16  30  -1   80.99   16.20
  14  16   1  121.29   25.90
 -14  30  -1  111.19   22.40
  16 -30   1  108.39   28.80
 -16 -14  -1   73.39   16.50
  30 -16  -1  113.69   15.90
 -16  31  -1  113.99   22.30
 -31  16   1  156.78   22.10
  31 -15  -1  111.29   16.90
  16  15   1  107.19   25.80
 -15 -16  -1  125.89   22.00
  15 -31   1  158.58   29.80
 -31  15   1  185.38   28.60
 -16 -15  -1  123.39   21.60
  16 -31   1  116.49   28.80
 -15  31  -1  121.29   21.70
  15  16   1  108.49   24.90
  31 -16  -1  125.49   17.70
  32 -16  -1   95.49   16.20
 -16 -16  -1   65.09   15.00
  16  16   1  106.69   24.60
 -16  32  -1   90.09   16.90
  16 -32   1   99.59   28.00
 -32  16   1  157.78   30.50
  32 -16  -1   40.10   21.10
  -9  17   1   13.50   17.20
   9   8  -1   40.10   11.10
  17  -8   1   54.39   17.00
   9   8  -1   44.90    6.70
 -17   9  -1   25.80   10.80
  17  -8   1   30.50   11.40
   8 -17  -1   58.19   14.80
   9   8  -1   41.80    8.70
  -9  17   1   29.50    9.00
  -8  17   1   31.90    8.90
 -17   8  -1   28.00   10.90
   8   9  -1   38.50    9.10
  17  -9   1   44.80   10.60
   8   9  -1   39.70    6.80
   9 -17  -1   53.79   15.00
  17  -9   1   37.80   17.00
  17  -7   1   57.39   12.50
  10   7  -1   54.89    7.60
 -10  17   1   46.60   17.50
 -17  10  -1   49.60   12.30
 -10  17   1   57.79    9.50
   7 -17  -1   73.89   15.10
  10   7  -1   49.10   11.40
  17 -10   1   56.79   10.00
 -17   7  -1   54.59   11.90
  17 -10   1   61.69   18.20
  -7  17   1   68.49   19.40
   7  10  -1   63.79    9.90
  -7  17   1   57.29    9.80
   7  10  -1   43.50    7.10
  10 -17  -1   84.69   17.50
   7  10  -1   55.79   11.80
  17  -6   1   12.20   15.80
   6 -17  -1   19.60   13.70
 -11  17   1    0.20    7.80
  11   6  -1   10.30    5.60
  17  -6   1    5.60   12.70
 -11  17   1  -27.40   16.80
  11   6  -1    6.80   10.10
 -17  11  -1  -10.70   10.10
   6  11  -1    6.60    5.10
  11 -17  -1   17.10   15.40
 -17   6  -1    9.00   10.30
  17 -11   1    5.30    7.70
   6  11  -1   -1.10   10.00
  -6  17   1    7.30    8.40
 -11  -6   1   -5.60    7.80
  17 -11   1   11.10   17.10
   6  11  -1    8.70    8.30
  -6  17   1    1.80   18.10
  17  -5   1   90.19   16.60
   5 -17  -1  101.49   15.70
 -12  17   1   70.09   13.30
  12   5  -1   79.39    9.60
  12   5  -1   82.49   12.80
 -12  17   1   77.19   17.60
  17  -5   1   78.79   14.50
  17 -12   1   78.49   19.10
  -5  17   1   79.99   20.70
   5  12  -1   72.09    8.10
  12 -17  -1   88.99   16.80
   5  12  -1   78.49   12.60
 -17   5  -1  100.89   16.20
  17 -12   1   69.99   11.00
 -12  -5   1   72.89   12.70
  -5  17   1   84.59   14.50
 -13  17   1  247.48   27.80
  17  -4   1  299.87   25.30
 -13  17   1  318.97   20.40
  13   4  -1  304.37   18.00
   4 -17  -1  306.37   25.30
  17  -4   1  308.37   25.50
  13   4  -1  309.17   21.90
 -17  13  -1  293.87   23.40
  13 -17  -1  299.57   26.70
 -17   4  -1  310.27   21.60
  -4  17   1  306.97   32.80
   4  13  -1  290.97   20.90
 -13  -4   1  332.67   20.40
   4  13  -1  280.37   22.60
  17 -13   1  284.57   17.40
  17 -13   1  328.37   30.10
   4  13  -1  299.27   16.90
 -14  17   1  245.78   18.40
 -14  17   1  212.08   24.70
 -17  14  -1  204.58   21.50
  14   3  -1  212.48   19.10
  17  -3   1  265.77   22.70
  14   3  -1  220.48   15.80
  17  -3   1  241.18   24.50
  14 -17  -1  246.58   27.00
  17 -14   1  214.98   27.50
 -17   3  -1  251.47   18.70
   3  14  -1  224.78   18.40
   3  14  -1  221.18   20.00
  -3  17   1  236.58   18.20
   3  14  -1  222.18   14.20
 -14  -3   1  233.18   17.10
  17 -14   1  212.28   13.30
  -3  17   1  225.48   33.70
  15   2  -1   83.39   12.40
  15   2  -1  106.09   16.40
 -15  17   1   84.19   16.80
 -15  17   1   65.39   13.40
   2 -17  -1  121.69   19.10
  17  -2   1  103.59   14.60
 -17  15  -1   55.69   13.30
   2  15  -1   75.49   16.10
   2  15  -1   82.99   11.70
 -15  -2   1  104.19   13.10
  17 -15   1   87.09   20.60
  -2  17   1   84.09   22.30
   2  15  -1   89.39   13.50
 -17   2  -1  103.59   15.10
  15 -17  -1  101.69   18.80
  -2  17   1   84.09   15.50
  16   1  -1  339.67   21.50
  17  -1   1  349.57   25.30
 -16  17   1  339.37   29.90
 -16  17   1  331.27   23.00
  17  -1   1  361.26   30.10
 -17  16  -1  331.47   26.80
   1 -17  -1  376.36   26.00
  16   1  -1  352.86   23.50
  -1  17   1  367.86   24.10
 -16  -1   1  328.77   21.80
 -17   1  -1  363.76   23.60
   1  16  -1  360.76   25.10
  17 -16   1  330.47   32.60
  16 -17  -1  345.77   31.40
  -1  17   1  370.66   36.50
   1  16  -1  344.67   24.10
  17   0  -1   44.00   11.60
 -17  17  -1   22.50   11.80
  17   0   1   27.40   17.80
 -17  17   1   35.20   22.50
   0 -17  -1   57.29   14.60
 -17  17   1   33.00    9.70
  17 -17   1   42.90   19.90
   0  17   1   33.70   10.30
   0  17  -1   42.60   11.00
  17 -17  -1   78.39   19.50
   0  17  -1   58.59   13.20
 -17   0   1   30.60    8.60
 -17   0  -1   43.00   10.00
   0  17   1   35.20   21.90
 -18  17   1   59.79   14.40
  -1 -17  -1  107.19   18.70
  17   1   1   38.30   13.80
  17   1   1   63.59   19.90
  18  -1  -1  110.59   16.70
 -17  18  -1   52.99   14.20
 -18  17   1   52.29   11.00
  18  -1  -1   73.59   12.70
  17 -18   1   67.29   21.90
   1  17   1   76.39   25.10
  18 -17  -1  105.29   20.00
  -1  18  -1  100.99   18.20
   1  17   1   87.19   15.90
  -1  18  -1   78.89   13.20
  17   2   1  518.25   39.70
 -17  19  -1  562.34   34.80
  19  -2  -1  644.44   34.60
 -19  17   1  555.64   33.30
  -2 -17  -1  551.54   33.30
 -19  17   1  533.35   32.50
  19  -2  -1  555.74   32.40
  17 -19   1  519.15   43.60
   2  17   1  549.45   32.90
  -2  19  -1  551.54   33.50
 -19   2   1  577.34   33.70
  -2  19  -1  558.04   33.70
   2  17   1  575.44   44.10
 -17  -2  -1  530.05   32.40
  19 -17  -1  591.54   40.40
   3 -20   1   30.80   18.50
 -20  17   1   81.29   14.80
  17   3   1   53.69   21.60
  -3 -17  -1   74.99   13.10
  20  -3  -1   84.09   13.20
 -20  17   1   74.69   14.10
  20  -3  -1   81.99   16.90
 -17  20  -1   59.19   14.80
   3  17   1   62.89   26.00
 -17  -3  -1   92.49   16.80
  20 -17  -1  107.59   21.10
   3  17   1   98.19   18.60
  -3  20  -1   64.89   14.10
  -3  20  -1   93.09   16.00
  17 -20   1   83.69   24.90
  21  -4  -1   11.60   16.20
  17   4   1   -3.60   20.30
  21  -4  -1    3.90   11.40
   4 -21   1   -8.20   17.60
 -21  17   1  -14.60   10.90
  -4 -17  -1    5.30   11.20
 -21  17   1   15.40   13.40
 -17  21  -1   -0.10   13.20
  -4  21  -1    9.20   12.60
  17 -21   1    4.00   23.90
   4  17   1   -4.00   24.00
   4  17   1   26.10   11.30
 -17  -4  -1   22.50   12.00
  21 -17  -1   38.70   20.80
  -4  21  -1   29.80   14.40
  -5 -17  -1  394.06   25.10
 -22  17   1  416.36   27.40
  17   5   1  389.36   39.10
  22  -5  -1  419.56   32.40
 -17  22  -1  412.76   31.60
   5 -22   1  384.46   35.80
  22  -5  -1  397.06   27.20
 -22  17   1  421.36   27.80
   5  17   1  377.76   40.70
  22 -17  -1  395.06   36.00
  -5  22  -1  317.57   33.80
  -5  22  -1  390.86   29.50
  17 -22   1  417.26   40.40
   5  17   1  431.16   27.60
 -17  -5  -1  419.86   28.30
 -22   5   1  487.55   27.20
 -17  23  -1    1.30   14.30
   6 -23   1  -16.00   20.10
  17   6   1  -11.00   22.30
 -23  17   1   -2.90   12.80
  23  -6  -1   12.80   11.90
  23  -6  -1   23.50   18.90
  -6  23  -1   13.00   13.70
 -17  -6  -1   25.60   12.30
   6  17   1  -17.50   24.30
  23 -17  -1   57.69   22.20
  17 -23   1    3.50   25.80
  24  -7  -1    2.30   20.00
 -24  17   1   13.40   13.90
  17   7   1   12.80   23.90
   7 -24   1   -9.30   21.70
  24  -7  -1   26.30   12.30
 -17  24  -1    9.80   14.60
  -7  24  -1   17.30   14.60
  24 -17  -1   35.70   22.60
  17 -24   1    3.30   26.70
  -7  24  -1   35.90   14.20
   7  17   1   -6.20   24.60
 -17  -7  -1   34.60   13.70
  25  -8  -1   40.70   21.50
  25  -8  -1   92.79   14.30
  17   8   1   56.79   24.90
 -17  25  -1   75.39   16.80
   8 -25   1   61.29   24.40
  -8 -17  -1   71.59   16.60
 -25  17   1   75.49   16.30
  -8  25  -1   82.89   17.10
   8  17   1   48.80   27.10
  17 -25   1   79.69   28.90
  25 -17  -1   87.59   24.80
  -8  25  -1  121.99   19.40
 -17  -8  -1   77.39   15.40
  17   9   1    3.30   23.80
  -9 -17  -1    8.10   14.10
  26  -9  -1   -4.50   21.30
 -17  26  -1   13.00   15.30
   9 -26   1   -0.10   23.10
 -26  17   1   28.30   15.40
  26  -9  -1   22.70   12.50
  -9  26  -1   10.70   15.30
   9  17   1   -5.60   24.80
 -17  -9  -1   18.20   14.90
  17 -26   1    8.10   27.20
  26 -17  -1   16.20    9.60
  -9  26  -1   44.40   12.80
  26 -17  -1  -14.10   23.10
  27 -10  -1  103.49   17.00
 -17  27  -1   74.39   16.50
 -27  17   1  129.89   21.80
 -10 -17  -1   77.49   16.00
  17  10   1  104.49   26.20
  10 -27   1   74.49   26.40
  27 -10  -1   50.69   22.10
  17 -27   1  146.59   30.20
 -17 -10  -1  110.59   22.00
 -10  27  -1   80.89   16.90
  27 -17  -1   79.19   14.10
  10  17   1  103.29   26.50
  27 -17  -1   37.50   23.60
  28 -11  -1  181.28   19.00
 -28  17   1  222.38   25.40
  17  11   1  184.48   33.90
  28 -11  -1  131.29   24.10
 -17  28  -1  183.08   24.40
  11 -28   1  182.38   29.60
 -11 -17  -1  170.48   23.10
  28 -17  -1  112.69   26.30
  28 -17  -1  167.58   16.50
  11  17   1  159.28   27.70
 -11  28  -1  169.58   23.80
 -11  28  -1  234.18   18.50
 -28  11   1  244.38   27.10
  17 -28   1  215.98   33.30
 -17 -11  -1  192.28   22.90
  29 -12  -1   55.69   12.70
  17  12   1   59.89   23.70
  12 -29   1   39.50   25.20
 -17  29  -1   42.80   15.40
 -12 -17  -1   50.19   14.80
 -29  17   1   79.39   17.40
 -12  29  -1   44.00   15.10
  29 -17  -1   36.70   10.50
  17 -29   1   56.49   27.50
 -17 -12  -1   54.29   15.70
  12  17   1   50.79   24.80
 -29  12   1   85.09   16.50
 -30  17   1  181.38   26.50
  30 -13  -1  136.49   16.60
 -13 -17  -1  104.59   20.60
  13 -30   1  141.49   27.80
 -17  30  -1  126.09   22.40
  17  13   1  118.79   23.80
  30 -17  -1   73.89   23.00
  13  17   1  107.69   26.80
 -13  30  -1  123.19   22.90
 -17 -13  -1  131.69   21.50
  30 -17  -1  115.39   15.20
  17 -30   1  153.68   29.60
  17  14   1    6.90   20.80
 -17  31  -1    6.30   13.70
 -31  17   1   33.10   20.20
  14 -31   1   36.80   26.30
 -14 -17  -1    7.30   14.50
  31 -14  -1   12.30   11.00
 -31  14   1   32.20   17.10
 -14  31  -1    8.10   14.00
  14  17   1   17.60   23.00
  17 -31   1   18.90   25.60
 -17 -14  -1    9.90   14.70
  31 -17  -1    0.40    9.90
 -15 -17  -1   30.70   14.90
  17  15   1   57.69   21.60
  32 -15  -1   39.40   11.80
 -17  32  -1   33.40   14.70
  15 -32   1   66.39   27.20
  15  17   1   48.70   24.20
 -17 -15  -1   26.80   14.00
 -15  32  -1   50.99   15.90
  32 -17  -1   -3.20   20.40
  32 -17  -1   39.90   13.40
  17 -32   1   66.29   27.70
  17  16   1   33.50   22.20
 -16 -17  -1   19.40   14.70
 -17  33  -1   16.00   14.80
  33 -16  -1   29.00   12.00
 -33  17   1   45.50   23.80
 -16  33  -1   18.40   14.80
  33 -17  -1  -31.70   19.20
  16  17   1   25.10   21.80
  33 -17  -1   15.50   11.50
 -17 -16  -1   16.70   16.50
 -17  34  -1    2.20   14.50
  34 -17  -1  -26.40   19.30
 -34  17   1   47.30   18.90
  17  17   1    7.50   22.10
  34 -17  -1   -4.60   14.20
 -17 -17  -1   12.30   15.20
  17 -34   1   14.60   27.40
   9   9  -1 1028.70   53.49
   9   9  -1  990.50   54.29
   9   9  -1 1023.90   51.09
  -9  18   1  983.20   63.99
 -18   9  -1 1090.19   54.79
  -9  18   1 1086.69   53.99
  18  -9   1 1147.89   58.89
  18  -9   1 1086.69   54.29
   8 -18  -1  227.28   23.10
 -10  18   1  191.18   17.20
  18  -8   1  248.28   27.30
  10   8  -1  189.88   12.30
 -18  10  -1  158.38   19.30
  10   8  -1  193.88   18.80
  18  -8   1  209.78   19.90
   8  10  -1  205.58   12.20
  18 -10   1  194.98   17.50
  18 -10   1  216.88   28.80
   8  10  -1  209.78   19.60
  10 -18  -1  211.78   23.50
  -8  18   1  203.18   17.70
 -18   8  -1  189.58   19.90
  -8  18   1  191.28   29.80
   7 -18  -1  269.77   25.20
  11   7  -1  254.07   15.00
  18  -7   1  263.07   22.60
  11   7  -1  261.77   21.00
  18  -7   1  294.47   27.50
 -11  18   1  272.07   19.70
 -18  11  -1  240.88   21.90
 -11  18   1  226.28   28.90
  18 -11   1  268.77   18.50
   7  11  -1  254.07   20.70
   7  11  -1  254.97   15.00
  -7  18   1  275.87   23.70
  18 -11   1  274.27   29.20
  -7  18   1  261.97   31.90
 -18   7  -1  251.67   21.30
  11 -18  -1  269.57   25.90
   7  11  -1  258.17   21.40
 -11  -7   1  275.37   19.80
  18  -6   1  312.87   26.90
   6 -18  -1  286.77   24.30
 -18  12  -1  255.07   22.20
  12   6  -1  263.97   21.30
  12   6  -1  259.77   15.70
 -12  18   1  243.18   29.30
  18  -6   1  289.87   23.40
 -12  18   1  281.37   20.10
 -18   6  -1  264.27   21.70
 -12  -6   1  270.17   19.60
   6  12  -1  263.17   22.10
   6  12  -1  263.17   15.40
   6  12  -1  271.67   20.20
  18 -12   1  256.37   17.80
  -6  18   1  302.47   33.20
  12 -18  -1  269.87   25.30
  -6  18   1  284.47   21.60
  18  -5   1  263.67   24.10
 -13  18   1  258.37   19.70
 -18  13  -1  226.78   22.00
   5 -18  -1  309.77   25.30
  13   5  -1  266.97   16.30
  18  -5   1  276.77   26.40
 -13  18   1  218.78   28.00
  13   5  -1  261.87   21.50
  13 -18  -1  260.17   27.20
  -5  18   1  285.87   33.00
 -18   5  -1  274.17   21.70
  18 -13   1  254.17   16.90
  18 -13   1  253.57   30.80
 -13  -5   1  291.87   19.40
   5  13  -1  272.37   19.90
   5  13  -1  273.57   15.60
  -5  18   1  296.47   21.10
 -14  18   1  479.25   36.70
  14   4  -1  558.44   28.20
  14   4  -1  562.94   31.70
 -14  18   1  525.45   30.50
  18  -4   1  511.35   34.20
  18  -4   1  522.35   33.70
 -18  14  -1  553.24   32.80
   4 -18  -1  498.05   33.70
  18 -14   1  483.95   27.20
  -4  18   1  533.15   42.30
   4  14  -1  560.94   32.80
   4  14  -1  538.75   31.50
 -18   4  -1  518.25   31.00
   4  14  -1  510.25   27.10
 -14  -4   1  570.44   30.00
  18 -14   1  534.05   38.40
  -4  18   1  536.35   31.20
  14 -18  -1  558.74   36.70
 -15  18   1 1999.90   97.69
  15   3  -1 1999.50   93.29
  15   3  -1 1953.60   95.19
 -18  15  -1 2079.89   95.99
  18  -3   1 1825.92   95.19
  18  -3   1 2036.00   98.39
   3 -18  -1 1900.11   95.89
 -15  18   1 1996.50   94.59
  -3  18   1 2021.30   95.29
  15 -18  -1 1718.83   96.69
 -18   3  -1 1658.93   94.09
   3  15  -1 1866.01   95.09
  18 -15   1 2075.09   99.69
 -15  -3   1 1995.90   94.29
   3  15  -1 1874.81   94.99
  18 -15   1 1919.11   91.99
  16   2  -1   44.80   12.00
  18  -2   1   58.09   14.80
 -16  18   1   41.50    9.70
  18  -2   1   53.99   16.20
  16   2  -1   42.40    9.90
 -16  18   1   37.80   30.00
  -2  18   1   56.79   23.80
  18 -16   1   45.90   21.90
 -16  -2   1   49.70   11.30
  -2  18   1   48.60   10.90
   2  16  -1   56.19    9.20
  16 -18  -1   62.49   18.80
   2  16  -1   46.00   10.80
   2  16  -1   73.59   13.60
   1 -18  -1  327.17   25.40
 -17  18   1  263.87   30.20
  17   1  -1  282.87   21.70
 -18  17  -1  249.78   25.30
 -17  18   1  280.17   20.80
  18  -1   1  273.37   29.00
  17   1  -1  278.37   20.00
  17 -18  -1  286.77   29.60
 -18   1  -1  293.77   22.60
  -1  18   1  309.87   36.00
  18 -17   1  303.87   35.20
  -1  18   1  285.77   21.60
   1  17  -1  294.37   24.10
   1  17  -1  296.07   22.70
 -18  18   1   85.29   16.80
   0 -18  -1  146.49   21.10
 -18  18  -1   54.59   14.60
  18   0   1   68.69   19.80
  18   0  -1   90.99   15.40
  18   0  -1   89.89   14.10
 -18  18   1   77.59   14.90
 -18   0  -1  122.49   15.90
   0  18  -1   83.59   17.70
  18 -18   1   88.69   24.70
   0  18   1   86.99   17.70
 -18   0   1   85.99   14.60
   0  18   1   88.49   25.00
   0  18  -1  114.09   15.80
  18 -18  -1  100.89   21.20
  19  -1  -1  238.88   22.00
 -18  19  -1  231.48   23.20
  19  -1  -1  239.18   21.50
  18   1   1  212.68   29.50
  -1 -18  -1  254.87   23.60
 -19  18   1  236.68   24.20
 -19  18   1  215.28   20.50
  -1  19  -1  267.07   23.40
  19 -18  -1  307.47   32.20
  18 -19   1  245.18   34.10
 -18  -1  -1  265.77   21.00
 -19   1   1  264.67   19.10
  -1  19  -1  248.38   21.90
   1  18   1  245.38   38.50
   1  18   1  242.88   21.30
  20  -2  -1  470.55   29.90
 -20  18   1  467.55   31.80
   2 -20   1  470.05   36.70
  -2 -18  -1  485.55   30.80
 -20  18   1  439.76   28.80
 -18  20  -1  439.76   31.40
  18   2   1  424.66   37.20
  20  -2  -1  495.35   31.40
  -2  20  -1  491.25   31.20
 -18  -2  -1  478.05   29.60
 -20   2   1  504.45   28.50
  18 -20   1  470.25   42.70
  -2  20  -1  463.65   32.30
  20 -18  -1  469.35   38.30
   2  18   1  464.05   45.10
   2  18   1  482.85   30.80
  18   3   1  417.96   37.50
  21  -3  -1  481.85   31.90
  -3 -18  -1  412.56   28.50
  21  -3  -1  452.35   28.70
   3 -21   1  451.95   35.30
 -21  18   1  485.95   30.80
 -21  18   1  452.25   28.90
 -18  21  -1  434.46   32.70
  18 -21   1  458.75   43.10
   3  18   1  439.26   30.50
  21 -18  -1  458.15   36.50
 -18  -3  -1  447.26   29.30
  -3  21  -1  439.06   30.60
 -21   3   1  508.25   27.90
  -3  21  -1  450.15   31.50
   3  18   1  406.76   44.90
 -18  22  -1  122.59   22.60
   4 -22   1  135.89   22.80
 -22  18   1  149.19   20.40
  -4 -18  -1  132.29   17.90
  22  -4  -1  159.38   19.80
  18   4   1  140.29   25.30
 -22  18   1  166.28   21.20
  18 -22   1  182.38   30.10
   4  18   1  171.98   19.00
  -4  22  -1  142.59   21.90
 -18  -4  -1  160.68   21.50
   4  18   1  125.99   29.20
  22 -18  -1  190.68   30.10
  -4  22  -1  185.28   22.30
 -23  18   1   34.50   13.60
 -18  23  -1   33.60   15.40
  18   5   1   34.90   23.40
  23  -5  -1   47.50   13.00
  23  -5  -1   43.70   18.90
   5 -23   1   22.60   20.80
  -5 -18  -1   46.30   12.50
   5  18   1   25.80   26.70
  18 -23   1   14.10   27.50
  -5  23  -1   58.19   16.50
  -5  23  -1   31.50   14.60
 -18  -5  -1   59.39   14.10
  23 -18  -1   81.29   22.80
 -24  18   1  411.16   27.30
  18   6   1  335.57   37.20
   6 -24   1  341.77   36.20
  24  -6  -1  362.56   33.40
 -18  24  -1  334.57   30.20
 -24  18   1  364.66   28.10
  24  -6  -1  368.66   26.50
 -18  -6  -1  365.56   29.40
  24 -18  -1  369.26   38.00
  -6  24  -1  401.96   29.30
   6  18   1  347.07   40.10
  18 -24   1  381.56   41.70
  -6  24  -1  370.06   30.60
 -18  25  -1  258.37   26.60
   7 -25   1  269.57   35.00
  25  -7  -1  259.67   32.30
  25  -7  -1  278.77   23.20
  18   7   1  240.88   37.10
 -25  18   1  275.37   25.70
  18 -25   1  320.77   42.70
   7  18   1  247.38   38.70
 -18  -7  -1  279.07   24.40
  -7  25  -1  281.37   26.50
  -7  25  -1  279.47   28.00
  25 -18  -1  270.47   35.70
   8 -26   1    0.90   23.10
 -26  18   1   29.40   15.00
 -18  26  -1   19.20   15.70
  18   8   1    2.20   23.40
  26  -8  -1    4.50   21.50
  26  -8  -1   15.40   12.80
  -8  26  -1   25.70   15.20
   8  18   1    7.30   25.10
  18 -26   1   54.19   28.90
  26 -18  -1  -13.00   22.90
 -18  -8  -1   27.40   14.40
 -18  27  -1    9.40   14.90
 -27  18   1   26.70   15.50
  18   9   1   16.60   22.90
   9 -27   1    2.50   23.80
  -9 -18  -1   -0.10   14.40
  27  -9  -1   15.70   12.10
  27  -9  -1  -26.70   20.10
 -18  -9  -1   30.80   15.00
  -9  27  -1   34.60   13.10
  -9  27  -1    1.80   14.90
  27 -18  -1  -24.00   22.50
  18 -27   1   14.80   28.00
   9  18   1   -5.60   24.70
 -28  18   1  190.58   24.60
  18  10   1  138.49   25.40
 -10 -18  -1  136.29   22.50
  10 -28   1  202.48   29.90
  28 -10  -1  106.89   23.50
 -18  28  -1  153.48   23.90
  28 -10  -1  176.68   19.10
  18 -28   1  207.08   32.80
 -28  10   1  239.18   27.90
 -10  28  -1  212.88   19.70
 -18 -10  -1  197.08   22.70
  10  18   1  190.08   28.70
 -10  28  -1  145.69   24.50
  29 -11  -1   27.50   11.70
 -29  18   1   44.30   15.20
  11 -29   1   23.30   24.10
 -18  29  -1   24.10   14.50
  18  11   1    8.90   21.20
 -11 -18  -1   15.30   14.50
 -29  11   1   48.40   15.30
  18 -29   1   25.60   27.70
  29 -18  -1    5.60   10.20
 -11  29  -1   18.20   14.60
  11  18   1    2.90   23.40
 -18 -11  -1   21.60   13.40
 -12 -18  -1  162.68   24.40
 -18  30  -1  195.58   24.10
  12 -30   1  215.18   35.30
  18  12   1  228.88   32.00
  30 -12  -1  186.88   19.20
 -18 -12  -1  186.68   22.80
  12  18   1  210.48   33.70
  30 -18  -1  165.38   17.90
  30 -18  -1  159.18   26.30
 -12  30  -1  184.58   24.80
  18 -30   1  226.38   32.60
 -30  12   1  234.98   24.40
  18  13   1   42.00   24.50
 -18  31  -1   19.50   14.50
 -13 -18  -1   12.10   15.90
  31 -13  -1   23.40   11.50
  13 -31   1   42.90   26.40
 -31  18   1   52.09   18.80
 -18 -13  -1   27.90   16.00
  31 -18  -1   11.50   10.10
 -31  13   1   35.80   16.10
  18 -31   1   49.60   26.60
 -13  31  -1   19.70   15.20
  13  18   1   42.50   23.80
  31 -18  -1   -0.20   20.80
 -32  18   1   40.00   20.30
 -18  32  -1    2.00   13.80
 -14 -18  -1    7.00   14.70
  18  14   1    3.60   20.90
  32 -14  -1   -6.90   11.10
  14 -32   1   13.60   25.90
  32 -18  -1  -20.10   19.90
 -14  32  -1   -8.70   14.10
 -18 -14  -1    3.80   14.40
  18 -32   1   27.80   28.00
  14  18   1   15.90   25.10
 -15 -18  -1   12.30   13.60
  15 -33   1   25.30   26.70
 -33  18   1   43.60   17.10
  18  15   1   23.30   21.70
  33 -15  -1    6.80   13.10
 -18  33  -1    5.20   14.30
  33 -18  -1   -6.80   12.40
  15  18   1   21.00   22.10
 -18 -15  -1   16.80   15.50
 -15  33  -1    5.00   14.60
  18 -33   1   26.00   27.40
  33 -18  -1  -22.40   20.50
 -18  34  -1   39.00   15.70
 -16 -18  -1   44.20   18.00
  34 -16  -1   36.40   14.80
  18  16   1   37.00   22.00
  16 -34   1   44.30   28.30
 -16  34  -1   25.30   15.20
  34 -18  -1   15.10   12.30
  18 -34   1   54.69   28.60
  16  18   1   58.69   23.20
 -18 -16  -1   30.90   14.80
  34 -18  -1    1.70   20.40
   9 -19  -1   79.49   16.80
  10   9  -1   57.89   12.80
  10   9  -1   64.09    7.70
  19  -9   1   72.29   12.90
 -10  19   1   64.99   20.50
  19  -9   1   71.09   19.20
 -19  10  -1   41.00   12.60
  19 -10   1   72.49   20.00
  -9  19   1   60.09   20.70
   9  10  -1   76.69   13.00
   9  10  -1   64.29    7.50
  10 -19  -1   90.49   17.10
   9  10  -1   62.49   13.10
  19 -10   1   67.49   11.60
 -19   9  -1   49.80   13.20
  -9  19   1   65.39   11.10
 -11  19   1   -4.10   21.70
  19  -8   1    7.40   11.60
  11   8  -1   16.20    5.70
 -19  11  -1   -8.20   11.50
  19  -8   1   18.80   17.30
  11   8  -1    8.30   11.10
  11 -19  -1   34.80   16.30
   8  11  -1   21.80   11.80
  19 -11   1   15.90    9.30
  19 -11   1   40.00   34.70
  -8  19   1   17.10    9.90
 -19   8  -1   -3.00   11.30
   8  11  -1   17.00    9.60
  -8  19   1   20.10   20.20
   8  11  -1   16.50    5.70
   7 -19  -1   96.59   16.60
  12   7  -1   75.99    8.50
  19  -7   1   87.89   18.50
 -12  19   1   76.29   12.80
 -19  12  -1   42.80   13.00
  12   7  -1   74.79   13.30
  19  -7   1   78.09   14.90
  19 -12   1   70.39   10.20
   7  12  -1   74.19   13.70
   7  12  -1   78.09   15.30
   7  12  -1   64.09    8.30
  12 -19  -1   92.49   17.70
  -7  19   1   69.59   11.50
  19 -12   1  105.29   21.80
 -12  -7   1   73.09   11.20
 -19   7  -1   64.99   12.70
  -7  19   1   77.49   22.50
  13   6  -1   63.99    8.90
  19  -6   1  100.59   27.70
 -13  19   1   36.50   32.90
 -13  19   1   68.59   11.30
  19  -6   1   68.79   15.00
   6 -19  -1   77.59   16.60
 -19  13  -1   41.40   13.30
  13   6  -1   80.39   13.70
  19 -13   1   62.19   11.50
   6  13  -1   59.69    8.30
   6  13  -1   73.69   15.50
  -6  19   1   63.69   11.30
 -19   6  -1   54.69   12.50
  -6  19   1   78.19   22.50
 -13  -6   1   58.79   10.40
  13 -19  -1   94.89   18.00
  19 -13   1   73.89   21.70
   6  13  -1   66.09   13.70
 -14  19   1  343.47   36.30
  14   5  -1  387.16   21.60
 -19  14  -1  366.96   28.10
  19  -5   1  426.26   29.70
 -14  19   1  411.36   26.30
  14   5  -1  379.56   26.70
  19  -5   1  415.06   30.10
   5 -19  -1  403.76   29.80
 -14  -5   1  407.46   24.80
   5  14  -1  366.76   27.10
   5  14  -1  381.16   21.10
  14 -19  -1  370.26   30.60
  19 -14   1  405.96   36.50
  19 -14   1  376.56   21.70
 -19   5  -1  405.76   27.70
  -5  19   1  406.86   40.80
   5  14  -1  381.46   25.80
  -5  19   1  412.16   26.60
 -15  19   1   95.89   16.70
   4 -19  -1  143.39   22.50
  19  -4   1  122.09   18.40
 -19  15  -1   80.19   14.40
  15   4  -1  105.69   17.50
  15   4  -1   90.09   12.00
  19  -4   1  152.68   21.30
 -15  -4   1  124.19   15.10
  -4  19   1  116.59   17.20
  15 -19  -1  169.78   26.90
   4  15  -1  109.69   19.00
   4  15  -1   99.49   16.30
  19 -15   1  149.69   24.40
 -19   4  -1  138.89   17.40
  19 -15   1   99.49   10.00
   3 -19  -1  170.78   23.90
  16   3  -1  125.89   19.00
  16   3  -1  114.99   13.60
  19  -3   1  116.29   17.70
  19  -3   1  116.19   19.00
 -19   3  -1  150.78   17.50
  -3  19   1  148.59   27.60
   3  16  -1  120.09   11.30
  19 -16   1  114.69   24.60
   3  16  -1  122.69   16.50
  16 -19  -1  129.49   21.50
  -3  19   1  123.79   17.30
 -16  -3   1  129.69   15.70
   3  16  -1  129.39   18.40
  17   2  -1  655.33   32.70
  19  -2   1  587.64   39.60
 -17  19   1  550.04   40.80
  19  -2   1  492.15   37.30
 -17  19   1  606.24   34.50
 -19  17  -1  624.84   37.80
   2 -19  -1  603.94   37.80
  17   2  -1  620.54   35.70
  17 -19  -1  663.53   42.20
 -19   2  -1  544.55   34.70
 -17  -2   1  600.94   33.40
   2  17  -1  594.94   34.80
  -2  19   1  642.34   46.50
  -2  19   1  606.34   34.90
  19 -17   1  647.84   45.80
  19  -1   1  283.87   29.60
  18   1  -1  250.37   22.20
 -19  18  -1  246.58   24.40
 -18  19   1  274.77   21.60
 -18  19   1  289.17   27.40
 -18  -1   1  270.37   20.50
  -1  19   1  292.57   23.30
   1  18  -1  291.87   36.80
   1  18  -1  268.67   23.30
  18 -19  -1  316.97   31.10
  -1  19   1  271.37   38.40
 -19   1  -1  288.87   22.30
  19 -18   1  315.87   37.30
  19   0   1   67.99   17.00
 -19  19  -1   83.29   15.20
 -19  19   1   92.09   18.10
  19   0   1   85.99   20.00
   0 -19   1  104.19   20.50
  19   0  -1  112.39   18.00
 -19  19   1   86.79   13.30
  19   0  -1  108.59   16.10
   0  19   1  101.19   17.70
  19 -19   1   98.39   26.70
   0  19   1  103.99   28.20
  19 -19  -1  161.28   28.20
 -19   0  -1  137.49   17.50
   0  19  -1  125.39   17.90
   0  19  -1   91.49   19.00
  20  -1  -1  335.97   26.00
  20  -1  -1  353.66   25.90
  19   1   1  354.86   33.80
   1 -20   1  304.27   32.10
  19   1   1  304.17   25.50
 -19  20  -1  318.77   28.40
 -20  19   1  323.37   25.10
  -1 -19  -1  377.66   27.90
 -20  19   1  346.27   28.90
 -20   1   1  360.06   23.50
   1  19   1  369.66   25.70
  -1  20  -1  346.57   27.80
  20 -19  -1  402.86   36.00
   1  19   1  356.16   41.60
 -19  -1  -1  343.27   24.70
  -1  20  -1  341.67   27.40
  19 -20   1  379.56   41.00
 -21  19   1   42.80   12.60
  21  -2  -1   71.49   16.80
 -19  21  -1   26.10   14.70
  19   2   1   38.00   20.90
  21  -2  -1   59.49   13.50
  -2 -19  -1   57.89   16.10
 -21  19   1   47.70   16.70
   2 -21   1   51.89   19.40
  19 -21   1   77.99   27.40
  -2  21  -1   70.79   17.10
   2  19   1   57.49   13.50
   2  19   1   41.30   27.50
  -2  21  -1   65.19   14.20
  21 -19  -1   93.89   22.30
 -19  -2  -1   94.69   17.90
  -3 -19  -1   19.50   13.70
  22  -3  -1   32.30   19.80
   3 -22   1   -9.60   19.30
 -22  19   1   15.80   14.90
  22  -3  -1   24.80   12.70
  19   3   1  -30.30   20.30
  -3  22  -1   33.60   16.80
   3  19   1  -22.50   25.40
 -19  -3  -1   37.80   13.20
  -3  22  -1    8.70   13.80
  19 -22   1  -10.30   25.80
   3  19   1   26.60   12.90
  22 -19  -1   43.90   21.90
   4 -23   1  116.29   23.40
 -19  23  -1   75.39   16.50
 -23  19   1   85.69   14.80
  23  -4  -1   98.19   15.20
  -4 -19  -1  101.69   15.00
  23  -4  -1  107.59   20.30
 -23  19   1  105.49   17.60
  19   4   1   54.79   23.10
  23 -19  -1  148.39   25.30
   4  19   1  113.29   18.50
   4  19   1   79.99   28.60
  19 -23   1  102.19   29.70
 -19  -4  -1   73.39   15.10
  -4  23  -1   90.69   16.20
  -4  23  -1  140.79   19.30
  -5 -19  -1   49.40   13.40
 -24  19   1   40.80   14.50
  19   5   1   44.50   22.90
  24  -5  -1   52.99   13.70
  24  -5  -1   55.59   19.70
 -19  24  -1   38.00   16.20
   5 -24   1   38.70   22.80
 -24  19   1   72.49   17.40
  -5  24  -1   53.69   16.20
 -19  -5  -1   71.49   15.20
   5  19   1   21.60   27.70
  24 -19  -1  102.69   24.40
  19 -24   1   74.09   29.70
  -5  24  -1   88.39   18.20
   6 -25   1   79.29   25.00
  25  -6  -1   91.59   15.40
  19   6   1   88.29   23.50
 -25  19   1  112.39   18.10
 -19  25  -1   77.09   17.00
 -25  19   1   77.69   15.80
  25  -6  -1   78.49   22.10
   6  19   1   75.79   28.20
 -19  -6  -1   78.69   16.80
  25 -19  -1   79.99   24.30
  -6  25  -1  126.29   18.80
  -6  25  -1   94.89   17.70
  19 -25   1  102.99   30.90
 -19  26  -1  349.17   29.80
  26  -7  -1  343.47   34.50
  26  -7  -1  355.66   26.00
   7 -26   1  357.66   37.60
 -26  19   1  419.06   28.70
 -26  19   1  413.66   29.40
  19   7   1  377.76   37.00
   7  19   1  368.56   41.20
  -7  26  -1  348.67   30.60
  19 -26   1  416.06   43.00
 -19  -7  -1  310.57   29.90
  26 -19  -1  271.87   37.40
  -7  26  -1  430.76   29.50
 -19  27  -1   49.30   16.00
  27  -8  -1   92.69   22.40
   8 -27   1   70.79   24.40
  27  -8  -1   67.09   14.00
 -27  19   1   77.09   16.80
  19   8   1   41.20   22.60
  27 -19  -1   18.70   23.20
   8  19   1   59.79   26.50
  -8  27  -1   88.79   15.10
 -19  -8  -1   63.09   14.40
  19 -27   1   73.39   29.80
  -8  27  -1   45.70   16.30
  19   9   1   92.19   22.60
  28  -9  -1   80.29   22.40
 -28  19   1  108.09   17.30
   9 -28   1   81.29   25.50
 -19  28  -1   68.69   16.30
  28  -9  -1   99.59   14.50
  -9 -19  -1   56.49   17.30
  -9  28  -1   77.79   16.90
 -19  -9  -1  123.99   20.30
  19 -28   1  122.49   30.40
   9  19   1   93.69   26.00
  28 -19  -1   40.10   23.40
  29 -10  -1    7.40   11.50
 -10 -19  -1   -2.40   13.80
 -29  19   1    7.70   14.40
  19  10   1   10.20   20.60
  10 -29   1   -3.60   22.50
 -19  29  -1   -8.20   13.60
  19 -29   1   17.80   26.30
 -10  29  -1   15.20   14.50
  29 -19  -1  -24.80   20.70
 -10  29  -1   13.90   17.30
  10  19   1   18.20   23.90
 -19 -10  -1    6.00   14.00
 -29  10   1   40.30   20.90
 -19  30  -1  112.99   21.90
 -30  19   1  136.09   22.60
  30 -11  -1   97.49   18.00
  19  11   1  112.09   23.60
 -11 -19  -1   96.69   20.50
  11 -30   1   96.19   26.40
  11  19   1  125.89   26.30
 -19 -11  -1  119.69   20.90
 -11  30  -1  120.29   23.00
  19 -30   1  130.69   29.40
  30 -19  -1   50.49   23.20
 -12 -19  -1    9.80   19.70
  12 -31   1   31.30   25.70
  31 -12  -1    4.60   11.90
 -31  19   1   29.80   16.00
 -19  31  -1    6.70   16.20
  19  12   1    6.80   28.70
  12  19   1   19.80   23.30
 -12  31  -1    1.20   17.30
  31 -19  -1  -34.00   21.10
  19 -31   1    1.30   25.60
  13 -32   1   44.00   26.40
  19  13   1   41.00   22.40
 -32  19   1   82.09   17.70
 -13 -19  -1   39.80   15.40
  32 -13  -1   48.00   13.00
 -19  32  -1   35.30   15.00
 -19 -13  -1   36.10   15.30
  32 -19  -1   24.30   10.80
 -13  32  -1   44.80   15.40
  13  19   1   54.79   29.30
  32 -19  -1   30.90   22.30
  19  14   1  117.39   25.00
  33 -14  -1   93.69   17.30
 -19  33  -1  122.19   22.50
 -14 -19  -1   90.49   18.70
  14 -33   1  120.99   29.00
 -14  33  -1  111.19   22.90
  33 -19  -1   96.19   13.90
  19 -33   1  110.59   30.00
  14  19   1  125.89   26.40
  33 -19  -1  102.79   23.70
 -19 -14  -1  115.89   23.50
 -15 -19  -1   57.59   17.00
  34 -15  -1   75.79   15.90
  15 -34   1  109.79   29.50
 -19  34  -1   71.79   17.00
  19  15   1   67.79   23.10
  34 -15  -1   26.60   21.20
  34 -19  -1   53.69   25.60
 -19 -15  -1   49.00   16.40
  19 -34   1   91.09   29.60
  15  19   1  108.89   24.00
  34 -19  -1   47.60   14.70
 -15  34  -1   73.79   16.80
  20 -10   1  190.08   28.50
 -10  20   1  228.58   32.60
  10  10  -1  213.58   13.70
 -20  10  -1  211.88   23.20
 -10  20   1  237.78   20.10
  10  10  -1  241.68   19.40
  10  10  -1  238.58   22.40
  10 -20  -1  261.67   26.40
  20 -10   1  285.17   30.20
  11   9  -1  306.27   25.00
 -11  20   1  307.87   22.60
  20  -9   1  300.57   23.80
  20  -9   1  342.47   31.80
   9 -20  -1  323.87   28.00
  11   9  -1  294.37   17.10
 -20  11  -1  288.87   25.60
 -11  20   1  275.67   33.40
   9  11  -1  326.67   22.20
  11 -20  -1  297.87   28.70
 -20   9  -1  310.87   24.90
  -9  20   1  281.57   34.50
  -9  20   1  330.07   22.30
  20 -11   1  290.97   21.50
   9  11  -1  303.87   23.60
   9  11  -1  311.97   17.10
  20 -11   1  339.47   33.00
 -20  12  -1  541.65   33.80
  20  -8   1  529.65   33.60
  12   8  -1  547.25   33.60
 -12  20   1  501.75   40.60
  20  -8   1  545.75   37.70
   8 -20  -1  491.45   35.50
 -12  20   1  566.34   31.90
  12   8  -1  539.15   27.60
   8  12  -1  544.55   32.10
 -12  -8   1  584.54   31.90
  20 -12   1  572.74   41.80
 -20   8  -1  502.65   32.90
  20 -12   1  541.45   30.60
  -8  20   1  549.05   31.60
   8  12  -1  508.85   33.60
  12 -20  -1  551.74   37.10
   8  12  -1  536.75   27.60
  -8  20   1  558.04   43.10
 -20  13  -1  916.41   48.60
 -13  20   1  935.11   47.00
  20  -7   1  937.41   51.29
   7 -20  -1  759.22   52.79
 -13  20   1  782.12   53.19
  20  -7   1  914.01   49.20
  13   7  -1  885.91   43.70
  13   7  -1  857.61   47.70
  -7  20   1  940.91   56.69
  20 -13   1  964.00   54.59
  20 -13   1  901.91   45.50
  13 -20  -1  827.32   51.09
   7  13  -1  861.31   47.10
 -20   7  -1  838.62   47.60
   7  13  -1  877.91   43.70
  -7  20   1  917.91   47.00
   7  13  -1  858.51   48.40
 -13  -7   1  971.30   47.00
  14   6  -1   87.29   10.30
   6 -20  -1  158.48   23.70
 -14  20   1   92.59   16.40
  14   6  -1  103.79   18.20
 -14  20   1   59.29   26.20
  20  -6   1   91.19   18.20
  20  -6   1  141.39   23.70
   6  14  -1  124.09   17.40
   6  14  -1   96.99   10.40
  20 -14   1   87.59   12.10
  14 -20  -1  165.38   26.50
  -6  20   1  106.49   26.80
 -20   6  -1  105.49   18.60
 -14  -6   1  101.09   15.80
  -6  20   1  108.29   17.80
  20 -14   1  102.09   24.40
   6  14  -1  111.79   20.00
  20  -5   1  374.16   30.30
  20  -5   1  376.96   29.70
 -15  20   1  350.76   24.70
  15   5  -1  357.66   27.20
  15   5  -1  403.36   21.00
   5 -20  -1  370.96   30.00
 -20  15  -1  342.97   28.80
  15 -20  -1  385.56   31.40
 -15  -5   1  369.46   24.20
  20 -15   1  388.06   38.30
 -20   5  -1  391.46   27.50
  -5  20   1  369.06   26.20
   5  15  -1  339.87   27.10
   5  15  -1  345.87   21.20
   5  15  -1  352.26   24.80
  20 -15   1  352.16   20.60
  20  -4   1   13.50   16.40
  16   4  -1    2.30    8.30
   4 -20  -1   36.40   16.90
 -16  20   1  -25.10   20.60
  16   4  -1    4.90   12.40
  20  -4   1   -2.60   16.10
 -16  20   1   -3.40   10.00
  16 -20  -1   44.50   19.40
  20 -16   1   -4.00    5.50
  -4  20   1   11.70   25.20
 -20   4  -1   19.50   11.50
 -16  -4   1   14.00   10.30
  20 -16   1    3.30   23.10
   4  16  -1    5.60   13.60
   4  16  -1    1.10   10.90
  -4  20   1    3.00   11.00
   4  16  -1    5.60    7.10
 -17  20   1   22.50   19.90
   3 -20  -1   68.39   17.80
  20  -3   1   26.70   16.90
  17   3  -1   41.10    9.70
  17   3  -1   42.40   13.00
 -20  17  -1   10.70   13.70
 -17  20   1   18.70   11.10
  20  -3   1   40.90   17.80
  -3  20   1   42.30   12.40
  -3  20   1   31.20   26.20
   3  17  -1   51.09   15.10
  17 -20  -1   61.59   20.90
   3  17  -1   44.30   12.40
  20 -17   1   39.20   25.00
 -20   3  -1   55.09   12.00
 -17  -3   1   34.80   10.40
 -20  18  -1  668.93   39.90
 -18  20   1  638.94   42.90
   2 -20  -1  664.83   40.70
 -18  20   1  638.04   36.70
  20  -2   1  613.24   42.60
  18   2  -1  653.03   37.50
   2  18  -1  644.64   37.70
  20 -18   1  652.03   47.60
 -18  -2   1  670.93   36.30
 -20   2  -1  602.24   36.80
  -2  20   1  670.73   38.30
  -2  20   1  677.13   50.39
  18 -20  -1  681.73   45.10
   2  18  -1  651.23   39.40
 -20  19  -1  742.83   42.60
  19   1  -1  758.12   39.30
 -19  20   1  755.52   44.90
  -1 -19   1  702.13   45.20
  20  -1   1  678.33   46.30
 -19  20   1  720.33   40.80
  19   1  -1  765.42   41.10
   1 -20  -1  744.03   43.60
  20 -19   1  764.12   51.19
 -19  -1   1  728.43   39.70
 -20   1  -1  625.84   41.10
  -1  20   1  735.23   41.20
   1  19  -1  698.33   42.60
  -1  20   1  806.92   54.89
   1  19  -1  735.13   41.60
  19 -20  -1  731.03   47.20
  20   0  -1  148.99   19.80
 -20  20   1  165.18   25.70
 -20  20  -1  110.89   21.90
  20   0   1  146.09   23.10
  20   0  -1  162.38   17.70
 -20  20   1  142.79   19.30
   0 -20   1  127.29   22.10
   0  20   1  157.88   31.60
   0  20  -1  150.38   23.50
 -20   0  -1  180.78   21.40
  20 -20  -1  223.58   30.70
   0  20   1  164.68   19.90
  20 -20   1  215.98   30.70
   0  20  -1  160.48   21.10
 -21  20   1  287.17   28.20
  -1 -20  -1  294.47   27.00
  21  -1  -1  289.17   24.10
 -21  20   1  262.17   23.80
  20   1   1  244.28   32.90
  21  -1  -1  285.47   24.80
   1 -21   1  239.78   30.60
 -20  21  -1  240.78   26.90
 -20  -1  -1  274.97   24.80
  21 -20  -1  343.97   35.60
  -1  21  -1  265.17   27.00
  20 -21   1  279.27   38.60
  -1  21  -1  284.37   28.50
   1  20   1  271.17   42.70
 -21   1   1  316.87   22.00
   1  20   1  300.27   25.70
   2 -22   1  169.88   29.20
 -22  20   1  156.68   24.40
  22  -2  -1  176.48   20.00
 -22  20   1  137.69   21.00
  22  -2  -1  187.08   22.80
  20   2   1  170.68   25.00
 -20  22  -1  119.09   22.70
  -2 -20  -1  179.38   23.30
 -20  -2  -1  168.98   21.60
  22 -20  -1  241.48   33.50
   2  20   1  168.18   20.60
   2  20   1  202.28   32.10
  20 -22   1  187.98   32.20
  -2  22  -1  151.78   21.90
  -2  22  -1  141.29   36.20
   3 -23   1   17.00   20.50
  23  -3  -1   35.30   18.90
  -3 -20  -1   39.00   15.00
 -23  20   1   21.30   13.30
  23  -3  -1   42.80   13.80
  20   3   1   13.30   21.70
 -23  20   1   53.29   17.70
 -20  23  -1   21.00   15.30
  -3  23  -1   63.99   21.90
   3  20   1  -15.40   28.00
  -3  23  -1   35.60   14.50
  23 -20  -1   78.49   23.40
  20 -23   1   41.40   29.00
   3  20   1   47.80   13.90
 -20  -3  -1   52.69   14.00
  24  -4  -1  131.99   21.60
  20   4   1  134.49   25.20
   4 -24   1  102.49   24.50
  24  -4  -1  131.59   20.50
  -4 -20  -1  113.79   16.30
 -24  20   1  105.99   20.70
 -20  24  -1   85.09   18.00
 -20  -4  -1  125.29   22.30
   4  20   1  125.09   30.60
  24 -20  -1  151.08   26.20
  -4  24  -1  158.58   21.00
  20 -24   1  133.79   32.50
  -4  24  -1   97.19   18.60
   4  20   1  151.48   20.10
 -25  20   1   25.20   13.90
  20   5   1    2.50   22.00
  25  -5  -1   26.90   13.60
  -5 -20  -1    8.70   13.20
   5 -25   1   -2.70   22.30
  25  -5  -1   14.90   19.60
 -25  20   1   42.00   17.20
 -20  25  -1    7.50   15.70
  -5  25  -1   51.79   18.40
  -5  25  -1   35.20   15.50
  25 -20  -1   45.50   23.20
   5  20   1   48.40   13.90
   5  20   1   10.10   26.80
  20 -25   1   33.30   29.90
 -20  -5  -1   38.90   14.90
 -26  20   1   80.59   17.40
 -26  20   1   47.10   14.60
  26  -6  -1   56.79   14.20
 -20  26  -1   33.80   15.90
  20   6   1   46.00   23.00
   6 -26   1   49.30   23.50
  26  -6  -1   72.79   22.10
  20 -26   1   74.99   30.40
   6  20   1   59.39   27.70
  26 -20  -1   32.90   23.00
 -20  -6  -1   57.79   15.90
  -6  26  -1   49.50   15.90
  20   7   1   42.70   22.20
  27  -7  -1   66.29   14.10
  27  -7  -1   50.69   21.50
 -27  20   1   72.59   15.60
 -27  20   1   84.69   17.90
 -20  27  -1   40.90   15.50
   7 -27   1   54.89   23.80
  -7  27  -1   51.29   16.30
 -20  -7  -1   52.99   15.70
  -7  27  -1   92.49   16.60
  27 -20  -1   17.70   22.40
   7  20   1   62.39   25.80
  20 -27   1   73.79   29.40
  20   8   1  297.77   33.60
  28  -8  -1  312.57   24.50
 -20  28  -1  294.27   28.50
  28  -8  -1  292.77   32.30
 -28  20   1  347.67   27.70
 -28  20   1  390.86   27.70
   8 -28   1  270.37   35.90
  -8  28  -1  310.57   28.60
  -8  28  -1  340.77   25.80
 -20  -8  -1  334.37   27.80
   8  20   1  320.57   39.30
  20 -28   1  340.57   39.60
  20   9   1   30.00   20.70
  -9 -20  -1    7.90   15.10
 -29  20   1   49.50   15.40
 -20  29  -1   29.40   14.50
  29  -9  -1   43.60   20.30
   9 -29   1   29.00   23.10
  29  -9  -1   34.10   12.40
  -9  29  -1   58.69   13.70
  -9  29  -1   33.70   14.40
 -20  -9  -1   37.20   14.10
   9  20   1   38.00   24.00
  20 -29   1   44.20   26.90
 -29   9   1   70.69   17.10
  10 -30   1  113.69   27.00
 -20  30  -1   96.69   20.40
  30 -10  -1   36.40   20.90
  20  10   1   96.59   23.00
 -30  20   1  140.09   23.10
  30 -10  -1  104.49   17.60
 -10 -20  -1  101.29   17.20
  30 -20  -1   50.49   22.50
 -10  30  -1  150.78   23.20
 -10  30  -1   89.39   17.10
  10  20   1  105.69   26.30
 -20 -10  -1   79.29   16.90
  20 -30   1  141.69   28.80
  11 -31   1   20.20   25.10
  31 -11  -1   27.00   12.80
 -20  31  -1   24.20   21.70
 -31  20   1   37.60   16.30
 -31  11   1   58.09   16.30
  31 -20  -1   11.80   22.10
  20 -31   1   36.80   27.20
  11  20   1   33.90   24.90
  12 -32   1  240.88   31.70
 -20  32  -1  176.48   23.70
  32 -12  -1  203.68   21.10
 -12 -20  -1  181.58   23.10
  20  12   1  155.78   26.30
  32 -20  -1  184.18   27.40
  20 -32   1  199.88   35.10
  12  20   1  168.28   32.30
 -12  32  -1  164.18   24.20
 -20 -12  -1  154.78   22.90
 -20  33  -1   78.09   16.20
  13 -33   1  101.99   27.90
  33 -13  -1   90.69   14.80
  20  13   1   80.79   22.70
 -13 -20  -1   95.19   18.50
  13  20   1  125.39   26.40
 -20 -13  -1   55.99   17.10
  33 -20  -1  112.79   25.30
 -13  33  -1  115.79   23.30
  20 -33   1  108.09   30.10
 -14 -20  -1   54.29   17.50
 -20  34  -1   66.19   16.40
 -14  34  -1   73.69   16.90
 -20 -14  -1   85.59   18.60
  11  10  -1   35.40   13.60
  21 -10   1   62.09   34.70
  21 -10   1   37.10   12.60
  10 -21  -1   66.69   18.30
 -11  21   1   29.30   11.50
  11  10  -1   44.10    6.50
 -11  21   1   20.20   22.30
  10  11  -1   44.40    7.80
 -10  21   1   37.60   11.70
  21 -11   1   61.79   21.50
 -21  10  -1   10.50   13.10
  10  11  -1   45.50   13.60
  10  11  -1   51.89   11.00
  11 -21  -1   58.69   18.40
 -10  21   1   28.60   22.70
 -12  21   1  104.49   24.00
  21  -9   1  123.19   16.10
 -12  21   1   96.99   17.30
  12   9  -1  103.99    9.40
  12   9  -1  111.29   15.40
 -21  12  -1   99.29   15.50
   9 -21  -1  126.49   19.80
  21  -9   1  137.49   21.70
  -9  21   1  109.69   18.00
  -9  21   1  109.89   25.50
   9  12  -1  101.09   15.90
 -12  -9   1   99.69   13.80
  21 -12   1  103.39   15.80
  12 -21  -1  141.09   20.70
   9  12  -1  107.69    9.90
  21 -12   1  161.28   24.00
   9  12  -1  117.39   16.10
 -21   9  -1   82.29   15.40
  21  -8   1   -6.50   13.40
 -13  21   1  -35.10   20.20
   8 -21  -1   24.10   17.20
  13   8  -1    4.10   12.80
 -13  21   1   -0.90   10.40
  13   8  -1    4.50    6.00
  21  -8   1   32.20   18.10
 -13  -8   1   -9.70   10.20
  -8  21   1    6.20   23.60
  13 -21  -1   36.60   18.50
  -8  21   1    0.80   10.90
 -21   8  -1  -13.40   12.50
   8  13  -1  -10.10   13.20
  21 -13   1   -0.60    9.20
   8  13  -1    7.90   10.90
  21 -13   1   26.00   21.90
   8  13  -1    0.70    5.90
 -21  14  -1    0.30   13.90
   7 -21  -1   44.00   17.50
  14   7  -1   29.90   13.40
  14   7  -1   36.20    7.00
  21  -7   1   44.20   17.80
 -14  21   1  -12.50   19.90
 -14  21   1   22.90   10.70
 -21   7  -1   22.90   12.80
  21 -14   1   26.20    9.00
  -7  21   1   27.00   26.50
  21 -14   1   34.40   23.00
 -14  -7   1   29.30   11.10
  14 -21  -1   62.39   19.50
  -7  21   1   27.10   11.20
   7  14  -1   40.50   11.50
   7  14  -1   27.60    7.10
   7  14  -1   21.00   14.30
   6 -21  -1  190.68   25.60
  15   6  -1  166.38   21.80
  21  -6   1  200.28   25.80
  21  -6   1  163.88   20.10
 -15  21   1  135.29   18.50
 -15  21   1  118.49   24.20
 -21  15  -1  102.69   22.00
  15   6  -1  175.58   12.20
   6  15  -1  141.49   21.90
 -15  -6   1  167.68   18.00
  -6  21   1  142.49   29.60
  15 -21  -1  216.28   26.90
  21 -15   1  135.69   13.80
  -6  21   1  151.38   19.00
   6  15  -1  156.58   18.40
   6  15  -1  145.79   12.10
 -21   6  -1  139.59   20.40
  21 -15   1  199.68   28.00
 -21  16  -1   29.20   14.60
  16   5  -1   63.89    9.50
  21  -5   1   74.69   18.20
 -16  21   1   13.70   21.60
  16   5  -1   54.09   14.10
 -16  21   1   58.99   12.30
  16 -21  -1   96.19   20.80
  21 -16   1   65.69    8.30
 -21   5  -1   62.99   14.20
  -5  21   1   75.89   28.40
   5  16  -1   59.39   15.80
  21 -16   1   81.49   25.70
   5  16  -1   72.29    9.70
  -5  21   1   59.99   13.30
   5  16  -1   62.49   12.60
 -16  -5   1   62.59   12.00
 -17  21   1    3.30   21.40
   4 -21  -1   81.49   19.20
  21  -4   1   48.90   18.80
  17   4  -1   68.59   10.50
  21  -4   1   51.79   18.20
  17   4  -1   56.99   14.20
 -17  21   1   38.20   11.80
  -4  21   1   54.79   12.90
  -4  21   1   51.59   27.60
  21 -17   1   49.00    6.60
   4  17  -1   54.99   13.10
   4  17  -1   69.29   15.90
 -17  -4   1   51.69   11.50
 -21   4  -1   71.29   13.80
  17 -21  -1   82.49   21.20
  21 -17   1   68.19   26.20
 -21  18  -1  103.49   17.80
  18   3  -1  122.59   19.40
  18   3  -1  126.69   14.20
  21  -3   1  148.49   22.10
   3 -21  -1  177.68   26.60
  21  -3   1   72.19   20.30
 -18  21   1  104.59   23.80
 -18  21   1  100.09   18.30
  -3  21   1  141.79   20.60
 -18  -3   1  124.69   17.10
   3  18  -1  158.28   19.20
  -3  21   1  126.09   29.20
   3  18  -1  138.19   19.60
  18 -21  -1  189.58   29.20
  21 -18   1  154.88   29.10
 -21   3  -1  157.48   20.90
   2 -21  -1  122.59   20.10
  19   2  -1  105.39   19.30
 -21  19  -1   65.39   16.90
  21  -2   1   75.09   20.60
 -19  21   1   67.29   21.10
 -19  21   1   85.29   17.60
  19   2  -1   75.69   15.00
  -2 -19   1   57.69   19.60
 -21   2  -1  119.49   18.60
 -19  -2   1  118.19   17.50
   2  19  -1  118.79   18.50
  -2  21   1  110.39   18.70
  -2  21   1  101.69   31.40
   2  19  -1  106.79   19.10
  21 -19   1   96.89   28.70
 -21  20  -1  139.49   23.70
   1 -21  -1  218.48   26.20
 -20  21   1  160.78   20.40
  21  -1   1  163.28   24.20
  20   1  -1  207.78   19.40
  20   1  -1  187.58   21.10
 -20  21   1  171.08   29.80
  -1 -20   1  172.28   28.20
  21  -1   1  166.78   22.10
  20 -21  -1  263.37   34.20
  -1  21   1  195.28   22.40
  -1  21   1  232.78   34.30
   1  20  -1  199.18   25.50
 -20  -1   1  233.48   19.20
 -21   1  -1  194.78   20.80
   1  20  -1  199.78   21.80
  21 -20   1  183.68   31.50
  21   0  -1  359.76   27.50
   0 -21   1  318.37   32.20
 -21  21  -1  314.07   29.40
  21   0   1  305.17   33.10
 -21  21   1  348.97   31.90
 -21  21   1  327.67   26.70
  21   0  -1  395.56   25.80
   0 -21  -1  347.27   30.80
   0  21  -1  346.47   29.60
 -21   0   1  389.76   24.60
  21 -21  -1  405.06   36.00
  21 -21   1  351.56   43.90
   0  21  -1  335.67   28.90
   0  21   1  310.67   44.90
   0  21   1  326.17   27.70
 -21   0  -1  341.87   26.40
  22  -1  -1   47.00   15.80
   1 -22   1   25.50   19.90
  22  -1  -1   54.19   14.60
  21   1   1   24.70   21.40
 -22  21   1   45.60   13.70
 -22  21   1   62.49   18.80
  22 -21  -1  111.29   24.20
  21 -22   1   69.19   29.70
  -1  22  -1   77.99   18.70
  -1  22  -1   48.30   15.20
   1  21   1   61.89   14.40
   1  21   1   54.29   29.70
  23  -2  -1    1.80   13.30
  -2 -21  -1   23.60   17.00
   2 -23   1  -19.00   19.60
 -23  21   1   -9.50   12.90
 -21  23  -1  -10.20   15.30
 -23  21   1   10.00   17.80
  21   2   1  -20.00   20.60
 -21  -2  -1   23.70   13.50
  -2  23  -1    4.50   15.20
  -2  23  -1   16.10   18.10
  21 -23   1    2.70   29.30
  23 -21  -1   49.30   23.70
   2  21   1   11.40   13.80
   2  21   1  -10.90   28.70
 -24  21   1   94.79   24.70
  24  -3  -1   79.29   15.60
  -3 -21  -1   95.69   17.00
 -21  24  -1   50.69   17.30
  21   3   1   62.49   23.40
   3 -24   1   94.79   23.80
  24  -3  -1   86.99   20.20
 -24  21   1   75.09   15.50
  21 -24   1  127.19   31.20
   3  21   1  108.69   20.00
 -21  -3  -1  114.09   20.10
  -3  24  -1  147.69   20.70
  24 -21  -1  104.19   24.10
   3  21   1  113.19   31.10
  -3  24  -1   90.29   17.00
  -4 -21  -1  151.58   17.70
  21   4   1  118.19   25.10
   4 -25   1  146.99   25.60
 -25  21   1  127.79   21.10
  25  -4  -1  147.29   21.20
 -25  21   1  140.09   25.10
  25  -4  -1  153.88   23.20
 -21  25  -1  127.69   24.40
   4  21   1  163.08   20.90
   4  21   1  160.88   31.40
 -21  -4  -1  141.99   23.40
  21 -25   1  177.88   32.70
  -4  25  -1  195.78   26.20
  -4  25  -1  140.49   23.20
  25 -21  -1  162.48   26.90
  26  -5  -1   34.30   13.30
 -26  21   1   49.90   17.10
  21   5   1    3.40   21.80
   5 -26   1   25.10   22.80
  26  -5  -1   28.90   20.40
 -21  26  -1   10.80   15.30
 -26  21   1   28.70   14.00
  -5  26  -1   25.10   15.60
  21 -26   1   56.29   28.90
 -21  -5  -1   48.80   15.20
  -5  26  -1   75.39   31.80
  26 -21  -1    2.90   22.70
   5  21   1   39.40   27.10
   5  21   1   47.10   13.90
  27  -6  -1   24.70   12.90
 -27  21   1   34.20   16.50
 -21  27  -1    7.40   14.60
  27  -6  -1   31.40   20.50
  21   6   1   11.50   20.20
   6 -27   1   19.30   22.40
 -27  21   1   10.30   14.10
  27 -21  -1   -1.20   21.50
 -21  -6  -1   25.20   14.30
   6  21   1   26.40   25.60
  21 -27   1   19.30   27.80
  -6  27  -1   15.50   15.20
  28  -7  -1  192.38   20.30
  28  -7  -1  161.18   25.10
  21   7   1  177.78   26.50
 -28  21   1  209.08   23.30
 -21  28  -1  188.08   23.60
 -28  21   1  244.38   25.20
   7 -28   1  175.88   31.70
   7  21   1  207.48   37.30
  21 -28   1  236.18   35.90
 -21  -7  -1  183.88   23.50
  28 -21  -1  147.89   26.10
  -7  28  -1  246.88   23.90
  -7  28  -1  192.38   24.00
  29  -8  -1   12.30   12.30
   8 -29   1   22.70   22.80
  21   8   1   23.80   20.00
 -29  21   1   36.40   15.10
 -29  21   1   31.00   16.60
 -21  29  -1   20.70   14.50
  29  -8  -1   17.70   19.90
  29 -21  -1  -36.60   20.90
 -21  -8  -1   22.60   15.40
  -8  29  -1   22.50   14.30
   8  21   1   22.80   24.20
  -8  29  -1    8.80   14.40
  21 -29   1   15.50   26.20
 -21  30  -1  130.69   21.10
  30  -9  -1  122.49   18.10
  21   9   1  121.79   23.30
  -9 -21  -1   91.79   18.30
   9 -30   1  151.58   27.50
  30  -9  -1  159.98   26.60
  30 -21  -1   93.19   24.70
 -21  -9  -1  139.59   22.10
  -9  30  -1  132.99   22.60
  21 -30   1  144.69   29.70
   9  21   1  169.88   28.40
  31 -10  -1   14.60   19.70
  21  10   1    5.00   29.50
  10 -31   1    8.20   24.40
  31 -10  -1   16.90   12.70
 -31  21   1   48.80   17.80
  31 -21  -1    7.20   22.30
 -10  31  -1   63.49   17.90
  10  21   1   33.60   25.40
 -10  31  -1   14.70   19.40
 -11 -21  -1  122.49   22.90
  11 -32   1  170.18   30.10
  32 -11  -1  117.79   19.70
  21  11   1  118.69   24.90
 -21  32  -1  135.69   22.10
  32 -21  -1  138.39   26.40
  21 -32   1  162.48   30.80
 -11  32  -1  120.59   23.70
 -21 -11  -1  110.39   21.60
  11  21   1  142.19   37.70
  21  12   1   16.20   21.30
  33 -12  -1   18.00   13.40
 -33  21   1   61.09   22.30
 -21  33  -1   18.60   15.10
  12 -33   1   38.20   26.60
 -12 -21  -1   10.60   15.00
 -12  33  -1   18.60   15.40
 -21 -12  -1   17.50   13.80
  12  21   1   27.10   24.40
  21 -33   1   40.40   28.60
  22 -11   1  694.83   39.70
 -22  11  -1  680.73   41.10
 -11  22   1  709.63   50.59
  22 -11   1  781.82   46.70
 -11  22   1  748.03   40.80
  11 -22  -1  705.03   45.30
  11  11  -1  691.63   41.70
  11  11  -1  704.03   35.50
  12  10  -1   75.39   15.50
  10 -22  -1  101.29   20.50
 -22  12  -1   50.89   14.70
  12  10  -1   68.59    8.60
  22 -10   1   81.29   14.40
  22 -10   1  103.39   21.60
 -12  22   1   66.79   13.10
 -12  22   1   54.59   24.00
  22 -12   1   67.19   15.30
 -22  10  -1   65.49   15.20
  22 -12   1  107.79   23.20
  10  12  -1   82.89   15.10
  12 -22  -1  109.49   21.00
  10  12  -1   65.49    9.10
 -10  22   1   73.99   13.30
 -10  22   1   87.69   26.00
 -22  13  -1  114.59   17.00
  22  -9   1  180.18   28.60
  13   9  -1  142.69   10.90
   9 -22  -1  185.78   26.40
  13   9  -1  143.09   20.60
 -13  22   1  135.69   26.20
 -13  22   1  132.69   19.00
  22  -9   1  137.09   21.10
 -13  -9   1  119.19   18.20
   9  13  -1  131.49   11.20
  22 -13   1  144.09   16.90
 -22   9  -1  120.09   21.90
  13 -22  -1  162.08   26.80
  -9  22   1  148.39   18.60
   9  13  -1  166.28   18.00
  22 -13   1  202.18   32.10
  -9  22   1  178.28   28.70
   9  13  -1  131.99   22.30
 -14  22   1  -28.10   21.30
 -14  22   1   17.30   11.60
  14   8  -1   22.50   14.40
  22  -8   1   27.20   16.60
  14   8  -1   19.50    6.80
   8 -22  -1   42.90   18.70
  22  -8   1   56.59   19.20
  22 -14   1   17.40    9.60
   8  14  -1   21.40   11.60
  22 -14   1   45.40   23.80
 -22   8  -1    4.00   13.40
  -8  22   1   54.49   32.80
 -14  -8   1    9.00   11.40
   8  14  -1    7.60    6.80
  -8  22   1   17.30   12.00
  14 -22  -1   52.79   19.80
   8  14  -1   20.40   14.90
   7 -22  -1   76.69   19.10
  15   7  -1   42.80    7.70
 -15  22   1   26.70   11.60
 -15  22   1   -7.50   22.20
  22  -7   1   67.09   19.20
  22  -7   1   19.90   15.60
  15   7  -1   28.20   14.20
 -22   7  -1   19.10   13.60
   7  15  -1   39.90   12.80
   7  15  -1   40.10    7.60
  -7  22   1   39.50   26.90
  22 -15   1   23.80    9.10
  22 -15   1   58.79   24.10
  15 -22  -1   67.29   20.70
  -7  22   1   33.10   12.90
   7  15  -1   37.50   15.40
 -15  -7   1   37.70   12.40
 -16  22   1  211.28   28.10
   6 -22  -1  269.07   29.40
  16   6  -1  276.57   16.40
  22  -6   1  280.27   29.20
 -16  22   1  238.78   22.40
  16   6  -1  254.07   24.30
  22  -6   1  233.58   26.60
 -22  16  -1  195.38   24.90
  22 -16   1  277.97   36.90
 -22   6  -1  256.67   24.00
 -16  -6   1  268.67   21.70
  -6  22   1  310.87   43.20
  16 -22  -1  296.27   30.50
  -6  22   1  283.17   23.30
   6  16  -1  275.77   22.50
  22 -16   1  252.57   17.40
   6  16  -1  253.57   25.50
 -17  22   1  323.37   39.20
 -17  22   1  422.86   28.20
  17   5  -1  412.56   29.70
  22  -5   1  360.96   33.60
   5 -22  -1  448.16   34.30
  17   5  -1  478.35   24.20
 -22  17  -1  378.36   31.70
  22  -5   1  417.86   33.30
  -5  22   1  444.26   30.10
 -22   5  -1  406.36   31.20
  22 -17   1  405.26   23.00
 -17  -5   1  459.25   28.60
  -5  22   1  498.95   46.70
   5  17  -1  416.26   31.00
  17 -22  -1  454.05   37.50
  22 -17   1  495.75   42.50
   5  17  -1  420.36   28.50
  18   4  -1   62.29   15.40
  18   4  -1   57.49   10.90
 -18  22   1   14.50   22.60
 -18  22   1   62.69   12.80
  22  -4   1   68.39   19.70
  22  -4   1   11.70   19.60
 -18  -4   1   57.39   12.30
  18 -22  -1   97.39   22.50
  22 -18   1   99.89   27.50
  -4  22   1   60.49   29.30
   4  18  -1   56.09   13.90
   4  18  -1   57.89   16.90
  -4  22   1   73.99   14.30
   3 -22  -1  231.38   27.40
 -19  22   1  158.18   20.50
  22  -3   1  173.68   23.90
  19   3  -1  166.78   22.10
 -19  22   1  149.29   25.90
  19 -22  -1  266.57   33.90
  -3  22   1  204.98   34.80
   3  19  -1  173.28   25.70
  -3  22   1  188.18   22.60
 -19  -3   1  197.18   19.20
   3  19  -1  157.78   23.20
  22 -19   1  215.38   36.20
 -22   3  -1  191.08   20.50
   2 -22  -1  116.89   20.60
 -20  22   1   56.69   22.50
  20   2  -1   74.09   15.40
  20   2  -1   76.19   13.30
  22  -2   1   64.29   21.50
 -20  22   1   73.89   13.90
   2  20  -1   79.39   15.60
 -22   2  -1  113.99   21.50
  20 -22  -1  126.59   24.80
   2  20  -1  103.09   19.40
  -2  22   1   75.29   14.70
  -2  22   1   68.79   32.10
  22 -20   1  103.19   29.00
  22  -1   1   68.89   22.20
 -21  22   1   85.59   14.60
  21   1  -1  101.39   16.10
 -21  22   1   78.89   22.70
   1 -22  -1  108.19   20.00
  21   1  -1  102.89   17.70
 -22  21  -1   73.69   17.10
 -22   1  -1  129.09   21.90
   1  21  -1  130.19   20.40
  -1  22   1  106.49   20.00
  22 -21   1  127.29   29.90
  -1  22   1   97.99   32.30
   1  21  -1  104.99   20.50
  22   0  -1  305.77   26.70
 -22  22   1  310.67   32.20
 -22  22   1  275.57   25.20
 -22  22  -1  265.07   28.60
   0 -22   1  237.08   31.10
  22   0  -1  326.47   24.00
  22   0   1  260.67   34.00
   0 -22  -1  314.27   29.70
   0  22   1  313.77   26.00
 -22   0  -1  291.27   25.70
 -22   0   1  345.87   23.40
   0  22  -1  283.17   28.50
  22 -22   1  324.17   40.80
  22 -22  -1  334.47   35.50
   0  22  -1  317.57   29.30
   0  22   1  297.57   44.00
  22   1   1  173.88   32.60
 -23  22   1  211.18   23.00
  23  -1  -1  232.08   22.40
  23  -1  -1  214.78   23.00
 -23  22   1  216.48   30.70
  -1 -22  -1  204.18   27.90
 -22  23  -1  185.68   25.40
   1 -23   1  193.28   30.00
   1  22   1  244.38   42.00
  23 -22  -1  267.97   33.70
   1  22   1  229.98   25.10
  22 -23   1  232.78   39.70
  -1  23  -1  254.27   27.00
  -1  23  -1  226.48   25.20
 -22  -1  -1  205.58   22.50
 -22  24  -1  141.39   24.30
  22   2   1  171.18   30.30
  -2 -22  -1  180.38   25.10
  24  -2  -1  170.08   21.20
   2 -24   1  171.48   25.80
  24  -2  -1  168.88   23.70
 -24  22   1  173.68   22.00
 -24  22   1  169.48   28.50
   2  22   1  197.78   24.60
  24 -22  -1  211.78   34.10
  -2  24  -1  162.78   27.80
  22 -24   1  212.48   32.70
  -2  24  -1  219.18   27.20
   2  22   1  210.48   33.70
 -22  -2  -1  164.38   23.20
  25  -3  -1  232.98   23.30
   3 -25   1  227.18   32.60
  -3 -22  -1  163.58   23.70
  25  -3  -1  206.48   27.40
 -22  25  -1  214.68   26.00
 -25  22   1  227.18   23.40
 -25  22   1  191.28   32.30
  22   3   1  193.18   31.10
   3  22   1  248.18   37.80
  -3  25  -1  263.87   26.20
 -22  -3  -1  224.78   23.70
  22 -25   1  291.37   40.90
  25 -22  -1  208.48   34.60
  -3  25  -1  200.68   27.40
   3  22   1  239.08   25.00
  26  -4  -1   28.70   13.30
  22   4   1   11.90   21.30
   4 -26   1   18.00   21.50
 -26  22   1    9.20   13.10
 -22  26  -1    4.00   15.70
  26  -4  -1   -7.70   18.50
  -4 -22  -1  -19.10   14.20
 -26  22   1   17.00   19.40
   4  22   1   22.90   13.20
  -4  26  -1   13.00   14.40
  26 -22  -1   18.60   22.20
  -4  26  -1   49.30   18.60
   4  22   1   17.50   27.40
 -22  -4  -1   32.90   15.20
  22 -26   1   31.60   27.40
  27  -5  -1  124.99   23.50
 -27  22   1  134.09   21.30
 -22  27  -1  120.69   22.40
  22   5   1  135.19   24.10
 -27  22   1  142.99   24.20
   5 -27   1  138.09   25.40
  27  -5  -1  127.39   19.50
  -5  27  -1  126.49   22.30
   5  22   1  140.79   20.00
  22 -27   1  165.28   30.80
   5  22   1  153.48   29.40
 -22  -5  -1  138.99   21.50
  27 -22  -1  134.29   25.50
  28  -6  -1  207.38   21.20
 -28  22   1  220.18   22.60
 -22  28  -1  203.48   23.70
 -28  22   1  227.58   25.10
  22   6   1  185.18   31.10
   6 -28   1  181.88   32.50
  28  -6  -1  202.58   28.50
  22 -28   1  249.08   38.80
 -22  -6  -1  222.48   23.80
  28 -22  -1  185.78   27.30
  -6  28  -1  185.48   26.70
   6  22   1  243.78   37.50
 -29  22   1   26.90   14.30
  29  -7  -1   -1.90   19.30
 -22  29  -1   11.30   14.00
 -29  22   1   38.80   18.70
  22   7   1   14.30   19.90
   7 -29   1   10.90   22.40
  29  -7  -1   33.90   12.90
   7  22   1   33.40   24.20
  22 -29   1   37.90   26.70
  -7  29  -1   53.49   17.70
 -22  -7  -1   14.50   13.60
 -29   7   1   58.19   16.40
  -7  29  -1   14.20   15.20
  29 -22  -1    4.40   20.80
  22   8   1  430.26   39.10
 -30  22   1  510.05   33.00
  30  -8  -1  405.16   36.50
 -30  22   1  537.15   33.50
 -22  30  -1  449.46   33.10
   8 -30   1  459.45   41.20
  30  -8  -1  456.65   30.30
  22 -30   1  457.85   45.40
 -22  -8  -1  445.06   33.50
  30 -22  -1  362.56   37.40
   8  22   1  498.25   44.20
  -8  30  -1  417.76   33.50
 -30   8   1  456.75   33.50
 -22  31  -1   52.09   21.80
  31  -9  -1   84.89   15.00
   9 -31   1   78.69   25.80
  22   9   1   68.89   25.00
  31  -9  -1   59.69   22.30
 -31  22   1  131.79   23.60
  -9 -22  -1   53.29   16.20
  22 -31   1   60.39   39.50
  31 -22  -1   74.69   24.50
 -22  -9  -1   71.39   17.40
   9  22   1  107.19   27.50
  -9  31  -1   66.69   16.50
  32 -10  -1  103.59   18.80
  32 -10  -1   72.69   22.60
  10 -32   1  156.18   29.00
  22  10   1  117.79   24.60
 -22  32  -1   86.29   16.80
 -10 -22  -1  128.69   24.00
  22 -32   1  141.49   30.90
  10  22   1  132.59   41.40
  32 -22  -1  144.09   34.90
 -10  32  -1   72.09   17.90
 -22 -10  -1   80.49   17.50
  22  11   1   19.00   21.50
 -33  22   1   60.09   17.60
 -11 -22  -1   16.50   15.00
  33 -11  -1   21.10   15.40
 -33  22   1   69.89   17.60
  11 -33   1   19.10   26.00
 -22  33  -1   27.10   15.70
 -22 -11  -1   24.40   15.10
  11  22   1   38.90   25.50
  22 -33   1   65.09   29.10
 -11  33  -1   17.70   15.30
 -33  11   1   50.59   18.80
  33 -22  -1   49.60   24.00
  11 -23  -1   84.39   20.90
  12  11  -1   31.00   14.70
 -12  23   1   46.80   25.00
  23 -11   1   36.80   13.50
  23 -11   1   64.49   21.50
  12  11  -1   43.50    7.00
 -23  12  -1    6.60   14.80
 -12  23   1   31.20   12.90
  12 -23  -1   82.69   21.60
 -23  11  -1    8.20   14.20
 -11  23   1   30.40   12.60
 -11  23   1   36.10   25.80
  23 -12   1   85.09   22.60
  23 -12   1   38.60   12.70
  11  12  -1   48.70    7.40
  11  12  -1   37.30   14.30
  13  10  -1  124.99   22.10
  23 -10   1  126.29   20.20
 -23  13  -1  105.79   17.40
  10 -23  -1  204.18   30.10
  13  10  -1  144.19   10.80
  23 -10   1  215.48   29.90
 -13  23   1  136.09   20.20
 -13  23   1  136.59   26.10
  10  13  -1  137.29   18.50
  23 -13   1  132.19   17.50
  23 -13   1  216.18   32.20
  10  13  -1  165.98   19.20
 -13 -10   1  116.19   19.30
 -10  23   1  129.29   20.30
 -23  10  -1  102.79   17.60
  13 -23  -1  186.48   28.00
  10  13  -1  137.89   11.20
 -10  23   1  161.58   29.00
   9 -23  -1   32.10   19.30
  14   9  -1   11.10    6.30
  14   9  -1    8.10   14.40
  23  -9   1   46.90   20.30
  23  -9   1   10.20   14.70
 -14  23   1   -6.30   23.50
 -14  23   1    2.70   11.50
  23 -14   1   29.90   23.30
  14 -23  -1   44.80   20.30
 -23   9  -1  -17.50   14.60
  -9  23   1    5.60   12.50
  23 -14   1    6.60    9.90
   9  14  -1   25.00   11.50
   9  14  -1    4.20   14.50
   9  14  -1    1.30    6.90
 -14  -9   1    4.20   12.00
  23  -8   1   -3.20   15.10
  15   8  -1   12.30    6.80
 -15  23   1    1.20   12.00
  15   8  -1   -9.90   14.00
   8 -23  -1   42.70   19.20
  15 -23  -1   43.00   21.00
   8  15  -1   14.50   12.40
  23 -15   1    3.20    9.00
   8  15  -1    5.20    6.90
   8  15  -1    3.60   15.30
  23 -15   1   40.90   24.20
  -8  23   1    4.30   27.40
 -15  -8   1    3.90   12.20
 -23   8  -1  -14.80   14.00
  -8  23   1    7.60   12.10
 -16  23   1   57.59   13.10
   7 -23  -1   83.59   20.30
  16   7  -1   42.10   15.20
  16   7  -1   54.99    9.20
  23  -7   1   20.10   16.80
  23  -7   1   91.49   20.80
  23 -16   1   68.49   26.50
 -23   7  -1   39.10   15.20
  23 -16   1   38.50    9.70
   7  16  -1   45.60   16.30
  -7  23   1   76.39   30.40
   7  16  -1   52.19   12.90
  -7  23   1   50.59   14.50
 -16  -7   1   50.69   12.90
  16 -23  -1   93.89   22.00
   6 -23  -1   32.20   19.30
 -17  23   1   -0.50   12.00
  17   6  -1    7.00   14.00
  23  -6   1   11.30   19.70
  23  -6   1    2.50   17.10
  17   6  -1   10.60    7.90
 -17  -6   1    8.50   11.70
  23 -17   1   32.30   25.30
 -23   6  -1    3.40   14.20
  -6  23   1    9.40   13.00
  23 -17   1   -3.50    7.40
   6  17  -1    6.40   12.70
  -6  23   1    8.80   29.70
  17 -23  -1   50.39   21.90
   6  17  -1    8.70   15.70
   5 -23  -1  162.88   27.80
  23  -5   1   92.89   19.90
 -18  23   1   83.49   14.30
  18   5  -1  117.39   12.50
  18   5  -1  100.09   16.90
   5  18  -1  112.49   18.90
  -5  23   1  127.19   34.30
 -23   5  -1  116.69   23.80
  23 -18   1   71.39   10.30
   5  18  -1  106.29   20.50
 -18  -5   1  103.29   18.10
  -5  23   1  109.29   20.80
  23 -18   1  134.09   28.60
 -19  23   1  143.89   20.40
  23  -4   1  171.88   23.60
 -19  23   1   94.49   25.90
   4 -23  -1  226.88   29.10
  19   4  -1  158.78   21.90
  19   4  -1  186.78   16.00
 -23  19  -1  151.38   20.40
   4  19  -1  174.08   21.10
 -23   4  -1  150.98   21.50
 -19  -4   1  187.48   20.30
  -4  23   1  195.08   35.60
  -4  23   1  160.28   22.80
  23 -19   1  200.98   31.50
  19 -23  -1  251.67   31.90
   4  19  -1  159.68   24.40
 -20  23   1   83.09   14.60
  20   3  -1   81.59   16.00
 -20  23   1   32.60   23.30
  23  -3   1   91.09   21.50
 -23  20  -1   51.89   17.30
  23 -20   1  132.39   29.60
   3  20  -1   72.49   15.60
   3  20  -1  110.99   19.90
 -23   3  -1  104.09   19.00
  -3  23   1   96.09   34.40
  20 -23  -1  119.99   25.30
  -3  23   1  119.29   20.30
 -23  21  -1   28.60   15.50
  23  -2   1   56.89   21.20
  21   2  -1   61.69   15.40
 -21  23   1    1.30   24.20
   2 -23  -1   79.79   20.50
  21   2  -1   89.69   13.60
 -21  23   1   45.70   13.80
 -23   2  -1  107.19   20.00
  -2  23   1   77.29   33.80
   2  21  -1   59.39   16.60
   2  21  -1  101.89   20.10
  21 -23  -1  108.69   26.00
  23 -21   1   73.39   28.80
  -2  23   1   63.99   15.00
 -23  22  -1   51.49   17.30
   1 -23  -1  104.49   21.10
 -22  23   1   56.09   14.40
  22   1  -1   69.69   15.60
 -22  23   1   28.50   24.20
  23  -1   1   56.39   22.10
  22   1  -1   76.89   16.30
  22 -23  -1  130.29   25.40
  23 -22   1   95.99   29.20
 -23   1  -1  103.39   19.80
  -1  23   1   61.09   15.10
  -1  23   1   76.59   33.20
   1  22  -1   65.69   15.90
   1  22  -1   91.29   20.40
 -23  23   1   16.60   13.60
  23   0  -1   26.90   14.90
 -23  23   1    4.90   21.70
   0 -23   1    0.20   18.90
  23   0   1   18.40   21.80
  23   0  -1   37.90   14.20
 -23  23  -1    8.70   15.90
   0 -23  -1   27.50   19.70
  23 -23   1   55.89   28.80
   0  23   1   52.99   30.80
   0  23  -1   31.80   15.10
 -23   0  -1   41.40   15.30
   0  23  -1   47.70   19.60
  23 -23  -1   63.79   24.70
   0  23   1   26.10   14.70
  23   1   1   68.49   22.70
 -23  24  -1   72.29   16.90
  -1 -23  -1   63.09   19.80
   1 -24   1   83.79   22.40
 -24  23   1   64.59   21.80
  24  -1  -1   91.39   15.80
 -24  23   1   70.99   15.50
  24 -23  -1  119.09   24.90
   1  23   1   76.29   15.90
  -1  24  -1   95.59   17.10
  -1  24  -1  124.89   20.60
   1  23   1  136.79   33.10
 -23  -1  -1  109.89   21.00
  23 -24   1  122.49   30.30
  23   2   1   38.40   21.50
  25  -2  -1   52.59   14.40
  25  -2  -1   31.60   16.20
   2 -25   1   39.30   21.50
 -25  23   1   40.70   14.10
 -23  25  -1   26.60   15.80
  25 -23  -1   77.69   23.70
 -23  -2  -1   53.59   14.20
   2  23   1   42.00   14.50
  -2  25  -1   88.89   19.70
  23 -25   1   76.49   28.60
   2  23   1   81.19   29.70
  -2  25  -1   52.19   16.40
 -23  26  -1   66.49   16.80
  23   3   1   66.09   22.10
  26  -3  -1   74.89   19.00
  26  -3  -1   76.49   14.70
   3 -26   1   50.49   22.00
  -3 -23  -1   47.50   16.50
 -26  23   1   63.39   14.70
 -26  23   1   56.49   19.60
  -3  26  -1   60.09   17.00
  23 -26   1  117.99   29.70
   3  23   1   77.69   28.80
 -23  -3  -1   69.39   15.50
   3  23   1   62.99   15.30
  -3  26  -1  107.69   20.00
  26 -23  -1   86.19   23.40
 -27  23   1   69.39   14.80
 -27  23   1   69.49   22.60
  23   4   1   42.20   20.70
  27  -4  -1   60.19   14.00
   4 -27   1   56.19   22.40
 -23  27  -1   46.50   15.90
  27  -4  -1   63.59   20.10
 -23  -4  -1   47.30   15.70
  23 -27   1   83.79   28.00
  -4  27  -1   92.19   19.30
   4  23   1   45.80   14.40
  -4  27  -1   41.20   15.60
  27 -23  -1   51.39   22.90
   4  23   1   97.39   28.30
  23   5   1   64.89   21.20
 -23  28  -1   48.10   15.30
  28  -5  -1   53.09   13.70
   5 -28   1   70.19   23.10
  28  -5  -1   41.90   20.50
 -28  23   1   66.19   21.90
 -28  23   1   62.69   14.80
  -5  28  -1   38.60   16.30
   5  23   1   63.69   14.20
   5  23   1   75.09   26.90
  28 -23  -1   37.90   22.50
  23 -28   1   72.69   27.90
 -23  -5  -1   98.89   20.40
  -5  28  -1  102.69   18.90
 -23  29  -1   12.60   14.10
 -29  23   1   48.60   14.40
  23   6   1   18.30   20.20
   6 -29   1   16.80   22.10
  29  -6  -1   13.70   20.60
  29  -6  -1   27.50   12.90
 -29  23   1   13.10   18.30
  23 -29   1   54.89   27.50
 -29   6   1   57.79   16.40
  -6  29  -1   23.30   14.50
   6  23   1   56.49   26.20
 -23  -6  -1   35.00   16.30
  29 -23  -1    3.90   21.10
  30  -7  -1  443.86   36.40
 -30  23   1  457.85   31.80
 -30  23   1  492.15   39.70
  30  -7  -1  382.46   29.70
  23   7   1  375.36   36.30
 -23  30  -1  392.06   32.50
   7 -30   1  423.66   40.00
   7  23   1  469.55   43.70
  -8 -23  -1   21.50   16.90
   8 -31   1   38.10   24.40
 -31  23   1   57.69   16.60
  31  -8  -1   39.40   14.00
 -23  31  -1   21.90   15.10
 -31  23   1   55.59   18.30
  23   8   1   22.10   21.20
  -8  31  -1   33.00   15.40
  31 -23  -1   11.90   32.00
  23 -31   1   64.29   28.10
 -31   8   1   64.69   17.70
   8  23   1   66.69   26.70
 -23  -8  -1   35.80   16.80
  -9 -23  -1   41.80   15.30
  32  -9  -1   53.69   14.90
 -32  23   1   87.49   19.00
   9 -32   1   59.99   26.40
 -23  32  -1   54.99   15.80
 -32  23   1   90.19   22.50
  23   9   1   46.00   22.00
  32 -23  -1   42.60   24.70
  23 -32   1   79.49   29.60
 -23  -9  -1   37.00   16.10
  -9  32  -1   39.10   16.60
   9  23   1   52.29   34.80
 -33  23   1   85.79   21.40
 -10 -23  -1   36.60   16.40
 -33  23   1   70.19   20.00
  33 -10  -1   42.90   14.70
  23  10   1   31.30   21.00
 -23  33  -1   42.90   15.70
  10 -33   1   48.40   27.00
  33 -23  -1   55.49   23.90
 -23 -10  -1   47.90   15.70
  10  23   1   75.89   27.10
 -10  33  -1   28.00   15.50
  23 -33   1   69.69   29.50
 -33  10   1   64.09   17.80
  24 -12   1   10.40   13.20
 -12  24   1    5.00   12.30
  12 -24  -1   63.39   21.30
 -24  12  -1  -24.80   13.70
 -12  24   1   15.30   26.00
  12  12  -1    0.10    6.70
  12  12  -1    2.00   14.80
  24 -11   1   72.09   16.60
 -13  24   1   61.09   14.10
  13  11  -1   65.19   16.00
  13  11  -1   54.99    8.90
 -13  24   1   88.89   26.30
 -24  13  -1   33.20   16.10
 -13 -11   1   51.59   14.70
 -11  24   1   66.29   14.30
  13 -24  -1  117.49   22.30
 -24  11  -1   34.10   15.70
  11  13  -1   67.59   16.20
  24 -13   1   79.49   14.30
  24 -13   1   99.29   23.90
 -11  24   1  103.79   29.30
  11  13  -1   57.69    9.30
  24 -10   1  314.37   31.80
 -14  24   1  237.28   23.30
 -14  24   1  252.67   36.60
  10 -24  -1  286.47   31.10
  14  10  -1  228.48   24.40
  24 -10   1  206.78   23.90
 -24  14  -1  179.48   25.10
  14  10  -1  237.08   15.00
  14 -24  -1  285.87   32.70
 -14 -10   1  244.38   24.10
 -10  24   1  234.28   23.80
  24 -14   1  253.57   19.90
  10  14  -1  278.17   22.90
 -10  24   1  273.27   44.40
  10  14  -1  231.48   15.50
  10  14  -1  205.68   26.10
  24 -14   1  308.77   35.50
 -24  10  -1  193.88   25.20
   9 -24  -1  410.66   35.60
  24  -9   1  415.76   31.40
  15   9  -1  413.06   30.20
 -15  24   1  415.26   29.40
  15   9  -1  433.66   22.50
  24  -9   1  519.05   36.90
 -15  24   1  343.77   40.50
 -24  15  -1  360.76   32.00
  24 -15   1  456.25   40.20
   9  15  -1  357.36   30.40
 -24   9  -1  380.36   31.00
  24 -15   1  402.46   26.30
  -9  24   1  435.96   30.10
 -15  -9   1  463.15   30.40
   9  15  -1  393.36   22.80
  -9  24   1  462.25   45.90
  15 -24  -1  460.85   37.90
   9  15  -1  403.96   27.80
   8 -24  -1   73.69   21.20
 -16  24   1   26.00   12.80
  16   8  -1   42.10   15.00
  16   8  -1   41.10    7.90
  24  -8   1   37.80   16.70
  -8  24   1   61.09   31.70
 -16  -8   1   28.30   13.60
  24 -16   1   24.40   10.10
  16 -24  -1   79.49   22.30
   8  16  -1   33.00   13.70
  -8  24   1   28.10   13.80
   8  16  -1   39.70   10.30
 -24   8  -1   35.40   14.80
   8  16  -1   39.10   16.90
  24 -16   1  102.59   26.60
 -24  17  -1  116.69   19.70
  24  -7   1  162.18   24.30
  17   7  -1  163.78   12.40
  17   7  -1  141.49   23.70
 -17  24   1  124.19   20.60
   7 -24  -1  190.88   29.90
  24  -7   1  151.28   21.20
 -17  -7   1  145.39   20.20
  24 -17   1  154.38   15.10
  -7  24   1  227.28   35.10
  24 -17   1  253.57   37.70
   7  17  -1  174.18   20.50
   7  17  -1  139.69   24.60
 -24   7  -1  137.69   24.10
  17 -24  -1  191.58   30.60
  -7  24   1  167.68   23.00
   6 -24  -1   25.80   20.60
  18   6  -1   16.20    8.60
 -18  24   1    4.00   12.60
  18   6  -1    9.30   14.70
  24  -6   1    5.90   17.50
 -18  -6   1   10.90   12.60
  -6  24   1   19.40   30.80
  18 -24  -1   72.39   23.10
  -6  24   1    2.80   13.00
   6  18  -1   16.70   16.80
  24 -18   1   -2.50    7.40
  24 -18   1   28.90   27.20
 -24   6  -1   11.80   14.80
   6  18  -1   17.20   12.60
   5 -24  -1   46.60   21.30
  19   5  -1   24.10   15.20
  24  -5   1   18.20   18.40
  19   5  -1   33.00   10.80
 -19  24   1   26.20   13.00
 -24   5  -1   48.00   15.70
  19 -24  -1   95.19   24.10
  -5  24   1   49.00   33.00
   5  19  -1   38.60   17.40
   5  19  -1   39.90   13.50
 -19  -5   1   31.10   12.70
  -5  24   1   27.70   14.10
  24 -19   1   66.69   27.40
  -4 -20   1  250.77   29.40
  20   4  -1  353.06   28.40
 -20  24   1  303.97   26.10
 -24  20  -1  282.07   29.70
  24  -4   1  295.47   32.50
   4 -24  -1  367.06   34.30
  -4  24   1  403.86   47.40
   4  20  -1  360.36   26.80
 -20  -4   1  377.36   25.20
  -4  24   1  346.87   29.20
  20 -24  -1  401.66   36.70
  24 -20   1  402.96   40.90
 -24   4  -1  292.17   30.10
   4  20  -1  339.37   29.80
  21   3  -1  157.28   17.30
 -24  21  -1  134.79   19.60
  24  -3   1  143.19   23.60
  21   3  -1  158.38   21.40
 -21  24   1  137.49   21.10
   3 -24  -1  172.08   24.20
 -21  24   1   79.49   27.70
  24 -21   1  199.28   31.60
   3  21  -1  145.69   22.10
  -3  24   1  206.78   37.80
 -24   3  -1  148.99   22.30
   3  21  -1  168.38   25.30
  -3  24   1  159.08   22.30
  21 -24  -1  256.67   35.60
  22   2  -1   69.99   13.30
  24  -2   1   59.79   21.10
  22   2  -1   54.79   15.20
   2 -24  -1   68.69   27.90
 -22  24   1   47.00   14.10
 -24  22  -1   22.80   15.90
 -24   2  -1   63.99   16.90
  -2  24   1   96.29   33.60
   2  22  -1   69.19   19.50
  -2  24   1   69.79   15.30
   2  22  -1   53.39   16.20
  24 -22   1   92.09   29.20
  22 -24  -1   84.29   25.00
  23   1  -1  172.88   19.80
  24  -1   1  151.78   24.20
  23   1  -1  175.88   21.80
   1 -24  -1  181.88   24.00
 -23  24   1  155.68   22.10
 -24  23  -1  122.09   23.60
  23 -24  -1  183.38   27.90
  -1  24   1  165.08   22.00
  24 -23   1  246.38   40.20
 -24   1  -1  180.98   22.10
   1  23  -1  152.28   23.50
  -1  24   1  233.08   36.00
   1  23  -1  197.28   25.10
  24   0  -1   31.90   14.70
 -24  24  -1   -5.20   15.20
   0 -24  -1    2.80   18.90
 -24  24   1   21.50   13.60
  24   0  -1   27.60   14.20
  24   0   1    3.50   20.10
  24 -24  -1   41.00   23.60
   0  24  -1   54.89   19.10
 -24   0  -1   36.50   14.30
  24 -24   1   47.90   28.30
   0  24   1   64.19   30.80
   0  24  -1   20.00   14.50
   0  24   1   23.10   13.80
  -1 -24  -1  139.49   22.00
  25  -1  -1  127.89   19.60
 -25  24   1  145.09   22.00
  25  -1  -1  165.98   21.60
  24   1   1  147.59   24.00
 -24  25  -1  125.49   23.50
   1 -25   1  148.29   24.40
  -1  25  -1  147.39   22.30
 -24  -1  -1  150.48   23.00
   1  24   1  141.79   21.50
   1  24   1  242.68   39.50
  -1  25  -1  194.78   25.60
  25 -24  -1  190.18   33.70
  24 -25   1  204.18   31.90
 -26  24   1  259.67   25.10
 -26  24   1  256.07   33.10
  26  -2  -1  259.77   27.90
  24   2   1  261.87   30.20
   2 -26   1  284.97   32.30
  -2 -24  -1  207.48   26.40
  26  -2  -1  254.67   24.30
 -24  26  -1  258.27   27.50
  -2  26  -1  284.07   26.50
 -24  -2  -1  287.37   25.70
  -2  26  -1  352.76   29.50
  24 -26   1  335.17   39.20
  26 -24  -1  267.57   32.70
   2  24   1  368.06   41.70
   2  24   1  282.37   25.20
  27  -3  -1   -1.30   16.40
  24   3   1   37.20   19.80
 -24  27  -1    9.80   15.40
 -27  24   1    3.50   17.80
   3 -27   1   33.10   21.20
 -27  24   1   33.60   13.80
  27  -3  -1   27.00   12.90
   3  24   1   27.70   13.10
  24 -27   1   63.89   27.60
  27 -24  -1   58.59   22.70
 -24  -3  -1   32.30   15.10
  -3  27  -1   31.10   15.60
   3  24   1   77.19   28.30
  -3  27  -1   71.79   19.50
 -28  24   1  593.04   43.30
  28  -4  -1  538.75   35.30
  28  -4  -1  503.75   38.10
 -24  28  -1  547.65   36.60
   4 -28   1  538.75   42.50
  24   4   1  515.25   39.90
 -28  24   1  597.74   36.20
  28 -24  -1  484.35   42.70
  24 -28   1  596.94   48.40
  -4  28  -1  519.05   37.80
   4  24   1  643.44   48.70
   4  24   1  517.75   35.70
 -28   4   1  652.83   35.80
  -4  28  -1  618.34   37.70
 -29  24   1   90.79   24.90
   5 -29   1  105.49   24.30
  24   5   1  108.59   22.50
  29  -5  -1  112.19   19.30
  29  -5  -1   67.99   22.20
 -24  29  -1   97.49   17.50
 -29  24   1  114.49   20.20
  -5  29  -1  170.28   23.80
   5  24   1  130.09   29.20
  24 -29   1  137.59   29.90
  -5  29  -1  118.29   23.80
 -24  -5  -1  100.39   21.20
   5  24   1  118.29   20.10
  29 -24  -1   73.89   23.10
 -30  24   1  114.89   21.60
  30  -6  -1   67.09   22.70
 -30  24   1   99.69   27.30
  30  -6  -1   76.89   15.60
   6 -30   1   96.99   25.40
  24   6   1   97.79   31.60
  -6  30  -1  148.79   24.10
  -6  30  -1   81.49   20.10
  30 -24  -1   60.79   23.60
 -30   6   1  131.89   23.80
  24 -30   1   85.99   31.90
   6  24   1  143.59   29.00
  24   7   1   83.09   22.90
  31  -7  -1   96.69   24.40
 -24  31  -1   62.99   17.00
  31  -7  -1  112.99   19.40
 -31  24   1   94.69   21.90
   7 -31   1   87.69   26.00
  -7  31  -1   72.49   17.20
 -24  -7  -1   78.69   17.60
   7  24   1  153.88   30.20
  24 -31   1  116.09   29.50
  31 -24  -1   57.99   27.40
   8 -32   1  130.29   28.60
  32  -8  -1  153.08   26.60
 -24  32  -1  127.49   23.20
  -8 -24  -1  127.99   21.90
 -32  24   1  142.49   23.40
  32  -8  -1  128.89   20.30
  24   8   1   99.99   23.20
  24 -32   1  132.39   31.10
  -8  32  -1   98.39   19.00
  32 -24  -1   99.49   26.20
 -24  -8  -1  110.79   22.80
   8  24   1  171.88   34.60
   9 -33   1   -9.40   25.10
 -33  24   1   52.29   16.70
  -9 -24  -1    0.90   16.10
 -33  24   1   20.90   20.00
 -24  33  -1    9.20   15.00
  24   9   1    5.20   20.30
  -9  33  -1    7.40   15.10
  24 -33   1   31.90   28.60
  33 -24  -1   24.20   24.10
 -33   9   1   36.40   19.20
 -24  -9  -1   16.70   14.60
  12 -25  -1  113.39   23.00
  13  12  -1   52.69    7.90
 -13  25   1   49.10   14.50
  13  12  -1   53.79   16.50
 -13 -12   1   49.50   14.70
  12  13  -1   45.70   16.50
 -12  25   1   55.19   14.20
  25 -13   1   61.99   14.20
  13 -25  -1   97.19   22.70
  12  13  -1   63.79    8.20
  11 -25  -1  123.49   23.30
 -14  25   1   83.99   15.10
  14  11  -1   65.09   16.20
 -25  14  -1   40.60   16.80
  14  11  -1   77.19    9.60
  25 -11   1   78.49   16.50
 -14  25   1  149.09   28.50
  14 -25  -1  125.69   23.70
 -14 -11   1   74.09   14.90
 -11  25   1   71.39   14.90
 -25  11  -1   43.90   16.40
 -11  25   1  141.89   32.90
  25 -14   1  124.09   25.40
  11  14  -1   67.99   16.80
  25 -14   1   82.39   13.60
  11  14  -1   66.09   10.00
 -15  25   1    0.80   13.40
  25 -10   1    6.70   15.30
  15  10  -1   15.00    6.70
  15  10  -1    3.30   15.20
  10 -25  -1   41.50   21.70
  25 -10   1   53.49   21.80
 -15  25   1   66.79   25.50
  10  15  -1   24.90   12.80
  25 -15   1   11.80   11.60
 -15 -10   1    3.10   13.10
 -10  25   1   54.59   30.90
  10  15  -1   11.70   16.40
 -25  10  -1  -15.40   15.80
  10  15  -1    9.20    7.70
  15 -25  -1   55.09   22.50
 -10  25   1    7.60   13.60
  25  -9   1   -1.70   15.40
  25  -9   1   31.30   21.30
   9 -25  -1   34.20   21.10
  16   9  -1   10.70    6.90
 -16  25   1   -6.70   24.40
 -16  25   1   -0.70   12.80
  16   9  -1   -1.20   15.00
  16 -25  -1   51.99   22.80
  25 -16   1   -4.70   10.70
  -9  25   1    3.00   13.20
 -16  -9   1   12.60   14.70
 -25   9  -1  -19.30   15.40
   9  16  -1   17.40   12.80
   9  16  -1  -11.20   16.00
  -9  25   1   39.70   32.20
  25 -16   1   52.89   25.00
 -25  17  -1    9.60   17.10
 -17  25   1   38.40   13.70
  17   8  -1   64.19   10.60
   8 -25  -1   84.19   22.30
  17   8  -1   49.70   16.10
  25  -8   1   47.60   17.80
  25  -8   1   27.80   21.70
 -17  -8   1   46.40   14.80
  25 -17   1   83.39   27.00
   8  17  -1   65.59   17.90
 -25   8  -1   32.70   16.40
  17 -25  -1  119.69   24.20
  -8  25   1   96.89   33.30
  25 -17   1   61.59   11.40
  -8  25   1   47.20   15.20
   8  17  -1   51.49   15.30
  18   7  -1   21.00    7.90
 -18  25   1   11.90   13.20
  25  -7   1   -8.60   20.60
  25  -7   1   17.50   18.10
  18   7  -1    9.60   15.20
   7 -25  -1   37.20   21.90
  18 -25  -1   67.59   23.40
  -7  25   1   59.49   32.30
   7  18  -1   21.50   13.90
  -7  25   1   34.80   14.60
 -25   7  -1    9.90   15.90
 -18  -7   1    8.80   14.50
  25 -18   1   16.30    8.90
   7  18  -1   23.30   17.00
  25 -18   1   79.89   27.00
  -6 -19   1   54.79   15.70
 -19  25   1   24.60   13.90
  25  -6   1  -15.70   18.50
  25  -6   1   17.10   18.90
   6 -25  -1   45.10   21.90
  19   6  -1   30.20    9.00
  19   6  -1   38.00   16.00
  -6  25   1   20.90   14.10
  -6  25   1   83.79   34.30
   6  19  -1   28.00   14.20
  25 -19   1   78.89   27.80
   6  19  -1   18.00   17.60
  19 -25  -1   66.59   24.20
 -19  -6   1   26.80   14.00
 -25   6  -1   29.80   15.30
   5 -25  -1   28.20   21.40
  -5 -20   1  -14.60   15.80
  20   5  -1    3.80   14.70
 -20  25   1    3.00   12.90
  20   5  -1   11.80   10.30
  25  -5   1   17.20   19.40
  -5  25   1   78.49   35.20
   5  20  -1   11.40   17.60
 -20  -5   1   28.70   14.60
  -5  25   1    5.30   14.20
   5  20  -1   14.00   14.20
  25 -20   1   65.79   28.10
 -25   5  -1   32.40   15.90
  20 -25  -1   29.90   24.30
  21   4  -1   14.80   14.40
   4 -25  -1    7.80   20.90
 -21  25   1    1.00   12.90
  25  -4   1   12.20   19.20
 -25   4  -1   16.90   15.10
  -4  25   1   19.00   14.40
   4  21  -1   18.70   15.60
  25 -21   1   57.59   28.10
  21 -25  -1   49.80   24.40
 -21  -4   1   35.10   15.10
  -4  25   1   69.29   34.90
   4  21  -1   34.90   18.20
  25  -3   1    3.90   19.20
   3 -25  -1   42.00   20.60
  22   3  -1   35.20   14.30
  22   3  -1   29.00   11.80
 -25  22  -1   -4.10   15.60
 -22  25   1   17.80   13.60
  25 -22   1   66.39   28.20
  -3  25   1   73.89   33.80
 -22  -3   1   50.39   15.60
   3  22  -1   44.40   18.40
 -25   3  -1   31.90   14.40
  -3  25   1   30.70   14.80
   3  22  -1   27.70   14.00
  22 -25  -1   66.29   24.70
   2 -25  -1    9.70   19.80
  23   2  -1   21.30   13.10
  23   2  -1   22.40   14.20
  25  -2   1    8.90   19.50
 -25  23  -1    5.10   15.50
 -23  25   1   19.40   13.30
  23 -25  -1   60.49   24.40
  -2  25   1   65.89   31.90
 -25   2  -1   34.40   14.70
 -23  -2   1   56.39   15.10
   2  23  -1   32.80   14.60
  -2  25   1   20.60   14.00
  25 -23   1   54.69   28.20
   2  23  -1   35.80   18.70
  25  -1   1   -9.00   18.50
 -24  25   1   -8.90   12.40
 -25  24  -1  -21.20   14.70
  24   1  -1   -7.90   15.20
  24   1  -1    2.50   13.40
  24 -25  -1   40.10   23.10
 -25   1  -1   17.90   16.00
   1  24  -1   11.30   18.00
  -1  25   1    7.80   13.50
  25 -24   1   35.00   27.50
  -1  25   1   36.90   30.70
   1  24  -1    3.90   13.90
   0 -25   1   -7.80   18.50
 -25  25   1   14.50   13.10
  25   0  -1   18.50   13.90
 -25  25  -1   -3.30   14.30
  25   0   1   10.10   19.00
   0 -25  -1   -9.30   18.20
   0  25  -1   53.99   18.70
  25 -25  -1   40.60   23.30
   0  25  -1   17.80   14.00
   0  25   1   62.39   29.60
   0  25   1   26.40   13.90
  25 -25   1   70.99   28.40
 -25   0  -1   38.90   14.70
  -1 -25  -1  -10.00   18.30
 -26  25   1   42.70   14.00
   1 -26   1   36.80   20.30
  26  -1  -1   29.70   13.60
  25   1   1   31.50   19.40
  26  -1  -1   38.10   17.60
 -25  26  -1   22.80   15.00
  -1  26  -1   60.89   19.10
  25 -26   1   79.69   27.30
 -25  -1  -1   45.80   15.40
  -1  26  -1   33.90   14.00
  26 -25  -1   49.90   21.90
   1  25   1   28.70   14.10
   1  25   1   94.79   29.20
 -27  25   1  -27.80   21.10
   2 -27   1   37.40   20.70
  27  -2  -1   22.90   13.10
 -25  27  -1    6.30   14.40
  27  -2  -1   -2.10   13.80
 -27  25   1   18.40   13.40
  25   2   1   19.50   19.40
   2  25   1   24.30   14.70
  -2  27  -1   18.80   14.30
 -25  -2  -1   40.40   15.40
  -2  27  -1   49.00   18.70
  27 -25  -1   26.40   22.10
   2  25   1   54.09   28.40
  25 -27   1   48.70   27.00
 -28  25   1  189.08   21.80
 -28  25   1  146.79   23.80
  28  -3  -1  178.98   21.40
   3 -28   1  199.48   31.40
 -25  28  -1  189.48   26.20
  25   3   1  175.28   29.70
  28  -3  -1  153.38   23.00
 -25  -3  -1  138.89   24.20
   3  25   1  162.18   22.80
  -3  28  -1  195.98   24.80
  28 -25  -1  179.78   32.20
 -28   3   1  223.38   21.10
   3  25   1  252.57   37.70
  25 -28   1  253.37   39.20
   4 -29   1   25.10   21.90
 -29  25   1   -5.70   22.90
  29  -4  -1   26.10   13.50
  25   4   1   24.50   19.90
 -29  25   1   25.40   13.80
 -25  29  -1   10.10   15.10
  29  -4  -1  -19.30   17.80
  29 -25  -1   -2.20   21.70
  -4  29  -1   22.60   22.20
  -4  29  -1   52.89   19.10
   4  25   1   84.69   29.00
   4  25   1   10.10   15.70
 -30  25   1  130.89   29.80
  30  -5  -1  117.79   19.90
 -30  25   1  160.28   22.70
  30  -5  -1  105.79   23.20
   5 -30   1  137.49   26.80
 -25  30  -1  120.69   22.30
  -5  30  -1  106.79   19.00
  -5  30  -1  191.48   25.70
  30 -25  -1  129.79   35.50
 -30   5   1  163.48   24.40
   5  25   1  125.19   22.80
  25 -30   1  176.48   32.10
 -25  -5  -1  104.69   21.20
   5  25   1  171.08   31.10
 -25  31  -1   21.50   14.80
  31  -6  -1   32.10   14.30
  25   6   1   18.30   20.60
   6 -31   1   17.70   24.20
 -31  25   1    2.70   26.00
 -31  25   1   46.70   16.80
  31  -6  -1  -11.40   21.40
 -31   6   1   66.49   19.60
  -6  31  -1   31.30   16.10
 -25  -6  -1   31.20   15.80
  25 -31   1   30.60   28.90
   6  25   1   78.79   28.80
  31 -25  -1   22.00   22.00
  -6  31  -1   51.69   18.70
   7 -32   1   38.40   25.80
 -32  25   1   19.40   20.20
 -25  32  -1   35.50   15.80
 -32  25   1   72.29   18.70
  32  -7  -1   48.90   22.40
  25   7   1   53.39   21.50
  -7  32  -1   28.90   17.20
  32 -25  -1   45.90   23.80
  25 -32   1   84.29   30.20
   7  25   1   60.59   31.00
 -25  -7  -1   31.90   16.50
 -26  13  -1  201.28   27.80
  13  13  -1  253.27   16.10
  26 -13   1  314.67   33.70
  13 -26  -1  284.27   34.30
 -13  26   1  283.67   24.60
  13  13  -1  249.78   25.90
 -13 -13   1  288.37   30.20
  14  12  -1   34.40   16.10
  26 -12   1   40.20   15.30
  14  12  -1   42.40    7.50
 -14  26   1   30.70   14.10
 -26  14  -1    0.10   15.50
  12 -26  -1   70.99   22.70
  14 -26  -1   62.09   23.00
 -12  26   1   32.00   14.60
 -26  12  -1   27.10   15.40
  12  14  -1   30.60   16.40
  26 -14   1   37.90   13.60
  12  14  -1   37.60    7.90
 -14 -12   1   31.30   14.50
  15  11  -1   64.09    9.70
  11 -26  -1   91.39   22.90
 -26  15  -1   31.00   16.20
  26 -11   1   53.49   16.40
  15  11  -1   49.70   16.50
 -15  26   1   68.69   15.60
  26 -11   1  115.69   23.50
 -26  11  -1   27.70   16.60
  15 -26  -1   92.59   23.90
 -11  26   1  150.18   32.90
 -15 -11   1   66.49   15.30
  11  15  -1   69.79    9.30
 -11  26   1   68.09   15.50
  11  15  -1   64.29   17.30
  26 -15   1   78.69   14.90
  26 -10   1    3.80   21.70
  16  10  -1    2.00    6.50
  26 -10   1   -6.60   15.10
 -16  26   1    0.90   13.20
  16  10  -1   -7.70   15.20
  10 -26  -1   38.60   22.00
 -26  10  -1  -18.50   15.10
 -10  26   1    5.30   13.40
  10  16  -1   11.10   13.20
  16 -26  -1   30.10   22.60
 -16 -10   1    2.40   13.40
  10  16  -1   -4.70   16.40
  26 -16   1   10.40   11.60
  17   9  -1   29.60    7.90
  17   9  -1   20.30   15.70
 -26  17  -1  -10.90   16.30
   9 -26  -1   47.30   22.20
 -17  26   1   23.50   13.80
 -17  26   1   71.49   24.80
  26  -9   1    5.50   21.60
  26  -9   1   27.90   17.00
   9  17  -1   29.30   16.80
   9  17  -1   38.20   13.50
  17 -26  -1   62.49   23.20
 -17  -9   1   16.90   14.90
  -9  26   1   27.00   14.70
  -9  26   1   95.59   32.80
 -26   9  -1   11.80   15.90
  26 -17   1   74.49   26.10
 -18  26   1  197.58   23.10
  26  -8   1  188.98   30.30
  18   8  -1  215.38   14.00
   8 -26  -1  224.58   30.80
  26  -8   1  189.38   26.30
  18   8  -1  198.28   25.50
 -18  -8   1  181.38   22.50
   8  18  -1  213.28   23.50
  -8  26   1  209.48   26.10
   8  18  -1  221.18   26.90
  26 -18   1  193.08   17.00
  26 -18   1  308.07   37.70
 -26   8  -1  159.18   27.40
  18 -26  -1  265.87   32.60
 -19  26   1  117.89   21.10
  26  -7   1  131.59   20.80
  19   7  -1  126.59   23.40
  19   7  -1  137.69   11.70
   7 -26  -1  183.98   25.50
 -26  19  -1  106.69   19.00
   7  19  -1  121.19   22.70
  -7  26   1  134.89   21.20
  19 -26  -1  201.98   34.20
  26 -19   1  112.39   14.10
   7  19  -1  152.28   25.20
 -19  -7   1  138.29   20.70
  20   6  -1   24.00    9.00
 -20  26   1   19.80   13.60
  -6 -20   1   46.90   15.70
   6 -26  -1   42.50   22.50
  20   6  -1   23.30   15.00
  26  -6   1   33.30   18.60
   6  20  -1   43.60   18.00
   6  20  -1   26.40   14.00
  -6  26   1   37.90   14.60
 -26   6  -1   21.80   16.50
  20 -26  -1   54.69   23.80
  26 -20   1   90.69   27.10
  -6  26   1  116.69   35.80
 -20  -6   1   36.70   13.10
   5 -26  -1  108.39   23.30
  21   5  -1   92.79   16.40
 -21  26   1   85.79   15.30
  26  -5   1   81.49   20.10
  26 -21   1  146.29   28.90
  -5  26   1   87.99   16.50
 -26   5  -1   69.29   18.10
   5  21  -1   98.59   20.50
  21 -26  -1  116.39   26.20
 -22  26   1   10.30   12.70
  22   4  -1   29.60   11.10
  22   4  -1   23.80   14.10
  26  -4   1   38.60   19.00
   4 -26  -1    8.30   20.80
  26 -22   1   62.59   27.70
 -26   4  -1   21.80   15.90
  22 -26  -1   60.89   24.20
  -4  26   1   97.39   34.10
   4  22  -1   25.90   18.10
   4  22  -1   19.30   14.30
  -4  26   1   15.80   13.60
  23   3  -1   27.40   13.80
   3 -26  -1   22.10   20.40
  26  -3   1   19.60   18.80
 -23  26   1   19.00   13.20
  23   3  -1   18.70   11.70
  23 -26  -1   58.59   24.50
  26 -23   1   48.00   27.00
  -3  26   1   25.30   14.10
  -3  26   1   86.29   32.00
   3  23  -1   21.50   15.30
   3  23  -1   42.40   18.30
 -26   3  -1   33.30   14.70
  24   2  -1   40.80   14.30
  24   2  -1   47.90   12.60
  26  -2   1   52.29   19.50
 -24  26   1   43.30   13.90
   2 -26  -1   25.30   20.10
 -26  24  -1   14.60   15.40
  26 -24   1   84.79   28.50
  24 -26  -1   78.59   24.30
  -2  26   1   35.20   14.40
   2  24  -1   75.89   19.20
  -2  26   1  132.49   32.60
 -26   2  -1   59.39   15.90
   2  24  -1   37.80   14.30
  25   1  -1    0.60   13.70
  26  -1   1   -4.40   18.50
 -25  26   1    6.20   12.30
   1 -26  -1  -37.50   18.70
  25   1  -1    5.70   13.20
 -26  25  -1  -13.00   14.50
  25 -26  -1   29.00   22.40
   1  25  -1   12.20   13.70
  -1  26   1    0.40   13.10
  -1  26   1   77.39   30.10
 -26   1  -1   22.00   14.90
   1  25  -1   36.10   18.20
 -26  26   1  108.69   19.60
   0 -26   1  125.19   22.40
  26   0  -1  119.79   20.00
 -26  26  -1   74.49   17.90
  26   0  -1  116.29   19.10
  26   0   1  113.99   22.00
   0  26   1  112.49   21.90
  26 -26   1  156.38   30.00
  26 -26  -1  118.29   24.50
   0  26  -1  139.49   24.40
 -26   0  -1  133.89   21.00
   0  26   1  216.08   37.40
   0  26  -1  113.59   22.80
 -26  27  -1   20.00   15.00
  26   1   1   24.60   19.00
 -27  26   1   29.50   13.60
  27  -1  -1   11.70   14.90
  27  -1  -1   30.10   13.50
   1 -27   1   64.59   21.00
  -1  27  -1   24.20   14.70
  26 -27   1   69.59   28.30
  -1  27  -1   71.29   19.70
 -26  -1  -1   44.10   15.20
  27 -26  -1   33.60   22.00
   1  26   1   82.79   29.80
   1  26   1   23.50   13.70
   2 -28   1   64.09   21.90
  26   2   1   53.09   20.80
  28  -2  -1   42.50   20.50
 -28  26   1   55.29   15.10
 -28  26   1   -2.60   23.20
 -26  28  -1   51.09   16.70
  28  -2  -1   47.00   14.20
   2  26   1   52.59   15.00
  26 -28   1  100.59   36.20
  -2  28  -1   99.69   20.40
  -2  28  -1   53.69   15.80
  28 -26  -1   60.69   24.20
 -26  -2  -1   48.40   16.60
   3 -29   1   45.00   22.50
  29  -3  -1   38.30   14.20
  26   3   1   41.60   20.40
 -29  26   1   -9.10   19.90
  29  -3  -1   21.00   17.50
 -29  26   1   39.00   14.70
  29 -26  -1   32.90   34.00
  26 -29   1   71.59   29.10
   3  26   1  112.69   30.90
  -3  29  -1   86.29   20.00
  -3  29  -1   26.70   16.50
   3  26   1   24.00   19.10
 -30  26   1   42.80   22.00
 -30  26   1   78.09   17.50
  30  -4  -1   74.19   17.70
   4 -30   1   69.09   24.80
  26   4   1   51.59   22.90
 -26  30  -1   56.89   17.10
  30  -4  -1   54.09   20.30
  30 -26  -1   28.00   23.00
   4  26   1   60.89   16.10
   4  26   1  141.59   31.40
  -4  30  -1   64.79   16.40
  26 -30   1   92.19   29.50
 -26  -4  -1   41.40   15.70
  31  -5  -1   -0.30   25.00
  31  -5  -1   46.00   16.80
 -31  26   1    5.40   21.30
  26   5   1   23.00   20.20
 -26  31  -1   32.10   15.70
   5 -31   1   73.09   25.40
 -31  26   1   52.59   15.80
 -26  -5  -1   20.80   15.60
  26 -31   1   76.29   29.10
 -31   5   1   79.09   19.00
  -5  31  -1   36.50   16.20
   5  26   1  103.49   30.40
  31 -26  -1   38.10   22.70
  -5  31  -1   68.59   20.20
  26   6   1  245.28   32.60
 -26  32  -1  273.97   27.80
  32  -6  -1  226.98   30.80
 -32  26   1  262.57   31.30
   6 -32   1  275.67   37.60
  32  -6  -1  278.67   25.30
  -6  32  -1  237.28   31.20
  32 -26  -1  224.18   34.60
   6  26   1  376.36   44.50
  26 -32   1  328.17   40.10
  14  13  -1   67.29    9.70
  14  13  -1   75.39   17.50
 -14  27   1   64.49   15.50
  27 -13   1   76.29   16.20
 -13 -14   1   48.50   15.90
  13 -27  -1   62.89   23.30
 -13  27   1   60.59   15.40
 -27  13  -1   36.70   16.10
  13  14  -1   69.49    8.80
 -14 -13   1   50.19   15.60
  14 -27  -1  100.39   24.00
  27 -14   1   83.49   16.40
  13  14  -1   53.29   16.20
  15  12  -1   36.70    7.20
 -15  27   1   20.10   13.90
  15  12  -1   27.50   15.90
  27 -12   1   17.50   15.50
  27 -12   1   31.40   22.40
  12 -27  -1   44.50   22.50
  15 -27  -1   44.70   23.00
 -15 -12   1    9.90   14.30
  27 -15   1   14.00   14.00
  12  15  -1   10.60   15.90
 -27  12  -1   -6.50   14.60
 -12  27   1   18.40   13.90
  12  15  -1   15.70    8.00
  27 -11   1   21.30   16.20
  27 -11   1    4.80   22.00
 -16  27   1   15.90   13.80
  16  11  -1   27.10   15.60
  11 -27  -1   49.40   22.40
 -27  11  -1  -12.60   16.80
 -11  27   1   18.30   14.10
  11  16  -1   42.90   16.40
 -16 -11   1   29.10   13.60
  27 -16   1   18.50   12.40
  16 -27  -1   42.80   22.90
  17  10  -1   15.80   15.50
  27 -10   1   22.70   21.70
 -17  27   1   26.80   13.90
  10 -27  -1   33.10   22.00
  17  10  -1   35.80    7.30
  27 -10   1   19.00   16.40
 -27  10  -1   -8.90   15.60
  10  17  -1   23.00   13.60
 -17 -10   1   17.60   14.90
  17 -27  -1   64.99   23.50
 -10  27   1   17.50   14.30
  27 -17   1   26.10   11.60
  10  17  -1   27.30   16.70
 -18  27   1   18.10   13.90
  27  -9   1   27.60   21.00
  18   9  -1   27.90    7.60
   9 -27  -1   28.50   21.70
 -18  27   1   81.79   22.20
  18   9  -1   21.60   15.50
  27  -9   1   16.90   16.40
  18 -27  -1   44.20   22.90
 -18  -9   1   14.70   13.70
   9  18  -1   31.90   16.80
 -27   9  -1   -0.20   15.40
   9  18  -1   26.30   13.20
  -9  27   1   22.60   15.10
  27 -18   1   85.59   25.80
  27 -18   1    5.10   13.70
  19   8  -1    5.60   14.50
 -19  27   1   -8.40   12.60
  27  -8   1   -0.40   16.20
  27  -8   1   46.20   19.80
  19   8  -1    8.10    7.50
   8 -27  -1   24.80   21.60
  27 -19   1  -12.80    8.70
 -27   8  -1  -20.10   16.80
   8  19  -1    0.80   16.40
  -8  27   1    5.40   14.30
   8  19  -1    3.80   13.30
  19 -27  -1   29.50   24.10
 -19  -8   1    7.40   12.90
  27  -7   1   22.70   16.70
   7 -27  -1   32.60   21.90
  -7 -20   1   42.10   14.40
  27  -7   1  -14.60   19.50
  20   7  -1   20.50    7.90
 -20  27   1    6.50   13.00
  20   7  -1   17.70   14.70
   7  20  -1   15.30   13.30
  27 -20   1   81.59   26.50
 -20  -7   1   31.10   13.30
   7  20  -1   22.60   17.00
  -7  27   1    6.90   13.60
 -27   7  -1    1.60   17.50
  20 -27  -1   43.10   23.30
  21   6  -1   26.10    8.60
  -6 -21   1   28.40   14.20
  21   6  -1   31.60   15.10
 -21  27   1   25.60   13.50
  27  -6   1   20.50   17.50
   6 -27  -1   37.90   22.20
   6  21  -1   52.29   17.70
   6  21  -1   26.00   14.60
  -6  27   1   34.70   14.50
 -21  -6   1   47.90   13.90
  -6  27   1  121.59   34.50
  21 -27  -1   62.79   23.90
 -27   6  -1   19.30   15.60
  27 -21   1  104.19   27.20
  27  -5   1    0.80   17.20
  -5 -22   1    1.40   13.60
 -22  27   1   -2.50   12.30
  22   5  -1   11.50   14.30
   5 -27  -1    6.00   20.60
  -5  27   1    5.30   13.10
 -27   5  -1    6.20   17.50
   5  22  -1   -1.80   14.40
   5  22  -1   10.40   16.90
  27 -22   1   52.29   26.80
 -23  27   1    1.70   12.00
  27  -4   1    5.90   17.20
  23   4  -1   -2.60   12.70
   4 -27  -1    1.00   20.40
  23   4  -1    8.10   11.30
  -4  27   1    1.40   12.90
   4  23  -1   15.00   17.10
 -27   4  -1    5.60   15.60
  23 -27  -1   30.80   23.00
   4  23  -1    6.40   12.90
  27 -23   1   54.39   26.60
  27  -3   1   73.09   19.30
  24   3  -1   96.49   16.40
 -24  27   1   70.89   14.60
   3 -27  -1   67.89   21.20
  24   3  -1   87.79   15.80
 -27   3  -1   88.09   18.00
   3  24  -1   90.69   19.50
   3  24  -1   58.59   15.00
  27 -24   1  128.09   28.40
  24 -27  -1  105.09   24.70
  -3  27   1   64.89   14.90
  25   2  -1   62.19   14.50
   2 -27  -1   33.80   20.80
 -25  27   1   49.90   14.00
 -27  25  -1   36.40   15.70
  27  -2   1   75.49   19.60
 -27   2  -1   40.80   15.30
   2  25  -1   88.69   19.20
  -2  27   1   63.69   15.00
   2  25  -1   63.49   15.20
  25 -27  -1   64.89   24.10
  27 -25   1   99.19   27.60
 -27  26  -1    7.60   14.80
  26   1  -1    5.90   17.20
  26   1  -1   19.80   13.30
 -26  27   1   11.20   12.30
  27  -1   1    0.60   17.80
   1  26  -1   40.70   18.90
  27 -26   1   68.19   28.00
  -1  27   1    8.30   13.60
 -27   1  -1   34.70   16.10
  -1  27   1  100.09   30.60
  26 -27  -1   47.40   22.60
   1  26  -1   13.20   15.30
  27   0  -1   13.80   16.90
 -27  27  -1   -0.60   16.10
  27   0   1   28.60   19.50
   0 -27   1   26.30   19.90
   0 -27  -1  -25.10   19.40
  27   0  -1   22.50   13.80
 -27  27   1   14.60   13.20
  27 -27   1   60.39   27.20
   0  27  -1   54.49   19.60
   0  27  -1   13.30   14.00
   0  27   1   29.90   14.10
  27 -27  -1   26.80   25.20
 -27   0  -1   23.60   15.60
  28  -1  -1   22.60   13.70
  28  -1  -1   12.60   19.00
   1 -28   1   61.09   21.90
  27   1   1   25.10   19.20
  -1  28  -1   58.69   18.90
  28 -27  -1   11.60   25.30
   1  27   1   86.29   31.00
 -29  27   1   39.50   15.20
   2 -29   1   33.50   22.50
  29  -2  -1    7.90   16.30
  27   2   1   37.60   23.00
 -27  29  -1   25.40   15.90
  29 -27  -1   26.10   22.60
   2  27   1   16.10   15.40
  -2  29  -1   44.30   20.00
 -27  -2  -1   29.30   16.40
  27 -29   1   73.69   28.50
  -2  29  -1   26.00   15.40
  30  -3  -1  -10.60   16.70
  30  -3  -1   17.90   14.30
 -27  30  -1    9.90   15.40
 -30  27   1   28.00   15.50
   3 -30   1   28.80   23.20
  27   3   1   17.30   19.90
  30 -27  -1    6.20   22.50
  27 -30   1   46.30   27.80
   3  27   1   12.10   13.70
  -3  30  -1    6.10   15.30
  -3  30  -1   53.79   20.20
 -27  -3  -1   20.40   15.00
   3  27   1   96.09   31.30
  27   4   1   78.69   21.80
   4 -31   1  101.89   26.60
 -27  31  -1   73.49   18.00
  31  -4  -1   73.79   19.80
 -31  27   1    7.50   24.90
 -31  27   1  113.59   23.50
  31  -4  -1   70.99   15.70
 -27  -4  -1   54.69   17.10
  -4  31  -1   62.29   16.40
  27 -31   1  132.29   30.70
   4  27   1   70.39   16.40
  31 -27  -1   62.69   24.20
  28 -14   1  101.39   15.80
 -14 -14   1   39.90   16.30
  28 -14   1   89.89   23.70
  14  14  -1   62.89    8.70
  14 -28  -1  104.09   24.00
  14  14  -1   62.09   16.80
 -14  28   1   79.49   15.60
 -28  14  -1   32.00   16.50
 -15  28   1   97.89   16.40
  13 -28  -1  141.29   24.60
  28 -13   1  115.29   18.20
  28 -13   1  105.39   25.00
 -13 -15   1  105.09   17.30
  15  13  -1   92.39   17.40
  15 -28  -1  115.19   24.40
 -13  28   1   92.59   16.30
  13  15  -1  113.09   18.20
  28 -15   1  113.79   18.50
 -15 -13   1  108.59   17.30
 -16  28   1  204.18   23.70
  28 -12   1  192.88   31.80
  28 -12   1  208.98   25.10
  12 -28  -1  217.08   33.80
  16  12  -1  198.08   13.70
  16  12  -1  203.88   24.60
 -12  28   1  192.48   24.10
  28 -16   1  235.48   20.60
  16 -28  -1  266.07   33.80
 -16 -12   1  175.68   23.70
  12  16  -1  208.38   25.30
  17  11  -1  150.18   11.80
  28 -11   1  160.18   25.90
  11 -28  -1  153.88   25.00
  28 -11   1  147.69   22.90
  17  11  -1  129.49   23.10
 -17  28   1  126.59   21.30
  28 -17   1  148.49   19.50
  11  17  -1  124.29   21.60
 -17 -11   1  127.49   20.70
 -28  11  -1   95.29   18.50
 -11  28   1  128.69   23.30
  17 -28  -1  189.08   27.10
  28 -10   1    7.30   15.40
  18  10  -1   19.20   14.70
  28 -10   1   46.70   21.50
  10 -28  -1   31.00   22.00
  18  10  -1   20.60    7.70
 -18  28   1   12.50   13.40
  28 -18   1    6.90   10.50
 -28  10  -1  -14.00   15.30
  10  18  -1   11.40   15.80
 -10  28   1   15.60   14.10
  10  18  -1    5.50   14.30
  18 -28  -1   37.00   22.80
   9 -28  -1  137.49   24.30
  19   9  -1  116.19   10.40
  28  -9   1  166.48   28.10
 -19  28   1   95.99   15.90
  28  -9   1  117.69   18.80
  19   9  -1  110.59   17.70
   9  19  -1  113.29   18.70
 -19  -9   1  108.59   18.80
  19 -28  -1  120.59   25.10
 -28   9  -1   83.79   18.00
  -9  28   1  106.89   22.50
   9  19  -1   70.39   16.30
  20   8  -1   37.10    8.50
  28  -8   1   25.40   17.10
 -20  28   1   21.60   12.90
  28  -8   1   25.20   20.20
  20   8  -1   32.00   14.00
   8 -28  -1   37.10   22.00
 -20  -8   1   46.40   13.40
   8  20  -1   23.50   14.00
   8  20  -1   43.60   16.70
  20 -28  -1   61.09   23.80
 -28   8  -1    3.30   16.50
  -8  28   1   28.80   13.60
 -21  28   1   16.30   12.60
   7 -28  -1   31.10   21.80
  -7 -21   1   41.80   13.70
 -21  28   1   15.60   22.90
  21   7  -1    4.20   13.30
  28  -7   1    3.60   16.20
  21 -28  -1   33.20   22.90
   7  21  -1    6.60   15.00
   7  21  -1   19.40   16.40
  -7  28   1   11.20   13.50
 -28   7  -1    7.90   16.10
 -22  28   1  151.18   25.90
   6 -28  -1  147.79   24.80
  28  -6   1  133.59   20.50
  22   6  -1  131.59   21.30
 -22  28   1  119.29   20.40
   6  22  -1  158.08   23.70
 -22  -6   1  169.38   20.70
  -6  28   1  130.09   21.00
  22 -28  -1  205.08   33.80
 -28   6  -1  113.89   19.50
   6  22  -1  116.79   20.80
   5 -28  -1   -1.10   20.40
  28  -5   1  -37.40   21.20
 -28  23  -1  -25.30   14.40
  -5 -23   1   -5.10   14.30
  23   5  -1    2.60   12.90
 -23  28   1    3.30   12.70
  28  -5   1   11.30   16.50
 -23  28   1  -14.80   22.00
  28 -23   1   56.39   25.30
  23 -28  -1   36.20   23.20
  -5  28   1    0.20   13.20
   5  23  -1    7.90   12.90
 -28   5  -1    3.10   15.30
   5  23  -1   13.90   16.70
  -4 -24   1   27.70   16.20
  28  -4   1   52.39   19.20
 -28  24  -1   13.50   15.70
 -24  28   1   28.10   23.20
  24   4  -1   40.60   14.00
 -24  28   1   47.50   13.40
   4 -28  -1   25.50   20.90
  24   4  -1   56.59   12.60
  -4  28   1   59.69   14.70
 -28   4  -1   38.90   16.00
   4  24  -1   71.39   18.80
  24 -28  -1   72.09   23.80
   4  24  -1   39.00   15.60
  28 -24   1  108.19   27.10
   3 -28  -1   47.80   22.10
  25   3  -1   96.09   16.60
 -25  28   1   51.79   27.40
 -28  25  -1   52.19   17.40
 -25  28   1   94.39   18.30
  28  -3   1   90.99   20.10
  25   3  -1   79.59   15.20
  -3 -25   1   59.29   18.40
 -28   3  -1   74.89   16.20
   3  25  -1   64.69   15.50
  25 -28  -1   95.59   24.40
  -3  28   1   80.19   16.20
   3  25  -1  135.49   21.10
  28 -25   1  120.99   27.40
 -28  26  -1   36.20   16.10
   2 -28  -1    9.80   21.30
  28  -2   1   39.80   19.40
  26   2  -1   42.00   14.60
  26   2  -1   47.40   13.10
 -26  28   1   46.50   14.00
  -2  28   1   44.30   14.60
 -28   2  -1   60.09   17.20
  26 -28  -1   75.49   33.00
  28 -26   1   86.39   28.00
   2  26  -1   47.60   16.00
   1 -28  -1  -15.80   21.90
 -27  28   1   35.30   14.20
 -28  27  -1   34.60   18.10
  -1 -27   1   -4.40   19.10
  28  -1   1   38.30   18.40
  27 -28  -1   50.99   25.70
   1  27  -1   92.09   20.90
  28   0  -1  195.58   24.70
  28   0  -1  204.58   23.10
 -28  28  -1  152.18   28.90
  28   0   1  176.98   29.10
 -28  28   1  195.78   22.70
 -28  28   1  103.89   30.90
   0 -28  -1  134.19   25.30
   0 -28   1  211.18   30.30
   0  28  -1  247.68   26.70
  28 -28   1  275.27   39.30
 -28   0  -1  184.08   25.80
   0  28   1  170.08   24.00
  28 -28  -1  185.58   27.30
   0  28  -1  168.68   24.60
  29  -1  -1   25.30   14.00
 -28  29  -1   11.20   15.80
   1 -29   1   24.60   21.80
 -29  28   1   18.90   15.10
  29  -1  -1   28.50   18.90
  28 -29   1   55.19   27.40
 -28  -1  -1   23.80   17.30
  -1  29  -1   12.80   15.60
  29 -28  -1   26.30   22.90
   1  28   1   22.60   15.80
  -1  29  -1   56.89   20.60
  28   2   1  207.58   30.60
 -30  28   1  264.07   25.80
  30  -2  -1  220.28   23.20
   2 -30   1  226.18   34.10
 -28  30  -1  224.88   29.40
  30  -2  -1  214.68   29.70
  28 -30   1  308.77   38.80
   2  28   1  207.08   24.40
  30 -28  -1  160.28   27.20
  -2  30  -1  188.68   29.20
 -30   2   1  237.98   26.20
 -28  -2  -1  204.98   23.70
 -28  31  -1   62.89   17.40
 -31  28   1  115.09   23.00
  29 -14   1   52.19   23.20
 -14 -15   1   55.09   14.80
 -29  15  -1   24.80   15.50
  14 -29  -1   68.99   22.60
  29 -14   1   59.39   15.50
 -15  29   1   43.10   14.40
  15  14  -1   70.29   16.10
  14  15  -1   54.89   16.20
  29 -15   1   55.99   13.70
  15 -29  -1   93.79   23.50
 -15 -14   1   30.20   15.90
  29 -15   1   48.50   23.40
 -14  29   1   47.80   14.50
  29 -13   1    1.20   14.20
 -16  29   1    4.90   13.60
  13 -29  -1   36.50   21.60
  29 -13   1    9.40   22.10
 -13 -16   1   -3.50   13.90
  16  13  -1    9.20   14.10
  13  16  -1   11.30   14.70
  16 -29  -1   46.30   22.40
 -29  13  -1  -17.70   15.90
 -16 -13   1    8.90   13.80
 -13  29   1    9.40   13.20
  29 -16   1   27.80   22.90
  29 -16   1    9.80   11.80
  12 -29  -1   50.89   22.20
 -17  29   1   28.60   13.60
  29 -12   1   58.49   22.60
 -29  17  -1   -7.00   16.10
  29 -12   1   44.00   15.90
  17  12  -1   35.90   14.70
  29 -17   1   78.39   23.90
 -12  29   1   29.10   13.80
  17 -29  -1   65.99   22.90
 -29  12  -1    3.70   15.60
 -17 -12   1   27.60   14.70
  29 -17   1   25.80   17.80
  12  17  -1   45.10   15.60
  18  11  -1    6.10   14.20
  29 -11   1   48.40   21.60
  11 -29  -1   19.20   21.30
  29 -11   1    7.00   15.50
 -18  29   1    1.80   12.70
  18 -29  -1   33.90   22.50
  29 -18   1    1.50   11.40
 -11  29   1    1.30   13.00
  11  18  -1    9.80   14.80
  29 -18   1   59.19   24.20
 -29  11  -1  -25.40   14.00
 -18 -11   1    6.60   13.40
  29 -10   1   13.20   15.40
 -19  29   1  -36.00   22.80
  19  10  -1   18.40   14.20
  10 -29  -1   23.10   21.80
 -19  29   1    6.80   12.60
  29 -10   1   57.89   20.70
 -29  10  -1  -16.10   14.90
 -10  29   1    9.70   13.20
 -19 -10   1   14.20   13.70
  10  19  -1    6.10   14.60
  29 -19   1   76.79   24.20
  10  19  -1   15.30   15.20
  19 -29  -1   47.10   22.80
  20   9  -1   22.10   14.10
 -20  29   1    5.90   12.80
  29  -9   1   19.90   16.40
   9 -29  -1   17.70   21.40
  29  -9   1  -13.40   19.70
  20 -29  -1   69.69   23.30
   9  20  -1   15.80   14.70
  -9  29   1   18.80   13.50
   9  20  -1   37.90   16.10
 -20  -9   1   21.00   12.80
 -29   9  -1   -6.50   15.10
 -21  29   1    7.00   12.20
  21   8  -1   -1.20   13.20
 -21  29   1  -10.90   21.60
  29  -8   1   10.20   16.10
  -8 -21   1   38.10   13.10
   8 -29  -1    7.70   21.50
   8  21  -1   19.90   16.00
   8  21  -1   -0.50   13.60
  -8  29   1   -1.80   13.00
  21 -29  -1   44.90   23.70
 -29   8  -1   -4.80   15.40
  29 -21   1   68.29   24.40
 -22  29   1   41.10   13.80
  29  -7   1   63.59   18.20
  22   7  -1   39.00   14.20
   7 -29  -1   61.19   22.70
  -7 -22   1   87.99   20.40
   7  22  -1   50.79   14.80
 -29   7  -1   41.70   16.30
  29 -22   1  110.59   26.10
 -22  -7   1   65.09   14.20
  22 -29  -1   67.39   23.70
   7  22  -1   61.09   17.40
  -7  29   1   55.79   15.00
  23   6  -1   41.30   14.00
  29  -6   1   18.60   16.70
 -23  29   1   25.00   13.20
  -6 -23   1   26.30   14.70
   6 -29  -1   14.20   21.20
   6  23  -1   49.80   17.70
   6  23  -1   31.80   14.00
  23 -29  -1   38.50   23.30
  -6  29   1   25.00   13.70
 -29   6  -1   11.60   16.00
  29 -23   1   80.09   26.10
 -23  -6   1   55.29   13.70
  29  -5   1   28.30   17.50
 -29  24  -1   -1.10   14.30
 -24  29   1   26.70   13.10
  29  -5   1  -24.90   21.50
  24   5  -1   28.80   13.30
  -5 -24   1   13.20   15.00
   5 -29  -1   23.70   21.50
  29 -24   1   89.19   26.40
   5  24  -1   20.30   14.60
   5  24  -1   56.39   18.90
  24 -29  -1   33.90   23.70
 -29   5  -1   12.40   16.90
  -5  29   1   16.60   13.80
  25   4  -1   12.30   18.70
  29  -4   1    8.10   17.30
 -25  29   1   38.00   24.00
  -4  29   1   19.80   13.90
  29 -25   1   77.59   26.90
   4  25  -1   11.80   15.50
 -25  -4   1   46.30   13.00
   4  25  -1   44.40   18.70
 -29   4  -1   14.70   17.90
  29  -3   1    7.80   17.30
 -26  29   1    5.80   13.10
  26   3  -1    9.80   18.90
 -26  29   1   31.80   31.70
  29 -26   1   32.10   36.80
  -3  29   1    0.30   17.70
   3  26  -1   25.60   18.80
  26 -29  -1   28.10   23.50
 -26  -3   1   46.50   14.70
 -29  27  -1   22.90   16.20
  27   2  -1   21.50   14.00
   2 -29  -1  -26.30   22.60
 -27  29   1   26.60   14.00
  29  -2   1   26.20   19.30
   2  27  -1   70.89   19.60
  27 -29  -1   28.80   22.80
   2  27  -1   28.60   16.10
  29 -27   1   99.89   28.40
 -29   2  -1   25.50   17.10
  -2  29   1   19.10   17.60
  28   1  -1   57.69   15.00
  29  -1   1   48.10   20.40
   1 -29  -1  -17.10   23.00
 -28  29   1   64.29   15.10
 -29  28  -1   49.40   16.60
  -1 -28   1   23.90   20.70
  29 -28   1   97.49   29.10
 -29   1  -1   44.50   15.80
  -1  29   1   48.00   15.90
   1  28  -1   38.70   15.60
  28 -29  -1   56.39   23.50
 -29  29   1   63.49   15.30
 -29  29  -1   45.20   17.90
  29   0   1   62.49   21.80
   0 -29   1   97.79   23.60
  29   0  -1   52.79   14.90
   0  29  -1   37.80   15.50
  29 -29  -1   37.50   22.90
   0  29   1   47.80   16.00
 -29   0  -1   55.39   18.80
  29 -29   1  103.39   29.20
  30  -1  -1  220.28   24.00
  29   1   1  214.88   31.00
 -30  29   1  247.78   25.70
   1 -30   1  278.17   33.60
 -29  30  -1  238.48   28.30
  29 -30   1  293.37   38.40
   1  29   1  210.48   26.10
 -29  -1  -1  180.48   23.90
  -1  30  -1  226.18   26.60
  -1  30  -1  279.77   29.10
  30 -29  -1  207.48   35.00
  30 -15   1  117.49   17.50
  15  15  -1  119.59   18.00
 -15  30   1  107.79   16.60
  15 -30  -1  101.89   24.10
 -15 -15   1   96.19   17.50
  30 -15   1  109.79   25.40
 -16  30   1   60.89   14.50
 -30  16  -1   31.60   16.70
 -14 -16   1   66.29   15.30
  30 -14   1   83.99   17.30
  30 -14   1   96.29   24.30
  16  14  -1   66.29   15.40
  14 -30  -1   75.59   23.00
  16 -30  -1   83.39   23.40
  14  16  -1   69.99   15.70
 -14  30   1   66.09   14.60
  30 -16   1   80.49   24.30
 -16 -14   1   41.00   16.10
  30 -16   1   55.19   14.30
  30 -13   1  150.48   21.20
  17  13  -1  146.79   22.10
 -30  17  -1  105.79   22.40
 -17  30   1  129.29   20.90
  30 -13   1  198.48   30.00
  13 -30  -1  154.08   25.20
 -13 -17   1  127.09   19.50
 -17 -13   1  117.59   21.60
  13  17  -1  143.49   21.60
  17 -30  -1  153.38   25.70
  30 -17   1  138.59   26.60
 -13  30   1  128.09   21.70
  30 -12   1  102.49   23.20
  12 -30  -1   49.80   22.90
 -18  30   1   59.99   14.50
  30 -12   1   62.29   16.70
  18  12  -1   54.69   15.30
  18 -30  -1   70.79   23.60
 -18 -12   1   46.20   14.80
  12  18  -1   46.40   15.90
 -30  12  -1   26.60   15.70
  30 -18   1   58.39   24.30
 -12  30   1   50.29   14.60
  30 -11   1   30.10   20.50
 -19  30   1   30.50   13.50
  19  11  -1   14.00   14.30
  30 -11   1   29.10   16.60
  11 -30  -1   25.10   22.10
  11  19  -1   36.00   15.50
  19 -30  -1   50.49   22.90
 -19 -11   1   15.20   14.20
 -30  11  -1   15.50   15.10
 -11  30   1   19.50   14.20
  30 -19   1   55.29   24.60
 -20  30   1  125.49   20.30
  30 -10   1  127.29   20.00
 -30  20  -1  119.29   19.20
 -20  30   1  130.29   33.20
  20  10  -1  136.49   22.30
  30 -10   1  112.89   24.50
  10 -30  -1  138.69   25.00
  30 -20   1  223.58   34.10
 -10  30   1  124.79   21.40
  10  20  -1  148.99   23.20
 -30  10  -1  120.19   19.20
 -20 -10   1  153.38   20.40
  20 -30  -1  179.88   26.70
  10  20  -1  131.69   20.80
  30  -9   1    5.90   16.50
  21   9  -1   10.60   13.40
   9 -30  -1   23.40   22.20
 -21  30   1   -8.40   24.10
 -21  30   1    5.10   12.90
 -30  21  -1  -24.40   15.30
 -30   9  -1   -5.50   15.70
  21 -30  -1   28.50   23.90
 -21  -9   1   21.30   14.70
   9  21  -1    5.40   13.00
  -9  30   1   17.40   13.20
   9  21  -1   13.60   15.60
  30  -8   1   17.00   23.10
  22   8  -1   55.29   15.60
   8 -30  -1   57.19   23.00
  30  -8   1   79.49   19.20
 -22  30   1   44.60   13.90
 -22  -8   1   66.29   14.80
  -8  30   1   47.70   14.90
   8  22  -1   54.39   17.20
   8  22  -1   37.80   15.90
 -30   8  -1   46.50   18.00
  22 -30  -1   80.89   24.70
  30 -22   1  102.19   26.90
 -23  30   1  131.69   20.10
   7 -30  -1  118.39   24.50
  30  -7   1   99.09   25.80
 -30  23  -1   91.29   18.70
  30  -7   1  142.29   21.30
  -7  30   1  126.59   21.70
 -23  -7   1  147.89   21.70
   7  23  -1   76.09   18.70
   7  23  -1  137.69   23.40
 -30   7  -1   82.69   20.20
  23 -30  -1  157.28   27.50
 -30  24  -1    4.00   15.50
  30  -6   1   28.60   17.70
  24   6  -1   26.50   15.60
   6 -30  -1   -1.00   21.80
  -6 -24   1   34.80   15.10
 -24  30   1   34.00   14.10
  30  -6   1  -17.40   24.20
 -30   6  -1   22.90   17.30
  -6  30   1   36.50   15.00
   6  24  -1   33.00   16.70
 -24  -6   1   52.69   15.00
   6  24  -1   50.19   18.20
  30 -24   1   58.59   26.30
  30  -5   1   55.39   20.20
  -5 -25   1    7.80   17.10
 -25  30   1   46.00   14.40
  25   5  -1   50.49   14.40
  30  -5   1   -2.20   24.80
   5 -30  -1    7.10   21.90
   5  25  -1   73.19   19.00
  30 -25   1  118.39   32.30
  25 -30  -1   55.09   24.20
  -4 -26   1   63.09   19.70
   4 -30  -1   95.69   25.40
  26   4  -1   83.59   16.00
 -30  26  -1   65.89   18.70
 -26  30   1  117.59   20.10
  30  -4   1   83.79   20.10
  26 -30  -1  111.79   25.40
   4  26  -1   89.89   17.80
 -30   4  -1   75.69   19.80
  -4  30   1   71.49   17.40
  30 -26   1  166.28   34.10
   3 -30  -1  -19.30   22.00
  27   3  -1   24.70   14.20
 -30  27  -1   30.40   16.20
 -27  30   1   46.50   14.60
  30  -3   1   48.20   19.60
  30 -27   1   92.29   28.30
   3  27  -1   41.30   16.70
  -3  30   1   38.90   15.00
  27 -30  -1   43.60   23.50
   3  27  -1   84.19   20.30
 -30   3  -1   29.70   18.60
  28   2  -1  237.08   23.60
   2 -30  -1  257.67   31.70
 -28  30   1  281.67   26.10
 -30  28  -1  257.97   28.60
  -2 -28   1  200.88   28.40
  28 -30  -1  263.57   33.30
  -2  30   1  217.08   28.70
   2  28  -1  206.08   30.30
  30 -28   1  324.07   38.30
   2  28  -1  322.17   29.80
 -30  29  -1   70.09   19.10
  -1 -29   1  121.99   23.90
  29   1  -1   72.49   16.10
  30  -1   1   97.79   21.30
 -29  30   1   95.29   17.20
   1 -30  -1    9.00   25.70
  -1  30   1   79.19   17.10
   1  29  -1   60.39   16.50
  29 -30  -1   76.29   25.00
  30 -29   1  163.98   31.00
 -30   1  -1   79.39   21.60
 -15 -16   1   21.20   14.30
  15 -31  -1   63.09   23.20
 -16  31   1   30.20   14.00
  16  15  -1   29.70   14.80
 -31  16  -1   -1.70   14.70
  31 -15   1   56.59   15.60
  31 -15   1   57.49   23.90
  31 -16   1   43.40   23.80
 -16 -15   1   32.80   15.20
  16 -31  -1   36.90   23.00
  15  16  -1   46.40   14.90
 -31  15  -1   10.40   16.20
 -15  31   1   25.50   13.80
 -31  17  -1  -13.10   15.90
  31 -14   1   53.79   22.60
 -14 -17   1   -2.20   14.10
  31 -14   1   -6.20   15.50
 -17  31   1    6.40   13.00
  17  14  -1   14.00   14.10
  14 -31  -1   10.30   22.60
  17 -31  -1   26.00   22.40
 -31  14  -1   -9.00   15.40
  14  17  -1   17.60   14.50
 -17 -14   1    1.40   14.50
  31 -17   1   -3.30   23.50
 -14  31   1    2.60   13.60
  31 -13   1   69.99   22.40
 -18  31   1   41.70   13.70
  13 -31  -1   33.30   23.00
 -13 -18   1   36.20   16.60
 -31  18  -1   12.20   16.50
  31 -13   1   41.10   16.40
  18  13  -1   36.10   14.60
  18 -31  -1   62.39   24.20
 -13  31   1   25.40   14.30
  13  18  -1   38.20   15.50
 -18 -13   1   26.70   15.50
  31 -18   1   36.10   25.20
 -31  13  -1   17.10   16.30
  31 -12   1   25.80   17.20
  19  12  -1   14.90   14.60
  12 -31  -1    7.10   22.20
  31 -12   1   22.20   21.40
 -19  31   1   24.00   13.70
 -31  19  -1  -11.00   15.70
  19 -31  -1   43.20   23.90
 -19 -12   1   22.60   13.20
 -12  31   1   20.30   14.40
  31 -19   1   12.40   24.20
  12  19  -1   31.30   15.40
 -31  12  -1    5.20   14.60
 -20  31   1   23.40   13.50
  31 -11   1   39.80   16.90
 -31  20  -1   -7.30   15.50
  31 -11   1  -26.40   21.50
  20  11  -1    7.10   18.30
  11 -31  -1   28.90   23.10
  11  20  -1   22.30   15.60
  20 -31  -1   35.30   23.50
 -20 -11   1   24.40   15.10
 -31  11  -1    1.30   16.40
 -11  31   1   17.00   14.70
  31 -20   1   21.30   24.60
  21  10  -1   49.30   21.90
 -21  31   1   36.60   13.90
  10 -31  -1   46.00   23.40
  31 -10   1   66.49   20.50
 -31  10  -1   30.80   18.60
  31 -21   1   38.60   25.60
  10  21  -1   47.70   14.60
 -21 -10   1   58.49   15.50
 -10  31   1   40.80   15.30
  10  21  -1   54.59   17.00
  21 -31  -1   51.79   24.30
  22   9  -1   16.00   13.80
   9 -31  -1   15.20   22.60
 -22  31   1    6.00   13.60
 -31  22  -1  -15.70   15.70
  31  -9   1    2.80   17.80
  31  -9   1  -47.90   22.70
 -22  31   1   52.69   27.90
   9  22  -1   21.20   16.20
  -9  31   1    7.00   14.10
 -22  -9   1   26.90   14.50
   9  22  -1    0.30   14.40
  31 -22   1   52.99   26.40
  23   8  -1   14.80   13.90
  31  -8   1   27.20   18.20
  31  -8   1  -36.20   24.80
   8 -31  -1    0.60   22.20
 -23  31   1   28.30   13.60
   8  23  -1   27.10   16.80
 -23  -8   1   44.00   15.00
  31 -23   1   66.49   27.80
  23 -31  -1   45.80   27.90
  -8  31   1   20.60   14.50
  24   7  -1    7.80   13.60
   7 -31  -1  -21.30   22.20
 -31  24  -1  -17.50   16.30
  31  -7   1    8.70   17.60
 -24  31   1    5.20   13.20
  31  -7   1  -17.40   23.90
  24 -31  -1   25.60   23.80
   7  24  -1   11.40   15.20
 -31   7  -1   -2.20   16.60
   7  24  -1   37.90   17.70
  31 -24   1   63.09   27.70
 -24  -7   1   38.60   15.60
  31  -6   1    3.90   18.20
 -25  31   1    0.20   13.40
  25   6  -1    5.10   13.30
  -6 -25   1   -5.40   18.30
   6 -31  -1  -28.00   22.30
  25 -31  -1   19.20   23.70
   6  25  -1    2.90   15.90
 -31   6  -1   -1.90   20.90
   6  25  -1   26.40   18.30
  -6  31   1   -2.60   14.40
  26   5  -1   54.09   15.10
 -31  26  -1   12.40   17.50
  -5 -26   1   17.70   17.90
  31  -5   1   45.30   19.50
   5 -31  -1  -15.90   23.30
 -26  31   1   36.80   14.80
  26 -31  -1   78.59   24.90
   5  26  -1   31.40   16.40
   5  26  -1   56.49   19.90
  -5  31   1   39.70   15.90
  31 -26   1   74.29   29.30
 -31   5  -1   20.30   17.30
  31  -4   1   77.29   21.20
   4 -31  -1   13.40   24.40
 -27  31   1   60.39   15.60
  27   4  -1   63.09   15.60
 -31  27  -1   43.60   17.40
  27 -31  -1   60.79   24.90
 -31   4  -1   49.80   19.80
   4  27  -1  111.29   21.00
   4  27  -1   60.39   18.40
  -4  31   1   45.20   15.40
  31 -27   1  108.19   30.90
 -28  31   1   47.60   15.40
  16 -32  -1   45.40   24.10
 -16  32   1   29.70   14.40
  32 -16   1   80.29   24.60
 -16 -16   1   33.60   15.70
  16  16  -1   28.40   20.10
 -17  32   1   21.10   14.00
 -15 -17   1    3.60   15.20
  15 -32  -1   29.50   23.80
  32 -15   1   83.39   24.10
  32 -15   1   23.30   15.60
  32 -17   1   88.89   25.50
  17 -32  -1   35.60   23.90
 -17 -15   1   18.40   14.60
 -15  32   1   14.40   14.00
  15  17  -1   24.90   15.00
  32 -14   1  110.99   24.70
 -18  32   1   67.49   16.00
  14 -32  -1   87.79   24.60
 -14 -18   1   65.89   17.20
  18  14  -1   75.19   19.10
  32 -14   1  102.39   19.40
 -18 -14   1   61.79   17.70
  14  18  -1   89.49   17.10
  18 -32  -1  101.09   25.90
  32 -18   1  124.69   27.20
 -14  32   1   89.79   16.40
 -19  32   1   19.10   13.90
  19  13  -1   14.30   14.70
  32 -13   1   -6.00   21.50
 -13 -19   1    1.80   16.00
  32 -13   1   17.10   16.60
  13 -32  -1   11.70   23.00
 -13  32   1   18.40   14.20
  19 -32  -1   29.20   24.40
  32 -19   1   35.10   25.80
  13  19  -1   27.10   15.40
 -19 -13   1   14.90   15.40
 -20  32   1   58.39   29.50
 -20  32   1   23.30   13.90
  12 -32  -1   17.90   23.70
  20  12  -1   19.20   14.40
  32 -12   1   29.60   18.80
 -12  32   1   23.10   14.70
  20 -32  -1   40.60   26.40
  32 -20   1    6.50   25.30
 -20 -12   1   14.60   14.80
  12  20  -1   37.50   16.00
  32 -11   1   75.59   26.50
 -32  21  -1  101.29   20.40
  21  11  -1  120.19   20.70
  32 -11   1  132.79   24.20
  11 -32  -1  128.09   26.00
 -21  32   1  138.69   21.60
 -32  11  -1  114.29   21.20
  11  21  -1  132.29   22.30
  32 -21   1  130.29   29.40
 -21 -11   1  171.38   23.30
 -11  32   1  119.39   24.70
 -22  32   1  109.69   20.40
  10 -32  -1   90.99   25.80
  32 -10   1   67.29   26.90
 -32  22  -1   96.49   21.30
  22  10  -1   80.89   16.10
  32 -10   1  115.79   21.30
 -32  10  -1   64.39   19.90
  22 -32  -1  111.19   26.70
  32 -22   1  104.89   29.20
  10  22  -1  122.29   19.20
  10  22  -1   63.89   16.20
  32  -9   1  -22.80   26.20
  32  -9   1   25.90   20.40
 -32  23  -1   -8.30   16.80
 -23  32   1   21.20   14.20
  23   9  -1   16.90   14.00
   9 -32  -1   -9.40   23.00
 -32   9  -1   -4.80   18.10
  32 -23   1   11.20   26.30
 -23  -9   1   40.10   14.70
   9  23  -1   41.00   17.50
   9  23  -1   16.60   15.50
  -9  32   1    6.60   16.00
  23 -32  -1   39.10   24.90
  32  -8   1   62.99   27.90
 -24  32   1   87.09   16.10
   8 -32  -1   60.69   24.80
 -32  24  -1   40.30   17.20
  32  -8   1  105.69   21.30
  24   8  -1   74.59   15.60
  24 -32  -1   96.39   26.00
   8  24  -1   61.09   17.40
 -24  -8   1  129.29   22.10
  -8  32   1   88.29   17.20
   8  24  -1   94.59   19.30
  32  -7   1   28.20   19.10
 -25  32   1   23.80   14.10
  25   7  -1   36.30   15.10
   7 -32  -1    0.70   23.40
 -32  25  -1    7.00   16.90
  25 -32  -1   48.10   25.10
  32 -25   1   54.69   28.80
   7  25  -1   52.19   18.90
   7  25  -1   17.30   16.50
  -7  32   1   39.90   15.90
 -25  -7   1   50.19   16.10
 -26  32   1   82.69   16.20
  32  -6   1   79.89   23.30
  26   6  -1   86.09   16.90
   6 -32  -1   63.99   25.40
 -32  26  -1   49.90   19.60
   6  26  -1  140.29   24.40
  32 -26   1  124.99   30.60
   6  26  -1   51.19   18.20
 -32   6  -1   43.00   18.70
  26 -32  -1   89.89   25.80
  -6  32   1   72.89   17.30
 -33  17  -1   98.39   21.50
  33 -16   1  136.09   27.10
  17  16  -1  133.59   22.50
 -17  33   1  109.29   22.30
  16 -33  -1  128.89   26.90
 -16  33   1  119.59   22.40
  17 -33  -1  127.29   26.90
 -33  16  -1  109.99   21.10
  16  17  -1  126.29   21.20
 -33  18  -1    6.90   19.30
  15 -33  -1   33.20   24.60
  18  15  -1   19.70   15.00
 -18  33   1    9.20   13.90
  33 -15   1   16.30   22.90
  33 -15   1   25.80   19.90
  18 -33  -1   22.10   25.40
 -33  15  -1    4.70   16.50
  33 -18   1   77.79   26.30
 -15  33   1    5.20   14.90
  15  18  -1   29.10   15.60
 -14 -19   1  140.39   24.30
  33 -14   1  122.29   26.90
  14 -33  -1  156.88   28.30
 -33  19  -1  122.99   21.90
 -19  33   1  146.69   22.60
  19  14  -1  154.08   23.20
  33 -14   1  167.78   23.40
  33 -19   1  174.48   30.20
 -33  14  -1  126.99   26.20
  14  19  -1  138.59   25.10
  33 -13   1  159.98   23.70
  20  13  -1  129.29   21.50
  33 -13   1  110.39   27.80
 -13 -20   1  131.79   26.60
 -20  33   1  140.49   22.40
 -33  20  -1   95.39   20.70
  13 -33  -1  129.09   27.10
  33 -20   1  155.68   29.40
  20 -33  -1  149.88   28.40
  13  20  -1  106.19   25.30
 -21  33   1   67.89   15.70
  21  12  -1   49.80   15.30
 -33  21  -1   24.50   17.80
  12 -33  -1   64.79   25.60
  33 -12   1   13.80   24.90
  33 -12   1   65.09   20.80
  21 -33  -1   74.49   26.20
  33 -21   1   82.19   27.70
 -12  33   1   54.19   16.30
 -33  12  -1   45.20   20.60
  33 -11   1    2.80   25.90
 -22  33   1   35.10   14.80
  11 -33  -1   22.10   24.70
  22  11  -1   37.00   15.30
  33 -11   1   51.29   18.50
 -33  22  -1   -2.80   15.40
 -33  11  -1   12.80   17.00
  22 -33  -1   53.29   25.30
  33 -22   1   35.60   27.10
 -11  33   1   21.70   14.90
 -33  23  -1   -8.90   17.00
  33 -10   1   20.00   20.30
 -23  33   1   15.20   14.30
  23  10  -1    1.50   13.40
  10 -33  -1  -17.40   24.00
  10  23  -1   39.30   23.00
  10  23  -1    7.70   16.00
 -33  10  -1   -6.20   15.40
  23 -33  -1   11.40   24.90
 -10  33   1   12.80   14.90
 -33  24  -1   26.80   18.90
  33  -9   1   84.79   20.80
  24   9  -1   68.99   16.00
   9 -33  -1   64.09   25.20
 -24  33   1   65.69   16.00
  33  -9   1   31.60   26.30
 -33   9  -1   32.40   19.00
  33 -24   1   45.90   28.70
   9  24  -1  113.29   20.90
  -9  33   1   53.29   16.20
   9  24  -1   42.80   17.30
  24 -33  -1   90.49   26.80
 -34  17  -1  -11.90   16.50
 -17 -17   1    4.30   15.40
  17  17  -1   16.30   14.80
  34 -17   1   37.40   25.00
 -17  34   1    1.10   15.00
 -18  34   1   27.50   16.70
  34 -16   1   32.10   24.70
 -34  18  -1    3.10   16.90
  18  16  -1   53.39   15.80
 -16 -18   1   26.30   17.00
  16 -34  -1   49.00   25.60
  34 -18   1   76.69   25.90
 -16  34   1   38.30   15.40
 -18 -16   1   21.80   16.70
 -34  16  -1   15.00   17.20
  16  18  -1   45.80   15.80
  18 -34  -1   51.99   27.10
 -34  19  -1   61.69   19.50
  34 -15   1   82.09   26.90
  19  15  -1   92.09   16.80
 -19  34   1  120.49   24.60
  15 -34  -1  109.79   27.40
 -15 -19   1  100.09   19.60
  19 -34  -1  129.79   27.80
 -15  34   1  125.49   21.70
 -19 -15   1   91.19   18.80
  15  19  -1   90.09   17.50
 -34  15  -1   64.09   19.10
 -14 -20   1  139.49   23.70
 -34  20  -1   71.09   20.20
 -20 -14   1  127.69   22.90
 -34  14  -1   86.79   19.90
 -14  34   1  106.39   18.30
   0   0   2 1229.78   66.09
   0   0  -2 1316.47   63.99
   0   0  -2 1403.16   63.69
   0  -1  -2  275.27   16.60
   1   0   2  285.87   25.00
   0  -1   2  250.97   21.80
   1   0  -2  292.47   17.40
  -1   1  -2  329.87   17.30
   1   0  -2  258.87   16.20
   0  -1  -2  315.07   17.70
  -1   1  -2  283.37   17.30
  -1   1   2  277.07   23.50
   0   1  -2  284.57   17.00
   1  -1   2  271.67   23.30
  -1   0  -2  327.17   17.00
  -1   0   2  249.48   22.20
  -1   0  -2  290.17   17.10
   0   1   2  267.47   22.90
   1  -1  -2  299.17   17.60
   1  -1  -2  285.97   16.10
  -1   2  -2  618.74   29.40
  -1  -1  -2  569.24   29.30
   1  -2   2  527.85   32.60
   1   1   2  474.15   34.30
  -1  -1  -2  593.64   29.40
   2  -1  -2  584.54   29.70
  -2   1   2  552.14   33.00
  -1   2  -2  583.54   29.40
   2  -1  -2  578.34   28.20
  -1   2   2  111.79   15.60
   1  -2  -2  103.49    9.30
   2  -1   2  107.69   15.90
  -2   1  -2   81.59   11.70
  -1  -1   2   87.89   15.60
   1   1  -2  116.89   10.80
   0  -2  -2 1720.13   81.69
  -2   2  -2 1801.62   81.69
   2   0   2 1493.35   84.09
   0  -2   2 1652.73   82.89
   0  -2  -2 1807.02   81.29
   2   0  -2 1739.23   81.79
   2   0  -2 1675.53   80.59
  -2   2   2 1650.33   83.79
  -2   2  -2 1669.73   81.29
  -2   0  -2 1878.61   81.79
   0   2   2 1590.84   84.79
   2  -2  -2 1789.72   80.59
  -2   0  -2 1699.63   81.29
   2  -2   2 1559.84   83.29
   0   2  -2 1745.93   81.29
   2  -2  -2 1623.84   81.79
  -2   0   2 1672.43   82.89
   0   2  -2 1653.03   81.29
   2   1   2   56.79   16.30
   1  -3   2   79.09   11.50
  -1  -2  -2   63.49    9.50
   3  -1  -2   87.29   10.70
  -3   2   2   60.89   12.20
  -2   3  -2   49.90    8.40
  -1  -2  -2   57.59    9.50
   1   2   2   61.89   16.60
  -1   3  -2   86.59    9.70
  -2  -1  -2   55.89    8.30
  -3   1   2   65.69   11.30
  -1   3  -2   50.29   10.20
  -2  -1  -2   81.89    9.60
   2  -3   2   72.99   12.40
   2  -4   2 1301.87   66.59
   2   2   2 1248.98   68.89
  -2  -2  -2 1397.36   65.19
  -4   2   2 1276.37   68.09
  -2   4  -2 1523.85   65.89
  -2   4  -2 1258.87   66.89
  -2  -2  -2 1392.06   65.19
  -2   3   2  207.38   22.60
   1  -3  -2  207.58   13.20
   2   1  -2  192.38   12.40
   1  -3  -2  221.18   15.10
  -3   2  -2  196.18   15.30
  -3   2  -2  238.88   13.80
   2   1  -2  255.17   14.60
  -1  -2   2  216.48   18.20
   3  -1   2  174.48   22.20
  -3   1  -2  222.18   15.20
  -2  -1   2  220.08   18.10
   1   2  -2  210.28   13.30
  -1   3   2  238.18   25.00
  -3   1  -2  241.58   13.90
   2  -3  -2  206.98   15.40
   2  -3  -2  184.58   12.70
   3  -2   2  159.58   21.90
  -3   3   2  171.98   19.80
   0  -3  -2  217.08   14.60
   3   0   2  171.58   24.00
   3   0  -2  246.38   15.00
   0  -3  -2  215.98   13.30
  -3   3  -2  186.08   15.30
   0  -3   2  190.58   17.60
  -3   3  -2  213.78   13.60
   0   3   2  174.58   25.50
   3  -3  -2  194.18   15.20
  -3   0  -2  219.98   15.30
   0   3  -2  204.18   13.80
   3  -3   2  151.98   20.30
  -3   0  -2  242.98   13.70
  -3   0   2  198.28   17.20
  -1  -3  -2  523.15   26.10
   3   1   2  445.36   32.70
   1  -4   2  455.95   28.10
  -3   4  -2  524.75   26.50
  -1  -3  -2  496.95   26.50
  -3   4  -2  531.15   27.30
   1   3   2  495.75   34.60
  -1   4  -2  505.85   26.60
  -4   1   2  479.35   29.30
  -3  -1  -2  536.15   26.90
  -3  -1  -2  521.15   25.90
   4  -3  -2  417.86   31.10
   3  -4   2  508.85   30.20
   2  -5   2  133.59   15.10
  -3   5  -2  170.68   13.20
  -2  -3  -2  190.98   12.60
  -2  -3  -2  180.38   12.70
   5  -2  -2  137.09   14.80
   3   2   2  175.48   24.10
  -3   5  -2  142.69   14.40
  -5   3   2  163.98   17.40
  -2   5  -2  163.18   12.00
  -5   2   2  137.09   18.30
  -2   5  -2  144.19   13.40
   3  -5   2  135.69   16.20
  -3  -2  -2  184.98   12.00
   5  -3  -2  173.28   14.80
  -3  -2  -2  187.68   13.10
   3  -6   2  843.32   45.50
  -3   6  -2  994.50   45.60
  -6   3   2  917.51   46.40
  -3   6  -2  920.51   44.20
  -3  -3  -2  908.41   44.70
  -3  -3  -2  906.11   44.30
   6  -3  -2  872.81   45.60
   3   3   2  797.72   53.29
   2  -4  -2 1320.57   60.99
  -4   2  -2 1405.66   62.59
  -4   2  -2 1305.77   61.49
  -2  -2   2 1341.07   63.29
  -2   4   2 1128.79   72.39
   2   2  -2 1244.58   61.19
   2  -4  -2 1235.48   62.29
   4  -2   2 1154.68   64.99
   4  -1   2   49.80   15.00
   1  -4  -2   58.29    8.10
  -4   3  -2   52.59    7.80
   3   1  -2   30.50    6.60
  -1  -3   2   51.09   10.70
   1  -4  -2   52.29    8.80
  -4   1  -2   30.10    7.90
   3  -4  -2   39.50    9.20
  -4   1  -2   71.29   10.30
   4  -3   2   14.40   14.10
   1   3  -2   44.50    8.40
  -3  -1   2   44.50   10.50
  -4   4  -2 1388.36   66.39
   0  -4  -2 1366.56   66.99
   0  -4   2 1462.15   67.79
   0  -4  -2 1447.26   66.39
   4   0   2 1255.27   71.89
   4   0  -2 1278.57   65.39
  -4   4  -2 1539.35   67.59
   0   4  -2 1421.16   66.59
   4  -4  -2 1159.78   69.79
  -4   0  -2 1485.65   67.19
  -4   0   2 1416.86   68.79
  -4   0  -2 1398.66   66.29
   4  -4   2 1214.98   68.69
   4   1   2   73.79   17.40
  -5   4   2   47.10   12.00
   5  -1  -2   59.59    9.80
   1  -5   2   62.69   10.20
  -4   5  -2   68.59   11.10
  -1  -4  -2   75.49   12.00
  -1  -4  -2   55.39   10.00
  -5   1   2   58.39   12.60
   1   4   2   56.99   18.90
  -1   5  -2   73.39    8.80
   4  -5   2   49.70   11.70
   5  -4  -2   75.29   11.90
  -4  -1  -2   74.69    8.60
  -4  -1  -2   65.99   11.10
  -1   5  -2   64.59   10.50
  -6   4   2 1127.29   57.59
   2  -6   2 1121.19   56.79
  -4   6  -2 1225.48   56.79
  -4   6  -2 1123.19   55.39
   6  -2  -2 1131.69   56.79
  -2  -4  -2 1154.78   55.79
  -2  -4  -2 1151.68   55.79
  -4  -2  -2 1171.18   55.39
  -2   6  -2 1216.58   56.39
   6  -4  -2 1060.19   56.59
   4  -6   2 1044.10   57.09
   2   4   2 1129.49   62.09
  -4  -2  -2 1143.59   56.09
  -6   2   2 1179.08   57.29
  -2   6  -2 1132.29   55.49
  -4   7  -2  153.58   15.10
  -3  -4  -2  152.38   12.40
  -4   7  -2  162.48   11.80
   4   3   2  158.08   24.80
   7  -3  -2  160.68   15.00
  -7   4   2  163.88   16.50
  -3  -4  -2  161.88   12.80
   3  -7   2  178.78   15.00
  -4  -3  -2  158.48   11.50
  -4  -3  -2  158.88   13.50
   7  -4  -2  178.78   15.50
   4  -7   2  157.38   15.50
  -7   3   2  153.58   15.90
  -3   7  -2  168.08   14.40
  -3   7  -2  175.78   11.70
   3   4   2  170.88   24.90
   4  -8   2 1330.97   66.49
  -4  -4  -2 1360.46   66.29
  -4   8  -2 1520.95   67.29
   4   4   2 1319.07   71.99
   8  -4  -2 1210.78   66.79
  -4  -4  -2 1394.36   65.59
  -8   4   2 1373.06   67.59
  -4   8  -2 1337.07   65.69
   5  -2   2  436.76   31.90
   3   2  -2  407.66   23.60
  -3   5   2  448.06   31.80
   2  -5  -2  496.55   23.90
   2  -5  -2  473.65   25.90
  -5   3  -2  524.55   26.80
  -5   3  -2  466.85   23.90
  -2   5   2  419.56   32.00
  -5   2  -2  502.85   24.40
   3  -5  -2  454.55   25.90
   3  -5  -2  487.55   23.60
  -5   2  -2  504.85   26.20
   2   3  -2  426.46   24.00
   5  -3   2  415.86   30.20
   5  -1   2  583.24   38.80
  -4   5   2  590.34   36.30
   1  -5  -2  640.04   31.50
   4   1  -2  578.74   33.90
   4   1  -2  612.14   30.80
  -5   4  -2  665.43   33.50
  -5   4  -2  671.53   31.80
   1  -5  -2  618.84   32.90
   5  -4   2  538.45   36.90
   1   4  -2  637.94   31.80
   1   4  -2  662.73   32.20
  -5   1  -2  619.74   31.50
  -1   5   2  603.14   38.60
   4  -5  -2  654.63   30.60
  -5   1  -2  683.63   33.50
   5   0  -2  109.09   11.30
  -5   5   2   80.69   13.60
  -5   5  -2   79.09   12.00
   0  -5   2  102.49   13.70
   5   0   2  102.39   18.70
   0  -5  -2   95.59    9.80
  -5   5  -2   76.79   10.70
   0  -5  -2   93.69   11.90
   0   5  -2  115.39    9.60
   5  -5  -2  117.19   13.00
   0   5  -2  102.59   11.10
   0   5   2   96.29   17.70
  -5   0  -2  101.79    9.00
  -5   0  -2   99.39   12.50
   5  -5   2   87.79   14.50
   5   1   2  510.75   37.40
  -1  -5  -2  582.04   29.00
  -5   6  -2  565.04   28.50
  -1  -5  -2  544.25   29.20
  -6   5   2  534.15   32.60
   6  -1  -2  548.05   30.10
  -5   6  -2  561.44   30.60
   1  -6   2  587.54   30.10
  -1   6  -2  598.74   29.40
   6  -5  -2  512.95   30.40
  -5  -1  -2  582.34   28.30
   1   5   2  545.95   37.50
   5  -6   2  481.65   32.10
  -1   6  -2  580.24   28.60
  -5  -1  -2  579.44   29.90
   2  -7   2   73.99   10.20
  -7   5   2   54.09   11.70
   7  -2  -2   83.69   13.00
  -2  -5  -2   67.89   10.10
  -2  -5  -2   75.99   10.50
   5   2   2   74.69   18.30
   2   5   2   77.49   18.50
  -5  -2  -2   94.29   11.30
  -5  -2  -2   92.99    8.90
  -2   7  -2   77.99   11.50
  -2   7  -2   97.79    9.10
   5  -7   2   56.29   11.40
   7  -5  -2   82.99   13.60
  -5   8  -2  715.33   34.60
  -3  -5  -2  681.73   34.70
  -3  -5  -2  673.83   35.00
   5   3   2  690.53   44.10
   3  -8   2  662.23   35.70
   8  -3  -2  675.93   36.00
  -5   8  -2  758.62   36.60
  -8   5   2  703.03   37.10
   5  -8   2  632.64   36.20
  -5  -3  -2  663.33   35.30
   3   5   2  673.03   42.70
  -5  -3  -2  669.33   34.10
  -3   8  -2  728.93   36.00
  -3   8  -2  687.03   34.50
   8  -5  -2  655.93   36.60
  -4  -5  -2  179.98   14.20
  -4  -5  -2  172.88   12.60
  -5   9  -2  174.78   12.10
  -5   9  -2  176.28   15.70
   9  -4  -2  174.58   16.30
  -9   5   2  179.88   16.60
   5   4   2  165.48   26.60
  -5  -4  -2  182.18   11.70
   5  -9   2  140.59   14.80
   9  -5  -2  173.68   17.50
  -5  -4  -2  188.38   14.30
   4   5   2  197.18   27.80
  -4   9  -2  166.78   15.20
  -4   9  -2  162.68   12.20
  -5  -5  -2  810.42   41.50
  10  -5  -2  813.12   42.70
   5 -10   2  769.72   41.10
  -5  10  -2  859.91   40.50
  -5  10  -2  752.72   45.10
  -5  -5  -2  834.82   39.90
   5   5   2  816.82   48.70
   3   3  -2  135.49   10.50
   3   3  -2  160.58   12.00
   3  -6  -2  158.88   13.90
   3  -6  -2  121.39   10.10
   6  -3   2  151.28   23.60
  -3   6   2   96.19   17.60
  -6   3  -2  147.79   11.00
  -6   3  -2  118.49   14.30
   3   3  -2  175.18   11.20
  -6   4  -2 1030.60   47.10
   4   2  -2  934.21   45.80
  -6   4  -2  914.91   45.20
   2  -6  -2  978.70   45.10
  -4   6   2  916.11   49.40
   2  -6  -2  893.11   46.20
   4   2  -2  886.11   44.80
   6  -2   2  845.52   50.79
   6  -4   2  863.11   49.80
   4  -6  -2  971.70   44.60
  -2   6   2  890.21   51.09
   2   4  -2  917.71   45.50
  -6   2  -2  974.60   46.80
   2   4  -2  876.61   45.30
  -6   2  -2  919.41   45.10
   5   1  -2  131.39   12.10
   5   1  -2  130.89    9.40
   5   1  -2  166.18   11.60
   6  -1   2  120.29   18.30
  -6   5  -2  100.89   14.90
  -6   5  -2  134.59   12.60
   1  -6  -2  135.19   13.10
   1  -6  -2  143.79   11.10
  -5   6   2  128.99   16.50
  -1   6   2  123.99   18.60
   6  -5   2  123.39   16.00
  -6   1  -2  138.79   14.30
   5  -6  -2  151.78   15.10
   1   5  -2  135.89   10.90
   5  -6  -2  123.69    8.50
   1   5  -2  129.89   11.50
  -6   1  -2  149.09   10.20
   6   0   2 1124.29   62.29
   0  -6  -2 1184.28   57.49
   6   0  -2 1163.08   57.69
  -6   6  -2 1128.69   56.59
  -6   6  -2 1291.57   58.49
   6   0  -2 1143.19   56.99
   0  -6  -2 1266.77   57.09
  -6   6   2 1140.19   59.89
   0   6   2 1104.49   62.59
   0   6  -2 1207.58   57.29
  -6   0  -2 1188.68   56.49
   0   6  -2 1213.28   56.99
   6  -6   2 1064.59   59.79
  -6   0  -2 1203.68   57.79
   6  -6  -2 1068.59   58.39
  -6   7  -2  209.18   18.10
  -1  -6  -2  227.28   15.70
  -1  -6  -2  237.58   15.40
  -7   6   2  228.98   20.90
   7  -1  -2  237.38   17.00
   7  -1  -2  250.47   15.40
  -6   7  -2  246.28   14.60
   6   1   2  193.58   33.40
  -6  -1  -2  240.98   14.10
   7  -6  -2  242.68   19.20
  -1   7  -2  255.87   16.60
   1   6   2  254.57   27.70
   6  -7   2  194.58   20.70
  -1   7  -2  254.07   14.60
  -6  -1  -2  257.97   16.80
  -6   8  -2  481.15   24.70
   6   2   2  510.75   36.10
   8  -2  -2  469.75   25.10
  -2  -6  -2  489.45   25.70
   8  -2  -2  465.05   27.00
  -6   8  -2  488.15   27.60
  -2  -6  -2  433.16   25.30
  -8   6   2  464.45   28.30
   2   6   2  472.55   36.30
   6  -8   2  417.66   28.20
  -2   8  -2  490.65   26.30
  -6  -2  -2  460.95   25.90
  -2   8  -2  523.05   25.10
  -6  -2  -2  464.75   24.20
   8  -6  -2  483.25   28.50
  -9   6   2   60.99   11.50
   3  -9   2   79.79   10.00
  -6   9  -2   75.89    9.10
   9  -3  -2   90.39   12.70
  -6   9  -2   63.29   11.60
   6   3   2   75.59   19.40
   9  -3  -2  102.89   10.00
  -3  -6  -2   57.99    9.80
  -3  -6  -2   65.39   10.80
  -6  -3  -2   70.49    8.20
   3   6   2   71.99   20.00
  -6  -3  -2   78.69   11.60
  -3   9  -2   84.89    9.10
   9  -6  -2   88.29   15.20
   6  -9   2   79.19   11.40
  -3   9  -2   81.09   12.40
  -6  10  -2  662.53   33.70
  -4  -6  -2  600.54   32.10
 -10   6   2  605.04   33.70
  -4  -6  -2  605.34   31.00
  -6  10  -2  626.34   31.20
   4 -10   2  646.84   32.20
  10  -4  -2  581.54   33.90
   6   4   2  596.14   40.50
  10  -6  -2  593.54   34.20
  -6  -4  -2  586.74   30.50
   4   6   2  566.74   42.30
  -4  10  -2  602.24   31.00
  11  -5  -2  313.57   23.30
  -6  11  -2  321.17   21.60
   5 -11   2  333.77   19.70
  -5  -6  -2  316.17   19.80
   6   5   2  268.27   31.00
  -5  -6  -2  315.87   17.80
  -6  11  -2  307.67   18.20
  -5  11  -2  311.37   20.60
  -5  11  -2  301.37   18.20
  -6  -5  -2  306.67   17.30
   5   6   2  317.47   31.70
  -6  -5  -2  303.17   19.90
  11  -6  -2  310.57   23.00
  -6  -6  -2  227.48   17.10
  -6  12  -2  219.78   19.10
  12  -6  -2  225.98   30.50
   6 -12   2  218.78   16.40
  -6  -6  -2  201.68   13.60
 -12   6   2  250.47   12.90
   3  -7  -2  233.48   17.00
  -7   4  -2  204.58   17.50
  -7   4  -2  220.48   13.60
   4   3  -2  207.98   13.50
   3  -7  -2  217.08   13.30
   7  -3   2  250.77   25.30
  -4   7   2  160.68   25.40
   4   3  -2  228.38   14.90
   4  -7  -2  220.68   12.90
   3   4  -2  209.08   14.00
   3   4  -2  246.78   14.40
  -7   3  -2  233.78   13.50
   3   4  -2  238.98   14.60
  -3   7   2  205.08   25.10
  -7   3  -2  221.88   17.50
   4  -7  -2  187.08   25.20
   7  -4   2  249.38   25.00
   5   2  -2  248.08   14.80
   5   2  -2  274.57   15.70
  -5   7   2  223.58   24.20
  -7   5  -2  242.48   18.80
   5   2  -2  268.37   16.80
   2  -7  -2  252.97   17.50
   7  -2   2  288.97   26.20
   2  -7  -2  265.27   15.30
   2   5  -2  274.47   16.00
  -7   2  -2  258.97   18.60
   2   5  -2  271.37   15.50
  -7   2  -2  256.37   14.80
   7  -5   2  270.67   24.40
   5  -7  -2  256.47   18.80
   2   5  -2  261.37   15.80
  -2   7   2  194.28   25.60
   5  -7  -2  245.78   14.10
   1  -7  -2  278.77   16.20
   7  -1   2  261.77   27.70
  -6   7   2  256.57   22.90
  -7   6  -2  258.87   19.20
   6   1  -2  270.67   16.90
   1  -7  -2  264.77   17.30
  -7   6  -2  287.37   15.60
   6   1  -2  234.48   14.70
   6   1  -2  265.57   16.00
   6  -7  -2  266.77   19.40
  -7   1  -2  259.07   15.00
   1   6  -2  251.27   16.40
   7  -6   2  240.08   23.20
  -1   7   2  269.57   29.20
   1   6  -2  266.67   15.80
   1   6  -2  269.97   15.80
  -7   1  -2  297.67   19.20
  -7   7   2  432.86   28.40
   0  -7  -2  477.55   24.30
   7   0  -2  434.76   23.90
  -7   7  -2  471.25   26.50
   0  -7  -2  461.25   25.10
   7   0  -2  443.86   25.40
  -7   7  -2  470.95   23.70
   7  -7  -2  425.26   26.80
  -7   0  -2  458.35   25.20
   0   7  -2  442.06   23.60
   0   7  -2  433.16   23.50
  -7   0  -2  472.05   23.20
   0   7   2  442.06   34.20
   7  -7   2  377.06   28.50
   0   7  -2  443.36   24.70
   8  -1  -2  460.45   25.10
  -1  -7  -2  481.65   25.80
   8  -1  -2  471.85   26.50
  -7   8  -2  460.15   24.40
  -1  -7  -2  486.35   25.30
  -8   7   2  473.75   29.40
   7   1   2  468.65   35.10
  -7   8  -2  498.15   28.20
   1   7   2  464.85   35.10
  -1   8  -2  480.65   24.30
  -1   8  -2  502.55   24.60
   8  -7  -2  439.06   28.00
  -7  -1  -2  502.35   26.20
  -1   8  -2  480.85   25.80
  -7  -1  -2  460.05   23.80
   7  -8   2  418.86   29.10
  -8   1   2  394.86   23.00
  -9   7   2   29.70   11.40
   7   2   2   16.20   18.20
  -7   9  -2   36.90    6.90
  -7   9  -2   14.10    9.70
   9  -2  -2   42.10    9.80
   9  -2  -2   51.49    9.00
  -2  -7  -2   31.50    7.10
  -2  -7  -2   36.00    8.40
  -2   9  -2   34.80    8.50
   7  -9   2   22.70   11.20
   9  -7  -2   34.90   11.70
   2   7   2   35.60   19.00
  -2   9  -2   50.29    8.30
  -7  -2  -2   41.30    5.90
  -7  10  -2  157.38   16.80
   7   3   2  174.08   28.40
  -3  -7  -2  156.48   12.90
 -10   7   2  148.59   17.90
  10  -3  -2  167.88   15.20
  -3  -7  -2  169.58   14.20
  10  -3  -2  162.98   12.40
  -7  10  -2  174.08   12.40
  -3  10  -2  181.58   12.10
  -7  -3  -2  164.28   11.10
   7 -10   2  137.99   17.00
  10  -7  -2  165.78   17.80
  -7  -3  -2  174.28   14.50
   3   7   2  156.38   28.30
 -10   3   2  139.99    9.60
  -3  10  -2  158.08   16.80
 -11   7   2   99.49   16.40
  -4  -7  -2  100.59   13.20
  -7  11  -2  107.19   15.80
   7   4   2  114.59   21.80
  -7  11  -2  117.29   10.60
  11  -4  -2  119.49   11.10
  -4  -7  -2  102.59   11.00
  11  -4  -2  130.59   15.60
  -4  11  -2  118.69   14.90
   4   7   2  102.89   21.50
  -7  -4  -2  119.19   13.60
   7 -11   2  115.69   14.50
  -4  11  -2  126.79   10.60
  11  -7  -2  122.89   18.30
  -7  -4  -2  110.69    9.20
  -7  12  -2  220.18   14.70
 -12   7   2  239.48   12.40
  -5  -7  -2  206.18   13.90
  12  -5  -2  221.78   20.00
  -5  -7  -2  208.18   16.60
  -7  12  -2  213.18   18.90
  -7  -5  -2  221.98   17.10
  -7  -5  -2  198.38   13.10
  -5  12  -2  220.28   18.40
   5   7   2  191.08   33.30
  -6  -7  -2  131.89   10.80
  -7  13  -2  143.09   12.20
  13  -6  -2  141.59   12.20
   7   6   2  131.59   23.70
  13  -6  -2  148.59   19.80
  -6  -7  -2  149.88   14.20
  -7  13  -2  147.89   17.60
  -6  13  -2  145.59   11.80
   6   7   2  138.89   23.50
  -7  -6  -2  140.59   15.00
  -6  13  -2  131.19   16.90
  13  -7  -2  138.59   18.90
  -7  -6  -2  136.09   10.30
  14  -7  -2  277.97   18.00
   7   7   2  266.47   34.80
  -7  -7  -2  306.07   20.20
  -7  14  -2  281.67   17.90
   7 -14   2  350.66   18.70
  -7  -7  -2  282.77   16.60
  14  -7  -2  311.47   24.10
  -8   4  -2  856.81   40.40
   4   4  -2  772.12   38.10
   4   4  -2  749.42   37.80
  -8   4  -2  766.32   37.80
   4   4  -2  760.12   38.10
  -4   8   2  679.73   44.20
   8  -4   2  757.62   43.90
   4  -8  -2  722.23   40.20
  -8   5  -2   17.40    9.30
   3  -8  -2   29.40   17.80
   8  -3   2   58.69   17.00
   5   3  -2   36.40    7.70
  -8   5  -2   30.50    6.40
   5   3  -2   35.30    6.80
   5   3  -2   24.10    5.70
   3  -8  -2   38.90    8.00
  -5   8   2   15.00   15.90
  -8   3  -2   35.70    5.90
   8  -5   2   56.49   15.30
  -8   3  -2   17.40    9.00
   3   5  -2   32.10    6.40
   5  -8  -2   34.20   10.80
  -3   8   2   12.10   16.50
   3   5  -2   37.90    7.00
  -6   8   2  569.24   35.00
  -6   8   2  546.55   28.50
  -8   6  -2  578.24   29.20
  -8   6  -2  581.74   32.20
   2  -8  -2  619.84   29.50
   8  -2   2  562.54   37.10
   2  -8  -2  548.05   30.80
   6   2  -2  546.85   28.80
   6   2  -2  575.94   30.10
   6   2  -2  553.24   29.60
   2   6  -2  571.24   29.40
   2   6  -2  566.44   29.90
  -2   8   2  554.74   38.60
  -8   2  -2  625.04   31.80
  -8   2  -2  588.84   28.90
   6  -8  -2  542.05   32.30
   2   6  -2  569.94   29.30
   8  -6   2  579.74   34.90
   8  -1   2  142.69   21.40
  -8   7  -2  139.19   11.00
   7   1  -2  149.29   11.90
  -7   8   2  117.69   19.80
   1  -8  -2  151.08   11.90
   1  -8  -2  161.78   14.40
   7   1  -2  136.89   12.70
  -8   1  -2  151.08   10.30
   8  -7   2  115.29   20.80
  -1   8   2  142.29   26.20
   7  -8  -2  145.89   17.10
  -8   1  -2  148.39   17.40
   1   7  -2  169.68   11.50
   1   7  -2  165.68   11.50
   1   7  -2  160.18   13.10
   8   0  -2  335.07   19.70
   8   0   2  327.77   29.10
  -8   8   2  335.57   17.60
   0  -8  -2  344.07   19.60
  -8   8  -2  361.86   23.20
   0  -8  -2  320.87   19.90
  -8   8   2  345.97   24.70
  -8   8  -2  361.36   19.20
   8   0  -2  347.57   21.20
   0   8  -2  355.06   19.20
   8  -8   2  319.17   25.20
   0   8  -2  335.47   20.20
  -8   0   2  331.67   17.80
   0   8   2  365.46   31.60
   0   8  -2  341.87   19.10
   8  -8  -2  325.67   22.90
  -8   0  -2  338.27   18.20
  -8   0  -2  311.67   24.10
  -8   9  -2   10.70    9.90
  -1  -8  -2   33.80    7.20
  -8   9  -2   39.20    6.90
   9  -1  -2   33.90    9.80
  -1  -8  -2   36.60    8.90
  -9   8   2   34.80   12.40
   9  -1  -2   31.80    7.10
   8   1   2   23.80   17.80
  -1   9  -2   33.40    6.80
   1   8   2   31.10   19.10
  -8  -1  -2   32.40    5.80
  -1   9  -2   34.00    8.10
  -1   9  -2   47.90    8.60
   8  -9   2   32.30   12.60
   9  -8  -2   42.30   12.20
  -8  10  -2  254.37   20.20
  -8  10  -2  265.17   15.80
  10  -2  -2  236.18   15.90
  -2  -8  -2  267.07   17.10
  -2  -8  -2  233.38   16.50
 -10   8   2  255.17   20.30
   8   2   2  222.28   30.00
  10  -2  -2  250.57   18.20
  -8  -2  -2  258.37   17.50
  10  -8  -2  273.77   21.60
  -2  10  -2  264.07   15.70
  -2  10  -2  257.47   18.10
   8 -10   2  225.68   21.10
  -8  -2  -2  244.58   14.30
  -2  10  -2  251.57   15.20
   2   8   2  236.88   30.50
  -8  11  -2   50.79    8.70
  11  -3  -2   55.09   11.20
  -3  -8  -2   45.50    8.60
  -3  -8  -2   39.50    9.90
   8   3   2   37.00   20.00
 -11   8   2   45.60    6.60
 -11   8   2   56.59   12.20
  11  -3  -2   59.69    9.20
  -8  11  -2   37.40   10.70
   3   8   2   38.20   23.60
  -3  11  -2   45.70    9.70
  -8  -3  -2   47.00    7.20
  11  -8  -2   62.49   15.00
  -3  11  -2   51.89    7.70
  -8  -3  -2   58.79   11.60
   8 -11   2   59.59   11.90
  -3  11  -2   49.10    8.80
  -8  12  -2  157.78   12.30
  12  -4  -2  170.98   14.80
  -4  -8  -2  161.68   12.60
   8   4   2  169.28   28.20
  -8  12  -2  155.48   18.00
  12  -4  -2  165.18   18.00
 -12   8   2  167.78   10.50
  -4  -8  -2  166.78   14.70
 -12   8   2  159.48   17.60
   4   8   2  178.98   24.50
  12  -8  -2  176.78   20.00
  -8  -4  -2  161.58   10.80
   8 -12   2  194.38   16.60
  -8  -4  -2  170.58   15.30
  -4  12  -2  148.49   16.80
 -13   8   2  171.18   10.80
  13  -5  -2  197.48   25.00
 -13   8   2  144.89   19.60
  -8  13  -2  146.89   17.00
  -5  -8  -2  145.39   11.90
  -5  -8  -2  175.98   15.30
  13  -5  -2  156.88   12.80
  -8  13  -2  152.28   12.50
   8   5   2  133.79   24.20
  13  -8  -2  177.98   19.20
  -5  13  -2  167.78   17.60
  -5  13  -2  169.68   12.80
   5   8   2  152.48   24.00
   8 -13   2  135.49   13.20
  -8  -5  -2  167.28   15.80
  -8  -5  -2  144.19   10.30
   8   6   2   -1.00   22.00
  -8  14  -2   22.70   11.40
  14  -6  -2   41.60   14.20
  14  -6  -2   38.50    7.90
  -6  -8  -2   23.80    7.00
  -6  -8  -2   34.30    9.40
  -8  14  -2   49.70    8.10
  14  -8  -2   57.29   14.30
   6   8   2   12.00   21.90
  -6  14  -2   39.50   16.90
  -6  14  -2   48.60    7.80
  -8  -6  -2   34.80    6.00
  15  -7  -2  120.89   12.00
  15  -7  -2  146.29   19.90
  -7  -8  -2  121.29    9.90
  -8  15  -2  118.19   18.10
  -8  15  -2  118.09   12.10
   8   7   2   94.89   24.40
  -7  -8  -2  130.39   15.40
   7   8   2  106.79   25.40
  -7  15  -2  122.39   11.60
  -8  -7  -2  135.09   14.80
  -8  -7  -2  113.59    9.30
  -7  15  -2  117.99   16.80
  15  -8  -2  138.19   19.70
  -8  -8  -2   93.49   15.60
  -8  16  -2   99.89   17.50
   8   8   2   70.49   24.60
  16  -8  -2  127.09   12.80
  16  -8  -2  150.68   20.30
  -8  16  -2  126.69   12.20
  -5   9   2  373.86   31.80
   5   4  -2  394.96   21.80
  -5   9   2  379.46   21.20
   9  -4   2  419.76   30.80
   4  -9  -2  383.76   24.50
   5   4  -2  395.76   21.80
  -9   5  -2  435.76   24.40
   5   4  -2  377.86   21.50
  -9   5  -2  400.66   21.30
   5  -9  -2  387.96   24.90
  -9   4  -2  433.16   24.80
  -4   9   2  391.96   31.00
   9  -5   2  441.26   30.20
   4   5  -2  418.56   22.00
   4   5  -2  385.56   21.70
  -9   4  -2  350.26   21.70
   4   5  -2  391.26   21.70
   6   3  -2  681.93   34.60
  -9   6  -2  743.13   36.90
  -9   6  -2  661.93   33.70
   6   3  -2  651.23   34.20
   9  -3   2  663.53   41.50
  -6   9   2  682.23   33.50
  -6   9   2  657.43   41.20
   6   3  -2  664.03   33.70
   3   6  -2  679.03   33.90
   3   6  -2  605.24   34.40
  -9   3  -2  720.83   36.40
   3   6  -2  699.03   34.50
  -9   3  -2  668.53   33.50
   6  -9  -2  614.64   36.50
   9  -6   2  704.73   40.20
  -3   9   2  635.14   41.10
   7   2  -2   19.90    5.30
   9  -2   2   26.30   16.80
   7   2  -2   27.90    8.00
  -7   9   2   13.30   14.10
   2  -9  -2   36.00   10.40
  -9   7  -2   28.20    6.40
   7   2  -2   31.50    6.80
  -9   2  -2   33.70    9.30
  -2   9   2   27.60   19.00
   2   7  -2   33.50    6.90
   2   7  -2   28.80    7.20
   2   7  -2   27.20    6.90
   9  -7   2   57.79   15.20
   7  -9  -2   21.80   11.40
  -9   2  -2   29.70    5.70
  -8   9   2  273.27   23.50
   8   1  -2  255.57   17.50
   1  -9  -2  279.17   17.00
  -9   8  -2  273.47   20.70
   9  -1   2  256.07   28.00
   8   1  -2  256.77   17.00
  -9   8  -2  260.57   15.90
   1  -9  -2  264.27   18.90
  -8   9   2  256.97   15.20
   1   8  -2  274.67   16.20
   8  -9  -2  270.47   21.30
  -9   1  -2  264.47   15.40
  -1   9   2  257.77   30.00
   1   8  -2  264.77   17.40
   1   8  -2  284.87   16.60
  -9   1  -2  312.87   19.60
   9  -8   2  287.27   23.60
   0  -9  -2   67.89   10.30
  -9   9   2   61.99   13.70
  -9   9   2   46.40    7.40
  -9   9  -2   46.80   11.10
   9   0  -2   60.69    9.90
  -9   9  -2   62.79    9.40
   9   0   2   73.19   19.20
   0  -9  -2   54.39   10.10
   9   0  -2   64.89   10.40
   0   9   2   60.79   19.40
   0   9  -2   70.09   12.30
   0   9  -2   63.59    9.50
   9  -9  -2   65.49   13.40
   9  -9   2   74.79   15.20
  -9   0  -2   62.49    7.60
   0   9  -2   56.29    8.80
  -1  -9  -2  442.96   24.50
  10  -1  -2  424.66   24.30
   9   1   2  418.56   33.90
 -10   9   2  419.56   22.40
 -10   9   2  442.66   28.10
  10  -1  -2  439.36   25.90
  -1  -9  -2  463.55   24.50
  -9  10  -2  429.36   23.40
  -9  10  -2  468.05   27.30
   9 -10   2  423.36   28.70
  -9  -1  -2  473.45   25.40
  10  -9  -2  435.06   28.70
  -1  10  -2  434.96   23.40
   1   9   2  435.36   37.70
  -1  10  -2  459.25   23.60
  -9  -1  -2  433.86   22.60
  -1  10  -2  452.65   25.70
 -10   1   2  383.16   22.30
  11  -2  -2  130.49   15.00
 -11   9   2  111.49    9.20
  -9  11  -2  101.29   15.80
   9   2   2  118.69   21.80
 -11   9   2  118.69   17.80
  -2  -9  -2  127.09   12.90
  -2  11  -2  122.49   14.70
  -2  11  -2  134.89   10.80
  -2  11  -2  120.59   10.60
  -9  -2  -2  113.59    9.40
   9 -11   2  141.89   17.30
  -9  -2  -2  135.99   13.90
   9   3   2  567.74   42.40
 -12   9   2  575.64   33.70
  -9  12  -2  555.44   30.50
  12  -3  -2  564.24   32.90
  -3  -9  -2  645.34   31.90
  -3  -9  -2  604.84   30.70
  -9  12  -2  634.04   34.10
 -12   9   2  573.94   29.20
  12  -3  -2  553.94   30.70
  12  -9  -2  559.44   34.70
  -9  -3  -2  584.54   32.00
   9 -12   2  540.35   32.60
   3   9   2  594.14   43.40
  -9  -3  -2  593.64   29.20
  -3  12  -2  605.04   30.00
  -3  12  -2  598.54   32.70
  -9  13  -2   84.59   10.40
  13  -4  -2   97.99   11.70
  -9  13  -2   68.19   14.00
  -4  -9  -2   99.99   10.70
  -4  -9  -2   91.39   13.30
   9   4   2   61.79   22.20
 -13   9   2   79.89   20.30
 -13   9   2   86.69    8.80
  -4  13  -2   92.19   15.20
   4   9   2   97.19   23.10
  -4  13  -2   83.59    9.70
  -9  -4  -2   96.09   13.20
  -9  -4  -2   85.09    8.10
  13  -9  -2   84.99   15.50
  -4  13  -2   98.39   10.20
 -14   9   2  480.55   23.20
  -9  14  -2  423.06   24.40
  -9  14  -2  467.15   28.80
  14  -5  -2  432.36   28.50
 -14   9   2  436.06   27.30
  -5  -9  -2  436.66   24.00
  14  -5  -2  397.06   24.20
  -5  -9  -2  459.45   26.20
   9   5   2  443.76   37.90
  -9  -5  -2  424.96   22.60
  -5  14  -2  412.76   24.10
   9 -14   2  487.65   26.40
  -9  -5  -2  439.56   28.10
  -5  14  -2  485.55   29.70
   5   9   2  405.46   38.30
  14  -9  -2  416.96   29.60
  15  -6  -2   20.80   14.50
  -6  -9  -2   10.40    6.70
  15  -6  -2   25.20    7.90
   9   6   2    7.80   21.90
  -6  -9  -2   17.20    9.40
  -9  15  -2    4.30   10.90
  -9  15  -2   26.90    8.00
   6   9   2   -0.40   23.30
  -6  15  -2    7.00   10.80
  -9  -6  -2   22.60    9.00
  -6  15  -2   27.00    8.00
  15  -9  -2   36.70   15.30
  -9  -6  -2   11.60    5.30
   9   7   2  314.27   36.70
  16  -7  -2  337.57   21.30
  -7  -9  -2  361.76   19.80
  -7  -9  -2  370.16   23.80
  16  -7  -2  373.06   28.30
  -9  16  -2  349.77   21.20
  -9  16  -2  368.46   25.80
 -16   9   2  419.56   20.80
  -7  16  -2  375.56   26.40
  -7  16  -2  356.66   21.40
  16  -9  -2  344.07   28.00
   7   9   2  329.57   38.10
  -9  -7  -2  360.16   19.20
  -9  -7  -2  363.26   23.90
   9   8   2  382.76   40.90
  -9  17  -2  426.46   25.00
  17  -8  -2  496.85   31.80
 -17   9   2  512.85   24.60
  -8  -9  -2  447.16   27.20
  -9  17  -2  453.15   29.20
  -8  -9  -2  420.36   22.80
  17  -8  -2  400.66   24.50
  -9  -8  -2  443.36   27.20
  -8  17  -2  424.06   25.00
   8   9   2  412.66   41.20
  -9  -8  -2  440.16   22.70
  17  -9  -2  452.15   32.50
  -8  17  -2  441.76   29.20
  17  -9  -2  413.16   24.90
  -9  18  -2   84.99   11.90
   9   9   2   28.50   26.50
  -9  18  -2   57.99   14.70
  18  -9  -2   83.39   12.00
  18  -9  -2   75.69   19.00
  -9  -9  -2   76.99   15.90
  -5  10   2   56.79    9.80
   5   5  -2   71.69   10.20
   5   5  -2   82.59   10.10
  -5  10   2   44.00   17.60
 -10   5  -2   50.09   10.80
   5 -10  -2   88.09   14.90
  10  -5   2   68.19   16.70
 -10   5  -2   76.59    8.70
   5   5  -2   88.79   10.10
  -6  10   2  218.68   27.00
   6   4  -2  208.08   15.00
   6   4  -2  222.58   14.70
 -10   6  -2  247.88   19.10
  -6  10   2  236.98   14.60
   4 -10  -2  204.68   18.30
  10  -4   2  241.88   26.50
   6   4  -2  222.08   15.20
 -10   6  -2  226.68   14.10
  -4  10   2  208.18   26.40
   6 -10  -2  244.98   19.40
  10  -6   2  250.97   24.30
   4   6  -2  210.28   14.80
  -4  10   2  208.18   14.60
   4   6  -2  222.78   14.80
 -10   4  -2  233.18   18.60
   4   6  -2  208.28   15.00
 -10   7  -2    6.80   10.20
   3 -10  -2   21.80   11.20
  -7  10   2   20.50   16.70
   7   3  -2   28.60    8.10
   7   3  -2   27.70    6.70
  -7  10   2   17.50    5.70
 -10   7  -2   26.60    6.50
   7   3  -2   20.60    6.20
  10  -3   2   16.80   17.00
 -10   3  -2   21.80    9.60
 -10   3  -2   25.60    6.10
  -3  10   2   13.70   19.60
   3   7  -2   20.60    6.50
   3   7  -2   24.60    7.20
   3   7  -2   26.50    6.80
   7 -10  -2   38.30   12.20
  -8  10   2  387.56   20.60
   8   2  -2  369.26   21.30
   2 -10  -2  324.87   25.10
 -10   8  -2  378.96   21.00
  -8  10   2  352.66   29.20
   8   2  -2  390.76   22.20
  10  -2   2  341.37   34.70
 -10   8  -2  399.86   24.60
   8 -10  -2  400.06   26.10
   2   8  -2  384.16   20.90
  -2  10   2  367.96   33.60
 -10   2  -2  367.36   20.40
  10  -8   2  440.96   28.40
   2   8  -2  387.36   22.10
 -10   2  -2  412.26   24.90
  10  -1   2   75.79   19.10
   9   1  -2   66.19   10.00
  -9  10   2   52.49    8.40
   9   1  -2   61.59   10.50
  -9  10   2   64.89   15.40
 -10   9  -2   67.59    9.50
   1 -10  -2   66.09   11.50
   1   9  -2   58.19    9.40
  -1  10   2   58.79   19.60
  -9  -1   2   76.99    8.50
   9 -10  -2   73.29   14.00
   1   9  -2   64.09   11.70
 -10   1  -2   92.49   14.00
 -10   1  -2   73.69    8.10
   1   9  -2   62.39    9.30
 -10  10   2  403.76   27.80
   0 -10  -2  366.36   23.20
 -10  10  -2  375.86   21.20
  10   0  -2  367.76   26.90
 -10  10   2  378.96   20.40
   0 -10  -2  412.86   22.70
 -10  10  -2  397.36   26.10
  10   0   2  367.76   34.20
  10   0  -2  377.96   23.40
  10 -10   2  419.36   27.30
   0  10   2  375.76   39.00
 -10   0  -2  423.16   24.00
   0  10  -2  357.26   24.90
 -10   0  -2  399.86   20.40
   0  10  -2  399.56   21.30
 -10   0   2  343.27   20.50
   0  10  -2  383.46   21.30
  10 -10  -2  374.16   31.60
 -11  10   2   59.29    8.60
  11  -1  -2   88.89   14.20
  10   1   2   52.29   20.70
  -1 -10  -2   90.99   12.10
 -10  11  -2   96.99   16.60
 -11  10   2   70.39   14.10
  11  -1  -2   78.69   11.30
 -11   1   2   59.29    8.30
 -10  -1  -2   75.09    7.90
  -1  11  -2   88.19   14.20
  -1  11  -2   99.29   10.30
  10 -11   2  123.69   17.70
  -1  11  -2   86.09   10.00
   1  10   2   84.49   23.80
  11 -10  -2   63.19   14.60
  10   2   2   43.30   20.80
  12  -2  -2   48.20   11.00
  -2 -10  -2   48.70    8.90
 -12  10   2   53.29   12.80
 -12  10   2   49.10    8.20
  12  -2  -2   59.29   10.60
 -10  12  -2   38.60   11.30
 -10  12  -2   60.79   10.20
  -2 -10  -2   56.09    9.80
 -10  -2  -2   48.10    7.30
  10 -12   2   99.79   17.80
 -10  -2  -2   76.89   13.00
  -2  12  -2   70.39   14.00
  -2  12  -2   45.80    9.90
   2  10   2   54.29   21.80
  -2  12  -2   51.09    9.10
  12 -10  -2   77.29   15.20
 -10  13  -2   35.90   13.10
 -10  13  -2   67.19    9.80
  13  -3  -2   64.99   10.60
 -13  10   2   67.19    8.50
  -3 -10  -2   55.59    9.30
  -3 -10  -2   69.59   12.50
 -13  10   2   50.99   21.50
  10   3   2   49.20   21.10
 -10  -3  -2   62.89    7.40
  -3  13  -2   47.60   10.50
  13 -10  -2   69.89   15.40
  -3  13  -2   56.79    9.30
   3  10   2   39.00   21.20
  -3  13  -2   48.40    7.90
 -14  10   2  391.06   20.50
  10   4   2  337.47   36.30
 -10  14  -2  396.16   26.40
  -4 -10  -2  368.06   23.30
  -4 -10  -2  349.96   21.50
  14  -4  -2  388.76   26.10
 -14  10   2  366.46   25.80
 -10  14  -2  374.66   21.60
  14  -4  -2  394.16   22.30
  14 -10  -2  384.76   27.70
  -4  14  -2  373.76   20.60
 -14   4   2  346.57   20.30
 -10  -4  -2  347.47   19.60
  -4  14  -2  439.36   27.10
  -4  14  -2  369.46   21.00
   4  10   2  372.16   36.40
  10 -14   2  382.56   23.80
 -10  -4  -2  357.36   23.70
  -5 -10  -2  283.87   21.20
  15  -5  -2  294.97   23.10
  -5 -10  -2  268.17   17.00
 -15  10   2  260.57   21.20
 -10  15  -2  278.17   17.90
  10   5   2  226.88   33.60
 -10  15  -2  291.77   23.50
 -15  10   2  316.77   16.60
  15  -5  -2  261.57   18.30
 -10  -5  -2  268.87   19.90
   5  10   2  238.58   35.40
  -5  15  -2  269.57   17.40
 -10  -5  -2  265.47   15.30
  -5  15  -2  269.37   21.10
  -5  15  -2  261.47   16.40
  15 -10  -2  290.97   25.10
  16  -6  -2   10.10   15.20
  -6 -10  -2    8.80    9.30
  -6 -10  -2   -0.10    6.70
  16  -6  -2   12.00    7.90
 -10  16  -2   21.40    8.40
  10   6   2  -29.80   21.60
 -10  16  -2   -6.00   11.10
   6  10   2  -26.60   23.40
  -6  16  -2   14.90    7.80
  16 -10  -2   18.20   15.70
 -10  -6  -2   17.20    9.40
  -6  16  -2   -0.20   10.60
 -10  -6  -2    3.40    5.20
  10   7   2   19.90   24.80
  -7 -10  -2   40.20    7.40
 -10  17  -2   74.39   11.20
 -10  17  -2   36.50   12.90
  17  -7  -2   54.39   16.70
  -7 -10  -2   50.39   10.90
  17  -7  -2   37.50    8.90
 -10  -7  -2   79.59   15.50
  -7  17  -2   39.30   12.30
 -10  -7  -2   53.79    6.40
  17 -10  -2   66.59   17.70
   7  10   2   33.20   24.70
  -7  17  -2   66.79   11.30
  10   8   2   58.09   24.60
  -8 -10  -2   62.19   12.00
  18  -8  -2   82.89   12.90
 -10  18  -2   87.69   11.80
  18  -8  -2   97.09   18.20
 -10  18  -2   66.69   14.60
  -8 -10  -2   61.49    8.30
 -10  -8  -2   45.70    7.70
 -10  -8  -2   78.99   15.70
  -8  18  -2   60.79   14.30
   8  10   2   55.19   26.40
  -8  18  -2   82.59   11.90
  18 -10  -2  104.09   19.50
 -10  19  -2  203.28   22.70
  -9 -10  -2  207.18   20.40
  -9 -10  -2  173.88   11.70
  19  -9  -2  194.68   16.10
  19  -9  -2  215.38   25.70
  10   9   2  166.58   30.20
   9  10   2  159.58   28.40
  19 -10  -2  185.28   15.30
  -9  19  -2  190.58   22.00
 -10  -9  -2  190.48   20.20
  19 -10  -2  200.78   25.90
  20 -10  -2   59.49   20.50
 -10 -10  -2   44.20   12.70
 -10  20  -2   47.40   15.10
  10  10   2    8.20   27.20
  20 -10  -2   79.79   13.10
 -11   6  -2  312.17   22.60
   6   5  -2  297.57   18.40
   6   5  -2  319.17   18.20
  -6  11   2  283.47   29.30
 -11   6  -2  304.07   17.70
  -6  11   2  303.27   18.30
   5 -11  -2  305.17   22.20
  11  -5   2  324.57   28.70
   6   5  -2  315.47   19.00
   5   6  -2  310.67   19.00
  11  -6   2  353.06   28.50
   5   6  -2  312.87   18.40
 -11   5  -2  303.17   17.60
  -5  11   2  306.47   18.70
   5   6  -2  312.37   18.40
  -5  11   2  318.37   31.00
   6 -11  -2  304.67   22.90
 -11   5  -2  319.07   22.80
  -7  11   2   31.50   17.70
 -11   7  -2   33.90   11.50
   7   4  -2   44.10    8.50
   7   4  -2   55.99    9.80
  -7  11   2   35.70    7.00
  11  -4   2   64.99   18.00
   7   4  -2   46.30    7.20
 -11   7  -2   51.29    8.80
   4 -11  -2   44.70   11.10
   4   7  -2   51.09    8.00
   4   7  -2   47.40    7.40
  11  -7   2   67.69   16.40
  -4  11   2   31.00   20.20
  -4  11   2   33.40    7.60
   7 -11  -2   62.39   13.00
   4   7  -2   45.10    7.50
 -11   4  -2   36.50   10.50
  11  -3   2  558.74   55.39
  -8  11   2  603.64   39.60
  -8  11   2  616.04   31.20
   8   3  -2  576.84   31.20
   8   3  -2  628.64   32.20
   8   3  -2  574.94   31.90
   3 -11  -2  603.74   33.90
 -11   8  -2  658.13   35.20
 -11   8  -2  605.24   31.20
 -11   3  -2  663.93   34.00
   8 -11  -2  566.64   34.60
   3   8  -2  615.54   31.10
 -11   3  -2  611.64   30.70
   3   8  -2  608.34   32.40
  -3  11   2  586.04   41.50
   3   8  -2  593.24   31.50
  -3  11   2  603.94   32.00
  11  -8   2  664.73   37.10
 -11   9  -2   43.40   11.90
   9   2  -2   65.79   11.80
  11  -2   2   78.09   20.20
  -9  11   2   67.59   16.50
  -9  11   2   53.69    9.40
   9   2  -2   94.69   13.40
 -11   9  -2   82.99    9.40
  -2  11   2   72.69   21.20
   2   9  -2   74.29   10.10
   2   9  -2   78.79   12.70
 -11   2  -2   71.49   14.70
   2   9  -2   70.59    9.60
 -11   2  -2   69.59    8.60
   9 -11  -2  108.89   18.40
 -11  10  -2  422.76   26.50
 -10  11   2  391.36   21.20
 -11  10  -2  396.56   21.90
   1 -11  -2  390.26   24.20
  10   1  -2  339.47   22.90
  10   1  -2  400.06   23.50
  11  -1   2  381.66   34.20
 -10  11   2  392.36   28.30
   1  10  -2  343.57   23.30
 -11   1  -2  405.56   24.30
   1  10  -2  399.96   21.50
 -10  -1   2  385.76   21.20
 -11   1  -2  393.06   20.70
  10 -11  -2  347.17   32.70
  11 -10   2  465.25   27.90
 -11  11   2  212.98   14.30
 -11  11  -2  204.38   21.10
  11   0  -2  213.88   17.30
   0 -11  -2  254.27   17.80
 -11  11  -2  208.08   15.30
 -11  11   2  243.78   23.00
  11   0  -2  210.48   15.50
  11   0   2  191.28   28.30
 -11   0   2  199.58   14.00
   0  11  -2  241.78   17.70
 -11   0  -2  249.68   17.80
   0  11   2  213.48   31.60
  11 -11  -2  242.68   23.10
   0  11  -2  232.88   14.70
 -11   0  -2  240.98   13.80
   0  11  -2  239.78   15.10
  12  -1  -2  303.37   19.20
  12  -1  -2  330.87   21.80
  -1 -11  -2  312.07   20.90
  11   1   2  269.37   32.60
 -12  11   2  363.36   26.40
 -11  12  -2  303.87   35.00
 -12  11   2  314.67   18.00
  -1 -11  -2  340.47   20.90
 -11  12  -2  316.27   19.20
  -1  12  -2  327.07   21.70
  12 -11  -2  332.17   25.20
 -11  -1  -2  329.57   17.70
 -12   1   2  298.97   17.80
  -1  12  -2  321.07   18.70
   1  11   2  294.07   35.70
  -1  12  -2  361.56   23.70
  11   2   2   15.70   20.40
  13  -2  -2   26.70    7.60
 -13  11   2   31.90   20.20
 -11  13  -2   14.90   11.30
  -2 -11  -2   37.00    9.10
  13  -2  -2   24.40   12.40
 -11  13  -2   28.90    8.10
 -13  11   2   15.50    5.80
  -2 -11  -2   29.30    8.80
  -2  13  -2   28.80    9.50
  -2  13  -2   23.20    6.60
   2  11   2   23.30   21.80
 -11  -2  -2   32.90    6.00
  -2  13  -2   25.50    7.40
  13 -11  -2   49.00   15.30
 -14  11   2  718.23   36.40
  -3 -11  -2  775.52   38.90
  14  -3  -2  689.33   39.60
  14  -3  -2  666.23   37.30
  11   3   2  717.43   48.80
  -3 -11  -2  732.53   37.30
 -11  14  -2  681.53   37.10
 -14  11   2  718.43   40.30
 -11  14  -2  775.32   41.10
  -3  14  -2  730.03   36.60
  14 -11  -2  651.33   41.70
 -11  -3  -2  737.43   35.80
  -3  14  -2  702.53   36.80
   3  11   2  758.92   49.00
  -3  14  -2  838.02   44.10
 -11  -3  -2  668.83   38.70
  11 -14   2  781.42   39.20
  15  -4  -2  280.07   18.10
 -11  15  -2  269.97   23.20
 -11  15  -2  273.17   17.40
  -4 -11  -2  264.87   21.90
 -15  11   2  256.97   21.50
  15  -4  -2  291.67   23.00
  11   4   2  255.57   35.10
  -4 -11  -2  270.37   17.70
 -15  11   2  262.87   16.50
  15 -11  -2  284.87   25.20
  -4  15  -2  265.07   16.60
 -15   4   2  226.18   16.50
 -11  -4  -2  261.17   15.10
  -4  15  -2  292.97   22.10
   4  11   2  207.68   34.60
  -4  15  -2  273.47   16.90
 -11  -4  -2  267.97   19.80
  11 -15   2  308.47   20.30
 -11  16  -2  398.36   26.90
  16  -5  -2  361.86   22.20
  -5 -11  -2  395.26   21.60
 -16  11   2  380.36   21.20
  -5 -11  -2  373.16   24.40
 -16  11   2  371.26   26.40
  16  -5  -2  379.86   27.30
 -11  16  -2  378.86   21.80
  11   5   2  359.66   36.60
  16 -11  -2  402.56   30.50
 -11  -5  -2  364.46   19.70
  -5  16  -2  373.66   26.70
 -11  -5  -2  373.56   25.00
  -5  16  -2  373.46   21.60
  -5  16  -2  374.56   21.00
   5  11   2  297.77   42.00
 -11  17  -2  363.56   21.90
 -17  11   2  410.06   21.80
  -6 -11  -2  389.86   25.20
  17  -6  -2  380.46   29.30
  -6 -11  -2  381.56   21.20
  11   6   2  339.07   36.90
 -17  11   2  346.87   26.60
  17  -6  -2  353.96   22.30
 -11  17  -2  395.86   28.60
  17 -11  -2  377.06   31.40
   6  11   2  315.97   41.90
  -6  17  -2  370.96   21.80
  -6  17  -2  392.86   27.50
  -6  17  -2  351.96   20.80
 -11  -6  -2  390.06   25.60
 -11  -6  -2  371.56   19.80
  18  -7  -2  325.27   22.30
  18  -7  -2  385.56   30.00
  -7 -11  -2  358.66   25.70
  -7 -11  -2  397.96   20.50
 -11  18  -2  374.66   28.70
 -18  11   2  434.56   22.40
  11   7   2  352.66   39.00
 -11  -7  -2  362.86   19.50
  -7  18  -2  343.37   22.20
 -11  -7  -2  366.36   25.60
  18 -11  -2  399.66   30.80
  -7  18  -2  340.97   27.80
   7  11   2  334.77   41.20
  -8 -11  -2   26.80    6.60
  -8 -11  -2   17.40   11.30
  19  -8  -2   42.60   17.80
  11   8   2  -28.70   24.90
  19  -8  -2   34.30    9.30
 -11  19  -2   15.10   13.50
  -8  19  -2   15.60   13.30
   8  11   2   -2.30   26.70
  19 -11  -2   32.30   18.50
 -11  -8  -2   39.20   11.90
  -8  19  -2   39.80    9.70
  20  -9  -2  370.76   31.20
  -9 -11  -2  330.27   25.00
  11   9   2  235.48   43.00
  20  -9  -2  313.87   20.60
 -11  20  -2  312.97   26.90
 -11  -9  -2  313.37   25.40
   9  11   2  287.27   41.00
  20 -11  -2  289.77   20.10
  -9  20  -2  324.57   27.50
  20 -11  -2  351.06   31.80
 -21  11   2  409.26   30.40
  21 -10  -2  368.66   23.40
 -11  21  -2  395.36   29.60
 -10 -11  -2  373.56   28.20
  21 -10  -2  428.36   33.00
  11  10   2  283.47   45.40
  21 -11  -2  412.76   34.00
 -11 -10  -2  410.06   27.30
  10  11   2  269.37   45.90
  11 -21   2  346.57   36.90
 -10  21  -2  384.76   29.10
  21 -11  -2  374.76   23.60
  22 -11  -2   62.39   21.30
 -11  22  -2   31.00   15.50
  11 -22   2   23.50   23.80
 -11 -11  -2   60.49   14.00
  11  11   2    7.10   28.30
  22 -11  -2   81.99   13.70
   6   6  -2  504.85   26.90
  -6  12   2  505.15   36.30
  12  -6   2  534.15   36.30
   6 -12  -2  489.75   30.30
   6   6  -2  465.95   27.40
 -12   6  -2  544.35   30.30
   6   6  -2  489.75   27.60
  -6  12   2  525.15   27.40
 -12   6  -2  510.05   26.50
   7   5  -2   68.89   10.90
 -12   7  -2   56.19   11.90
   5 -12  -2   84.09   13.40
   7   5  -2   80.19   10.90
   7   5  -2   79.29   10.80
  12  -5   2   78.49   18.30
 -12   7  -2   81.09    9.60
  -7  12   2   67.29   10.70
  -7  12   2   59.99   19.80
   5   7  -2   75.29   11.60
 -12   5  -2   88.49    9.30
  -5  12   2   65.19   11.20
  12  -7   2   93.19   18.10
  -5  12   2   87.49   21.30
   5   7  -2   81.59   11.20
   7 -12  -2   98.09   17.30
   5   7  -2   83.59   10.10
 -12   5  -2   58.39   11.90
   8   4  -2  298.37   18.50
   8   4  -2  318.97   19.00
   4 -12  -2  302.87   22.00
 -12   8  -2  303.47   18.00
   8   4  -2  294.87   20.00
  -8  12   2  268.77   28.80
 -12   8  -2  310.57   22.80
  -8  12   2  307.47   18.40
   8 -12  -2  285.67   24.10
  -4  12   2  308.77   19.40
   4   8  -2  319.37   18.20
  -4  12   2  325.07   33.60
   4   8  -2  299.57   18.80
  12  -8   2  363.86   27.20
   4   8  -2  311.47   19.40
 -12   4  -2  316.47   22.10
  -9  12   2   60.29   10.20
 -12   9  -2   67.39    9.90
  -9  12   2   65.19   18.60
 -12   9  -2   44.70   11.90
  12  -3   2   73.19   19.50
   9   3  -2   76.99   10.20
   9   3  -2   72.19   12.80
   3 -12  -2   77.69   11.90
   3   9  -2   63.89    9.10
  12  -9   2  126.29   21.10
   3   9  -2   65.69   12.10
  -3  12   2   69.39   11.80
 -12   3  -2   69.69    8.90
 -12   3  -2   77.79   15.10
   3   9  -2   79.39   10.70
 -10  12   2   90.29   10.10
   2 -12  -2   93.49   15.30
 -10  12   2   88.79   17.30
  12  -2   2   95.79   20.40
  10   2  -2   80.09   12.30
  10   2  -2   80.09   11.20
 -10  -2   2   88.29   10.30
  -2  12   2   93.09   22.50
 -12   2  -2  111.79   17.40
 -12   2  -2   86.89    9.10
   2  10  -2   92.09   11.60
  10 -12  -2   94.59   15.30
   2  10  -2   89.19    9.70
  -2  12   2   64.89   12.10
   2  10  -2   91.29   13.20
   1 -12  -2   21.80   12.70
  12  -1   2   -0.30   19.30
 -11  12   2   26.30   15.30
 -11  12   2   27.20    6.30
 -12  11  -2   37.30    7.90
  11   1  -2   21.80    7.40
  11   1  -2   21.90    9.40
 -12   1  -2   23.40    6.20
   1  11  -2   17.70    8.60
   1  11  -2   25.90    7.00
  11 -12  -2   26.60   13.90
  -1  12   2    2.90   20.60
 -11  -1   2   14.10    6.10
   1  11  -2   23.40    7.00
  12   0  -2  295.77   20.20
   0 -12  -2  276.17   20.40
 -12  12  -2  296.47   24.00
 -12  12  -2  319.27   18.20
 -12  12   2  323.97   32.30
  12   0   2  300.77   32.60
 -12  12   2  297.77   17.40
  12   0  -2  274.57   19.00
   0  12   2  294.67   36.10
   0  12  -2  299.87   20.80
 -12   0  -2  294.17   16.50
 -12   0  -2  312.87   21.10
 -12   0   2  271.37   17.10
   0  12  -2  315.47   22.90
  12 -12  -2  278.77   25.30
   0  12  -2  247.58   19.90
 -13  12   2   35.50   16.30
  13  -1  -2   49.99   12.50
 -13  12   2   38.20    6.90
  13  -1  -2   53.29    9.00
  -1 -12  -2   49.20   10.80
 -12  13  -2   52.59    8.60
  -1 -12  -2   39.90    9.70
  12   1   2    5.00   21.30
 -12  13  -2   31.20   12.60
   1  12   2   30.20   22.40
 -12  -1  -2   42.30   10.30
  -1  13  -2   55.99    8.10
 -12  -1  -2   45.40    7.80
  -1  13  -2   44.10    7.80
 -13   1   2   39.10    6.20
  -1  13  -2   42.80   10.20
  13 -12  -2   63.49   15.80
 -14  12   2   48.00   13.40
  14  -2  -2   56.49   12.40
  14  -2  -2   48.10    8.70
 -14  12   2   35.50    6.90
  12   2   2   22.70   21.50
 -12  14  -2   20.40   12.10
  -2 -12  -2   44.50    9.90
 -12  14  -2   51.79    8.90
  -2 -12  -2   50.69   10.50
 -12  -2  -2   68.49   13.80
 -12  -2  -2   38.20    6.60
  -2  14  -2   44.00    7.90
  -2  14  -2   48.00    7.60
  14 -12  -2   55.29   16.10
   2  12   2   30.20   23.10
  12   3   2   45.80   22.00
 -15  12   2   48.50   14.00
 -12  15  -2   51.09    9.20
  -3 -12  -2   50.39   10.70
  -3 -12  -2   54.69   10.50
 -12  15  -2   34.10   12.40
  15  -3  -2   58.29   13.30
 -15  12   2   59.69    9.70
  15  -3  -2   44.40    8.70
  -3  15  -2   49.30   11.60
  -3  15  -2   62.09   10.20
  15 -12  -2   61.49   16.80
 -12  -3  -2   46.40    8.00
   3  12   2   45.40   24.00
  -3  15  -2   60.19    9.90
 -12  -3  -2   47.80   10.50
 -16  12   2  265.27   22.30
  -4 -12  -2  290.07   21.10
  -4 -12  -2  284.87   18.10
 -16  12   2  299.17   17.70
  16  -4  -2  294.07   23.80
  12   4   2  237.58   35.40
  16  -4  -2  254.57   18.90
 -12  16  -2  276.47   23.60
  -4  16  -2  276.77   21.80
  16 -12  -2  271.67   27.40
  -4  16  -2  287.77   17.60
   4  12   2  231.28   40.30
 -12  -4  -2  268.47   15.70
  -4  16  -2  269.37   17.00
 -12  -4  -2  285.47   21.50
 -12  17  -2   98.99   19.80
  17  -5  -2  120.69   21.30
  17  -5  -2  102.19   14.20
  -5 -12  -2  120.59   12.40
 -17  12   2  120.29   12.50
 -17  12   2  100.29   15.80
  12   5   2   67.99   25.30
  -5 -12  -2  122.29   16.50
 -12  -5  -2   89.09    9.40
  -5  17  -2  107.39   17.90
 -12  -5  -2  135.79   17.70
   5  12   2   64.59   27.50
  -5  17  -2   97.09   11.40
  -5  17  -2  117.19   12.10
  17 -12  -2  126.19   19.90
  -6 -12  -2  134.19   13.10
  12   6   2   80.89   27.50
 -18  12   2  132.49   20.40
 -12  18  -2  166.38   21.90
  -6 -12  -2  134.79   17.50
  18  -6  -2  212.18   24.30
 -18  12   2  180.28   14.50
  18  -6  -2  173.78   16.00
  -6  18  -2  165.18   20.40
  18 -12  -2  202.58   24.80
 -12  -6  -2  158.98   19.50
  -6  18  -2  149.59   12.90
  -6  18  -2  165.78   14.80
   6  12   2  113.99   29.90
 -19  12   2  330.67   19.70
  19  -7  -2  281.27   28.40
  12   7   2  214.48   40.60
  -7 -12  -2  278.77   23.50
  -7 -12  -2  290.77   17.20
 -12  19  -2  299.27   27.00
  19  -7  -2  290.37   20.30
  -7  19  -2  275.37   19.40
  -7  19  -2  292.77   25.30
 -12  -7  -2  277.97   23.70
   7  12   2  241.88   34.30
  19 -12  -2  337.77   30.50
  -7  19  -2  277.57   17.70
  20  -8  -2   65.99   19.50
  -8 -12  -2   46.30    7.90
  12   8   2    1.20   26.70
 -12  20  -2   35.20   14.90
  -8 -12  -2   42.60   12.60
  20  -8  -2   39.20   10.20
  20 -12  -2   63.59   20.50
   8  12   2   35.10   27.30
 -12  -8  -2   46.10   12.70
  -8  20  -2   39.40   14.40
 -12  21  -2   10.30   15.00
  21  -9  -2   22.00    9.80
  21  -9  -2   34.70   19.30
  12   9   2  -27.70   26.50
  -9 -12  -2   16.50   12.50
   9  12   2  -19.40   26.80
  12 -21   2  -13.60   21.70
  21 -12  -2   30.40   20.50
  -9  21  -2   17.10   14.90
 -12  -9  -2   23.10   12.80
  12  10   2   40.10   28.40
  22 -10  -2   85.99   22.00
 -10 -12  -2   56.89   14.50
 -12  22  -2   66.09   17.00
  10 -22   2   49.20   24.10
  22 -10  -2   85.59   13.70
  10  12   2    6.50   29.70
 -10  22  -2   75.19   17.00
  22 -12  -2  105.89   22.60
 -12 -10  -2   70.19   14.20
  12 -22   2   64.09   24.60
  22 -12  -2   96.39   13.90
 -11 -12  -2  138.29   20.40
 -12  23  -2  116.49   22.80
  23 -11  -2  138.49   15.80
  11 -23   2  103.69   26.00
  12  11   2   58.49   30.30
  23 -11  -2  132.89   23.80
  23 -12  -2  138.99   24.00
  11  12   2   84.39   30.70
  23 -12  -2  144.49   16.20
 -12 -11  -2  160.98   20.80
  12 -23   2  113.69   26.50
 -11  23  -2  115.19   24.40
 -12  24  -2   24.00   16.30
  24 -12  -2   37.00   21.60
  24 -12  -2   40.70   10.70
 -12 -12  -2   38.10   14.30
  12 -24   2   11.20   24.00
  12  12   2   -0.50   27.50
   7   6  -2  305.37   21.20
  -7  13   2  291.07   30.20
   7   6  -2  293.27   19.20
   7   6  -2  317.67   18.40
  13  -6   2  280.57   28.50
   6 -13  -2  303.17   23.40
 -13   7  -2  305.57   18.00
  -7  13   2  297.77   19.20
  -6  13   2  323.97   35.70
   7 -13  -2  301.37   23.70
 -13   6  -2  311.07   17.80
   6   7  -2  298.47   20.00
   6   7  -2  286.37   19.10
   6   7  -2  316.17   18.10
  13  -7   2  330.47   28.60
  -6  13   2  301.27   19.30
  13  -5   2  146.29   26.60
 -13   8  -2  155.38   12.50
   8   5  -2  150.48   13.90
   5 -13  -2  171.68   18.30
  -8  13   2  142.59   13.40
 -13   8  -2  117.09   21.20
   8   5  -2  143.49   13.40
   8   5  -2  155.78   13.00
  -8  13   2  146.79   22.20
   5   8  -2  157.08   14.60
   5   8  -2  169.88   13.80
   8 -13  -2  141.49   22.80
 -13   5  -2  162.18   12.10
  -5  13   2  159.88   14.40
   5   8  -2  168.28   12.40
  13  -8   2  183.68   23.20
   9   4  -2  122.39   12.70
  -9  13   2  121.19   12.30
 -13   9  -2  128.99   11.70
   4 -13  -2  139.19   17.90
 -13   9  -2   97.09   14.50
  -9  13   2  129.79   20.70
   9   4  -2  123.59   13.20
  13  -4   2  138.49   21.40
   4   9  -2  134.19   12.60
  -4  13   2  136.19   13.70
   4   9  -2  135.09   11.00
 -13   4  -2  111.09   17.90
  13  -9   2  157.78   22.20
   9 -13  -2  133.79   20.20
  -4  13   2  104.09   25.00
 -13   4  -2  130.59   10.80
 -13  10  -2   56.89   12.90
  13  -3   2   96.09   20.80
 -10  13   2   77.69   19.70
  10   3  -2   72.09   12.40
 -13  10  -2   85.69   13.60
   3 -13  -2   80.29   13.00
 -10  13   2   79.09   10.90
  10   3  -2   94.79   11.60
   3  10  -2   85.19   11.30
 -13   3  -2   83.99    9.40
   3  10  -2   84.49   13.00
 -10  -3   2  103.29   10.90
 -13   3  -2   96.39   16.00
  -3  13   2   78.39   22.30
  10 -13  -2   92.09   15.60
   3  10  -2   84.59   10.00
 -11  13   2   45.80   21.70
  13  -2   2   36.00   19.60
   2 -13  -2   44.60   11.40
  11   2  -2   30.10    8.30
 -13  11  -2   10.30   11.50
 -13  11  -2   41.30    8.00
 -11  13   2   31.50    6.90
  11   2  -2   33.00    9.10
 -13   2  -2   47.00   10.60
   2  11  -2   35.90    9.20
 -13   2  -2   45.00    7.10
   2  11  -2   31.00    7.20
  -2  13   2   29.70    8.40
   2  11  -2   33.60    7.60
  11 -13  -2   40.60   15.00
 -11  -2   2   24.60    6.70
  -2  13   2   22.90   22.30
  13  -1   2  526.25   39.30
  12   1  -2  503.35   29.10
 -12  13   2  559.14   28.50
 -13  12  -2  525.35   28.50
  12   1  -2  538.25   30.00
 -13  12  -2  555.54   32.70
 -13   1  -2  527.05   30.90
   1  12  -2  534.75   30.50
  -1  13   2  550.24   43.20
  -1  13   2  544.35   29.90
  13 -12   2  602.04   32.60
  12 -13  -2  489.85   33.70
   1  12  -2  531.15   28.80
 -12  -1   2  509.75   28.20
 -13   1  -2  550.04   27.60
   0 -13  -2   85.89   15.00
 -13  13  -2  103.39   11.60
 -13  13  -2   65.39   13.80
  13   0  -2  100.09   12.30
 -13  13   2   83.39   10.90
  13   0  -2  111.59   14.60
 -13  13   2   89.89   17.10
  13   0   2   68.59   21.10
   0  13  -2   93.29   10.70
   0  13   2   53.69   23.90
 -13   0   2   84.49   10.30
   0  13  -2   95.09   15.30
 -13   0  -2  122.99   15.80
   0  13  -2   97.49   11.70
 -13   0  -2   83.19    9.40
  13 -13  -2  108.59   18.10
  14  -1  -2  312.47   24.70
  13   1   2  305.17   33.90
 -13  14  -2  346.57   25.10
  -1 -13  -2  340.57   22.10
 -14  13   2  343.07   19.50
  14  -1  -2  322.47   20.30
 -14  13   2  332.37   26.60
 -13  -1  -2  341.47   23.20
  -1  14  -2  262.07   33.00
   1  13   2  306.27   36.30
 -13  -1  -2  333.37   18.00
  -1  14  -2  310.57   19.80
  14 -13  -2  310.57   27.30
  -1  14  -2  324.97   19.30
 -13  15  -2   76.89   14.60
 -15  13   2   97.79   15.70
  -2 -13  -2   89.69   15.00
  15  -2  -2   94.29   13.70
  -2 -13  -2   93.99   13.90
 -15  13   2   88.59   11.30
  15  -2  -2   94.29   16.00
  13   2   2   63.59   23.90
  15 -13  -2  133.59   22.60
 -13  -2  -2  118.29   14.70
  -2  15  -2   92.49   11.10
  -2  15  -2   81.59   13.00
   2  13   2   88.59   26.00
 -13  -2  -2   96.69    9.40
  -2  15  -2   95.89   17.10
 -16  13   2  183.08   14.10
  16  -3  -2  171.18   15.90
 -16  13   2  171.88   20.90
  -3 -13  -2  172.68   17.80
  -3 -13  -2  178.28   15.40
  13   3   2  171.08   27.60
 -13  16  -2  164.18   21.20
  16  -3  -2  176.28   19.60
  -3  16  -2  165.58   19.70
  -3  16  -2  184.68   13.70
 -13  -3  -2  164.28   12.10
  16 -13  -2  207.98   24.80
   3  13   2  160.38   28.90
 -13  -3  -2  194.48   18.70
  -3  16  -2  164.58   14.10
  -4 -13  -2   27.20   11.00
  -4 -13  -2   34.60   10.30
 -17  13   2   20.80   13.50
 -17  13   2   33.70    7.80
 -13  17  -2    5.90   12.70
  17  -4  -2   38.40    9.30
  13   4   2  -12.40   24.20
  17  -4  -2   38.50   15.10
  17 -13  -2   49.90   18.20
  -4  17  -2   36.30    8.60
  -4  17  -2   30.20    7.90
 -13  -4  -2   35.00   11.00
  -4  17  -2   25.80   12.20
   4  13   2   -7.10   26.80
 -18  13   2  478.35   27.00
  18  -5  -2  457.55   27.60
  -5 -13  -2  487.65   29.90
 -18  13   2  444.86   31.40
  -5 -13  -2  549.74   27.20
  18  -5  -2  521.65   33.40
  13   5   2  382.66   42.30
 -13  18  -2  487.55   32.60
  -5  18  -2  463.95   26.90
 -13  -5  -2  477.35   29.50
  18 -13  -2  467.75   35.90
  -5  18  -2  498.25   31.10
   5  13   2  444.16   44.60
  -5  18  -2  476.25   26.00
  -6 -13  -2  446.36   29.20
 -13  19  -2  461.55   32.30
  19  -6  -2  514.15   34.10
  -6 -13  -2  490.25   25.20
 -19  13   2  479.05   26.40
 -19  13   2  447.56   30.80
  19  -6  -2  434.36   26.80
  13   6   2  374.66   42.50
  -6  19  -2  438.36   26.00
   6  13   2  408.46   47.60
  19 -13  -2  458.85   34.30
  -6  19  -2  444.96   30.40
 -13  -6  -2  449.06   29.10
  13 -19   2  412.76   38.10
  -6  19  -2  448.76   25.00
  20  -7  -2  204.48   27.20
  13   7   2  154.38   30.80
  20  -7  -2  199.38   17.70
  -7 -13  -2  193.48   13.50
 -20  13   2  219.78   17.10
 -20  13   2  165.58   22.30
  -7 -13  -2  174.38   20.80
 -13  20  -2  163.38   24.70
 -13  -7  -2  210.28   22.40
  20 -13  -2  204.98   28.80
   7  13   2  186.28   32.80
  -7  20  -2  181.78   22.20
  13 -20   2  204.78   27.80
  -7  20  -2  172.08   14.30
  -7  20  -2  194.78   15.70
  -8 -13  -2  273.27   23.90
  21  -8  -2  266.17   20.00
  13   8   2  234.88   33.60
 -13  21  -2  273.37   26.20
  -8 -13  -2  281.87   15.30
  21  -8  -2  270.07   29.70
  21 -13  -2  270.17   29.10
  -8  21  -2  228.88   16.80
   8  13   2  190.58   33.00
 -13  -8  -2  293.77   23.20
  -8  21  -2  262.47   26.40
  13 -21   2  234.88   33.90
  22  -9  -2  241.98   29.40
  13   9   2  193.18   33.00
  -9 -13  -2  227.18   22.10
  22  -9  -2  213.58   18.90
 -13  22  -2  203.68   26.50
  -9  22  -2  220.38   26.50
 -13  -9  -2  231.88   23.80
  13 -22   2  222.28   29.40
   9  13   2  142.59   33.80
  22 -13  -2  243.28   30.50
 -13  23  -2    3.30   15.70
 -10 -13  -2    9.30   13.70
  10 -23   2  -17.60   24.10
  23 -10  -2   19.50   20.70
  23 -10  -2   18.50   10.50
 -13 -10  -2   13.60   13.70
  13 -23   2  -11.20   23.40
 -10  23  -2   -4.80   14.90
  23 -13  -2   26.30   21.30
  24 -11  -2  161.98   25.00
  11 -24   2  119.09   26.90
 -13  24  -2  136.19   23.50
 -11 -13  -2  144.59   20.50
  24 -11  -2  118.19   15.40
  13  11   2   86.29   28.60
 -13 -11  -2  124.59   21.00
 -11  24  -2  117.99   23.60
  24 -13  -2  130.29   15.40
  11  13   2   91.99   30.60
  24 -13  -2  117.69   23.90
  13 -24   2  123.89   27.00
  25 -12  -2  188.18   26.00
 -13  25  -2  187.28   24.30
  25 -12  -2  164.68   17.00
 -12 -13  -2  183.28   22.20
  12 -25   2  171.18   27.70
  13  12   2  132.69   30.60
  25 -13  -2  166.98   16.70
  13 -25   2  140.69   27.10
 -13 -12  -2  160.88   23.30
  12  13   2  127.29   30.20
 -12  25  -2  173.88   25.90
  25 -13  -2  173.28   30.20
  13 -26   2    8.00   22.80
  13  13   2   -5.20   26.00
  26 -13  -2    3.00    9.80
 -13 -13  -2   12.70   14.00
 -13  26  -2    3.20   14.90
  26 -13  -2    3.00   19.90
   7   7  -2   32.20    8.30
  -7  14   2   46.00   26.30
   7   7  -2   44.80    8.00
   7   7  -2   35.00    8.50
  14  -7   2   46.60   17.50
   7 -14  -2   49.50   15.00
  -7  14   2   32.70    8.30
 -14   7  -2   27.60   11.50
 -14   7  -2   58.19    9.50
   8   6  -2  204.68   16.20
   6 -14  -2  217.68   20.70
 -14   8  -2  215.08   14.50
 -14   8  -2  214.78   20.70
   8   6  -2  212.88   14.80
  14  -6   2  217.08   27.30
   8   6  -2  208.28   16.50
  -8  14   2  211.28   15.70
   6   8  -2  206.08   18.90
   6   8  -2  220.28   14.50
 -14   6  -2  199.88   21.00
  -6  14   2  212.78   16.20
  -6  14   2  208.58   32.60
   8 -14  -2  213.68   24.60
 -14   6  -2  200.28   14.20
  14  -8   2  243.38   25.30
   9   5  -2  115.39   11.90
 -14   9  -2   95.39   14.20
   9   5  -2  119.79   13.30
 -14   9  -2  118.89   12.90
  14  -5   2  134.29   20.00
  -9  14   2  112.19   13.00
   9   5  -2  102.59   12.40
   5 -14  -2  110.69   17.60
  -5  14   2  125.39   22.90
 -14   5  -2   92.99   17.10
  -5  14   2  111.19   14.20
   5   9  -2  118.79   10.80
  14  -9   2  137.09   22.40
   5   9  -2  121.49   14.40
   5   9  -2  107.39   12.60
 -14   5  -2  114.39   11.00
   9 -14  -2  147.09   19.30
   4 -14  -2   34.80   12.70
 -14  10  -2    6.20   11.50
  10   4  -2   29.30    8.70
  10   4  -2   29.80    8.70
  14  -4   2   18.80   18.30
 -10  14   2   22.80    7.40
 -14  10  -2   35.20    8.00
   4  10  -2   32.00    7.20
  -4  14   2   21.10   21.40
  14 -10   2   49.80   15.70
 -14   4  -2   24.50   11.00
 -14   4  -2   27.50    7.20
   4  10  -2   20.20    7.80
  -4  14   2   28.50    8.80
   4  10  -2   24.70    8.90
  10 -14  -2   47.80   14.80
  11   3  -2   33.10    8.50
 -11  14   2   32.90   30.20
 -11  14   2   28.60    7.60
   3 -14  -2   46.80   12.60
 -14  11  -2   35.90    8.20
 -14  11  -2    9.50   12.20
  11   3  -2   27.20    9.50
  14  -3   2    8.40   19.20
  11 -14  -2   50.49   15.50
  -3  14   2   40.30   22.20
  14 -11   2   45.80   14.40
   3  11  -2   38.30    7.40
 -11  -3   2   44.30    7.70
  -3  14   2   28.00    9.10
 -14   3  -2   36.30    8.60
   3  11  -2   31.20    9.10
   3  11  -2   31.30    7.90
 -14   3  -2   38.20   11.60
  12   2  -2   62.09   10.40
 -12  14   2   50.69   17.90
 -12  14   2   55.79   11.10
   2 -14  -2   71.89   12.90
  12   2  -2   77.09   12.90
  14  -2   2   65.59   21.40
  12 -14  -2   71.59   15.80
 -14   2  -2   55.69   11.30
 -12  -2   2   66.19   10.70
   2  12  -2   68.99   14.20
 -14   2  -2   60.89    8.00
  -2  14   2   68.19   24.00
   2  12  -2   54.59    8.70
  -2  14   2   53.59    9.80
  13   1  -2   37.30    9.30
  14  -1   2   -0.90   20.90
 -13  14   2   21.70   16.60
 -13  14   2   18.40    7.10
 -14  13  -2   -2.70   12.30
   1 -14  -2   35.90   11.60
  13   1  -2   36.60   11.10
 -13  -1   2   25.20    7.10
  -1  14   2   18.50    9.00
  -1  14   2    5.20   22.60
 -14   1  -2   27.00    6.90
   1  13  -2   24.90    9.90
   1  13  -2   24.90    7.80
   1  13  -2   29.80    7.60
 -14   1  -2   32.80   10.10
  13 -14  -2   32.00   15.70
 -14  14   2  252.57   16.40
  14   0  -2  229.08   17.60
  14   0  -2  218.18   23.30
  14   0   2  209.48   33.40
 -14  14   2  240.68   25.60
 -14  14  -2  227.88   23.00
   0  14  -2  238.18   20.30
   0  14   2  200.88   34.90
 -14   0  -2  255.97   20.30
   0  14  -2  237.48   16.70
  14 -14  -2  279.07   26.20
   0  14  -2  240.68   16.00
 -14   0  -2  233.18   14.90
 -14   0   2  241.98   15.80
 -15  14   2   96.79   17.20
  -1 -14  -2  124.49   16.20
  15  -1  -2  115.69   16.60
  15  -1  -2  117.69   14.60
 -14  15  -2   78.29   15.10
 -15  14   2  103.19   12.40
  14   1   2   73.09   25.40
   1  14   2   92.39   26.60
  -1  15  -2  111.89   13.00
 -14  -1  -2  145.59   17.50
  -1  15  -2  105.69   11.50
  -1  15  -2  121.39   17.30
  15 -14  -2  136.29   24.10
  16  -2  -2   85.69   13.90
  14   2   2   29.10   23.80
  -2 -14  -2   77.59   13.10
  -2 -14  -2   73.49   15.30
 -16  14   2   59.89   16.10
  16  -2  -2   97.29   14.30
 -14  16  -2   62.99   14.60
 -16  14   2   73.89   12.20
  -2  16  -2   92.29   18.00
  -2  16  -2   85.89   11.00
   2  14   2   51.39   26.90
  16 -14  -2   91.19   18.30
 -14  -2  -2  100.29   15.20
  -2  16  -2   80.99   12.40
  -3 -14  -2  145.79   17.90
  -3 -14  -2  153.38   15.40
  17  -3  -2  144.99   19.80
  17  -3  -2  144.59   15.90
 -14  17  -2  111.89   22.50
 -17  14   2  129.59   21.00
  14   3   2  134.49   27.70
 -17  14   2  140.89   14.30
  -3  17  -2  144.79   20.20
 -14  -3  -2  173.28   18.00
  -3  17  -2  161.98   13.50
   3  14   2  135.79   30.70
  17 -14  -2  171.78   24.60
  18  -4  -2    7.10   14.90
  18  -4  -2    9.80    9.50
 -18  14   2    3.40   14.30
 -18  14   2    7.00    8.40
 -14  18  -2  -13.20   14.00
  14   4   2  -17.50   23.60
  -4 -14  -2   -4.10   11.40
  -4 -14  -2    5.60   10.70
  -4  18  -2    5.80    8.50
  14 -18   2  -10.90   19.60
  -4  18  -2    1.90    8.50
   4  14   2  -21.70   26.50
  -4  18  -2    1.70   12.80
 -14  -4  -2   14.30   11.00
  18 -14  -2   10.20   18.00
  -5 -14  -2   42.90   10.70
 -14  19  -2   13.40   14.80
  19  -5  -2   44.50   10.20
  19  -5  -2   52.09   17.70
  14   5   2   -5.80   25.30
 -19  14   2   43.70    9.40
 -19  14   2   34.60   15.00
  -5 -14  -2   24.50   12.00
  -5  19  -2   35.10   13.60
  -5  19  -2   43.00    8.40
 -14  -5  -2   42.40   12.30
   5  14   2  -20.40   27.80
  14 -19   2    0.50   20.60
  -5  19  -2   44.00   10.10
  19 -14  -2   66.59   20.10
  -6 -14  -2   81.29   11.40
 -20  14   2   93.29   15.10
  14   6   2   45.60   27.60
  20  -6  -2   79.39   14.70
 -14  20  -2   67.39   16.90
 -20  14   2   84.39   17.00
  20  -6  -2  110.09   19.90
  -6 -14  -2   70.19   13.60
  -6  20  -2   79.19   15.70
  20 -14  -2  111.29   22.20
   6  14   2   38.30   29.50
  -6  20  -2  107.39   12.80
  14 -20   2   64.09   23.30
  -6  20  -2   82.79   12.10
 -14  -6  -2  113.79   18.70
 -21  14   2   91.79   17.00
  14   7   2   41.90   28.00
  21  -7  -2  125.99   21.90
 -14  21  -2   85.39   17.30
  -7 -14  -2   93.79   19.40
 -21  14   2   99.39   18.30
  21  -7  -2  107.19   15.90
  -7 -14  -2  115.59   10.90
  -7  21  -2  123.09   21.10
  -7  21  -2   85.89   12.40
   7  14   2   53.99   29.10
 -14  -7  -2  118.59   21.30
  21 -14  -2  104.69   22.40
  14 -21   2   93.19   24.30
  -8 -14  -2   31.60   13.50
  22  -8  -2   47.60   20.90
 -22  14   2   19.70   15.80
  -8 -14  -2   36.90    6.60
  22  -8  -2   44.10   11.30
 -14  22  -2   40.70   16.20
  14   8   2   -5.60   27.40
  -8  22  -2   35.30   15.30
   8  14   2  -37.80   29.10
  14 -22   2   24.90   23.50
 -14  -8  -2   47.10   14.00
  -8  22  -2   32.50    8.50
  22 -14  -2   40.30   21.00
 -14  23  -2  165.58   26.10
  -9 -14  -2  175.08   22.60
   9 -23   2  155.08   28.60
  23  -9  -2  172.58   17.90
  14   9   2  168.68   31.70
  23  -9  -2  184.18   28.90
   9  14   2  149.49   32.60
  23 -14  -2  188.18   29.80
  -9  23  -2  171.28   23.80
 -14  -9  -2  169.28   22.90
  14 -23   2  188.28   29.00
 -10 -14  -2   38.10   14.10
  24 -10  -2   55.69   11.70
 -14  24  -2   45.80   16.40
  14  10   2    9.70   26.90
  24 -10  -2   42.90   21.50
  10 -24   2   11.60   24.10
  10  14   2   19.90   29.10
  14 -24   2   14.30   23.20
 -14 -10  -2   39.20   14.30
  24 -14  -2   37.60   21.20
 -10  24  -2   43.90   15.70
  14  11   2   -5.90   26.10
 -14  25  -2    2.90   15.60
  11 -25   2  -11.00   22.90
  25 -11  -2    8.90   20.70
 -11 -14  -2    9.20   13.50
  25 -11  -2   11.10   10.20
 -14 -11  -2    8.80   13.90
  14 -25   2  -25.90   21.50
  11  14   2  -18.10   26.50
 -11  25  -2   -2.60   15.00
  25 -14  -2  -12.70   20.80
  26 -12  -2   44.10   11.30
 -14  26  -2   40.00   15.70
  26 -12  -2   51.19   21.20
  12 -26   2   31.40   23.00
 -12 -14  -2   38.10   14.80
  14  12   2   12.70   26.40
 -14 -12  -2   43.40   14.40
  14 -26   2   24.30   22.80
  26 -14  -2   22.40   20.70
  12  14   2   40.70   26.80
 -12  26  -2   34.10   15.80
  26 -14  -2   50.19   10.70
  27 -13  -2   85.49   14.20
  14  13   2   64.99   26.10
  13 -27   2   56.69   24.10
 -14  27  -2  104.89   21.80
  27 -13  -2   92.29   22.00
 -13 -14  -2   73.19   15.50
 -13  27  -2   75.79   16.20
  27 -14  -2   71.69   21.30
 -14 -13  -2   82.39   15.90
  13  14   2   75.19   26.80
  14 -27   2   60.99   24.30
  27 -14  -2   88.59   12.00
  14  14   2   -2.80   24.50
  28 -14  -2   14.80   10.00
 -14 -14  -2   23.30   13.80
  28 -14  -2    5.80   18.60
  14 -28   2   30.10   22.60
 -14  28  -2   26.10   15.00
  -8  15   2   60.99   12.50
  15  -7   2   84.99   20.60
   8   7  -2   59.49   10.70
   8   7  -2   69.09   12.60
 -15   8  -2   39.90   12.40
  -8  15   2   65.99   21.80
   8 -15  -2   71.49   15.20
  -7  15   2   70.99   13.00
   7   8  -2   73.29   12.60
   7   8  -2   62.39   13.10
 -15   7  -2   50.29   12.80
   7   8  -2   72.29   10.00
  -7  15   2   78.39   23.50
  15  -8   2   85.19   19.60
   9   6  -2   69.59   11.10
   9   6  -2   60.99   12.20
   6 -15  -2   89.99   14.90
 -15   9  -2   43.30   13.00
   9   6  -2   78.69   12.20
  15  -6   2   72.59   21.20
  -9  15   2   68.79   21.50
  -9  15   2   65.09   12.80
   6   9  -2   77.69   10.20
  -6  15   2   61.29   12.80
   6   9  -2   66.99   11.60
   6   9  -2   65.69   13.20
   9 -15  -2   70.39   15.50
  -6  15   2   63.29   22.40
  15  -9   2   68.19   17.20
 -15   6  -2   54.19   13.00
 -10  15   2  285.77   32.00
  10   5  -2  256.37   18.80
  15  -5   2  263.67   29.90
  10   5  -2  269.57   17.80
 -15  10  -2  245.18   23.80
 -10  15   2  276.37   18.20
   5 -15  -2  258.97   22.10
  15 -10   2  283.77   26.00
  -5  15   2  222.38   32.40
   5  10  -2  281.37   16.70
 -15   5  -2  283.27   22.10
   5  10  -2  218.68   21.50
   5  10  -2  267.97   19.30
  -5  15   2  288.17   19.50
  10 -15  -2  244.48   24.60
 -15  11  -2  189.68   20.90
  15  -4   2  169.68   28.70
 -11  15   2  232.88   29.30
   4 -15  -2  188.98   19.80
  11   4  -2  206.88   15.70
 -11  15   2  189.78   15.70
  11   4  -2  200.88   16.20
  -4  15   2  199.28   17.70
 -15   4  -2  199.48   19.80
   4  11  -2  198.08   17.70
  11 -15  -2  175.38   22.40
   4  11  -2  204.98   16.20
  15 -11   2  238.68   23.20
  -4  15   2  193.58   34.60
 -11  -4   2  231.18   15.70
   4  11  -2  204.58   14.10
  12   3  -2  171.38   16.20
 -12  15   2  195.88   28.30
   3 -15  -2  182.68   19.30
 -15  12  -2  147.19   21.20
 -12  15   2  176.88   15.10
  15  -3   2  178.98   24.60
  12   3  -2  162.88   15.60
  -3  15   2  169.88   28.20
  12 -15  -2  199.28   24.20
   3  12  -2  174.18   15.50
 -12  -3   2  171.78   14.40
   3  12  -2  182.88   17.20
  15 -12   2  204.18   21.20
 -15   3  -2  182.88   19.40
  -3  15   2  183.38   16.80
  13   2  -2  321.27   21.50
  15  -2   2  335.27   34.70
 -13  15   2  355.36   30.40
 -15  13  -2  316.77   27.00
  13   2  -2  348.97   22.30
 -13  15   2  340.37   20.90
   2 -15  -2  344.07   24.00
  15 -13   2  382.56   25.30
 -15   2  -2  350.06   23.80
  -2  15   2  357.76   23.00
  -2  15   2  296.07   39.40
  13 -15  -2  311.07   29.00
   2  13  -2  334.17   20.90
   2  13  -2  337.67   19.80
 -13  -2   2  339.77   20.50
  15  -1   2  333.87   36.20
  14   1  -2  366.46   22.90
  14   1  -2  378.16   30.30
 -14  15   2  374.26   22.30
   1 -15  -2  337.37   24.00
 -14  15   2  377.26   31.40
 -15  14  -2  385.36   27.90
  15 -14   2  403.56   24.40
  14 -15  -2  365.46   30.60
 -14  -1   2  350.26   21.50
   1  14  -2  364.26   21.90
   1  14  -2  374.66   24.90
  -1  15   2  357.76   30.70
  -1  15   2  350.36   41.50
   1  14  -2  372.56   21.20
 -15   1  -2  367.66   24.70
  15   0   2   61.19   23.70
 -15  15   2   75.89   12.80
 -15  15   2   72.69   18.00
  15   0  -2   85.39   13.60
  15   0  -2   96.19   15.70
   0 -15  -2   81.09   16.60
   0  15  -2   75.39   11.00
   0  15   2   60.89   26.90
   0  15  -2   82.59   17.10
  15 -15  -2  152.58   24.90
 -15   0  -2  124.39   17.60
 -15   0   2   85.39   11.90
   0  15  -2   92.39   12.70
  16  -1  -2  847.92   43.70
 -15  16  -2  844.12   45.90
 -16  15   2  805.42   46.50
  15   1   2  786.42   53.29
  -1 -15  -2  844.92   43.20
 -16  15   2  801.32   41.50
  16  -1  -2  796.62   42.50
  -1  16  -2  822.72   41.00
   1  15   2  775.52   55.29
  16 -15  -2  737.53   47.70
  -1  16  -2  796.62   41.30
  15 -16   2  773.02   50.49
 -15  -1  -2  798.42   43.50
  -1  16  -2  823.32   44.40
 -15  17  -2  540.05   33.90
  -2 -15  -2  490.15   30.10
  15   2   2  437.26   43.70
  17  -2  -2  508.65   29.40
 -17  15   2  485.35   28.20
 -17  15   2  508.25   34.30
  17  -2  -2  540.25   31.40
  -2  17  -2  516.05   31.50
  -2  17  -2  499.65   28.00
 -15  -2  -2  461.05   31.00
  17 -15  -2  522.55   36.90
  15 -17   2  493.55   38.60
  -2  17  -2  509.85   27.60
   2  15   2  476.65   47.30
  -3 -15  -2  282.77   20.30
 -15  18  -2  259.97   25.60
  18  -3  -2  262.37   20.30
  -3 -15  -2  262.47   22.10
  15   3   2  227.88   38.90
 -18  15   2  278.87   26.00
 -18  15   2  277.67   19.10
  18  -3  -2  287.07   24.30
  -3  18  -2  263.67   18.40
 -15  -3  -2  244.38   22.80
  -3  18  -2  262.07   18.00
   3  15   2  264.17   35.10
  -3  18  -2  269.57   25.00
  15 -18   2  239.98   32.00
  18 -15  -2  283.07   28.50
  15   4   2  142.59   29.00
 -19  15   2  159.68   22.90
 -15  19  -2  153.68   24.00
  -4 -15  -2  185.38   17.70
 -19  15   2  187.78   16.90
  19  -4  -2  186.08   17.80
  -4 -15  -2  176.88   20.40
  19  -4  -2  187.78   23.40
   4  15   2  167.68   32.80
 -15  -4  -2  204.98   21.40
  19 -15  -2  196.98   28.50
  -4  19  -2  173.28   15.70
  15 -19   2  155.18   25.70
  -4  19  -2  190.88   21.60
  -5 -15  -2  278.67   18.60
  15   5   2  208.78   37.20
  -5 -15  -2  240.78   23.50
  20  -5  -2  268.77   28.00
 -15  20  -2  236.08   26.00
 -20  15   2  233.28   24.60
  20  -5  -2  248.48   20.00
  20 -15  -2  280.87   30.50
  15 -20   2  240.48   35.40
  -5  20  -2  262.97   24.50
   5  15   2  226.38   34.40
 -15  -5  -2  258.37   23.80
  -5  20  -2  237.18   18.20
  -5  20  -2  244.98   17.90
 -21  15   2   43.30   10.30
 -21  15   2   34.00   16.20
  -6 -15  -2   58.49   10.60
  15   6   2    0.20   26.40
 -15  21  -2   15.60   16.20
  -6 -15  -2   34.50   13.40
  21  -6  -2   42.60   10.90
  21  -6  -2   50.09   19.70
  -6  21  -2   31.30   14.80
  -6  21  -2   36.50    9.10
   6  15   2   -3.60   28.70
  15 -21   2   16.40   23.10
 -15  -6  -2   44.90   13.40
  21 -15  -2   68.79   21.10
 -22  15   2  225.38   26.30
  22  -7  -2  251.37   20.40
  -7 -15  -2  238.38   24.00
  -7 -15  -2  275.27   16.10
  15   7   2  193.68   32.80
 -22  15   2  287.27   20.70
 -15  22  -2  266.17   27.30
  22  -7  -2  295.97   30.40
  15 -22   2  186.98   34.30
   7  15   2  224.68   35.30
  -7  22  -2  264.67   25.90
  -7  22  -2  268.27   17.80
  22 -15  -2  264.27   32.10
 -15  -7  -2  267.07   26.10
 -23  15   2  447.16   26.40
  23  -8  -2  373.56   34.50
  23  -8  -2  365.76   25.00
 -23  15   2  379.06   29.20
  -8 -15  -2  379.36   27.90
 -15  23  -2  384.16   30.70
  15   8   2  309.07   42.20
  -8  23  -2  362.16   31.70
   8  15   2  276.87   45.90
  23 -15  -2  319.87   33.80
 -15  -8  -2  392.96   29.00
  15 -23   2  352.16   38.40
  -8  23  -2  363.26   22.30
 -15  24  -2   48.40   17.10
  -9 -15  -2   47.10   15.10
  24  -9  -2   56.09   11.80
   9 -24   2   33.30   24.50
  24  -9  -2   63.79   22.30
  15   9   2   -2.60   27.40
  -9  24  -2   41.60    9.00
  24 -15  -2   40.40   21.80
 -15  -9  -2   50.99   15.00
  15 -24   2   37.70   24.20
  -9  24  -2   38.70   16.30
   9  15   2    7.50   29.80
  10 -25   2   67.29   25.30
  15  10   2   82.69   26.90
 -10 -15  -2  107.69   20.10
  25 -10  -2   71.09   21.90
 -15  25  -2   79.69   17.60
  25 -10  -2  103.59   15.60
 -10  25  -2  108.59   22.60
  15 -25   2   83.59   25.30
  10  15   2   69.39   30.20
 -15 -10  -2  113.49   22.80
  25 -15  -2   62.69   21.90
  11 -26   2   42.60   23.40
  15  11   2   25.10   25.40
  26 -11  -2   45.30   21.10
  26 -11  -2   53.49   11.60
 -11 -15  -2   39.30   14.30
 -15  26  -2   61.89   16.40
 -15 -11  -2   47.70   15.10
  11  15   2   24.70   28.10
  26 -15  -2   49.90   20.80
 -11  26  -2   58.99   15.90
  15 -26   2   43.10   23.60
  12 -27   2   46.50   23.70
 -15  27  -2   61.99   15.90
  27 -12  -2   45.90   20.90
  27 -12  -2   45.80   11.30
  15  12   2   41.20   25.30
 -12 -15  -2   55.09   14.60
  15 -27   2   60.89   24.00
  27 -15  -2   51.79   20.70
 -15 -12  -2   59.19   14.90
  12  15   2   25.50   25.40
 -12  27  -2   48.20   15.50
 -15  28  -2   15.40   15.00
  28 -13  -2   16.30   10.00
  28 -13  -2   -2.60   19.10
  15  13   2   21.90   24.50
  13 -28   2    3.80   22.50
 -13 -15  -2   22.30   14.00
 -15 -13  -2   16.30   13.80
  13  15   2   21.10   25.00
  15 -28   2    5.50   22.30
 -13  28  -2   20.30   14.00
  28 -15  -2  -19.90   18.80
 -14 -15  -2   67.59   15.50
  29 -14  -2   61.39   11.90
  14 -29   2   96.99   25.20
  29 -14  -2   67.59   20.90
  15  14   2   76.09   25.80
 -15  29  -2   99.89   17.60
  29 -15  -2   69.99   12.30
 -14  29  -2   80.59   16.70
 -15 -14  -2   66.19   15.10
  15 -29   2  103.39   25.70
  29 -15  -2   27.60   20.20
  14  15   2   66.09   26.00
 -15  30  -2   32.10   16.90
  15 -30   2   34.60   24.90
  15  15   2   32.10   25.00
  30 -15  -2   17.40   10.40
   8   8  -2   24.50    9.20
 -16   8  -2   -0.90   12.30
   8 -16  -2   36.50   14.90
  -8  16   2   20.60    8.90
  16  -8   2   35.00   18.70
  -8  16   2   21.30   22.70
   8   8  -2   26.90    9.10
   8   8  -2   24.20    7.50
  16  -7   2   97.49   20.80
  -9  16   2   96.09   18.50
 -16   9  -2   80.49   14.40
   9   7  -2   94.89   14.30
   7 -16  -2   92.19   16.00
   9   7  -2   93.69   11.40
   9   7  -2   84.69   13.80
  -9  16   2  105.49   23.20
  16  -9   2  136.19   19.80
   7   9  -2   95.69   11.00
 -16   7  -2   74.79   14.10
  -7  16   2   93.39   24.40
   7   9  -2  105.19   14.20
   9 -16  -2  133.09   21.50
  -7  16   2  102.69   14.50
   7   9  -2  101.39   14.20
 -16  10  -2   42.50   13.60
  16  -6   2   78.89   21.00
  10   6  -2   73.29   13.00
  10   6  -2   74.49   11.00
 -10  16   2   91.99   13.50
 -10  16   2   73.69   22.20
   6  10  -2   63.79   10.00
   6  10  -2   67.19   10.50
 -16   6  -2   58.89   13.40
  -6  16   2   68.09   23.30
   6  10  -2   69.19   10.90
  -6  16   2   77.39   14.00
  10 -16  -2   86.19   16.90
  16 -10   2   92.59   18.20
 -11  16   2   63.69   12.70
  11   5  -2   57.19    9.80
  11   5  -2   52.99   10.10
  16  -5   2   49.99   21.10
 -11  16   2   68.69   22.30
 -16  11  -2   45.20   14.00
   5 -16  -2   73.19   14.80
  -5  16   2   75.39   24.70
  16 -11   2   85.19   16.70
   5  11  -2   65.39   11.30
  11 -16  -2   89.39   17.10
   5  11  -2   56.49   10.20
  -5  16   2   73.29   14.50
   5  11  -2   60.79   10.80
 -16   5  -2   61.99   13.20
 -12  16   2   67.69   12.80
 -16  12  -2   36.70   13.80
 -12  16   2   82.89   21.90
   4 -16  -2   79.99   14.60
  12   4  -2   68.79   11.00
  16  -4   2   57.39   22.20
  12   4  -2   70.49   10.70
 -16   4  -2   63.39   12.90
  -4  16   2   64.39   26.00
   4  12  -2   60.89   10.40
  16 -12   2   73.49   20.40
   4  12  -2   65.69   11.80
  12 -16  -2   91.89   17.50
  -4  16   2   73.89   14.50
  16 -12   2   93.59   15.70
  16  -3   2   17.80   22.10
  13   3  -2   43.00   12.40
  13   3  -2   40.50   10.00
   3 -16  -2   49.20   14.00
 -13  16   2   31.80    9.10
 -13  16   2   36.20   20.50
  -3  16   2   38.40   25.60
  16 -13   2   76.89   13.80
  -3  16   2   39.40   11.10
   3  13  -2   45.60   11.30
  16 -13   2   20.50   19.00
 -16   3  -2   48.60   12.80
  13 -16  -2   65.79   16.80
   3  13  -2   39.40    8.20
   2 -16  -2   91.59   15.10
  14   2  -2   96.09   18.20
  14   2  -2   71.99   11.50
 -14  16   2   99.19   20.20
 -14  16   2   86.99   13.20
  16  -2   2   57.89   23.90
 -16  14  -2   57.99   15.40
  16  -2   2  153.68   23.90
  -2  16   2   88.29   15.70
  14 -16  -2   98.49   18.00
  16 -14   2   90.69   21.00
   2  14  -2   81.29   11.20
   2  14  -2  106.39   16.30
 -16   2  -2   97.19   18.40
   2  14  -2   93.59   14.20
  16 -14   2  119.09   16.20
  -2  16   2   81.59   27.30
  16  -1   2   19.30   23.40
  15   1  -2   29.40   11.90
 -16  15  -2   -5.20   14.30
 -15  16   2   22.00    8.40
 -15  16   2   11.10   18.60
   1 -16  -2   37.70   13.20
  16  -1   2   48.10   17.20
  15   1  -2   28.30   10.40
  -1  16   2  -20.90   25.60
  -1  16   2   29.20   10.70
   1  15  -2   26.20   11.80
   1  15  -2   42.20    9.80
  16 -15   2   30.40   19.90
   1  15  -2   34.80    8.30
 -16   1  -2   40.30   12.10
  15 -16  -2   55.69   17.30
  16   0   2  101.89   19.10
  16   0   2   28.10   24.50
 -16  16   2   76.19   19.30
   0 -16  -2   73.19   13.70
 -16  16  -2   38.70   15.50
  16   0  -2   64.99   13.80
  16   0  -2   78.79   14.40
 -16  16   2   59.59   10.20
  16 -16  -2   93.29   19.10
   0  16   2   48.80   28.50
   0  16   2   83.59   16.40
 -16   0  -2   90.99   18.50
  16 -16   2   65.99   21.80
   0  16  -2   88.49   13.50
   0  16  -2   63.49   13.10
   0  16  -2   66.79   11.20
  16   1   2  -27.10   23.80
  17  -1  -2   25.20    9.90
  17  -1  -2   35.00   13.60
 -16  17  -2   -6.90   14.50
 -17  16   2   14.00   16.90
  16   1   2   70.09   17.20
 -17  16   2   23.30    9.10
  17 -16  -2   57.89   19.30
   1  16   2   -4.00   28.30
 -16  -1  -2   46.30   12.30
  16 -17   2   -7.90   20.30
  -1  17  -2   23.30    8.90
  -1  17  -2   30.20    8.80
  -1  17  -2   29.40   13.00
 -18  16   2  172.48   16.80
  -2 -16  -2  179.28   19.60
 -16  18  -2  149.79   23.60
 -18  16   2  178.68   25.10
  18  -2  -2  175.98   18.30
  16   2   2  131.29   28.60
  18  -2  -2  200.58   20.80
   2  16   2  177.38   33.70
  16 -18   2  154.98   25.40
  -2  18  -2  178.38   16.10
 -16  -2  -2  203.58   19.80
  -2  18  -2  184.68   22.20
  -2  18  -2  179.78   14.90
  18 -16  -2  208.78   26.30
  -3 -16  -2   83.49   14.00
 -19  16   2   73.59   17.70
  19  -3  -2   64.19   11.70
 -16  19  -2   46.80   15.50
  16   3   2   19.20   25.60
  -3 -16  -2   44.10   14.00
  19  -3  -2   77.39   16.20
  16 -19   2   56.39   23.30
   3  16   2   52.59   29.30
  -3  19  -2   58.89    9.90
  -3  19  -2   86.19   12.90
  19 -16  -2  100.89   21.60
  -3  19  -2   58.19   14.40
  20  -4  -2  217.48   25.50
 -16  20  -2  185.58   26.50
  -4 -16  -2  192.98   18.50
  16   4   2  134.99   29.50
 -20  16   2  179.78   18.30
  -4 -16  -2  165.38   20.40
 -20  16   2  174.98   23.60
  20  -4  -2  197.58   18.60
 -16  -4  -2  197.38   21.00
  -4  20  -2  188.18   16.10
 -20   4   2  206.58   18.70
   4  16   2  138.79   34.00
  20 -16  -2  230.28   30.30
  -4  20  -2  187.48   22.60
  -4  20  -2  186.08   16.60
  16 -20   2  191.38   27.70
 -21  16   2  135.39   23.50
  -5 -16  -2  141.69   21.20
 -16  21  -2  118.39   24.50
  -5 -16  -2  177.08   16.70
  21  -5  -2  188.98   26.30
  21  -5  -2  159.88   18.00
 -21  16   2  170.38   17.30
  16   5   2  134.09   30.30
  -5  21  -2  157.38   14.70
  16 -21   2  129.09   26.50
  21 -16  -2  185.38   28.10
   5  16   2  147.79   32.90
  -5  21  -2  137.39   22.10
 -16  -5  -2  167.68   20.80
  22  -6  -2   45.00   11.70
 -22  16   2   78.69   17.40
 -22  16   2   77.49   15.80
 -16  22  -2   34.90   17.30
  -6 -16  -2   58.49   10.50
  -6 -16  -2   38.80   14.30
  16   6   2   24.90   27.10
  22  -6  -2   50.19   20.40
  -6  22  -2   50.89   15.70
  -6  22  -2   55.29   10.20
  22 -16  -2   79.39   22.00
   6  16   2   -1.40   31.10
  16 -22   2   28.90   23.30
 -16  -6  -2   57.79   14.70
 -23  16   2   41.80   17.20
  23  -7  -2   35.40   20.80
  -7 -16  -2   38.50    9.70
  -7 -16  -2   37.60   13.90
 -16  23  -2   20.80   16.80
  16   7   2    1.40   27.20
  23  -7  -2   41.90   11.30
 -23  16   2   54.39   12.40
  23 -16  -2   34.80   21.40
  -7  23  -2   36.10    9.80
 -16  -7  -2   30.20   14.10
  16 -23   2   22.20   23.70
   7  16   2   -0.40   30.40
  -7  23  -2   47.00   16.50
  16   8   2   35.30   26.50
   8 -24   2   57.49   25.10
  -8 -16  -2   54.29   15.20
  24  -8  -2   81.09   23.00
 -16  24  -2   53.69   17.10
  24  -8  -2   68.39   12.30
 -24  16   2   76.59   17.30
  -8  24  -2   60.59   16.20
 -16  -8  -2   74.09   15.90
  24 -16  -2   47.50   21.60
  16 -24   2   50.29   24.20
   8  16   2   37.80   30.00
  -8  24  -2   67.59    9.60
  25  -9  -2  112.59   16.50
  -9 -16  -2  117.99   21.00
  16   9   2   73.69   27.50
   9 -25   2   71.29   25.70
  25  -9  -2   99.09   22.80
 -25  16   2  115.39   17.70
 -16  25  -2   93.39   18.10
  16 -25   2   92.69   25.30
 -16  -9  -2  126.29   20.90
   9  16   2   80.39   30.30
  25 -16  -2   95.59   23.00
  -9  25  -2   74.19   13.00
  -9  25  -2   88.19   17.70
  16  10   2   -9.70   24.00
 -10 -16  -2   13.60   13.60
  26 -10  -2    3.60   20.20
  26 -10  -2   28.70   11.10
  10 -26   2    2.20   23.20
 -16  26  -2   18.40   15.50
  16 -26   2   -2.50   23.50
 -16 -10  -2   23.80   14.30
 -10  26  -2   22.30   14.70
  10  16   2   -8.90   25.80
  26 -16  -2    9.20   19.90
 -16  27  -2  109.09   21.90
 -11 -16  -2  105.59   20.90
  27 -11  -2   99.89   21.80
  11 -27   2   85.79   25.10
  27 -11  -2  124.89   16.00
  16  11   2   77.89   26.50
  27 -16  -2   59.99   20.80
 -16 -11  -2  122.99   21.00
  11  16   2  117.49   28.80
  16 -27   2  121.69   25.90
 -11  27  -2   91.19   17.60
  16  12   2   88.79   26.60
  12 -28   2  100.69   24.60
  28 -12  -2   75.79   20.90
  28 -12  -2   96.69   14.70
 -12 -16  -2  113.29   20.40
 -16  28  -2  106.29   21.40
 -16 -12  -2  127.39   20.30
  28 -16  -2   92.29   21.20
 -12  28  -2   84.39   16.90
  16 -28   2  114.99   25.80
  12  16   2   86.49   26.10
 -13 -16  -2   38.10   14.00
  29 -13  -2   17.60   19.70
  13 -29   2   81.39   24.80
  29 -13  -2   51.09   11.80
  16  13   2   49.60   25.70
 -16  29  -2   53.29   16.40
 -16 -13  -2   58.49   15.30
  13  16   2   41.70   24.40
 -13  29  -2   54.79   16.00
  29 -16  -2   12.40   19.20
  16 -29   2   53.29   24.70
  30 -14  -2  -10.50   19.70
  16  14   2   17.70   23.90
 -16  30  -2   30.60   16.20
  30 -14  -2   19.10   10.70
  14 -30   2   35.70   25.50
  30 -16  -2  -36.10   18.90
 -14  30  -2   13.80   16.90
  14  16   2    7.10   24.70
  16 -30   2   24.60   34.00
  16  15   2   90.49   26.30
  31 -15  -2   85.09   13.10
 -16  31  -2  110.59   22.00
  15 -31   2  103.59   27.40
 -15 -16  -2   89.79   16.80
  16 -31   2  110.89   27.90
  15  16   2   99.09   27.20
 -16 -15  -2   80.59   16.10
 -15  31  -2   82.99   17.00
  32 -16  -2   31.50   11.70
  16 -32   2   64.39   27.30
  16  16   2   41.80   25.20
 -16  32  -2   42.00   16.20
 -16 -16  -2   41.20   15.90
   9   8  -2    9.60    7.70
   9   8  -2   14.50    9.10
  -9  17   2   14.20   23.70
  17  -8   2    9.50   18.40
 -17   9  -2  -17.40   12.80
   9   8  -2   18.00    9.80
  -9  17   2    9.20    9.10
  17  -8   2    5.60   18.90
   8 -17  -2   26.80   15.70
  17  -9   2   11.00   17.60
 -17   8  -2  -12.00   12.30
   9 -17  -2   28.00   15.60
   8   9  -2   10.50    9.60
  -8  17   2   14.40    9.30
   8   9  -2   11.30    9.50
   8   9  -2   13.90    7.90
  -8  17   2   -1.00   23.20
  17  -9   2   15.20   18.30
 -10  17   2   45.20   22.90
   7 -17  -2   41.60   15.40
  17  -7   2    4.80   19.50
 -10  17   2   14.30    9.40
  10   7  -2   21.50    8.20
  10   7  -2   19.60    9.90
  10   7  -2   23.50    8.90
  17  -7   2   20.40   18.00
  17 -10   2   15.20   18.40
 -17   7  -2   -2.20   12.50
  17 -10   2   23.60   17.70
   7  10  -2   28.60    9.90
   7  10  -2   21.10    9.90
   7  10  -2   28.50    7.80
  -7  17   2   23.50    9.80
  10 -17  -2   40.20   15.90
  -7  17   2   18.90   23.60
 -17  11  -2  231.08   25.40
  11   6  -2  277.37   18.10
  17  -6   2  338.97   30.00
  11   6  -2  273.17   19.80
 -11  17   2  264.77   34.40
  17  -6   2  269.07   31.30
   6 -17  -2  258.17   23.60
 -11  17   2  250.77   20.30
  -6  17   2  270.47   37.80
  11 -17  -2  255.87   26.00
  17 -11   2  278.97   26.40
  17 -11   2  253.67   30.10
  -6  17   2  280.97   20.60
 -17   6  -2  263.17   24.00
   6  11  -2  273.77   20.00
   6  11  -2  274.47   20.80
  12   5  -2  443.16   27.20
  17  -5   2  491.65   34.60
 -12  17   2  450.15   39.00
  17  -5   2  400.56   37.50
  12   5  -2  449.16   25.50
 -17  12  -2  438.56   31.50
 -17   5  -2  426.36   29.10
  -5  17   2  439.36   44.10
  12 -17  -2  437.86   32.00
  -5  17   2  431.06   27.30
   5  12  -2  435.76   26.00
  17 -12   2  446.16   30.10
   5  12  -2  394.76   30.60
  17 -12   2  446.16   36.00
   5  12  -2  419.76   26.50
 -12  -5   2  506.75   26.30
 -13  17   2  143.29   25.00
 -13  17   2  123.49   21.60
  17  -4   2  206.98   27.70
  13   4  -2  162.78   16.60
 -17  13  -2  131.19   22.70
   4 -17  -2  194.98   21.00
  17  -4   2  165.68   26.20
  -4  17   2  137.59   29.50
   4  13  -2  150.98   13.50
   4  13  -2  163.58   18.30
  -4  17   2  178.58   19.90
   4  13  -2  153.58   16.40
 -17   4  -2  169.18   20.10
  13 -17  -2  203.98   25.00
 -13  -4   2  181.78   15.60
  17 -13   2  189.38   20.70
  17 -13   2  159.28   23.60
  17  -3   2  754.02   50.29
 -14  17   2  754.12   48.70
  14   3  -2  766.72   41.80
   3 -17  -2  717.73   42.30
 -17  14  -2  775.12   43.80
 -14  17   2  681.03   41.30
  14   3  -2  715.83   39.80
  -3  17   2  797.62   41.30
  -3  17   2  763.82   54.99
   3  14  -2  772.72   41.50
 -14  -3   2  760.72   39.40
  17 -14   2  733.63   40.50
  17 -14   2  757.32   48.60
   3  14  -2  739.63   39.70
 -17   3  -2  764.42   42.00
  14 -17  -2  675.03   43.60
   3  14  -2  803.32   38.60
 -15  17   2  208.28   21.40
 -15  17   2  245.08   30.10
  15   2  -2  221.68   19.40
   2 -17  -2  204.98   21.30
  15   2  -2  232.98   18.50
  17  -2   2  193.18   33.40
 -17  15  -2  172.28   24.10
  -2  17   2  223.58   20.50
 -17   2  -2  234.08   22.40
  17 -15   2  203.08   31.50
   2  15  -2  204.08   20.80
   2  15  -2  206.28   18.30
  15 -17  -2  261.57   25.70
   2  15  -2  217.78   15.80
 -15  -2   2  255.97   17.30
  -2  17   2  178.18   31.50
  16   1  -2   90.09   16.20
  17  -1   2   69.49   25.40
   1 -17  -2  104.39   15.70
 -16  17   2  116.29   21.50
  16   1  -2   87.99   13.90
 -17  16  -2   57.09   16.80
  -1  17   2  109.09   16.40
  17 -16   2   94.59   22.90
 -17   1  -2  119.19   18.00
  16 -17  -2  100.49   19.80
   1  16  -2   75.69   11.80
   1  16  -2  103.39   19.00
   1  16  -2   86.39   14.10
  -1  17   2   89.09   29.50
 -16  -1   2   69.39   12.50
  17   0  -2  155.38   16.60
  17   0   2  112.99   26.70
   0 -17  -2  168.28   18.80
  17   0  -2  144.79   18.70
 -17  17  -2  119.89   18.90
 -17  17   2  156.98   26.60
   0  17  -2  132.99   16.00
   0  17  -2  122.79   20.20
   0  17  -2  139.29   13.60
   0  17   2  156.58   18.50
 -17   0  -2  155.28   20.30
  17 -17  -2  170.58   27.20
  17 -17   2  124.89   24.20
   0  17   2  122.19   32.20
 -18  17   2   79.49   15.90
 -17  18  -2   66.29   16.80
  18  -1  -2   96.09   15.70
  -1 -17  -2   96.69   19.20
  17   1   2   62.09   26.60
  18  -1  -2  122.39   20.10
 -18  17   2  114.09   20.10
  -1  18  -2   95.29   19.20
  17 -18   2   90.49   23.80
 -17  -1  -2  121.89   20.50
  -1  18  -2   81.09   14.90
  -1  18  -2   92.79   12.90
  18 -17  -2  118.69   20.90
   1  17   2   53.19   31.10
  19  -2  -2   57.99   15.70
 -19  17   2   63.79   11.10
 -19  17   2   48.80   18.20
 -17  19  -2   34.60   16.00
  19  -2  -2   66.79   12.20
  17   2   2   22.50   26.10
  -2 -17  -2   90.59   15.90
  -2  19  -2   56.49   10.50
  -2  19  -2   35.70   14.30
   2  17   2   26.80   30.30
  -2  19  -2   59.29   10.50
 -17  -2  -2  103.69   20.00
  17 -19   2   48.60   23.60
  19 -17  -2   87.09   21.10
  20  -3  -2  537.65   32.30
  20  -3  -2  466.45   28.30
 -20  17   2  454.95   34.70
 -17  20  -2  451.05   34.50
  17   3   2  388.56   42.40
  -3 -17  -2  520.55   29.50
 -20  17   2  467.45   27.70
  -3  20  -2  469.05   27.00
  -3  20  -2  463.95   26.50
 -17  -3  -2  411.36   31.30
  -3  20  -2  466.85   31.60
   3  17   2  414.66   48.10
  17 -20   2  413.96   40.00
  20 -17  -2  449.06   36.80
  17   4   2  319.57   42.40
  21  -4  -2  441.96   31.30
 -21  17   2  400.96   31.40
  -4 -17  -2  424.86   25.70
 -21  17   2  420.56   26.10
  21  -4  -2  387.26   25.50
  -4 -17  -2  379.46   30.30
 -17  21  -2  413.36   32.40
 -17  -4  -2  394.26   29.70
  -4  21  -2  380.36   31.30
   4  17   2  291.07   46.30
 -21   4   2  472.75   27.10
  17 -21   2  347.17   37.90
  -4  21  -2  390.76   24.30
  21 -17  -2  393.76   35.70
  -4  21  -2  385.06   24.00
  22  -5  -2   72.79   12.80
 -22  17   2   60.49   17.80
  17   5   2   23.10   27.50
 -17  22  -2   46.60   17.70
 -22  17   2   89.49   16.30
  -5 -17  -2   74.59   12.90
  -5 -17  -2   56.99   14.90
  22  -5  -2   76.29   19.80
  17 -22   2   48.00   25.20
 -17  -5  -2  107.89   19.70
  22 -17  -2   94.69   22.30
  -5  22  -2   52.09   16.50
  -5  22  -2   68.79   11.10
   5  17   2   16.50   30.40
  -6 -17  -2  174.48   21.70
  -6 -17  -2  180.08   16.30
  23  -6  -2  182.08   18.30
  23  -6  -2  176.78   28.80
  17   6   2  152.98   29.90
 -23  17   2  163.38   23.80
 -23  17   2  212.08   19.30
 -17  23  -2  159.78   26.00
   6  17   2  133.69   34.00
  23 -17  -2  159.68   25.00
  17 -23   2  121.29   26.40
  -6  23  -2  173.78   26.20
 -17  -6  -2  177.58   24.30
   7 -24   2  107.09   26.20
  17   7   2  104.39   28.00
  -7 -17  -2   84.89   16.40
 -17  24  -2   84.19   18.50
  24  -7  -2  112.39   22.70
  24  -7  -2  103.29   16.80
 -24  17   2  133.99   24.20
 -24  17   2  170.08   28.80
  17 -24   2   79.59   24.60
   7  17   2   79.59   31.90
  -7  24  -2  105.49   18.10
 -17  -7  -2  126.49   21.00
  -7  24  -2  128.89   14.70
  24 -17  -2  103.79   23.10
  25  -8  -2   35.70   11.40
 -25  17   2   44.30   17.10
  25  -8  -2   23.30   21.20
  17   8   2    4.80   24.50
 -17  25  -2   26.70   15.90
   8 -25   2    3.70   22.80
  -8 -17  -2   30.60   14.00
 -25  17   2   55.19   12.90
  17 -25   2   21.70   24.20
  -8  25  -2   34.30   15.70
  -8  25  -2   27.60    9.40
   8  17   2   -9.20   28.50
 -17  -8  -2   56.69   15.40
  25 -17  -2    7.70   20.50
 -26  17   2  127.49   22.90
 -17  26  -2  111.99   18.50
  26  -9  -2  114.89   16.50
   9 -26   2  116.09   25.40
  17   9   2  105.39   26.80
  -9 -17  -2   86.99   16.20
  26  -9  -2  104.79   22.70
   9  17   2  107.19   29.10
  -9  26  -2  105.69   13.50
  26 -17  -2   77.89   21.70
  -9  26  -2  116.19   23.80
  17 -26   2  110.89   26.10
 -17  -9  -2  131.39   20.70
 -10 -17  -2  197.58   22.10
  27 -10  -2  155.98   28.10
 -17  27  -2  219.98   24.80
  10 -27   2  180.88   32.60
  17  10   2  176.88   28.70
  27 -10  -2  190.68   18.60
 -27  17   2  223.18   23.10
  27 -17  -2  178.98   24.60
  17 -27   2  202.58   34.30
 -17 -10  -2  225.48   23.50
 -10  27  -2  214.88   24.40
  10  17   2  152.68   30.30
  17  11   2   35.80   24.90
 -17  28  -2   58.89   15.70
  28 -11  -2   54.19   11.60
 -11 -17  -2   38.50   14.10
  28 -11  -2   29.60   20.00
  11 -28   2   25.40   23.00
 -28  17   2   80.39   16.40
 -17 -11  -2   59.29   15.00
  28 -17  -2   32.50   19.50
  11  17   2   37.60   26.10
  17 -28   2   55.89   25.00
 -11  28  -2   55.49   15.90
 -12 -17  -2   13.10   13.70
  29 -12  -2   10.70   10.70
  17  12   2   -1.30   24.60
  12 -29   2  -15.20   21.70
 -17  29  -2   11.50   14.60
  29 -12  -2  -10.00   19.30
  12  17   2   19.20   24.80
 -17 -12  -2   22.00   14.40
  17 -29   2    3.50   25.00
 -12  29  -2   18.00   14.60
  17  13   2   34.00   24.60
  30 -13  -2  -12.80   18.80
  13 -30   2   16.20   24.00
 -17  30  -2   33.80   15.90
  30 -13  -2   27.20   11.30
  13  17   2    7.20   24.50
 -13  30  -2   28.30   16.90
 -17 -13  -2   25.70   15.30
  17  14   2   14.80   24.40
  31 -14  -2   21.70   11.20
  31 -14  -2  -29.90   18.70
 -17  31  -2   21.60   15.90
 -14 -17  -2   19.80   15.30
  17 -31   2   21.60   24.70
 -14  31  -2   17.50   15.60
 -17 -14  -2   13.20   15.20
  14  17   2   21.50   25.80
  32 -15  -2   19.30   11.60
 -15 -17  -2   23.30   15.50
  17  15   2   20.00   24.20
 -17  32  -2   37.40   15.50
  15 -32   2   43.70   26.50
 -15  32  -2   32.80   16.20
  17 -32   2   44.30   26.30
 -17 -15  -2   31.70   16.50
  15  17   2   28.20   25.10
  -9  18   2  117.79   15.90
  -9  18   2   87.29   26.20
   9   9  -2  110.09   16.10
   9   9  -2   95.79   12.20
  18  -9   2  120.09   22.20
   9   9  -2   95.49   16.00
  18  -9   2  112.49   19.80
   9 -18  -2  128.69   22.20
 -18   9  -2   78.09   15.30
  10   8  -2   71.89   11.00
   8 -18  -2   95.09   17.60
 -10  18   2   56.99   25.90
  18  -8   2   71.09   19.90
 -18  10  -2   40.80   15.10
  10   8  -2   80.39   14.80
 -10  18   2   67.19   11.50
  10   8  -2   80.89   14.70
  18 -10   2   75.99   21.20
   8  10  -2   86.99   15.50
   8  10  -2   73.39   12.40
   8  10  -2   87.59   16.40
  10 -18  -2   72.59   17.40
  -8  18   2   64.49   25.80
  -8  18   2   66.29   11.70
  18 -10   2   85.59   17.90
  18  -7   2  126.99   22.10
  18  -7   2  158.38   22.80
   7 -18  -2  117.19   18.30
  11   7  -2  109.09   16.70
  11   7  -2  100.69   12.70
 -18  11  -2   86.99   16.70
 -11  18   2  112.09   15.30
 -11  18   2  101.79   25.60
  11 -18  -2  147.29   22.30
  -7  18   2  123.79   27.40
   7  11  -2  121.89   16.10
  18 -11   2  122.69   18.60
   7  11  -2  111.59   18.00
  -7  18   2  120.99   16.50
 -18   7  -2   90.09   15.90
  18 -11   2  120.89   22.80
  18  -6   2   10.30   20.50
 -12  18   2   23.90    9.80
  12   6  -2   20.30   10.30
   6 -18  -2   40.40   15.60
  18  -6   2   38.70   19.50
  12   6  -2   27.50   10.90
 -12  18   2   12.60   23.30
   6  12  -2   20.00    8.00
   6  12  -2   27.90   11.10
  12 -18  -2   59.29   18.10
  18 -12   2   21.40   20.70
  -6  18   2   -0.20   26.00
  18 -12   2   29.50   14.80
 -18   6  -2    7.90   13.20
   6  12  -2   26.60   10.10
 -13  18   2   17.80    9.60
  18  -5   2    5.20   21.40
  18  -5   2   26.20   19.20
  13   5  -2   17.60   10.30
   5 -18  -2   37.20   15.50
 -13  18   2   49.99   23.30
  -5  18   2   20.20   10.90
 -18   5  -2    9.50   12.80
  18 -13   2   34.90   13.80
   5  13  -2   22.70   11.30
   5  13  -2   19.20    8.00
  18 -13   2   25.40   21.50
   5  13  -2   21.70   10.10
  -5  18   2  -12.10   26.80
  13 -18  -2   60.39   18.60
  18  -4   2    5.30   22.00
  18  -4   2   44.90   19.50
 -14  18   2   50.49   23.10
  14   4  -2   38.50   11.40
 -14  18   2   23.40   10.10
  14   4  -2   20.80   11.80
  18 -14   2   32.70   21.30
   4  14  -2   38.00    8.80
 -18   4  -2   27.00   14.00
  14 -18  -2   47.20   19.00
  18 -14   2   53.69   12.90
   4  14  -2   35.80   11.70
  -4  18   2    6.50   26.80
  -4  18   2   27.00   11.30
   4  14  -2   35.60   10.50
  18  -3   2   -5.80   22.70
  15   3  -2   -1.50   10.70
   3 -18  -2   23.40   14.80
 -15  18   2   11.30   22.00
  15   3  -2   18.30   10.70
 -15  18   2    6.40    9.30
  18 -15   2   21.90   10.20
  -3  18   2   12.00   11.50
 -18   3  -2   18.80   13.10
   3  15  -2    4.30    9.90
   3  15  -2    9.80    8.30
  18 -15   2  -12.60   20.40
  15 -18  -2   41.30   18.90
 -15  -3   2   18.70    9.40
  -3  18   2  -26.00   27.00
   3  15  -2    8.60   12.10
  16   2  -2  135.49   16.20
 -16  18   2  144.49   24.50
 -18  16  -2   94.69   17.70
  16   2  -2  122.79   16.50
 -16  18   2  130.59   16.30
   2 -18  -2  137.79   20.90
  18  -2   2  106.89   25.70
  -2  18   2  121.49   19.10
   2  16  -2  120.59   15.70
   2  16  -2  125.99   20.10
  18 -16   2  113.49   24.70
   2  16  -2  123.09   13.10
 -18   2  -2  137.99   20.90
  -2  18   2  119.09   31.70
  16 -18  -2  160.98   27.70
   1 -18  -2   28.10   14.60
  17   1  -2   11.00   12.70
  18  -1   2  -16.50   23.20
 -17  18   2   14.60    9.60
  17   1  -2   19.70   11.10
 -17  18   2   22.10   20.40
 -18   1  -2   26.10   12.50
  -1  18   2  -15.50   28.90
   1  17  -2   14.50   12.50
   1  17  -2   14.70   10.40
  18 -17   2   -5.50   21.80
  -1  18   2   24.10   11.70
  17 -18  -2   54.69   20.40
   1  17  -2   24.30    8.90
 -18  18   2   15.70   19.90
  18   0   2  -20.10   23.70
  18   0  -2   17.80   13.60
  18   0  -2   17.50   11.20
   0 -18  -2   18.50   13.90
 -18  18   2    7.60    9.70
  18 -18  -2   50.09   20.10
 -18   0  -2   26.40   12.90
  18 -18   2  -21.50   21.70
   0  18  -2   18.00   13.40
   0  18   2  -36.10   31.30
   0  18  -2   14.10   12.70
   0  18  -2   12.50    9.30
   0  18   2   20.00   11.90
 -18  19  -2    7.00   15.70
 -19  18   2   29.00   10.40
  19  -1  -2   57.49   20.00
  18   1   2   27.90   25.40
  19  -1  -2   34.10   11.90
  -1 -18  -2   35.80   14.70
 -19  18   2   28.50   19.80
  18 -19   2    5.60   23.00
   1  18   2   27.70   30.90
  -1  19  -2   26.20   15.00
  19 -18  -2   57.39   20.90
  -1  19  -2   37.90   12.10
 -18  -1  -2   48.10   13.20
  -1  19  -2   30.80    9.60
 -20  18   2  106.79   21.20
 -20  18   2   99.99   16.90
 -18  20  -2   69.99   17.70
  18   2   2   76.09   27.20
  20  -2  -2  112.49   17.70
  20  -2  -2  126.79   20.90
  18 -20   2   79.49   25.00
  -2  20  -2  119.19   13.90
 -18  -2  -2  130.19   20.30
   2  18   2   47.00   32.30
  -2  20  -2  108.59   15.70
  -2  20  -2  103.29   16.60
  20 -18  -2  128.09   22.50
  -3 -18  -2   17.40   14.50
 -18  21  -2   -8.10   16.00
 -21  18   2   22.50   18.80
  18   3   2  -30.00   25.70
 -21  18   2   14.90   10.50
  21  -3  -2   19.50   16.70
  21  -3  -2   30.30   11.80
 -18  -3  -2   39.20   13.20
  -3  21  -2   24.20   10.10
  18 -21   2  -14.70   22.30
  21 -18  -2   57.99   21.00
  -3  21  -2   11.60   15.60
   3  18   2  -34.30   31.20
  -3  21  -2   18.00   10.10
 -22  18   2  176.08   18.80
  22  -4  -2  159.48   19.00
 -22  18   2  171.98   26.50
  22  -4  -2  158.28   24.50
  18   4   2  123.39   28.40
 -18  22  -2  130.09   26.80
  -4 -18  -2  141.29   21.30
  -4 -18  -2  153.28   19.10
   4  18   2  137.69   33.60
 -18  -4  -2  151.18   23.00
  22 -18  -2  175.08   27.70
  -4  22  -2  141.29   25.20
  -4  22  -2  134.59   16.50
  18 -22   2  129.59   26.70
 -23  18   2   78.19   18.40
  18   5   2   25.90   27.20
 -23  18   2  103.79   18.20
 -18  23  -2   70.69   18.40
  -5 -18  -2   79.39   15.30
  23  -5  -2   75.19   21.40
  23  -5  -2   68.59   13.10
  -5 -18  -2   69.49   15.30
  23 -18  -2   57.69   21.60
   5  18   2   73.49   31.80
  -5  23  -2   55.39   16.50
  18 -23   2   44.80   25.10
  -5  23  -2   63.39   11.10
 -18  -5  -2   69.29   14.90
  -6 -18  -2    0.80   14.30
  18   6   2   -6.30   24.70
 -24  18   2   29.60   12.90
 -18  24  -2   -3.20   16.50
 -24  18   2   19.70   17.90
  24  -6  -2   -4.10   19.90
   6 -24   2    4.20   23.00
  24  -6  -2    8.60   11.40
 -18  -6  -2   23.10   14.70
  24 -18  -2    7.10   20.70
   6  18   2  -23.20   30.10
  18 -24   2    5.60   23.60
  -6  24  -2    5.90   15.30
  -6  24  -2   16.40    9.80
  25  -7  -2   61.69   12.10
  25  -7  -2   71.59   22.00
   7 -25   2   28.10   24.20
 -25  18   2   66.59   17.30
  18   7   2   14.90   25.30
  -7 -18  -2   49.99   14.60
 -18  25  -2   40.60   16.90
 -18  -7  -2   62.69   15.10
  25 -18  -2   30.50   20.80
  -7  25  -2   54.29   16.30
   7  18   2   56.59   28.90
  18 -25   2   51.79   24.60
   8 -26   2   45.40   24.40
 -26  18   2   61.19   17.10
  -8 -18  -2   50.09   14.00
  18   8   2   53.89   26.00
 -18  26  -2   65.19   16.80
  26  -8  -2   60.29   11.70
  26  -8  -2   40.00   20.70
  -8  26  -2   49.99   15.60
  26 -18  -2   33.90   20.60
  18 -26   2   38.00   24.30
 -18  -8  -2   66.49   15.40
  -8  26  -2   52.29   10.70
   8  18   2   65.69   28.30
  -9 -18  -2   14.90   13.30
  27  -9  -2   29.00   10.80
 -27  18   2   42.60   16.20
   9 -27   2   30.90   22.80
  27  -9  -2   20.10   20.20
  18   9   2   12.50   22.80
 -18  27  -2   25.30   15.30
   9  18   2   20.30   26.50
  27 -18  -2   16.30   19.10
  -9  27  -2   19.00    9.30
  18 -27   2   16.40   24.20
  -9  27  -2   16.30   14.50
 -18  -9  -2   37.30   14.60
  28 -10  -2   27.00   20.60
  10 -28   2   49.00   22.90
  18  10   2   18.90   23.80
 -28  18   2   63.49   16.30
 -18  28  -2   40.90   15.10
  28 -10  -2   46.90   11.80
 -10 -18  -2   20.60   14.60
  10  18   2   28.40   26.40
  18 -28   2   32.30   24.80
 -18 -10  -2   39.90   14.70
 -10  28  -2   32.80   15.10
  28 -18  -2   17.40   19.70
  29 -11  -2   46.60   12.00
  11 -29   2   39.20   23.80
  29 -11  -2   27.50   20.80
 -18  29  -2   48.20   17.60
 -11 -18  -2   42.20   14.10
  18  11   2   49.80   28.80
 -29  18   2   59.69   16.10
 -11  29  -2   49.99   15.30
  18 -29   2   29.90   24.70
  11  18   2   45.50   25.80
 -18 -11  -2   58.29   16.60
 -30  18   2   36.10   15.70
  18  12   2    1.60   23.10
  12 -30   2  -10.70   23.80
  30 -12  -2  -21.30   19.10
 -18  30  -2   10.20   14.80
  30 -12  -2   14.80   11.00
  12  18   2   14.30   24.50
 -18 -12  -2   11.70   14.40
  18 -30   2  -10.20   25.00
 -12  30  -2    6.80   15.50
  31 -13  -2   19.30   19.90
  18  13   2   52.69   25.50
 -13 -18  -2   40.30   15.50
  31 -13  -2   50.99   12.90
 -18  31  -2   67.59   16.90
  18 -31   2   71.59   28.10
 -18 -13  -2   46.50   14.50
 -13  31  -2   52.69   16.80
  13  18   2   45.20   25.00
  18  14   2    8.60   23.90
 -14 -18  -2   -0.50   15.10
 -18  32  -2    8.60   15.40
  14 -32   2   10.20   24.80
  32 -14  -2    0.40   11.10
 -18 -14  -2    1.50   14.00
  18 -32   2    8.20   26.30
  14  18   2    5.30   24.20
 -14  32  -2    8.10   15.30
 -10  19   2  102.99   27.50
   9 -19  -2  166.58   23.40
  19  -9   2  159.78   23.80
 -19  10  -2   94.19   16.60
 -10  19   2  113.49   16.70
  19  -9   2  120.39   20.90
  10   9  -2  110.19   16.10
  19 -10   2  140.99   24.30
  10 -19  -2  157.98   24.50
   9  10  -2  123.89   17.20
   9  10  -2  122.39   17.10
  -9  19   2  126.09   16.40
  19 -10   2  132.29   20.40
 -19   9  -2   92.39   16.40
  -9  19   2  103.89   27.70
 -11  19   2   79.79   27.90
  19  -8   2   92.19   21.50
 -19  11  -2   65.89   16.00
  11   8  -2   98.09   17.00
  19  -8   2  108.89   22.30
 -11  19   2   94.19   17.20
   8 -19  -2  149.39   23.50
  -8  19   2   77.29   27.40
  19 -11   2   94.79   18.80
  19 -11   2  112.59   23.50
  11 -19  -2  109.79   19.70
   8  11  -2  127.09   17.10
 -19   8  -2   99.19   16.50
   8  11  -2  118.79   17.10
   8  11  -2   96.59   14.10
 -12  19   2  412.36   26.20
  19  -7   2  413.06   35.60
 -19  12  -2  370.26   30.10
 -12  19   2  404.26   41.00
   7 -19  -2  413.96   31.40
  12   7  -2  400.06   26.20
  19  -7   2  472.95   35.50
  -7  19   2  417.56   27.40
  -7  19   2  379.66   44.40
  12 -19  -2  403.96   31.60
   7  12  -2  404.16   23.10
  19 -12   2  386.06   29.70
 -19   7  -2  416.56   29.90
  19 -12   2  383.86   36.80
   7  12  -2  421.06   27.00
   7  12  -2  401.76   26.30
  19  -6   2  197.78   29.70
 -13  19   2  227.78   19.80
   6 -19  -2  227.78   25.70
 -19  13  -2  196.48   25.80
  19  -6   2  291.67   31.00
 -13  19   2  251.87   35.40
  13   6  -2  234.08   21.00
   6  13  -2  242.18   16.20
   6  13  -2  259.07   21.60
  -6  19   2  207.88   33.30
  13 -19  -2  265.57   29.00
   6  13  -2  242.98   19.30
  19 -13   2  233.48   23.40
 -19   6  -2  215.68   25.00
  19 -13   2  201.58   32.30
  -6  19   2  237.28   20.70
  14   5  -2  112.99   16.60
  14   5  -2  102.99   14.60
  19  -5   2  134.29   22.90
  19  -5   2   70.69   23.20
 -19  14  -2   69.09   17.50
 -14  19   2  104.79   16.00
   5 -19  -2  127.19   22.00
 -14  19   2  102.69   26.30
  19 -14   2  114.79   17.80
   5  14  -2  104.99   12.60
  -5  19   2   79.69   29.30
   5  14  -2  115.49   18.80
  -5  19   2  118.69   18.00
  14 -19  -2  172.18   27.60
   5  14  -2  117.19   17.60
  19 -14   2   95.39   24.00
 -19   5  -2   95.09   20.00
  15   4  -2  265.67   19.80
 -15  19   2  272.47   21.50
  15   4  -2  261.37   21.20
   4 -19  -2  267.97   25.40
 -15  19   2  282.37   35.60
 -19  15  -2  198.98   27.40
  19  -4   2  226.78   34.60
  -4  19   2  284.17   22.70
   4  15  -2  265.87   18.00
  15 -19  -2  285.17   30.90
  -4  19   2  241.78   35.40
   4  15  -2  268.57   23.20
  19 -15   2  287.57   21.10
 -19   4  -2  256.07   24.70
 -15  -4   2  277.27   20.00
   4  15  -2  283.17   21.70
  19 -15   2  228.28   32.30
 -16  19   2  206.48   33.80
 -16  19   2  207.68   19.00
  16   3  -2  212.58   18.80
  19  -3   2  307.97   36.70
  19  -3   2  195.08   27.90
  16   3  -2  214.08   20.30
  -3  19   2  218.48   21.60
   3  16  -2  189.88   15.40
 -19   3  -2  204.88   22.50
  -3  19   2  204.28   34.40
  19 -16   2  163.18   25.90
   3  16  -2  188.98   22.50
   3  16  -2  202.98   19.60
  16 -19  -2  268.37   30.60
  17   2  -2   84.69   13.40
  17   2  -2   77.79   13.10
  19  -2   2   45.50   24.10
 -17  19   2   66.89   11.70
 -17  19   2   58.79   24.50
   2 -19  -2   89.79   16.90
   2  17  -2   65.89   11.90
  -2  19   2  107.49   19.00
  19 -17   2   52.59   23.40
  17 -19  -2   95.19   21.60
  -2  19   2   48.10   30.80
 -19   2  -2  103.69   21.50
   2  17  -2   62.19   14.60
   2  17  -2   75.09   12.40
 -18  19   2  374.26   35.30
  18   1  -2  349.17   24.40
  19  -1   2  311.57   38.30
 -18  19   2  354.46   24.30
  18   1  -2  412.16   25.80
 -19  18  -2  315.27   30.50
   1 -19  -2  357.76   27.30
  -1  19   2  297.57   47.00
   1  18  -2  348.37   24.20
  18 -19  -2  324.17   32.20
  19 -18   2  306.77   35.50
  -1  19   2  374.16   26.90
 -19   1  -2  325.77   26.10
   1  18  -2  355.16   27.80
   1  18  -2  359.66   21.60
   0 -19  -2  212.58   21.60
 -19  19   2  212.88   19.90
  19   0  -2  246.78   23.00
  19   0   2  205.08   30.40
 -19  19   2  266.67   32.30
 -19  19  -2  179.38   26.40
  19   0  -2  222.68   20.10
   0  19  -2  228.38   20.30
   0  19  -2  225.98   17.20
   0  19   2  177.38   36.50
  19 -19   2  191.98   28.60
   0  19  -2  204.48   25.90
  19 -19  -2  272.17   30.10
   0  19   2  231.38   23.60
 -19   0  -2  245.88   22.80
 -19  20  -2  -10.30   15.50
 -20  19   2   12.30   20.30
  20  -1  -2   10.00   12.10
  19   1   2  -46.10   24.10
  -1 -19  -2   11.30   14.20
 -20  19   2    6.40   10.50
  20  -1  -2   14.10   16.00
  -1  20  -2   18.00   10.00
  20 -19  -2   39.30   21.50
   1  19   2  -62.19   30.50
  19 -20   2    5.50   23.30
 -19  -1  -2   29.10   13.20
  -1  20  -2   -2.20   13.70
  -1  20  -2   21.40   11.10
  19   2   2   46.40   26.70
 -21  19   2   79.39   12.80
 -21  19   2   87.99   21.70
 -19  21  -2   63.89   18.40
  21  -2  -2  100.09   17.00
  21  -2  -2   93.19   18.40
  21 -19  -2  112.49   22.80
  -2  21  -2   67.89   16.90
  -2  21  -2   95.69   13.40
   2  19   2   63.69   34.10
 -19  -2  -2   64.49   16.10
  19 -21   2   66.99   25.90
  22  -3  -2   63.39   17.30
  -3 -19  -2   46.30   16.10
  22  -3  -2   67.79   13.10
 -22  19   2   59.79   20.00
 -19  22  -2   31.50   17.30
  19   3   2   26.30   27.30
 -22  19   2   53.09   12.50
 -19  -3  -2   57.49   14.70
   3  19   2   -5.20   30.00
  -3  22  -2   47.60   12.30
  22 -19  -2   80.29   22.10
  19 -22   2   21.90   24.70
 -22   3   2   34.70   11.30
  -3  22  -2   48.00   15.80
  23  -4  -2   45.10   18.00
 -23  19   2   59.39   18.70
 -19  23  -2   20.80   17.10
 -23  19   2   45.20   19.10
  19   4   2   27.40   25.90
  -4 -19  -2   46.00   13.60
  -4 -19  -2   35.10   15.40
  23  -4  -2   59.49   13.10
  -4  23  -2   31.70   16.00
  23 -19  -2   44.50   20.90
 -19  -4  -2   57.69   14.80
   4  19   2   -2.30   30.80
  -4  23  -2   44.70   10.70
  19 -23   2   36.50   24.50
  19   5   2  140.39   29.40
  -5 -19  -2  200.58   19.30
  24  -5  -2  163.78   26.60
  -5 -19  -2  153.58   23.70
 -24  19   2  187.98   26.80
  24  -5  -2  190.28   18.50
 -19  24  -2  144.09   27.10
 -24  19   2  202.58   19.70
  24 -19  -2  156.78   24.20
  -5  24  -2  165.78   17.30
  19 -24   2  135.39   27.20
  -5  24  -2  183.88   24.20
 -19  -5  -2  181.58   24.90
   5  19   2  148.39   34.00
 -25  19   2  268.47   26.30
  -6 -19  -2  257.77   24.00
  25  -6  -2  245.78   30.70
   6 -25   2  228.78   34.60
 -19  25  -2  245.28   26.30
  25  -6  -2  255.47   20.70
  19   6   2  222.78   36.80
 -19  -6  -2  236.08   24.50
  25 -19  -2  171.88   30.20
  -6  25  -2  259.27   25.90
  19 -25   2  235.18   34.30
   6  19   2  220.58   35.30
  -6  25  -2  231.28   19.30
   7 -26   2    1.60   22.20
  19   7   2   -9.80   23.60
  -7 -19  -2    8.60   13.70
  26  -7  -2   -1.20   18.90
 -19  26  -2    4.00   14.90
  26  -7  -2   21.30   11.10
 -26  19   2   17.30   16.70
  -7  26  -2    7.80   14.00
  26 -19  -2   -6.00   19.30
  -7  26  -2    1.80    9.40
 -19  -7  -2   37.70   14.10
   7  19   2    5.50   27.60
  19 -26   2   -8.60   23.10
 -19  27  -2   20.70   15.00
 -27  19   2   47.60   16.10
  -8 -19  -2   21.20   14.00
   8 -27   2   11.70   21.80
  27  -8  -2   22.50   11.00
  27  -8  -2    0.50   20.70
  19   8   2   19.60   23.80
  19 -27   2   21.90   24.40
  27 -19  -2    8.40   19.30
 -19  -8  -2   34.10   13.70
  -8  27  -2   15.80   14.40
   8  19   2   22.20   26.90
 -19  28  -2    4.60   15.00
 -28  19   2   27.50   17.30
  28  -9  -2   14.70   10.60
   9 -28   2    0.30   22.00
  19   9   2   12.60   23.10
  28  -9  -2   -3.30   20.00
  -9 -19  -2   11.60   13.30
   9  19   2   -8.30   25.00
 -19  -9  -2   19.60   14.00
  28 -19  -2  -20.00   17.60
  19 -28   2    4.40   23.70
  -9  28  -2    7.80   14.70
 -10 -19  -2    5.10   13.90
 -29  19   2   34.60   16.90
  29 -10  -2   20.10   11.30
  10 -29   2   -0.50   22.60
  29 -10  -2  -11.30   20.00
 -10  29  -2   17.00   15.30
  10  19   2   18.80   26.90
  30 -11  -2   20.20   11.70
  19  11   2   29.90   23.40
 -30  19   2   26.40   16.70
 -19  30  -2   14.70   15.30
  30 -11  -2   -2.10   20.20
 -11 -19  -2   22.90   20.00
  11 -30   2   13.80   24.20
  11  19   2   12.10   27.00
  19 -30   2   43.70   26.20
 -19 -11  -2   28.40   15.40
 -11  30  -2   23.20   15.70
  19  12   2   68.59   25.70
 -12 -19  -2  112.99   20.70
 -19  31  -2   87.39   17.80
  31 -12  -2   81.39   23.20
  31 -12  -2  102.19   17.00
 -12  31  -2   65.09   17.70
  31 -19  -2    4.90   28.30
  12  19   2  125.39   28.90
 -19 -12  -2   58.69   17.40
  19 -31   2  125.89   29.30
  32 -13  -2   61.19   15.30
 -19  32  -2   49.80   16.80
 -13 -19  -2   36.30   15.90
  13 -32   2   22.80   27.70
 -32  19   2   83.39   18.60
  19  13   2   56.39   26.50
  32 -13  -2   -7.70   20.30
  19 -32   2   70.89   29.70
 -19 -13  -2   29.90   16.30
  13  19   2   44.60   25.50
 -13  32  -2   37.70   16.50
  20 -10   2   27.90   18.20
 -10  20   2   29.30   11.70
  10  10  -2   40.20   10.50
  10 -20  -2   53.59   18.50
  20 -10   2   42.10   22.20
  10  10  -2   41.60   11.10
 -10  20   2    5.90   26.50
  10  10  -2   47.00   12.60
  11   9  -2   39.20   14.70
   9 -20  -2   46.80   18.20
  20  -9   2   23.40   21.80
 -11  20   2   14.70   26.30
  11   9  -2   33.30   11.80
  20  -9   2   14.10   19.10
   9  11  -2   33.20   11.80
   9  11  -2   34.50   12.30
 -20   9  -2   -4.20   14.80
  -9  20   2   20.30   11.20
  20 -11   2   26.80   23.00
  20 -11   2   14.40   21.80
  11 -20  -2   67.99   19.70
   9  11  -2   31.60    9.10
  -9  20   2   13.20   26.90
 -12  20   2   19.30   11.40
 -12  20   2   -3.80   26.20
  12   8  -2   25.80   10.50
   8 -20  -2   46.50   17.40
  12   8  -2   31.10   11.60
  20  -8   2   15.30   21.30
  20  -8   2   37.10   20.30
   8  12  -2   19.80   11.50
  20 -12   2   14.20   22.00
   8  12  -2   28.50   11.60
  12 -20  -2   61.19   19.40
  20 -12   2   13.00   15.80
  -8  20   2   19.30   11.60
  -8  20   2   -4.40   27.60
 -20   8  -2   -1.10   14.10
   8  12  -2   18.50    8.30
  13   7  -2   87.59   13.60
 -13  20   2   99.49   27.90
  13   7  -2   88.79   12.90
  20  -7   2  155.58   29.10
   7 -20  -2  105.09   18.70
  20  -7   2   95.69   22.10
 -13  20   2   99.79   16.60
  20 -13   2  114.99   24.10
  20 -13   2  121.49   20.30
  -7  20   2  104.99   17.70
   7  13  -2   86.09   17.90
   7  13  -2   96.59   13.80
  13 -20  -2  124.89   21.60
  -7  20   2   70.79   29.80
   7  13  -2   80.29   11.80
 -20   7  -2   67.89   16.20
 -14  20   2   36.90   25.20
  20  -6   2   74.99   23.90
  14   6  -2   32.20   12.00
   6 -20  -2   43.80   17.60
  20  -6   2   14.90   21.20
  14   6  -2   27.60   10.30
 -14  20   2   26.10   11.00
  20 -14   2   16.00   22.40
  -6  20   2   29.90   12.10
  20 -14   2   33.30   13.70
  -6  20   2  -12.90   28.30
   6  14  -2   31.10   12.40
   6  14  -2   26.70    8.70
  14 -20  -2   61.99   20.30
   6  14  -2   33.00   11.80
 -20   6  -2   -3.90   14.10
  20  -5   2   58.79   23.60
  15   5  -2    4.90   10.50
   5 -20  -2   29.70   16.40
  15   5  -2   19.10   12.00
  20  -5   2   -1.30   22.00
 -15  20   2   16.80   25.10
 -15  20   2    5.90   10.70
   5  15  -2   19.90   12.70
   5  15  -2    3.30    8.60
  15 -20  -2   44.50   19.80
  -5  20   2  -18.90   28.90
 -15  -5   2   39.20   11.00
  20 -15   2   23.50   12.40
   5  15  -2    4.80   11.20
  20 -15   2   -4.60   21.70
  -5  20   2   18.80   12.20
 -20   5  -2   -3.20   14.20
   4 -20  -2   44.10   17.10
  16   4  -2   16.60   12.00
  20  -4   2   -5.40   22.70
 -16  20   2    1.40   25.30
  20  -4   2   70.59   23.00
 -16  20   2    9.90   10.70
  16   4  -2    4.60   11.60
  -4  20   2  -28.50   29.80
  20 -16   2    3.60   22.20
  20 -16   2   29.80   10.20
 -20   4  -2   16.10   14.60
  -4  20   2   11.50   12.40
   4  16  -2   17.50   12.80
   4  16  -2   11.80   11.30
  16 -20  -2   50.09   20.40
   4  16  -2   16.90    8.70
 -17  20   2   10.70   10.80
 -17  20   2   20.40   32.40
  20  -3   2  -15.20   22.80
   3 -20  -2   24.30   16.70
  17   3  -2   24.20   12.00
  17   3  -2   17.50   12.40
   3  17  -2   18.90    9.20
 -20   3  -2   19.50   14.10
  -3  20   2   13.10   12.80
  20 -17   2    5.70   23.50
  -3  20   2  -34.60   30.50
  17 -20  -2   68.69   21.80
   3  17  -2   24.80   14.50
   3  17  -2   26.40   13.30
  20  -2   2    8.60   24.50
 -18  20   2   43.80   11.50
   2 -20  -2   58.69   18.50
 -18  20   2   70.79   25.10
  18   2  -2   61.69   13.40
  18   2  -2   61.69   13.60
  20 -18   2   30.20   24.30
  -2  20   2   51.59   14.60
   2  18  -2   56.29   12.70
  -2  20   2   47.50   33.50
   2  18  -2   49.50   14.80
  18 -20  -2   91.39   22.60
   2  18  -2   62.19   10.40
 -20   2  -2   53.99   15.60
 -19  20   2   74.59   23.70
  19   1  -2   52.39   12.90
   1 -20  -2   61.49   16.80
  19   1  -2   48.80   14.90
 -19  20   2   47.60   12.00
  20  -1   2    0.30   24.80
   1  19  -2   43.10   16.70
  19 -20  -2   85.99   23.20
 -20   1  -2   46.30   14.40
   1  19  -2   58.29   12.80
   1  19  -2   45.70   10.20
  20 -19   2   33.20   24.70
  -1  20   2   47.80   14.10
  -1  20   2    9.70   32.50
  20   0  -2   51.89   16.30
  20   0  -2   46.80   13.20
 -20  20  -2   18.50   16.70
  20   0   2   22.60   26.00
 -20  20   2   72.79   23.10
 -20  20   2   43.20   12.50
   0 -20  -2   39.60   16.60
   0  20  -2   42.80   15.10
   0  20  -2   58.89   11.10
   0  20  -2   50.39   12.40
   0  20   2   53.09   14.60
   0  20   2   -0.40   32.80
  20 -20   2   28.90   25.10
  20 -20  -2   73.79   23.10
 -20   0  -2   59.59   15.00
  21  -1  -2   53.49   13.20
 -20  21  -2   22.90   16.20
 -21  20   2   45.70   22.60
  21  -1  -2   67.49   18.00
  20   1   2   21.90   25.30
  -1 -20  -2   47.20   16.60
   1  20   2   13.70   33.50
  -1  21  -2   50.29   12.40
  -1  21  -2   57.59   11.20
 -20  -1  -2   46.10   15.20
  21 -20  -2   63.39   22.90
  -1  21  -2   47.50   15.50
  20 -21   2   27.80   25.00
 -20  22  -2    1.10   16.20
 -22  20   2    8.10   11.60
  -2 -20  -2    3.40   17.00
  22  -2  -2   19.80   16.40
  22  -2  -2   18.90   12.50
 -22  20   2    0.40   20.80
  20   2   2  -17.40   24.40
  20   2   2   31.80   15.30
  -2  22  -2   21.80   14.80
  22 -20  -2   29.20   21.80
 -20  -2  -2   37.10   14.70
   2  20   2   -8.50   32.10
  -2  22  -2   14.30   11.50
  20 -22   2    8.20   24.30
  -3 -20  -2   57.69   16.60
  23  -3  -2   54.59   13.00
 -23  20   2   49.90   12.20
 -23  20   2   37.50   20.40
 -20  23  -2   30.50   17.20
  20   3   2   25.70   25.80
  23  -3  -2   49.00   17.80
  23 -20  -2   49.00   21.80
 -23   3   2   63.49   12.30
  -3  23  -2   53.29   12.70
   3  20   2   27.40   30.60
 -20  -3  -2   43.70   14.50
  20 -23   2   29.30   24.60
  -3  23  -2   46.70   16.80
  20   4   2   49.00   25.30
  -4 -20  -2   86.19   15.20
 -24  20   2   83.39   20.80
  24  -4  -2   82.39   18.40
 -20  24  -2   61.99   17.80
  -4 -20  -2   59.09   16.00
  24  -4  -2   69.99   13.40
  20 -24   2   86.59   26.10
   4  20   2   75.99   31.80
  -4  24  -2   62.89   17.40
 -20  -4  -2  109.79   20.00
  24 -20  -2   93.19   21.70
   5 -25   2   44.50   25.00
 -20  25  -2   72.79   18.20
 -25  20   2   75.69   19.40
  20   5   2   45.00   25.30
  25  -5  -2   72.29   13.10
  25  -5  -2   94.49   19.40
  -5 -20  -2   63.69   15.60
 -20  -5  -2   63.09   15.50
  20 -25   2   65.59   25.70
   5  20   2   43.30   29.90
  -5  25  -2   63.39   16.90
  25 -20  -2   70.89   20.60
  26  -6  -2   38.60   11.50
   6 -26   2   20.00   24.10
  -6 -20  -2   37.60   14.00
  20   6   2   18.40   23.60
 -20  26  -2   28.80   15.30
  26  -6  -2   36.10   19.30
 -26  20   2   35.70   17.00
 -20  -6  -2   51.59   14.90
  26 -20  -2   39.30   20.00
  -6  26  -2   28.20   15.90
  -6  26  -2   31.10   10.30
  20 -26   2   44.30   25.70
   6  20   2   23.40   28.20
  -7 -20  -2   20.70   14.40
  27  -7  -2   42.70   11.70
 -20  27  -2   35.60   15.50
  20   7   2   29.30   24.10
 -27  20   2   29.70   17.80
  27  -7  -2   15.30   19.10
   7 -27   2   -0.40   23.20
  -7  27  -2   33.70   10.70
  27 -20  -2   13.00   19.20
  20 -27   2   32.30   24.60
  -7  27  -2   22.80   15.30
   7  20   2   -4.80   26.60
 -20  -7  -2   38.80   14.10
   8 -28   2   -0.70   22.00
  -8 -20  -2    8.20   12.80
  28  -8  -2   10.70   10.70
 -20  28  -2   10.60   15.00
  28  -8  -2  -13.80   20.20
  20   8   2    2.80   23.10
 -28  20   2   15.10   16.50
  -8  28  -2    7.10   14.50
   8  20   2   -0.80   25.60
  -8  28  -2   -8.50    9.90
 -20  -8  -2   17.80   13.90
  20 -28   2   13.60   23.80
  28 -20  -2  -31.30   18.50
  -9 -20  -2   24.00   14.80
 -29  20   2   43.90   16.60
   9 -29   2   33.40   22.70
  29  -9  -2   12.30   20.50
  29  -9  -2   28.20   11.20
   9  20   2   21.60   30.80
  29 -20  -2  -27.00   18.50
  -9  29  -2   21.20   15.60
  10 -30   2   11.10   23.30
 -30  20   2   31.20   17.00
  20  10   2   -0.80   23.70
  30 -10  -2   -1.50   21.30
  30 -10  -2   20.40   11.80
 -10 -20  -2   18.80   16.30
 -20  30  -2   16.90   15.00
 -10  30  -2   18.40   15.40
 -20 -10  -2   23.60   14.80
  20 -30   2   18.40   25.90
  10  20   2   13.00   25.50
 -11 -20  -2   15.80   14.60
 -31  20   2   20.30   17.30
  31 -11  -2   -9.80   20.70
  11 -31   2   11.60   26.40
  20  11   2   10.80   24.20
 -20  31  -2    2.20   14.50
  31 -11  -2   14.90   11.80
  20 -31   2   21.40   28.90
 -20 -11  -2   13.50   15.40
 -11  31  -2   16.10   16.40
  11  20   2   18.20   25.80
 -20  32  -2   23.20   16.30
 -32  20   2   36.10   18.20
 -12 -20  -2    5.40   14.70
 -20 -12  -2   15.70   14.40
 -12  32  -2   17.10   15.60
  21 -10   2   23.60   23.90
  11  10  -2   10.50    8.50
  11  10  -2    6.00   11.80
  11  10  -2   24.10   11.30
 -11  21   2    5.20   11.60
  21 -10   2    1.50   18.80
 -11  21   2  -31.00   26.30
  10 -21  -2   42.60   19.50
  21 -11   2    5.60   17.80
  10  11  -2    5.10    8.80
  10  11  -2   12.40   11.60
  21 -11   2   -3.60   23.60
 -10  21   2    7.70   11.90
  11 -21  -2   48.90   19.20
 -21  10  -2  -20.10   14.50
  10  11  -2   20.80   11.80
 -10  21   2  -32.50   27.50
  12   9  -2   99.49   12.70
  21  -9   2  106.29   22.00
   9 -21  -2  126.29   20.40
  21  -9   2  154.38   27.50
 -12  21   2   98.79   18.10
  12   9  -2  107.59   17.30
 -12  21   2   90.09   29.00
   9  12  -2  111.09   19.70
   9  12  -2  107.09   14.80
  21 -12   2  131.89   26.30
  -9  21   2   83.79   30.60
  -9  21   2  109.69   19.00
   9  12  -2   93.59   12.80
 -13  21   2  147.29   30.90
 -13  21   2  167.48   19.60
  21  -8   2  268.17   36.90
  21  -8   2  167.08   24.30
   8 -21  -2  192.88   26.20
  13   8  -2  158.58   14.60
  13   8  -2  164.38   19.80
   8  13  -2  170.28   20.20
  -8  21   2  129.19   32.50
 -21   8  -2  125.29   23.10
  13 -21  -2  221.88   28.90
   8  13  -2  156.08   14.10
   8  13  -2  168.88   19.80
  21 -13   2  196.58   28.00
  21 -13   2  187.88   23.80
  -8  21   2  164.58   20.20
   7 -21  -2  276.77   27.00
  14   7  -2  239.58   17.60
  14   7  -2  227.78   20.90
 -14  21   2  244.28   21.70
  21  -7   2  194.98   31.50
 -21  14  -2  174.98   25.90
 -14  21   2  201.68   32.90
   7  14  -2  262.87   21.90
   7  14  -2  261.77   22.80
   7  14  -2  234.68   16.80
  21 -14   2  241.08   23.90
  -7  21   2  252.97   22.40
  21 -14   2  251.57   34.90
  -7  21   2  209.68   34.90
 -21   7  -2  204.68   24.90
  14 -21  -2  275.57   30.20
 -15  21   2  133.19   31.70
   6 -21  -2  193.08   25.80
  15   6  -2  153.78   15.70
  15   6  -2  163.78   20.30
 -15  21   2  154.18   21.70
  21  -6   2  154.78   26.20
  21 -15   2  187.78   27.70
  -6  21   2  191.58   22.00
 -21   6  -2  141.89   22.50
  -6  21   2  154.08   33.60
  15 -21  -2  237.28   29.70
   6  15  -2  153.88   14.40
  21 -15   2  164.28   19.70
   6  15  -2  175.18   19.90
   6  15  -2  182.38   21.50
 -21  16  -2  418.06   35.90
  16   5  -2  472.15   28.70
  16   5  -2  465.15   31.00
 -16  21   2  480.75   40.00
 -16  21   2  471.85   43.80
   5 -21  -2  500.75   34.60
  21  -5   2  483.45   42.00
 -16  -5   2  554.94   30.00
  -5  21   2  452.15   50.79
   5  16  -2  497.95   30.60
  16 -21  -2  491.25   38.20
  21 -16   2  455.65   41.00
   5  16  -2  518.45   32.60
 -21   5  -2  452.55   33.20
   5  16  -2  481.85   27.40
  21 -16   2  478.05   29.60
  -5  21   2  528.25   32.70
  17   4  -2  320.17   24.10
 -17  21   2  317.67   40.30
 -21  17  -2  246.88   29.20
 -17  21   2  317.87   34.30
  21  -4   2  268.37   35.90
   4 -21  -2  282.27   27.60
  17   4  -2  356.76   22.40
   4  17  -2  301.97   23.70
  -4  21   2  313.37   26.50
   4  17  -2  294.97   20.30
  -4  21   2  253.37   44.90
  21 -17   2  308.87   37.90
   4  17  -2  297.07   28.40
 -17  -4   2  336.37   22.80
  17 -21  -2  349.17   33.80
 -21   4  -2  315.67   27.10
  18   3  -2   82.19   14.70
  21  -3   2   57.69   25.70
   3 -21  -2   93.09   18.50
  18   3  -2   73.09   13.80
 -18  21   2   89.99   20.10
 -18  21   2   77.99   27.20
 -21   3  -2   80.19   16.10
  21 -18   2   77.59   26.10
  18 -21  -2  100.19   23.10
  -3  21   2   73.49   15.40
   3  18  -2   79.89   13.90
  -3  21   2   58.09   34.80
   3  18  -2   55.29   15.10
   3  18  -2   71.19   11.20
  21  -2   2  355.46   40.90
   2 -21  -2  310.67   34.30
  19   2  -2  349.37   26.70
 -21  19  -2  319.27   33.30
 -19  21   2  378.06   40.40
  19   2  -2  396.26   25.70
 -19  21   2  360.66   26.90
  -2  21   2  351.26   50.99
   2  19  -2  362.76   22.50
 -21   2  -2  350.06   28.10
   2  19  -2  362.66   30.70
  -2  21   2  403.86   28.80
   2  19  -2  376.36   26.40
  21 -19   2  353.86   40.50
  19 -21  -2  372.66   36.30
  20   1  -2  171.08   20.20
 -21  20  -2  120.69   19.80
   1 -21  -2  134.29   21.90
 -20  21   2  143.69   19.40
 -20  21   2  134.89   27.60
  20   1  -2  161.48   20.30
  21  -1   2  121.99   28.00
  21 -20   2  155.78   28.50
  20 -21  -2  165.98   25.30
   1  20  -2  147.09   26.40
   1  20  -2  134.79   15.40
   1  20  -2  159.98   18.40
  -1  21   2  157.58   23.30
  -1  21   2  140.49   36.00
 -21   1  -2  146.39   20.90
 -21  21   2  288.17   34.30
 -21  21   2  281.87   22.70
  21   0   2  329.57   27.40
   0 -21  -2  282.67   26.40
 -21  21  -2  261.87   30.20
  21   0   2  258.77   38.40
  21   0  -2  292.97   23.90
  21   0  -2  275.77   26.20
   0  21   2  299.07   26.90
   0  21  -2  270.97   20.10
  21 -21   2  283.07   39.40
 -21   0  -2  270.27   25.10
  21 -21  -2  276.27   31.80
   0  21  -2  271.27   26.10
   0  21   2  286.17   49.30
   0  21  -2  273.37   22.70
  -1 -21  -2  382.16   28.00
  22  -1  -2  369.36   26.50
  22  -1  -2  423.66   29.10
  21   1   2  310.47   39.90
 -21  22  -2  354.66   31.50
 -22  21   2  367.16   35.90
 -22  21   2  363.96   25.90
  21   1   2  337.77   27.80
   1  21   2  365.96   49.20
  -1  22  -2  354.56   32.20
 -21  -1  -2  367.36   28.20
  21 -22   2  334.47   38.70
  -1  22  -2  389.26   25.30
  22 -21  -2  303.37   35.90
 -21  23  -2  484.15   36.40
  21   2   2  445.36   41.60
  23  -2  -2  448.96   30.00
  -2 -21  -2  468.25   33.30
 -23  21   2  491.25   30.00
  23  -2  -2  532.85   36.80
 -23  21   2  483.45   37.80
  -2  23  -2  484.95   29.40
  21 -23   2  425.56   43.70
   2  21   2  452.25   49.50
  23 -21  -2  401.26   36.30
 -21  -2  -2  426.56   32.10
  -2  23  -2  463.85   34.90
 -21  24  -2   23.30   17.00
 -24  21   2   42.50   11.80
  24  -3  -2   25.90   12.10
  21   3   2   19.80   24.60
  24  -3  -2   20.20   18.00
 -24  21   2   23.30   20.10
  24 -21  -2   22.00   21.00
  -3  24  -2   27.80   15.10
  -3  24  -2   28.30   11.60
 -21  -3  -2   58.09   15.50
   3  21   2   18.30   30.30
  21 -24   2   11.00   24.70
 -25  21   2  190.38   27.70
  25  -4  -2  207.78   25.10
 -21  25  -2  198.98   26.90
  -4 -21  -2  203.68   25.20
  21   4   2  165.98   28.30
   4 -25   2  231.08   29.90
  25  -4  -2  211.48   20.30
 -25  21   2  231.18   20.40
   4  21   2  202.58   34.60
  21 -25   2  151.58   28.90
 -21  -4  -2  203.18   22.70
  -4  25  -2  207.28   24.80
  25 -21  -2  161.58   26.80
  26  -5  -2   41.80   17.60
 -26  21   2   49.99   18.70
   5 -26   2   43.80   24.20
 -21  26  -2   34.20   16.80
  21   5   2   46.00   24.00
  -5 -21  -2   49.99   14.40
  26  -5  -2   50.69   12.40
 -21  -5  -2   57.19   14.10
  26 -21  -2   37.70   19.90
  -5  26  -2   62.59   16.00
  21 -26   2   63.09   25.60
   5  21   2   56.29   29.30
  21   6   2   46.40   24.00
 -27  21   2   88.49   20.30
  27  -6  -2   72.59   13.00
  -6 -21  -2   66.19   15.30
  27  -6  -2   73.59   20.70
 -21  27  -2   73.89   17.10
   6 -27   2   73.39   24.80
 -21  -6  -2   99.29   20.50
  27 -21  -2   67.29   20.40
  -6  27  -2   79.49   16.40
  -6  27  -2   87.89   12.70
  21 -27   2   60.69   25.40
   6  21   2  100.89   30.80
  21   7   2  105.19   25.90
  28  -7  -2   98.09   16.70
  -7 -21  -2   79.29   16.30
   7 -28   2  116.09   25.90
 -21  28  -2   81.19   18.10
  28  -7  -2   89.39   21.70
 -28  21   2   95.29   19.00
  -7  28  -2   89.09   17.80
  28 -21  -2   57.29   20.70
  21 -28   2   80.99   28.80
   7  21   2   90.39   29.30
 -21  -7  -2  102.29   21.40
  -7  28  -2   94.09   13.10
   8 -29   2  166.88   27.50
  29  -8  -2  168.08   30.20
  -8 -21  -2  166.18   22.50
 -29  21   2  228.88   28.60
 -21  29  -2  199.78   24.30
  29  -8  -2  192.48   18.50
 -21  -8  -2  170.38   23.60
  29 -21  -2  119.79   33.00
   8  21   2  174.08   44.70
  21 -29   2  203.38   34.90
  21   9   2   29.70   25.20
 -30  21   2   19.00   20.00
  30  -9  -2   20.80   11.90
   9 -30   2   10.20   23.20
 -21  30  -2   18.50   15.60
  -9 -21  -2   14.80   14.20
  30  -9  -2   19.00   21.60
  21 -30   2   31.20   26.60
   9  21   2   13.50   26.50
  -9  30  -2   28.60   15.70
 -21  -9  -2   20.30   15.50
  10 -31   2   17.90   24.60
 -21  31  -2   17.50   15.40
 -10 -21  -2   12.70   15.10
 -31  21   2   33.10   18.00
  31 -10  -2   38.60   22.00
  21  10   2   16.00   25.60
 -21 -10  -2   25.50   16.40
  10  21   2   33.40   25.70
  21 -31   2   29.00   28.10
 -10  31  -2    8.70   16.30
  22 -11   2  158.18   29.00
  11  11  -2   95.49   12.40
  22 -11   2  100.09   19.30
  11  11  -2   89.89   14.60
  11  11  -2  135.39   18.80
 -11  22   2   51.09   30.00
 -11  22   2  100.29   19.10
 -12  22   2    2.30   11.90
  12  10  -2    4.60   11.90
 -12  22   2  -31.90   27.50
  22 -10   2   -1.00   18.90
  10 -22  -2   26.00   19.10
  22 -10   2   12.80   25.10
  12  10  -2    0.80    8.50
  12 -22  -2   34.50   19.90
  10  12  -2    8.50   12.10
 -10  22   2   -2.10   11.80
  10  12  -2    4.90   12.30
  10  12  -2   -3.90    8.60
  22 -12   2   -4.40   16.80
  22 -12   2   26.50   26.10
 -10  22   2  -42.70   29.20
 -13  22   2   -2.40   27.90
 -13  22   2   20.70   12.50
  13   9  -2   19.70    9.60
   9 -22  -2   51.39   19.70
  22  -9   2   14.30   20.30
  13   9  -2   18.20   12.50
  22  -9   2   63.69   25.70
  -9  22   2   25.90   12.80
  13 -22  -2   68.59   20.50
   9  13  -2   25.70    9.00
  22 -13   2   31.40   26.20
   9  13  -2   31.60   13.20
  -9  22   2  -32.90   29.80
   9  13  -2   20.00   12.50
  14   8  -2   56.09   13.40
 -14  22   2   51.69   12.90
  22  -8   2   52.39   22.80
  14   8  -2   69.69   10.90
   8 -22  -2   73.49   19.60
  22  -8   2  116.79   27.20
 -14  22   2    7.50   28.90
   8  14  -2   63.69   13.90
   8  14  -2   79.39   15.20
  -8  22   2   55.89   14.00
  22 -14   2   54.89   16.40
  14 -22  -2  111.39   22.30
  22 -14   2   78.09   26.90
  -8  22   2   28.30   30.80
   8  14  -2   69.69   10.20
  22  -7   2   36.80   23.00
 -15  22   2   71.59   13.20
  15   7  -2   49.30   13.10
 -15  22   2   26.90   29.80
   7 -22  -2   74.79   19.10
  15   7  -2   52.99   10.90
   7  15  -2   60.49   13.60
  22 -15   2   60.69   15.60
  -7  22   2   29.00   31.80
  22 -15   2   82.69   27.00
 -22   7  -2   26.60   15.30
   7  15  -2   53.89   14.00
   7  15  -2   53.59   10.40
  -7  22   2   53.39   14.20
  15 -22  -2   96.19   22.30
   6 -22  -2   71.39   19.30
 -16  22   2    6.50   26.50
 -16  22   2   44.00   12.60
  22  -6   2    9.60   23.40
  16   6  -2   51.19   11.50
  16   6  -2   38.00   13.10
   6  16  -2   47.10   10.10
  16 -22  -2   79.89   22.40
 -22   6  -2   15.80   16.00
  -6  22   2   44.00   14.50
   6  16  -2   56.99   13.60
  22 -16   2   43.50   12.90
  22 -16   2   58.99   26.30
   6  16  -2   49.00   13.90
  -6  22   2   19.90   32.50
   5 -22  -2  124.79   20.40
  17   5  -2   99.49   14.90
 -22  17  -2   58.59   18.20
 -17  22   2  100.09   19.50
  22  -5   2  105.99   26.20
 -17  22   2   65.99   28.50
  17   5  -2  103.29   18.50
   5  17  -2  112.29   18.80
  22 -17   2  133.19   28.60
  -5  22   2  115.09   20.80
  22 -17   2   94.59   15.60
  17 -22  -2  135.49   23.90
 -22   5  -2   84.99   16.90
   5  17  -2  102.69   13.50
   5  17  -2   91.79   17.70
  -5  22   2   91.19   33.80
 -18  22   2   53.89   28.90
   4 -22  -2  104.39   19.40
  22  -4   2   86.49   25.60
  18   4  -2  102.29   18.30
 -18  22   2   87.29   14.20
  18   4  -2  102.89   15.20
  18 -22  -2  114.49   23.20
  22 -18   2  125.59   28.20
   4  18  -2  102.09   14.20
  -4  22   2  112.19   21.10
  -4  22   2   54.29   34.60
   4  18  -2   93.99   15.10
 -22   4  -2   94.89   17.40
   4  18  -2   87.49   16.70
   3 -22  -2   15.80   17.50
  19   3  -2   17.00   14.60
  19   3  -2   19.00   13.10
 -19  22   2   13.90   12.10
 -19  22   2  -13.10   26.80
  22  -3   2   -7.00   25.00
  -3  22   2   26.30   14.00
   3  19  -2   20.20   13.20
 -22   3  -2   18.90   15.80
  22 -19   2   26.00   25.90
  19 -22  -2   67.99   22.90
  -3  22   2  -15.60   34.10
   3  19  -2   15.20    9.40
   3  19  -2   16.40   14.30
  20   2  -2    8.30   12.80
  22  -2   2   12.60   25.20
 -20  22   2    7.70   11.50
  20   2  -2    5.90   13.50
 -22  20  -2  -20.60   16.60
   2 -22  -2   24.90   18.00
 -20  22   2  -24.40   24.80
  20 -22  -2   28.50   22.00
 -22   2  -2   20.80   15.00
   2  20  -2   15.20   18.10
   2  20  -2   10.50   12.40
   2  20  -2    3.60    9.90
  -2  22   2   10.70   13.70
  -2  22   2  -10.40   32.80
  22 -20   2    9.30   26.40
 -22  21  -2  -18.30   16.10
  21   1  -2   13.90   16.30
  21   1  -2   20.50   12.40
 -21  22   2   20.30   12.00
  22  -1   2    4.70   25.90
 -21  22   2  -34.40   25.00
  22  -1   2   35.60   17.40
  -1  22   2   -1.00   33.00
   1  21  -2   29.40   16.20
  22 -21   2   32.40   25.70
  -1  22   2   15.40   13.30
   1  21  -2   20.40   10.10
  21 -22  -2   20.50   22.60
   1  21  -2   22.90   12.80
 -22   1  -2   23.50   14.00
  22   0  -2   56.59   16.30
 -22  22   2   33.70   12.50
   0 -22  -2   53.49   17.00
 -22  22   2   32.50   22.70
  22   0   2   27.70   25.20
  22   0  -2   43.40   12.90
  22   0   2   65.29   17.10
 -22  22  -2   12.10   16.90
  22 -22  -2   40.40   20.70
   0  22  -2   49.40   10.40
   0  22  -2   50.29   13.10
  22 -22   2   53.19   26.10
   0  22   2   36.90   15.10
   0  22   2   35.90   32.30
   0  22  -2   44.30   15.70
 -22   0  -2   43.40   15.60
  23  -1  -2  420.16   30.00
  23  -1  -2  371.76   26.10
  22   1   2  336.77   39.70
 -23  22   2  389.96   26.80
 -22  23  -2  401.96   32.20
  -1 -22  -2  366.76   29.00
 -23  22   2  404.36   36.50
  -1  23  -2  378.36   31.20
  22 -23   2  409.16   42.30
  23 -22  -2  320.27   35.20
   1  22   2  442.46   45.80
 -22  -1  -2  335.07   30.90
  -1  23  -2  400.66   26.80
 -22  24  -2   54.99   17.70
 -24  22   2   81.19   22.30
  -2 -22  -2   80.39   18.60
  24  -2  -2  103.49   21.50
 -24  22   2  102.09   17.70
  24  -2  -2  102.39   16.60
  22   2   2   61.19   25.10
  22 -24   2   84.59   26.70
 -24   2   2   70.59   15.10
  24 -22  -2   76.19   22.60
   2  22   2  110.99   32.80
  -2  24  -2  103.49   17.40
  -2  24  -2   70.89   17.80
  22   3   2   67.09   24.60
   3 -25   2   51.89   23.90
  25  -3  -2   75.59   19.40
 -25  22   2   73.09   21.20
  25  -3  -2   84.79   13.80
 -22  25  -2   63.69   17.70
  22 -25   2   59.49   25.60
  -3  25  -2   59.29   16.60
  25 -22  -2   61.39   21.00
  -3  25  -2   75.09   12.90
   3  22   2   73.09   32.00
 -22  -3  -2   61.19   16.00
 -26  22   2   28.60   11.80
  -4 -22  -2    9.70   14.50
   4 -26   2   -3.90   22.40
 -26  22   2    7.00   18.70
  22   4   2    9.70   23.10
 -22  26  -2   11.40   15.80
  26  -4  -2   23.80   11.80
  26  -4  -2    2.00   17.40
   4  22   2   12.40   28.20
  26 -22  -2   14.30   19.50
  -4  26  -2   10.40   11.00
 -22  -4  -2   31.50   13.80
  22 -26   2   32.70   25.30
  -4  26  -2   23.50   15.10
  -5 -22  -2   23.10   14.60
  22   5   2   16.90   24.10
   5 -27   2   11.10   22.20
  27  -5  -2    5.50   16.90
  27  -5  -2   19.90   11.70
 -27  22   2   14.60   20.20
 -22  27  -2   18.40   15.90
  -5  27  -2   17.40   11.10
 -22  -5  -2   38.10   14.40
   5  22   2   37.60   29.20
  -5  27  -2   30.00   15.40
  22 -27   2   29.00   25.40
  27 -22  -2    2.40   19.20
  22   6   2    9.80   24.50
  -6 -22  -2   19.60   14.10
  28  -6  -2    8.10   18.50
  28  -6  -2   22.80   11.60
 -28  22   2   28.60   19.10
   6 -28   2   16.00   22.30
  28 -22  -2   -8.10   19.50
  -6  28  -2   13.20   14.70
  -6  28  -2   11.40   15.80
   6  22   2   40.60   28.30
  29  -7  -2   51.89   21.00
  -7 -22  -2   59.59   16.10
   7 -29   2   38.60   25.80
 -29  22   2   50.29   22.10
 -22  29  -2   38.20   16.20
  29  -7  -2   46.90   12.70
  22 -29   2   72.09   27.50
  29 -22  -2  -30.50   28.80
  -7  29  -2   56.09   12.90
 -22  -7  -2   51.79   15.70
 -22  30  -2   17.60   15.80
   8 -30   2   10.40   25.40
  -8 -22  -2   15.90   14.90
  30  -8  -2   11.20   23.10
  22   8   2   16.70   25.40
 -30  22   2   17.90   18.10
 -22  -8  -2   18.50   15.10
   8  22   2   44.70   27.60
  -8  30  -2   16.30   15.80
  22 -30   2   35.10   27.70
   9 -31   2  153.58   29.30
  31  -9  -2  117.89   27.00
 -31  22   2  138.39   24.30
  31  -9  -2  119.39   17.20
  22   9   2   88.09   26.90
 -22  31  -2  125.69   24.30
  -9 -22  -2  126.79   21.90
  22 -31   2  114.09   31.70
  -9  31  -2   84.59   19.30
 -22  -9  -2  125.29   24.40
  31 -22  -2   58.49   21.80
   9  22   2  124.99   29.70
  12  11  -2   67.19   10.70
 -23  12  -2   27.60   16.50
  11 -23  -2  102.39   21.60
  23 -11   2   73.49   19.90
 -12  23   2    3.70   30.10
 -12  23   2   69.89   14.60
  12  11  -2   58.19   14.10
  11  12  -2   64.69   14.20
 -11  23   2    0.70   31.20
 -23  11  -2   44.50   16.50
  23 -12   2   67.19   18.80
  12 -23  -2  111.69   21.60
  11  12  -2   71.29   10.70
  23 -12   2  143.79   29.50
  11  12  -2  100.39   19.50
 -11  23   2   62.29   14.60
  13  10  -2  122.29   13.50
 -13  23   2  125.69   20.40
  13  10  -2  125.69   19.20
  10 -23  -2  195.38   29.00
 -13  23   2   60.69   30.50
  23 -10   2  143.49   22.60
 -10  23   2   97.19   33.30
 -10  23   2  127.29   21.30
  10  13  -2  119.49   20.10
  10  13  -2  160.68   22.10
  13 -23  -2  190.48   29.60
  23 -13   2  191.88   30.70
  10  13  -2  125.39   13.50
  23 -13   2  131.39   24.20
  23  -9   2   64.99   21.50
  23  -9   2  162.48   30.30
 -14  23   2   11.30   28.80
   9 -23  -2  103.79   21.30
 -23  14  -2   33.90   17.00
  14   9  -2   73.99   11.40
 -14  23   2   73.89   14.30
  14   9  -2   63.09   14.30
  -9  23   2   78.29   15.10
  14 -23  -2   89.39   22.70
   9  14  -2   85.79   15.50
   9  14  -2   79.39   13.50
  23 -14   2  111.89   28.10
   9  14  -2   68.69   14.60
  -9  23   2   15.00   31.40
  15   8  -2  108.99   13.40
  23  -8   2  110.69   24.00
   8 -23  -2  130.69   21.50
 -15  23   2   41.70   29.40
 -15  23   2  102.59   19.70
  15   8  -2  103.19   18.60
   8  15  -2  142.89   20.10
  23 -15   2  150.08   28.90
  23 -15   2  132.39   21.40
   8  15  -2  109.69   13.50
 -23   8  -2   77.89   17.90
  -8  23   2   74.99   33.10
  15 -23  -2  115.59   23.30
   8  15  -2  104.59   20.50
  -8  23   2  115.19   21.60
 -16  23   2  120.99   19.70
  16   7  -2  120.09   20.20
  23  -7   2  106.69   25.50
 -23  16  -2   87.59   20.40
  16   7  -2  105.09   14.00
   7 -23  -2  126.69   20.70
   7  16  -2  115.49   21.40
  23 -16   2  140.09   28.60
   7  16  -2  109.99   14.00
  -7  23   2  116.59   20.80
  16 -23  -2  157.78   24.80
  -7  23   2  108.99   34.60
   7  16  -2  127.99   20.10
  23 -16   2  101.09   18.50
  17   6  -2  204.08   21.10
 -17  23   2  216.08   22.40
   6 -23  -2  208.88   27.20
  23  -6   2  205.38   29.50
  17   6  -2  236.98   19.60
 -17  23   2  151.78   32.50
  23 -17   2  283.67   38.20
  -6  23   2  218.78   24.60
  -6  23   2  227.58   37.20
   6  17  -2  204.38   16.50
   6  17  -2  230.08   22.20
   6  17  -2  215.68   24.20
  23 -17   2  207.78   20.70
  17 -23  -2  204.28   32.20
 -23   6  -2  154.38   28.70
  23  -5   2  224.48   30.80
   5 -23  -2  213.58   27.10
 -18  23   2  235.58   22.70
 -18  23   2  151.18   32.30
  18   5  -2  246.48   18.80
  18   5  -2  208.38   21.80
   5  18  -2  221.08   17.00
  -5  23   2  243.98   38.60
  -5  23   2  225.08   24.00
  18 -23  -2  226.28   33.00
 -23   5  -2  198.88   25.50
   5  18  -2  226.98   22.20
  23 -18   2  254.87   38.30
   5  18  -2  223.78   24.10
  19   4  -2  140.39   19.70
  23  -4   2  123.89   27.00
   4 -23  -2  132.99   20.70
  19   4  -2  132.59   20.40
 -19  23   2  131.89   19.30
  -4  23   2  127.29   36.00
  -4  23   2  147.49   21.20
   4  19  -2  127.89   19.30
  23 -19   2  142.89   28.80
  19 -23  -2  121.69   24.70
   4  19  -2  113.69   13.60
   4  19  -2  113.29   21.00
 -23   4  -2   96.69   18.20
 -20  23   2  169.78   31.60
  23  -3   2  206.68   37.00
 -23  20  -2  149.49   28.00
 -20  23   2  200.88   22.40
  20   3  -2  222.08   22.40
  20   3  -2  265.17   24.10
   3 -23  -2  222.48   25.40
  23  -3   2  300.97   30.20
  -3  23   2  259.67   38.80
   3  20  -2  257.07   22.90
  20 -23  -2  204.88   32.70
  23 -20   2  246.58   36.00
   3  20  -2  204.98   17.60
 -23   3  -2  207.68   25.40
   3  20  -2  220.08   25.20
  -3  23   2  255.77   24.20
 -21  23   2   84.69   27.80
  21   2  -2  129.29   18.70
   2 -23  -2  126.69   20.30
 -23  21  -2   88.59   19.30
  21   2  -2  157.28   18.20
  23  -2   2  130.99   28.70
 -21  23   2  134.49   18.80
  23  -2   2  130.99   23.00
  21 -23  -2  154.68   25.00
  23 -21   2  135.39   28.70
  -2  23   2  160.38   36.10
 -23   2  -2  118.29   23.00
   2  21  -2  135.09   25.00
   2  21  -2  151.38   20.00
  -2  23   2  127.79   20.50
   2  21  -2  135.89   14.40
  22   1  -2   21.80   15.00
  22   1  -2   32.10   12.90
 -23  22  -2  -12.50   15.90
 -22  23   2  -17.40   24.60
   1 -23  -2    4.90   17.10
  23  -1   2   33.30   17.70
  23  -1   2   14.30   25.00
 -22  23   2   12.50   11.90
   1  22  -2   25.70   12.70
   1  22  -2   16.50    9.90
   1  22  -2   17.90   14.30
  23 -22   2   23.60   26.00
 -23   1  -2   22.90   14.00
  -1  23   2    9.20   12.80
  22 -23  -2   36.80   21.40
  -1  23   2    7.30   32.20
  23   0   2  121.19   27.60
  23   0  -2  144.29   18.20
   0 -23  -2  137.89   23.10
  23   0  -2  135.39   20.00
 -23  23   2  117.59   27.20
 -23  23   2  143.99   19.10
   0  23  -2  146.89   25.50
   0  23   2  136.99   21.70
  23 -23  -2  122.19   23.80
   0  23  -2  133.79   18.90
   0  23   2  154.78   33.30
  23 -23   2  145.49   28.50
 -23   0  -2  154.08   21.60
  24  -1  -2   61.39   18.90
 -24  23   2   57.09   24.10
 -24  23   2   85.29   17.00
  -1 -23  -2   43.00   16.50
  24  -1  -2   75.39   13.60
 -23  24  -2   50.39   16.90
  23   1   2   49.20   25.50
  -1  24  -2   75.49   13.90
 -23  -1  -2   61.49   15.30
  23 -24   2   38.40   25.20
  24 -23  -2   86.89   22.60
  -1  24  -2   61.49   16.10
   1  23   2   38.10   31.10
 -25  23   2  237.38   21.30
  25  -2  -2  207.68   19.80
  25  -2  -2  230.88   26.30
 -25  23   2  203.28   33.00
  -2 -23  -2  171.28   24.10
 -23  25  -2  206.38   26.50
  23   2   2  176.58   29.20
   2 -25   2  228.98   31.60
 -25   2   2  248.68   22.20
  -2  25  -2  193.68   24.60
  -2  25  -2  185.58   19.50
  23 -25   2  232.48   37.30
   2  23   2  260.37   44.50
  25 -23  -2  177.88   25.70
 -23  -2  -2  202.18   24.20
 -23  26  -2  155.98   26.40
   3 -26   2  164.88   26.90
  26  -3  -2  169.68   24.60
 -26  23   2  144.89   25.60
  23   3   2  151.28   27.30
  26  -3  -2  165.38   18.10
  23 -26   2  126.09   28.20
  -3  26  -2  146.69   18.60
  -3  26  -2  153.18   25.10
   3  23   2  160.38   33.50
  26 -23  -2  124.09   24.30
 -23  -3  -2  120.59   23.20
  27  -4  -2  259.27   21.20
 -27  23   2  302.17   22.80
  23   4   2  239.08   38.80
 -27  23   2  237.28   32.90
   4 -27   2  257.17   41.80
 -23  27  -2  249.38   31.30
  27  -4  -2  255.77   28.30
  -4 -23  -2  227.58   27.30
  -4  27  -2  246.98   28.20
  27 -23  -2  178.18   29.50
  23 -27   2  264.87   43.70
   4  23   2  252.97   44.20
  -4  27  -2  245.98   21.80
 -23  -4  -2  254.97   26.10
 -28  23   2   46.70   13.20
  28  -5  -2   18.90   11.90
  -5 -23  -2   22.60   14.50
 -23  28  -2   16.00   16.10
   5 -28   2   16.20   23.30
 -28  23   2    1.90   19.60
  28  -5  -2    1.30   17.10
  23   5   2   21.20   24.60
  -5  28  -2   20.40   16.10
 -23  -5  -2   20.70   14.70
   5  23   2   27.50   28.90
  -5  28  -2    8.50   11.60
  23 -28   2   18.70   27.90
  29  -6  -2   21.70   19.50
   6 -29   2   37.70   23.30
 -23  29  -2   28.30   16.20
  23   6   2    6.40   27.30
 -29  23   2   -0.10   22.70
  29 -23  -2  -23.50   18.80
  23 -29   2   50.89   28.00
  -6  29  -2   26.80   11.30
 -23  -6  -2   25.40   15.40
  -6  29  -2   16.60   16.90
   7 -30   2  -15.80   23.10
  30  -7  -2   -3.90   19.40
  23   7   2    5.10   27.00
  -7 -23  -2   15.50   14.50
 -23  30  -2    9.40   15.80
 -30  23   2   11.60   19.90
  30  -7  -2   15.30   12.10
  23 -30   2   40.30   27.70
  -7  30  -2   16.50   16.10
 -23  -7  -2   11.80   15.20
   7  23   2   21.20   28.30
  31  -8  -2    7.50   12.10
  -8 -23  -2   -2.00   14.50
  23   8   2   10.40   25.30
  31  -8  -2  -30.20   20.50
   8 -31   2   18.70   25.00
 -23  31  -2    2.70   15.90
 -31  23   2    7.10   19.80
  23 -31   2   28.80   30.10
 -23  -8  -2   13.20   16.50
  -8  31  -2    6.50   17.10
   8  23   2   36.20   27.40
  31 -23  -2  -27.50   19.30
  24 -12   2  134.29   21.60
  12  12  -2  131.69   14.90
 -12  24   2   63.49   32.60
  12 -24  -2  133.79   23.20
 -24  12  -2   90.79   19.10
  12  12  -2  118.59   18.90
 -12  24   2  118.39   21.10
  13  11  -2    7.00    9.30
 -13  24   2   11.80   13.10
 -24  13  -2  -28.80   16.30
  11 -24  -2   38.90   20.30
  24 -11   2    9.60   19.00
  13  11  -2    9.10   13.10
 -13  24   2  -52.79   28.40
  11  13  -2    2.50   13.30
  11  13  -2    8.50   15.20
 -24  11  -2  -26.30   15.90
  13 -24  -2   25.80   21.30
  24 -13   2    1.90   17.80
  11  13  -2    8.50    8.90
 -11  24   2  -40.70   29.50
 -11  24   2    2.10   13.00
  24 -13   2   69.89   29.40
  14  10  -2   19.20   13.30
 -14  24   2   30.50   13.50
  24 -10   2   29.30   20.60
  14  10  -2   30.80   10.20
  10 -24  -2   50.29   20.60
  24 -14   2   87.59   29.40
  10  14  -2   27.60   13.50
  10  14  -2   34.40   10.50
  24 -14   2   39.40   16.90
 -10  24   2  -26.60   29.70
 -10  24   2   26.20   13.70
  14 -24  -2   43.60   21.60
  10  14  -2   38.90   15.20
  24  -9   2  123.59   23.10
  15   9  -2  134.89   19.50
   9 -24  -2  123.39   22.50
  15   9  -2  121.39   14.20
 -15  24   2  111.09   20.80
   9  15  -2  115.59   13.60
  -9  24   2  104.59   33.50
  24 -15   2  183.08   31.40
   9  15  -2  104.59   19.00
  24 -15   2  121.19   20.40
   9  15  -2  140.69   21.80
  15 -24  -2  131.19   24.50
 -24   9  -2   78.89   18.20
  -9  24   2  121.89   21.00
 -16  24   2   22.10   13.30
  16   8  -2   23.30   10.00
   8 -24  -2   40.50   19.90
  24  -8   2   12.00   21.10
  16   8  -2   35.50   13.20
   8  16  -2   25.20    9.40
  16 -24  -2   45.50   22.40
 -24   8  -2  -16.10   16.90
  -8  24   2   18.20   14.20
  24 -16   2   32.30   14.50
  24 -16   2   83.19   28.60
   8  16  -2   19.50   17.80
  -8  24   2   21.90   31.70
   8  16  -2   32.00   13.70
  17   7  -2   24.30   13.00
 -17  24   2   20.90   12.90
  17   7  -2   25.20   10.60
   7 -24  -2   21.90   19.00
  24  -7   2   18.50   21.80
   7  17  -2   18.60   13.40
  24 -17   2   21.60   12.50
  24 -17   2   63.89   27.90
   7  17  -2   23.00   13.90
  17 -24  -2   29.70   21.70
 -24   7  -2   -9.50   17.10
  -7  24   2    6.70   31.40
  -7  24   2   17.40   14.50
   7  17  -2   16.90    9.30
  18   6  -2  146.79   19.40
  18   6  -2  148.99   15.60
   6 -24  -2  153.68   22.40
 -18  24   2  166.28   21.10
  24  -6   2  168.68   26.60
  -6  24   2  151.08   23.20
  -6  24   2  173.08   36.70
  18 -24  -2  167.28   29.40
  24 -18   2  149.39   16.60
  24 -18   2  200.08   31.80
   6  18  -2  151.58   20.50
   6  18  -2  154.98   14.60
   6  18  -2  141.59   21.70
 -18  -6   2  110.09   17.60
  19   5  -2  100.99   15.00
  19   5  -2  128.39   18.60
   5 -24  -2   97.29   20.60
  24  -5   2   95.79   25.50
 -19  24   2  104.19   20.00
   5  19  -2  119.09   22.00
  19 -24  -2  104.89   24.70
 -24   5  -2   75.99   17.20
   5  19  -2  120.49   13.60
  -5  24   2   79.89   34.70
  24 -19   2  112.09   29.40
  -5  24   2  110.19   23.00
   5  19  -2  123.49   20.70
  20   4  -2  308.07   24.90
  20   4  -2  334.27   22.70
 -20  24   2  313.07   24.20
  24  -4   2  301.57   35.10
 -20  24   2  203.38   33.20
  24  -4   2  304.07   31.40
   4 -24  -2  241.58   28.10
 -24  20  -2  251.07   30.30
   4  20  -2  326.47   25.10
 -24   4  -2  221.78   28.10
  -4  24   2  292.37   27.40
   4  20  -2  298.07   26.80
   4  20  -2  284.07   19.90
  24 -20   2  354.36   40.70
  20 -24  -2  293.67   32.00
  -4  24   2  333.57   47.30
  24  -3   2   20.90   18.40
   3 -24  -2    5.50   17.10
  21   3  -2   15.80   12.20
 -21  24   2    8.40   12.00
  24  -3   2   15.90   23.90
  21   3  -2    7.60   13.40
  -3  24   2    9.90   32.60
   3  21  -2   21.40   12.80
  24 -21   2   10.90   25.60
  21 -24  -2   12.40   21.90
  -3  24   2    8.70   13.80
   3  21  -2   10.50   13.50
 -24   3  -2    2.10   16.40
   3  21  -2    8.80    9.20
  22   2  -2  129.09   18.00
  22   2  -2  118.19   19.20
  24  -2   2   77.49   25.70
 -22  24   2   44.60   26.70
 -22  24   2  115.99   18.20
   2 -24  -2  121.99   20.50
  24  -2   2  114.39   22.80
   2  22  -2   89.69   18.30
   2  22  -2  131.69   18.90
  22 -24  -2  100.99   23.30
  -2  24   2  112.79   34.60
  24 -22   2  136.39   28.30
  -2  24   2  108.39   20.50
   2  22  -2  106.29   13.90
 -24   2  -2   73.39   18.10
  24  -1   2   10.10   23.50
  23   1  -2   19.60   13.60
 -23  24   2  -16.70   25.20
   1 -24  -2   11.30   16.00
 -24  23  -2    7.00   15.80
 -23  24   2   26.30   12.00
  23   1  -2   17.50   12.30
  -1  24   2   22.40   12.60
   1  23  -2   22.80   12.90
 -24   1  -2   28.90   14.40
  24 -23   2   34.00   25.40
   1  23  -2   23.30   14.20
  23 -24  -2   25.90   21.60
  -1  24   2   32.60   31.10
  24   0  -2  100.39   19.10
  24   0  -2  120.29   17.10
 -24  24   2  113.09   18.60
 -24  24  -2   64.89   18.00
  24   0   2  114.59   26.70
 -24  24   2   58.09   26.00
  24 -24  -2   86.29   22.80
   0  24  -2  114.39   17.90
   0  24   2  126.29   34.20
  24 -24   2  123.79   29.30
   0  24  -2   80.29   19.40
 -24   0  -2   71.69   16.20
   0  24   2   96.59   16.10
 -25  24   2   37.80   12.10
 -24  25  -2    1.60   15.20
  25  -1  -2   13.80   17.40
  -1 -24  -2   -8.30   15.50
  24   1   2   10.40   23.70
  25  -1  -2   33.20   12.50
 -25  24   2   -5.30   22.50
   1 -25   2   26.70   23.00
  25 -24  -2    8.50   20.70
 -24  -1  -2   37.50   15.10
   1  24   2   44.30   31.70
  24 -25   2   27.80   26.40
  -1  25  -2   14.50   12.20
 -25   1   2   -4.70   13.00
  -1  25  -2   15.30   15.30
   2 -26   2   88.69   26.80
  26  -2  -2   89.09   20.30
 -26  24   2  116.19   18.80
  26  -2  -2   95.69   16.50
  24   2   2   82.59   25.30
 -24  26  -2   90.29   18.60
 -26  24   2   49.10   23.80
  -2  26  -2   93.09   14.80
  -2  26  -2   78.29   16.90
  26 -24  -2   70.89   22.60
   2  24   2  101.39   33.30
 -24  -2  -2   63.69   16.40
  24 -26   2   90.79   27.60
   3 -27   2  102.09   27.20
  24   3   2   71.79   25.80
 -27  24   2   97.19   23.70
  27  -3  -2  116.79   17.30
  27  -3  -2  139.09   23.80
 -27  24   2  152.98   19.70
   3  24   2  156.78   34.00
  -3  27  -2  105.89   16.20
  -3  27  -2  108.99   18.60
  -4 -24  -2   33.60   14.90
 -28  24   2   58.99   13.60
  24   4   2   33.10   24.80
  28  -4  -2    5.30   19.80
 -28  24   2   21.20   21.00
   4 -28   2   37.90   23.70
 -24  28  -2   16.10   16.80
  -4  28  -2   19.60   13.40
  -4  28  -2   32.00   21.80
 -24  -4  -2   33.30   15.60
  24 -28   2   45.40   27.30
  28 -24  -2   -5.90   20.70
   4  24   2   54.79   30.60
  29  -5  -2   49.60   19.60
 -24  29  -2   39.60   17.00
  -5 -24  -2   52.69   22.20
   5 -29   2   69.09   25.30
 -29  24   2   49.00   25.30
  29  -5  -2   43.00   13.40
  24   5   2   46.40   26.40
 -24  -5  -2   35.00   16.90
   5  24   2   26.60   36.70
  -5  29  -2   48.60   13.30
  29 -24  -2   12.20   19.40
  -5  29  -2   36.60   16.60
  24 -29   2   70.39   29.10
  24   6   2  -11.20   23.60
  -6 -24  -2    0.00   14.80
 -30  24   2   -4.00   20.80
 -24  30  -2    5.60   15.80
  30  -6  -2   -5.90   20.50
   6 -30   2    1.10   23.60
  30  -6  -2    6.90   12.10
  -6  30  -2    5.90   15.30
   6  24   2   36.00   29.10
  -6  30  -2  -13.50   12.30
  30 -24  -2  -34.40   18.60
  24 -30   2   27.20   28.70
 -24  -6  -2    8.60   13.90
  13  12  -2   17.70   13.20
 -13  25   2   16.80   13.70
  25 -12   2   36.60   20.80
  12 -25  -2   36.50   21.10
  13  12  -2   15.00    9.50
  13 -25  -2   36.70   21.00
  25 -13   2   28.10   19.00
  12  13  -2   23.70    9.20
  12  13  -2   17.10   13.20
 -12  25   2   17.20   13.90
  25 -11   2  184.58   29.00
 -14  25   2  173.88   21.90
  11 -25  -2  165.98   23.90
  14  11  -2  164.38   19.80
 -25  14  -2  111.69   19.90
  14  11  -2  183.38   16.20
  11  14  -2  148.89   20.60
  14 -25  -2  197.18   30.80
  25 -14   2  176.78   26.70
  11  14  -2  156.48   20.00
  11  14  -2  166.08   15.40
 -11  25   2  141.69   21.60
 -11  25   2  123.69   32.40
 -25  11  -2  118.79   19.30
  25 -10   2  132.39   23.90
  10 -25  -2  143.49   22.90
  15  10  -2  115.49   13.00
  15  10  -2  131.99   20.30
 -15  25   2  108.29   20.00
 -10  25   2   57.79   32.00
  10  15  -2  117.49   14.40
  15 -25  -2  118.09   24.00
  10  15  -2  120.19   21.00
  25 -15   2  152.48   24.10
  10  15  -2  126.89   20.40
 -10  25   2  134.99   21.40
   9 -25  -2  116.59   22.00
  16   9  -2  120.99   15.40
  25  -9   2  128.59   24.40
  16   9  -2  120.79   19.10
 -16  25   2  111.59   21.20
  16 -25  -2  124.79   24.20
  -9  25   2  118.09   33.30
   9  16  -2  107.79   20.60
   9  16  -2  120.59   20.10
  -9  25   2  129.29   22.30
   9  16  -2  115.49   14.20
  25 -16   2  138.29   21.60
  17   8  -2  176.18   21.30
  17   8  -2  166.58   15.50
 -17  25   2  155.48   22.10
  25  -8   2  185.98   30.20
   8 -25  -2  182.98   28.10
  -8  25   2  183.78   23.30
   8  17  -2  154.08   21.00
  -8  25   2  211.08   36.20
  17 -25  -2  177.68   31.50
  25 -17   2  177.38   20.50
   8  17  -2  187.98   22.60
   8  17  -2  173.98   15.90
  25 -17   2  250.07   40.30
  25  -7   2  146.39   24.90
 -18  25   2  134.49   20.90
  18   7  -2  142.79   14.70
  18   7  -2  146.99   20.20
   7 -25  -2  143.29   21.70
   7  18  -2  137.19   14.00
  -7  25   2  156.88   34.90
  18 -25  -2  152.28   25.40
  -7  25   2  140.19   21.00
   7  18  -2  160.18   20.20
  25 -18   2  121.09   18.00
   7  18  -2  118.39   23.50
  25 -18   2  223.48   39.20
  25  -6   2  152.28   25.30
 -19  25   2  101.99   19.90
  25  -6   2   95.09   23.60
   6 -25  -2   94.29   20.30
  19   6  -2  118.19   16.00
  19   6  -2   92.39   15.00
 -25   6  -2   57.39   17.70
  -6  25   2   97.39   20.20
   6  19  -2  106.99   18.70
  -6  25   2  114.29   34.40
  25 -19   2  137.09   30.40
   6  19  -2   92.39   13.10
  19 -25  -2  110.09   24.30
   5 -25  -2  154.78   25.50
 -20  25   2  212.88   21.90
  20   5  -2  220.58   17.70
  25  -5   2  181.78   27.90
  25  -5   2  217.68   32.20
  20   5  -2  207.78   20.40
  -5  25   2  188.38   22.70
   5  20  -2  185.68   16.20
  -5  25   2  219.48   36.60
  25 -20   2  267.67   39.50
   5  20  -2  205.28   20.90
  20 -25  -2  264.47   32.70
 -21  25   2   35.70   12.80
  21   4  -2   31.20   12.50
  25  -4   2   36.60   23.20
  25  -4   2   60.19   19.70
   4 -25  -2   22.50   18.20
  21   4  -2   35.30   13.00
  21 -25  -2   53.99   22.30
  25 -21   2   62.39   27.40
  -4  25   2   67.69   33.30
   4  21  -2   44.50    9.90
   4  21  -2   39.40   13.70
   4  21  -2   38.00   16.30
  -4  25   2   43.30   14.10
 -25   4  -2   20.10   15.40
 -22  25   2   49.30   12.90
  22   3  -2   89.99   16.50
   3 -25  -2   53.79   18.20
  25  -3   2   47.50   22.80
  25  -3   2   61.49   20.50
  22   3  -2   52.99   13.20
   3  22  -2   51.39   10.90
   3  22  -2   53.89   14.20
   3  22  -2   70.19   15.40
  25 -22   2   90.69   28.50
 -25   3  -2   44.50   17.60
  -3  25   2   68.09   33.10
  22 -25  -2   66.59   22.20
  -3  25   2   58.79   14.90
  23   2  -2   14.60   14.10
  23   2  -2   18.50   11.90
 -23  25   2   22.80   11.80
   2 -25  -2   -5.30   17.20
 -25  23  -2   -5.10   15.70
  25  -2   2   18.90   21.20
  -2  25   2   30.60   31.00
   2  23  -2    9.80   15.20
 -25   2  -2   27.90   15.00
   2  23  -2   23.20   13.00
  -2  25   2   14.60   13.70
  25 -23   2   56.09   28.20
  23 -25  -2   37.70   21.40
 -25  24  -2   28.70   16.30
  24   1  -2   51.19   14.50
  25  -1   2   44.80   22.80
   1 -25  -2   13.60   16.60
  24   1  -2   53.89   13.40
 -24  25   2   51.69   12.90
  25 -24   2   59.59   27.60
  -1  25   2   44.80   14.00
 -25   1  -2   28.60   14.80
  24 -25  -2   48.00   21.50
  -1  25   2   84.59   32.60
   1  24  -2   53.59   13.90
   1  24  -2   41.10   15.10
 -25  25   2   85.99   17.70
 -25  25   2   42.60   25.10
  25   0  -2   65.29   13.90
 -25  25  -2   26.80   16.90
  25   0   2   70.49   23.80
   0 -25  -2   60.09   18.00
  25   0  -2   71.19   18.70
  25 -25  -2   60.89   21.70
   0  25   2  101.79   33.30
   0  25  -2   90.59   14.90
  25 -25   2   77.19   29.60
 -25   0  -2   72.39   15.90
   0  25  -2   48.10   17.00
   0  25   2   58.79   14.80
  26  -1  -2  152.98   20.70
  26  -1  -2  152.38   23.90
 -26  25   2  160.88   19.60
   1 -26   2  192.88   29.40
 -26  25   2  128.29   28.00
  25   1   2  139.89   27.10
  -1  26  -2  156.98   20.50
  25 -26   2  176.28   36.00
 -26   1   2  142.59   21.50
  -1  26  -2  137.49   25.00
  27  -2  -2   28.90   19.00
   2 -27   2   22.30   25.10
 -25  27  -2   19.10   16.40
  27  -2  -2   40.90   18.60
 -27  25   2   50.69   13.50
 -27  25   2   16.00   22.40
  25   2   2   33.50   24.50
  25 -27   2   51.79   28.30
 -25  -2  -2   36.50   15.80
   2  25   2   74.89   33.00
  -2  27  -2   24.60   16.80
  -2  27  -2   30.10   13.60
  27 -25  -2    0.90   20.90
 -28  25   2   43.80   13.80
 -25  28  -2    7.50   16.30
  28  -3  -2    7.20   12.30
 -28  25   2  -26.80   24.00
   3 -28   2   23.70   24.30
  28  -3  -2   16.30   19.70
 -25  -3  -2   17.80   15.30
   3  25   2   50.89   32.40
  25 -28   2   46.60   28.50
  28 -25  -2  -31.80   20.10
  -3  28  -2   -0.40   13.40
  29  -4  -2   73.19   14.20
 -29  25   2   53.39   27.50
  29  -4  -2   57.19   24.10
   4 -29   2   92.29   25.50
 -25  29  -2   61.99   18.50
  25   4   2   66.09   26.60
  -4 -25  -2   42.80   16.10
   4  25   2  126.39   33.80
  29 -25  -2   21.20   21.50
 -25  -4  -2   56.39   15.10
  -4  29  -2   70.69   15.90
  25 -29   2   93.49   31.50
  -4  29  -2   47.20   18.20
 -30  25   2   47.80   23.10
  -5 -25  -2   54.29   16.30
   5 -30   2   58.59   25.50
  25   5   2   44.40   25.00
  30  -5  -2   47.70   20.80
 -25  30  -2   51.99   18.30
  30  -5  -2   68.49   14.10
  -5  30  -2   63.99   15.00
  30 -25  -2   10.20   19.90
  25 -30   2   67.49   29.70
   5  25   2   88.99   31.40
 -25  -5  -2   50.49   15.60
  -5  30  -2   41.30   19.20
  13 -26  -2  186.18   28.90
  13  13  -2  178.98   21.30
 -13  26   2  166.38   22.20
 -13  26   2   91.89   31.50
  26 -13   2  198.88   25.60
  13  13  -2  197.18   15.80
  14  12  -2   52.49   14.00
  12 -26  -2   88.49   22.10
  14  12  -2   65.49   11.20
 -14  26   2   63.19   14.60
  26 -12   2   70.29   19.50
 -12  26   2   34.90   28.80
  12  14  -2   79.09   14.30
 -26  12  -2   27.80   16.80
 -12  26   2   64.99   14.60
  26 -14   2   85.39   19.30
  12  14  -2   77.59   12.40
  14 -26  -2   99.79   22.40
  15  11  -2   18.20   12.70
 -15  26   2    1.60   12.50
  15  11  -2   22.30    9.70
  11 -26  -2   18.10   19.80
  26 -11   2   34.70   19.60
 -11  26   2  -21.10   28.60
  26 -15   2   32.30   14.90
 -11  26   2   10.00   13.40
  11  15  -2   17.20    9.30
  11  15  -2   16.10   12.80
  15 -26  -2   47.90   21.80
  11  15  -2   21.10   13.10
 -16  26   2  146.59   21.80
  16  10  -2  170.08   15.50
  26 -10   2  174.08   31.40
  16  10  -2  156.88   20.80
  10 -26  -2  158.98   23.50
  10  16  -2  160.18   14.50
 -10  26   2  182.08   34.20
  26 -16   2  176.08   22.20
  10  16  -2  151.68   21.00
  10  16  -2  169.88   20.80
  16 -26  -2  205.58   30.40
 -10  26   2  144.39   22.00
   9 -26  -2   38.20   19.80
  17   9  -2   41.00   13.10
  17   9  -2   46.90   10.30
 -17  26   2   36.10   13.40
  26  -9   2   42.50   22.00
  -9  26   2   37.90   13.80
  17 -26  -2   60.19   22.30
   9  17  -2   41.10    9.60
  -9  26   2   56.69   30.80
   9  17  -2   33.80   16.00
  26 -17   2   34.30   14.50
  26 -17   2   95.69   29.30
   9  17  -2   57.49   13.80
  18   8  -2  155.28   15.30
 -18  26   2  138.79   20.50
  26  -8   2  178.48   30.70
  18   8  -2  138.39   19.80
   8 -26  -2  128.49   21.60
   8  18  -2  137.29   14.50
  18 -26  -2  148.99   24.90
  -8  26   2  182.88   34.50
   8  18  -2  114.79   20.40
   8  18  -2  134.79   19.70
 -18  -8   2   95.69   19.20
  -8  26   2  131.19   20.80
   7 -26  -2  116.09   20.50
  26  -7   2  125.29   23.70
 -19  26   2   96.59   19.50
  26  -7   2  135.49   23.40
  19   7  -2  107.59   15.80
  19   7  -2  102.49   18.80
  26 -19   2  173.98   30.60
  -7  26   2  103.19   20.50
  -7  26   2  145.89   34.10
   7  19  -2  118.49   19.10
  19 -26  -2  109.99   23.80
   7  19  -2  101.99   12.60
   7  19  -2  103.59   20.00
 -20  26   2   50.79   13.70
  26  -6   2   46.50   20.40
   6 -26  -2   56.29   18.90
  20   6  -2   62.49   13.80
  26  -6   2   47.90   22.60
  20   6  -2   50.09   13.10
  -6  26   2  116.69   33.10
  26 -20   2  111.29   28.40
   6  20  -2   59.39   14.60
   6  20  -2   63.19   10.80
   6  20  -2   78.19   14.30
 -26   6  -2   26.20   17.30
  -6  26   2   50.09   14.50
  20 -26  -2   73.49   23.00
  26  -5   2   62.99   22.20
 -21  26   2   66.39   13.90
  26  -5   2   93.09   21.70
  21   5  -2   70.69   13.50
  21   5  -2   61.49   13.60
   5 -26  -2   57.79   19.00
  26 -21   2  119.59   29.20
 -26   5  -2   28.80   15.40
  -5  26   2  119.19   33.20
  -5  26   2   55.99   15.60
   5  21  -2   76.19   14.40
   5  21  -2   54.99   15.60
  21 -26  -2   67.09   22.40
   5  21  -2   59.29   10.50
 -26  22  -2   19.40   16.20
  26  -4   2   65.49   21.50
  22   4  -2   47.60   15.00
   4 -26  -2   50.59   18.70
  26  -4   2   54.49   23.20
  22   4  -2   55.19   13.50
 -22  26   2   58.89   13.60
   4  22  -2   39.20   17.60
  22 -26  -2   64.49   22.40
  26 -22   2   99.39   28.60
 -26   4  -2   34.10   16.50
  -4  26   2   51.29   14.80
  -4  26   2   95.39   33.60
   4  22  -2   77.19   14.70
  26  -3   2   95.59   24.60
 -23  26   2   90.29   18.10
   3 -26  -2   48.30   18.70
  23   3  -2   89.99   15.70
  23   3  -2   65.79   13.90
 -26   3  -2   72.69   18.80
  -3  26   2   62.19   15.20
  26 -23   2  120.89   29.10
  -3  26   2  133.69   34.20
   3  23  -2  106.99   19.30
   3  23  -2   85.29   16.80
  23 -26  -2   73.39   22.40
  24   2  -2  102.59   18.00
  26  -2   2  106.09   24.00
   2 -26  -2   93.99   19.50
 -24  26   2  118.39   18.70
 -26  24  -2   72.69   17.80
  24   2  -2  119.49   19.70
  26 -24   2  154.08   30.20
  -2  26   2   95.49   15.80
   2  24  -2  107.29   19.10
   2  24  -2   64.59   17.70
  24 -26  -2   95.79   23.40
  -2  26   2  160.68   35.80
 -24  -2   2   60.89   14.20
  25   1  -2   66.19   19.50
  25   1  -2   64.89   18.20
  26  -1   2   88.49   24.00
 -25  26   2   73.39   14.30
   1 -26  -2   27.60   19.00
   1  25  -2   71.79   17.00
   1  25  -2   80.99   15.30
  26 -25   2   93.89   30.90
  -1  26   2   43.80   14.80
  -1  26   2  126.19   35.60
   0 -26   2   56.39   25.40
  26   0   2   28.40   23.20
 -26  26   2  -46.80   25.90
 -26  26  -2   18.70   15.80
 -26  26   2   44.70   13.60
  26   0  -2   37.70   15.40
  26   0  -2   29.30   17.10
   0 -26  -2    3.10   17.00
 -26   0   2   12.50   13.70
   0  26  -2   51.29   14.60
 -26   0  -2   13.40   14.20
  26 -26  -2   23.60   21.40
   0  26  -2   28.60   16.60
   0  26   2  108.99   34.80
   0  26   2   19.70   14.50
  27  -1  -2   37.60   13.40
  26   1   2   29.70   24.10
 -27  26   2  -14.50   27.40
 -27  26   2   60.49   14.20
 -26  27  -2   20.70   17.00
  27  -1  -2   31.60   18.60
   1 -27   2   49.00   25.30
  -1  27  -2   38.40   14.80
  26 -27   2   80.69   29.50
   1  26   2  135.79   35.90
 -26  -1  -2   48.60   17.90
  27 -26  -2   14.70   21.20
   2 -28   2  161.68   28.20
  28  -2  -2  106.59   15.90
 -28  26   2   58.19   28.90
  28  -2  -2  122.89   23.20
 -28  26   2  142.69   20.10
 -26  28  -2   74.49   18.80
   2  26   2  128.69   48.10
 -26  -2  -2   69.39   18.30
  28 -26  -2   53.29   22.60
  -2  28  -2  118.99   16.80
  26 -28   2  106.49   30.60
  -2  28  -2   55.79   20.30
  29  -3  -2   46.80   22.40
  29  -3  -2   59.29   14.30
  26   3   2   62.49   25.10
 -26  29  -2   40.00   18.90
   3 -29   2   48.30   24.40
 -29  26   2   27.10   26.90
  29 -26  -2   13.60   21.50
 -26  -3  -2   49.50   15.30
   3  26   2  117.29   32.90
  -3  29  -2   46.70   19.60
  -3  29  -2   57.89   15.60
  26 -29   2   79.19   31.10
  27 -13   2  116.99   22.30
  14  13  -2   65.99   13.90
  13 -27  -2   97.29   21.70
  14  13  -2   77.49   11.80
 -14  27   2   77.69   15.10
 -13  27   2   75.79   15.50
  13  14  -2   66.49   11.30
  27 -14   2   97.99   18.10
  13  14  -2   77.99   14.10
  14 -27  -2  100.89   22.20
 -13  27   2    0.10   27.90
  27 -12   2  237.18   28.10
  15  12  -2  253.27   20.20
  12 -27  -2  209.98   28.90
 -15  27   2  211.18   23.20
  15  12  -2  196.18   22.00
  12  15  -2  225.58   16.40
  12  15  -2  213.48   22.10
 -12  27   2  205.18   23.10
  15 -27  -2  222.58   30.70
 -12  27   2  253.47   34.40
  27 -15   2  245.18   24.90
  27 -11   2   70.29   20.40
  11 -27  -2   74.29   20.60
  16  11  -2   70.69   13.80
  16  11  -2   60.69   10.30
 -16  27   2   60.29   14.30
  16 -27  -2   75.89   22.00
 -11  27   2   79.79   29.40
 -11  27   2   60.19   14.80
  11  16  -2   56.49   10.10
  11  16  -2   62.89   13.80
  11  16  -2   56.79   14.30
  10 -27  -2   70.59   20.60
  17  10  -2   87.59   11.60
  27 -10   2   97.39   22.40
  27 -10   2  139.19   26.70
  17  10  -2  108.59   19.00
 -17  27   2   72.79   14.60
  17 -27  -2  103.89   22.70
 -17 -10   2  122.69   20.00
  10  17  -2   76.39   12.00
  10  17  -2   87.19   14.70
  10  17  -2   88.29   18.70
 -10  27   2  131.29   30.70
 -10  27   2   76.69   16.10
 -27  18  -2  105.39   20.30
   9 -27  -2  133.09   22.00
  27  -9   2  138.49   25.10
  27  -9   2  143.29   26.60
  18   9  -2  144.99   18.40
 -18  27   2  130.99   20.70
  -9  27   2  124.09   22.10
   9  18  -2  120.59   24.30
   9  18  -2  126.19   19.30
 -18  -9   2   93.79   19.90
  18 -27  -2  157.48   24.40
   9  18  -2  116.89   13.30
  27  -8   2  179.38   30.60
  19   8  -2  123.69   18.00
  19   8  -2  145.29   14.90
  27  -8   2  168.98   24.70
 -19  27   2  122.89   20.20
   8 -27  -2  118.19   20.70
  19 -27  -2  169.88   29.80
   8  19  -2  136.99   20.70
  -8  27   2  144.09   22.10
   8  19  -2   89.09   19.60
   8  19  -2  121.39   13.10
   7 -27  -2   74.79   19.10
  20   7  -2   74.49   14.10
  20   7  -2   84.99   12.80
 -20  27   2   72.89   14.40
  27  -7   2  102.99   24.30
  27  -7   2  103.69   22.20
   7  20  -2   52.49   17.80
  20 -27  -2   98.59   23.00
   7  20  -2   78.69   12.80
  -7  27   2  162.88   34.50
  -7  27   2   60.89   15.30
   7  20  -2  108.99   19.70
  27 -20   2  161.88   30.80
  21   6  -2  157.08   15.40
  27  -6   2  212.98   28.80
 -21  27   2  149.39   21.00
  21   6  -2  153.78   18.90
   6 -27  -2  150.58   22.30
  27  -6   2  177.28   26.60
  -6  27   2  162.58   22.00
  27 -21   2  252.17   39.70
   6  21  -2  138.99   14.90
   6  21  -2  167.68   20.20
  21 -27  -2  129.89   24.70
   6  21  -2  125.69   24.70
 -27  22  -2   68.29   18.90
  27  -5   2  150.18   27.10
 -22  27   2  122.59   20.00
  22   5  -2  110.79   15.00
   5 -27  -2  105.19   21.10
  27  -5   2   82.19   32.30
  22   5  -2  118.09   18.10
  22 -27  -2  117.39   23.90
  -5  27   2  125.89   21.10
  -5  27   2  182.98   36.90
   5  22  -2  139.79   18.90
  27 -22   2  162.58   31.80
 -27   5  -2   76.29   18.60
   5  22  -2  123.79   20.80
  23   4  -2  137.39   22.60
  27  -4   2   98.09   25.70
  27  -4   2  205.28   32.70
  23   4  -2  164.88   18.10
   4 -27  -2  157.88   23.00
 -23  27   2  160.58   20.80
  27 -23   2  247.48   40.80
   4  23  -2  145.49   25.50
   4  23  -2  150.48   21.10
 -27   4  -2  152.58   29.10
  -4  27   2  159.38   23.20
  23 -27  -2  147.99   25.20
  24   3  -2   46.40   16.40
  27  -3   2   24.70   22.30
   3 -27  -2   19.70   18.60
 -24  27   2   36.90   13.10
  -3  27   2   27.00   14.70
   3  24  -2   53.59   15.20
   3  24  -2   39.10   16.80
  -3  27   2   96.09   34.60
  27 -24   2   99.29   30.60
 -25  27   2  152.38   19.90
  27  -2   2  132.79   27.40
   2 -27  -2  122.69   23.20
  25   2  -2  137.09   19.60
  25   2  -2  166.28   21.10
 -27  25  -2  132.19   24.90
  -2  27   2  124.09   22.40
   2  25  -2  159.38   20.80
 -27   2  -2  115.09   21.40
  25 -27  -2  133.39   24.70
  -1 -26   2   24.50   24.60
 -27  26  -2   13.60   17.70
   1 -27  -2   -7.30   18.70
 -26  27   2   40.10   13.70
  26   1  -2   32.70   13.00
  26   1  -2   26.40   18.10
  27  -1   2   37.70   25.80
  26 -27  -2    6.20   21.50
  -1  27   2  126.09   36.70
   1  26  -2   40.10   14.90
  27 -26   2   78.69   31.00
   1  26  -2   48.80   18.00
  -1  27   2   24.10   14.40
 -26  -1   2   -2.20   14.40
 -27   1  -2   21.90   15.50
  27   0  -2   25.00   18.20
  27   0   2   30.20   25.60
  27   0  -2   39.00   13.10
   0 -27   2   27.10   26.00
 -27  27  -2   19.50   16.90
 -27  27   2   51.89   14.70
   0  27  -2   32.90   18.00
  27 -27  -2  -11.20   21.40
   0  27  -2   41.20   15.20
 -27   0  -2   31.60   17.40
  27 -27   2   58.69   30.30
  28  -1  -2   21.50   19.20
  28  -1  -2   25.00   12.80
 -27  28  -2   26.80   18.30
 -28  27   2  -52.89   28.60
   1 -28   2   47.60   25.30
 -27  -1  -2   19.20   16.20
  27 -28   2   91.39   32.40
  28 -27  -2   -8.30   21.30
  -1  28  -2   15.60   17.40
  -1  28  -2   32.90   15.30
  14 -28  -2  218.78   30.40
  14  14  -2  277.97   20.10
 -14  28   2  208.88   24.30
  28 -14   2  257.77   28.60
  14  14  -2  216.48   21.50
  15  13  -2   12.90   11.90
  28 -13   2   33.50   17.20
  15  13  -2   23.20    8.70
  28 -13   2   71.89   25.30
 -15  28   2   16.20   13.20
  13 -28  -2   23.90   19.60
 -28  15  -2  -14.70   16.00
 -13  28   2    6.60   13.30
 -13  28   2  -22.00   25.60
  15 -28  -2   33.60   20.90
 -28  13  -2   -9.70   15.10
  13  15  -2   26.60   11.80
  13  15  -2   19.90   12.50
  28 -15   2   72.79   26.80
  28 -12   2  110.29   26.50
  16  12  -2   64.09   10.70
 -16  28   2   49.00   14.00
  16  12  -2   52.99   13.30
  12 -28  -2   64.69   20.80
  28 -12   2   67.09   20.30
 -12  28   2   33.70   14.10
  12  16  -2   38.40   13.20
  12  16  -2   47.80   12.10
  16 -28  -2   62.89   21.50
 -12  28   2   58.59   28.00
 -28  17  -2  120.49   25.00
  28 -11   2  211.28   32.30
 -17  28   2  188.88   21.60
  28 -11   2  204.68   29.40
  17  11  -2  213.78   15.10
  11 -28  -2  172.98   23.80
  17  11  -2  181.08   19.40
  11  17  -2  150.98   24.40
  11  17  -2  178.08   15.70
  17 -28  -2  172.88   29.50
  11  17  -2  184.98   20.90
 -28  11  -2  135.89   25.60
 -11  28   2  193.18   23.50
  18  10  -2   18.40   12.50
 -18  28   2   16.00   13.10
  28 -10   2   20.90   19.30
  10 -28  -2   12.90   19.00
  28 -10   2   20.10   22.50
  10  18  -2   13.90   13.50
 -10  28   2   17.70   14.30
  10  18  -2   29.20   12.80
  18 -28  -2   39.50   21.30
  10  18  -2   13.30    9.10
  28 -18   2   82.89   28.50
 -28  10  -2  -15.00   15.30
   9 -28  -2   26.60   19.30
  28  -9   2   40.60   19.80
  19   9  -2   13.40   12.20
 -19  28   2    7.90   12.80
  28  -9   2   22.50   21.90
  19   9  -2   22.00    9.80
 -28   9  -2  -13.70   15.60
   9  19  -2    9.90    8.80
  -9  28   2   10.90   13.40
   9  19  -2   27.60   13.10
   9  19  -2   15.50   13.50
  28 -19   2   73.59   28.90
  19 -28  -2   31.60   21.10
  28  -8   2  177.68   29.10
  20   8  -2  121.39   13.00
  28  -8   2  146.59   24.50
   8 -28  -2  102.09   20.90
  20   8  -2  104.19   17.80
 -20  28   2  114.59   20.60
 -20  -8   2   73.59   17.10
   8  20  -2  105.69   19.60
   8  20  -2  107.59   13.00
  -8  28   2  107.49   21.00
   8  20  -2  149.59   20.80
  20 -28  -2  131.39   24.40
  21   7  -2   18.90   10.20
  28  -7   2   27.00   21.70
 -21  28   2   28.10   13.40
  28  -7   2   22.10   22.20
  21   7  -2   24.20   12.80
   7 -28  -2  -16.80   17.60
   7  21  -2    7.80    9.20
   7  21  -2   22.90   13.70
  -7  28   2    1.20   13.30
  28 -21   2   52.39   30.80
   7  21  -2   12.10   14.90
 -28   7  -2   -5.70   16.10
  21 -28  -2   16.50   21.40
 -22  28   2   56.99   14.30
   6 -28  -2   21.70   19.30
  28  -6   2   50.89   25.00
  22   6  -2   45.00   12.00
  28  -6   2    9.40   22.50
   6  22  -2   22.70   16.50
  -6  28   2  141.79   35.50
  28 -22   2   97.39   31.00
  -6  28   2   40.30   15.00
  22 -28  -2   49.90   22.90
   6  22  -2   59.59   14.80
  28  -5   2  130.59   26.40
 -23  28   2  106.39   20.20
  23   5  -2  105.89   18.30
   5 -28  -2   78.69   20.60
  23   5  -2  106.89   15.80
  28 -23   2  173.38   33.70
   5  23  -2   83.79   19.30
   5  23  -2  107.89   19.20
 -28   5  -2   83.49   21.10
  -5  28   2   80.99   16.50
   4 -28  -2   25.30   19.20
 -24  28   2   44.50   14.10
  28  -4   2   27.90   23.00
  24   4  -2   34.20   13.10
  24   4  -2   32.50   13.10
 -28  24  -2   11.30   15.80
  24 -28  -2   23.10   22.10
  -4  28   2   21.40   14.80
   4  24  -2   33.40   15.90
 -28   4  -2   10.40   15.70
  28 -24   2   84.59   35.00
   4  24  -2   34.20   14.90
 -25  28   2   18.50   13.50
  25   3  -2   18.00   12.80
  28  -3   2   14.00   24.40
  25   3  -2   11.50   15.90
   3 -28  -2   -6.90   19.10
 -28  25  -2    4.60   16.50
 -28   3  -2    8.90   17.10
  25 -28  -2   11.40   22.10
   3  25  -2   34.50   15.20
  -3  28   2   14.00   14.40
  28 -25   2   47.50   33.50
   3  25  -2   11.30   17.10
 -26  28   2   35.70   13.70
   2 -28  -2    2.30   19.60
  26   2  -2   19.40   13.40
  -2 -26   2  -21.80   25.30
  28  -2   2   39.90   23.90
 -28  26  -2    9.10   16.60
  26   2  -2   36.10   16.10
   2  26  -2   40.50   15.20
  -2  28   2  135.69   38.50
  26 -28  -2   -4.50   21.70
  -2  28   2   14.10   16.40
  28 -26   2   58.99   30.20
 -28   2  -2   14.40   16.30
  27   1  -2   39.60   20.20
 -27  28   2   48.80   14.60
  27   1  -2   37.10   13.80
 -28  27  -2   39.70   18.60
   1 -28  -2   -5.20   20.10
  28  -1   2   34.60   23.70
  -1 -27   2   69.29   28.20
   1  27  -2   27.30   16.90
  -1  28   2   24.20   15.80
  27 -28  -2    2.70   21.30
 -28   1  -2   33.60   19.10
   1  27  -2   34.20   15.80
  28 -27   2   71.19   31.60
  -1  28   2  137.69   38.30
 -28  28  -2   52.79   19.70
 -28  28   2   80.99   16.10
   0  28   2   58.19   15.90
   0  28  -2   62.39   19.70
 -28   0  -2   45.30   15.70
 -15  29   2   30.90   13.80
  14 -29  -2   44.70   21.10
 -29  15  -2    7.70   15.90
 -14 -15   2   43.30   14.10
  29 -14   2   73.29   25.50
  15  14  -2   47.00   13.30
  15  14  -2   40.00    9.50
  15 -29  -2   47.20   21.40
  14  15  -2   28.50   13.00
  14  15  -2   39.40    9.50
 -29  14  -2   15.60   17.20
 -14  29   2   23.20   13.60
  29 -15   2   94.29   26.90
  29 -13   2  307.87   31.20
  16  13  -2  288.87   18.00
 -16  29   2  283.17   25.40
 -16  29   2  200.98   32.70
  16  13  -2  276.37   23.50
 -29  16  -2  189.38   28.50
  29 -13   2  325.47   35.70
  13 -29  -2  217.28   29.90
  13  16  -2  268.27   23.60
 -16 -13   2  228.98   24.10
  16 -29  -2  249.97   31.60
 -29  13  -2  256.67   30.30
  13  16  -2  263.07   17.60
 -13  29   2  232.28   39.00
 -13  29   2  251.07   25.40
  29 -12   2   68.49   24.20
  17  12  -2   76.29   13.90
 -17  29   2   73.69   14.90
  29 -12   2  102.49   22.10
 -17  29   2   44.00   27.40
  12 -29  -2   67.29   21.10
  17  12  -2   87.59   14.60
  12  17  -2   64.89   10.50
 -12  29   2  106.09   29.50
 -17 -12   2   66.79   13.10
  17 -29  -2  105.39   23.10
 -12  29   2   59.19   15.50
  12  17  -2   71.59   14.20
 -29  12  -2   58.99   19.80
 -18  29   2   74.69   29.30
  18  11  -2  126.49   16.20
  29 -11   2  119.29   24.60
  29 -11   2  140.39   26.20
  18  11  -2  133.59   19.40
 -29  18  -2   53.99   25.60
 -18  29   2  113.39   20.90
  11 -29  -2   99.89   21.70
  11  18  -2  106.59   13.20
 -11  29   2  107.79   22.30
  18 -29  -2  133.59   24.70
  11  18  -2  114.39   18.10
  19  10  -2  140.29   20.90
  29 -10   2  175.18   30.40
  29 -10   2  159.68   26.80
  19  10  -2  156.18   14.30
 -19  29   2  150.08   21.90
  10 -29  -2  149.79   23.60
  19 -29  -2  166.38   26.00
  10  19  -2  169.38   20.60
  10  19  -2  128.19   14.30
 -10  29   2  143.89   22.10
  10  19  -2  121.09   23.50
  29  -9   2  131.99   25.30
 -20  29   2  106.29   20.60
  20   9  -2  106.09   12.70
   9 -29  -2  107.29   22.30
  29  -9   2  124.79   25.80
   9  20  -2   85.29   13.10
   9  20  -2  115.19   19.70
  -9  29   2  109.49   21.30
  20 -29  -2  107.49   24.50
   9  20  -2   69.99   18.60
  29 -20   2  180.98   32.00
  29  -8   2   89.39   25.20
  21   8  -2   79.39   12.80
 -29  21  -2   25.90   18.60
  21   8  -2   74.09   15.40
 -21  29   2   59.39   14.70
  29  -8   2   94.89   25.90
   8 -29  -2   60.69   20.50
 -29   8  -2   27.30   17.90
   8  21  -2   68.09   12.30
   8  21  -2   87.79   15.60
  21 -29  -2   86.09   26.60
   8  21  -2   62.39   19.10
  -8  29   2   68.29   15.90
  29 -21   2  127.49   30.90
  22   7  -2  132.09   19.70
  29  -7   2   75.89   26.30
  22   7  -2  155.28   15.50
   7 -29  -2  115.89   22.00
 -22  29   2  133.79   21.40
  29  -7   2  130.29   25.30
  22 -29  -2  114.29   35.50
   7  22  -2  126.89   25.80
  -7  29   2  115.09   23.20
   7  22  -2  146.89   21.70
  29 -22   2  194.48   33.20
   6 -29  -2   62.99   21.40
  29  -6   2   22.70   25.00
  29  -6   2  115.19   25.90
  23   6  -2  101.19   15.60
  23   6  -2  110.89   19.30
 -23  29   2  108.59   20.70
  23 -29  -2   88.89   24.30
  29 -23   2  158.98   33.20
   6  23  -2   88.49   18.80
 -23  -6   2   69.89   13.40
  -6  29   2   72.59   18.00
   6  23  -2  111.09   17.20
 -29   6  -2   78.39   21.50
  29  -5   2   88.09   25.20
  24   5  -2   61.59   14.10
 -24  29   2   77.19   15.60
   5 -29  -2   35.60   20.30
  24   5  -2   81.99   14.30
   5  24  -2   82.39   16.30
  24 -29  -2   68.69   23.60
  -5  29   2   65.89   16.50
   5  24  -2   52.99   16.20
  25   4  -2   63.59   14.70
 -25  29   2   74.69   15.60
  -4 -25   2   37.70   22.40
  29  -4   2   66.49   26.10
   4 -29  -2   46.20   21.70
  25   4  -2   79.69   15.00
   4  25  -2   92.49   16.90
  29 -25   2  107.39   32.90
  -4  29   2   66.49   16.30
  25 -29  -2   71.49   23.80
 -29   4  -2   33.80   18.10
 -29  26  -2   47.00   18.00
  -3 -26   2   30.30   23.10
   3 -29  -2   32.60   21.10
 -26  29   2   68.29   15.40
  29  -3   2   68.79   25.90
  26   3  -2   70.09   14.40
   3  26  -2   42.50   18.60
 -26  -3   2   22.90   12.40
  26 -29  -2   38.80   23.20
   3  26  -2   92.19   17.30
  29 -26   2  122.49   32.60
 -29   3  -2   39.30   16.90
  15  15  -2  247.58   23.70
  15 -30  -2  232.18   31.80
 -15  30   2  256.27   26.30
  30 -15   2  300.97   37.20
  15  15  -2  282.77   20.10
 -16  30   2  -48.50   26.10
 -30  16  -2    3.70   16.20
  16  14  -2   45.10   11.70
  14 -30  -2   47.10   21.80
  30 -14   2   42.20   24.60
  16  14  -2   32.30   12.90
 -16  30   2   25.20   14.40
 -14 -16   2   22.30   13.70
 -30  14  -2   -5.00   15.50
 -16 -14   2   20.90   12.00
  30 -16   2   61.19   27.40
  14  16  -2   38.50   11.20
  16 -30  -2   28.50   21.70
  14  16  -2   38.50   13.70
 -14  30   2   19.60   13.80
 -17  30   2    4.60   13.40
  30 -13   2   35.70   23.80
  17  13  -2   17.40   17.90
 -17  30   2   16.70   27.20
  17  13  -2   28.90   11.60
 -30  17  -2  -15.20   16.30
  13 -30  -2    7.20   20.40
  17 -30  -2   20.60   21.10
  13  17  -2    5.10   11.00
 -13  30   2   17.10   13.70
  13  17  -2   23.00   12.90
 -30  13  -2   -7.60   14.90
  30 -17   2   55.09   27.10
 -30  18  -2  144.59   23.60
  18  12  -2  148.39   24.80
  18  12  -2  212.08   17.70
  30 -12   2  179.18   29.90
 -18  30   2  221.28   39.60
  30 -12   2  153.68   28.00
 -18  30   2  173.28   23.40
  12 -30  -2  175.88   25.10
  12  18  -2  163.98   20.10
  12  18  -2  150.48   15.10
  18 -30  -2  189.18   26.70
 -12  30   2  159.08   23.30
 -12  30   2  227.48   41.00
 -18 -12   2  139.59   18.70
  11 -30  -2   24.70   20.50
 -19  30   2   30.40   14.10
  19  11  -2   47.50   13.90
  30 -11   2   61.49   22.10
 -19  30   2   49.70   29.60
  30 -11   2   71.69   23.80
 -30  19  -2   -1.50   17.00
  19  11  -2   64.89   11.90
 -19 -11   2    7.90   12.40
  11  19  -2   32.20    9.80
 -11  30   2   36.20   14.90
  19 -30  -2   40.50   23.30
  11  19  -2   46.70   17.80
 -30  11  -2   16.50   17.70
  11  19  -2   51.19   14.50
  30 -19   2  107.89   30.00
  30 -10   2  123.69   23.90
  20  10  -2  110.89   18.60
 -20  30   2  138.99   32.80
 -20  30   2  124.79   20.90
  20  10  -2  120.39   13.10
  10 -30  -2   98.29   22.30
  30 -10   2  112.69   26.40
  30 -20   2  184.78   32.30
 -10  30   2   99.19   16.90
  10  20  -2  143.99   20.40
  10  20  -2   87.99   20.10
  10  20  -2   86.99   15.60
 -30  10  -2   76.49   22.20
   9 -30  -2  105.29   22.80
  21   9  -2  107.39   12.80
 -21  30   2   78.19   32.00
  21   9  -2   85.39   15.00
 -21  30   2  120.59   21.20
  30  -9   2  107.49   27.00
  30  -9   2  133.79   25.10
   9  21  -2  125.59   26.10
   9  21  -2  124.29   20.00
  -9  30   2  129.79   23.80
  21 -30  -2  122.49   26.50
   9  21  -2   78.09   12.90
  30 -21   2  154.78   31.30
 -21  -9   2   71.09   14.40
   8 -30  -2   53.59   21.00
 -22  30   2   75.59   15.80
  22   8  -2   95.79   16.00
 -22  30   2   57.09   31.20
  22   8  -2   75.79   14.60
  30  -8   2    1.90   27.10
  30  -8   2   90.39   24.00
  30 -22   2  135.79   30.20
  22 -30  -2   92.99   24.30
   8  22  -2   96.09   16.60
  -8  30   2   67.79   16.60
   8  22  -2   78.19   18.30
 -23  30   2   36.20   32.80
   7 -30  -2   20.40   20.50
 -23  30   2   51.39   15.00
 -30  23  -2   22.90   17.00
  23   7  -2   58.79   15.00
  23   7  -2   59.89   14.00
  30  -7   2   76.59   27.70
 -30   7  -2   23.90   17.10
   7  23  -2   28.20   17.60
  -7  30   2   45.80   16.90
  23 -30  -2   51.59   23.30
   7  23  -2   75.49   16.30
  24   6  -2   44.80   13.90
  24   6  -2   43.10   12.70
  30  -6   2   59.09   24.50
   6 -30  -2   27.20   21.20
 -24  30   2   58.39   15.40
 -24  30   2   51.29   32.40
  24 -30  -2   44.30   23.90
 -30   6  -2   18.10   17.10
  30 -24   2   81.09   30.60
  -6  30   2   43.80   16.60
   6  24  -2   66.89   16.10
  -5 -25   2   75.89   23.30
  25   5  -2   57.59   14.30
 -25  30   2   62.69   32.80
 -30  25  -2   29.30   19.10
   5 -30  -2   28.70   21.40
 -25  30   2   73.99   16.00
  25   5  -2   78.59   13.90
  30  -5   2   74.99   25.70
  -5  30   2   55.99   20.40
  30 -25   2  126.79   32.10
   5  25  -2   66.59   16.50
  25 -30  -2   41.80   23.60
   5  25  -2   50.69   18.20
 -30   5  -2   28.70   16.80
  15 -31  -2  103.09   23.90
 -16  31   2   39.20   31.10
  16  15  -2   75.59   15.40
  16  15  -2   93.49   14.10
 -16  31   2  104.19   21.70
  31 -15   2  108.69   29.10
  15  16  -2   89.69   13.90
 -15  31   2   83.09   16.80
  31 -16   2   73.49   28.10
  16 -31  -2   78.79   23.40
 -16 -15   2   55.79   15.60
 -17  31   2  236.28   25.60
  17  14  -2  232.28   23.20
 -14 -17   2  224.78   24.90
  14 -31  -2  238.48   31.10
 -17  31   2  299.77   42.50
  31 -14   2  260.97   37.70
  17  14  -2  273.07   19.90
  17 -31  -2  199.88   32.30
  14  17  -2  250.77   19.20
  31 -17   2  262.47   36.70
 -17 -14   2  259.77   22.30
 -14  31   2  262.07   26.60
  18  13  -2  113.69   19.30
 -18  31   2   90.59   16.50
  18  13  -2  106.69   14.30
  13 -31  -2   75.59   22.50
  31 -13   2   98.89   27.20
 -18  31   2  131.59   33.30
  18 -31  -2  111.99   25.90
  13  18  -2  118.69   20.00
  31 -18   2  119.69   29.00
  13  18  -2   78.39   12.30
 -13  31   2   84.19   16.60
  19  12  -2  108.79   19.10
  31 -12   2   94.09   21.40
 -19  31   2   69.79   15.90
 -31  19  -2   34.50   16.20
  12 -31  -2   49.90   21.80
  31 -12   2  128.89   26.40
 -19  31   2   95.09   32.40
  12  19  -2   70.99   13.00
 -12  31   2   78.19   33.10
 -12  31   2   62.29   16.60
 -19 -12   2   67.49   13.40
  31 -19   2  108.79   30.10
  12  19  -2   87.69   15.80
 -20  31   2  192.98   23.50
  31 -11   2  178.88   29.70
 -20  31   2  209.28   37.80
 -31  20  -2  119.69   23.80
  20  11  -2  193.28   16.80
  31 -11   2  195.38   33.00
  11 -31  -2  183.78   25.90
  20  11  -2  168.08   21.30
  11  20  -2  133.99   15.20
 -11  31   2  168.58   24.60
  31 -20   2  276.37   39.90
  11  20  -2  189.48   21.80
  20 -31  -2  168.38   30.00
  11  20  -2  174.28   23.10
  21  10  -2  126.39   15.40
  31 -10   2  133.59   29.60
 -21  31   2  134.09   36.20
 -21  31   2  111.59   22.20
  31 -10   2  113.89   28.80
  10 -31  -2  109.69   23.60
  21  10  -2  117.39   20.10
 -31  10  -2   74.99   22.40
  31 -21   2  163.78   31.00
  21 -31  -2  119.59   25.50
  10  21  -2  108.49   19.70
 -10  31   2  103.99   22.00
  10  21  -2  118.69   20.50
  22   9  -2   73.49   14.10
  22   9  -2   80.19   14.70
 -22  31   2   87.39   36.40
   9 -31  -2   40.40   21.20
  31  -9   2  106.39   28.40
 -22  31   2   73.29   16.10
   9  22  -2   85.49   16.80
  22 -31  -2   70.29   24.60
  -9  31   2   65.39   16.90
  23   8  -2   88.09   15.70
  23   8  -2   73.99   14.70
 -23  31   2  120.29   35.80
 -23  31   2   68.29   15.90
  31  -8   2   18.50   27.90
  31  -8   2   87.29   29.20
   8 -31  -2   75.09   22.00
 -31  23  -2   33.90   19.30
  31 -23   2  116.59   32.00
   8  23  -2  114.59   17.70
  23 -31  -2   63.89   24.10
  -8  31   2   53.99   22.20
  32 -16   2  198.08   31.90
  16 -32  -2  168.28   26.50
 -16  32   2  164.08   24.80
  16  16  -2  185.38   21.70
 -32  16  -2  150.78   31.30
  16  16  -2  175.28   17.70
 -16  32   2  194.28   36.20
  15 -32  -2  100.99   24.50
 -15 -17   2   61.59   16.10
 -17  32   2   84.69   17.00
  17  15  -2  115.49   19.60
 -32  17  -2   72.49   24.10
  32 -15   2  108.19   28.60
 -17 -15   2   85.29   16.50
  32 -17   2   85.69   27.60
 -15  32   2  103.39   21.40
 -32  15  -2   57.79   17.90
  15  17  -2   96.69   14.10
  15  17  -2  128.99   20.30
 -32  18  -2  106.59   26.30
  14 -32  -2   76.99   23.50
  32 -14   2  115.89   27.50
  18  14  -2  137.79   20.30
 -18  32   2  131.69   23.20
 -14 -18   2   84.39   17.90
  32 -18   2  112.99   28.80
  14  18  -2  143.89   20.70
  14  18  -2   94.69   13.80
 -18 -14   2   91.89   19.40
 -14  32   2  104.69   17.80
  18 -32  -2  101.79   27.30
 -19  32   2  260.17   46.70
  19  13  -2  169.48   20.20
 -32  19  -2  161.48   28.80
 -19  32   2  174.08   23.80
  13 -32  -2  183.68   26.40
  32 -13   2  228.58   34.70
 -32  13  -2  112.69   22.30
 -13  32   2  177.08   24.20
  13  19  -2  149.99   16.70
  32 -19   2  160.88   33.10
  19 -32  -2  164.28   27.30
  13  19  -2  166.58   22.00
 -32  20  -2   48.30   23.50
 -20  32   2   69.29   16.10
 -20  32   2  133.39   36.00
 -12  32   2   81.69   38.30
 -12  32   2   53.19   17.10
 -20 -12   2   48.60   12.60
   0   0   3   25.70   18.60
   0   0  -3   26.20    8.20
   0  -1  -3   52.69   10.30
   1   0  -3   50.99   10.20
   0  -1   3   51.39   17.70
  -1   1  -3   55.99    9.80
   1   0   3   72.09   20.60
   0  -1  -3   62.69   11.20
  -1   1   3   44.80   18.70
  -1   1  -3   71.99   12.80
   0   1  -3   71.89   11.60
   0   1   3   63.39   20.60
  -1   0  -3   67.09   12.20
  -1   0  -3   53.29    9.80
   0   1  -3   49.20    9.80
   1  -1   3   70.59   22.30
   1  -1  -3   49.50   10.20
  -1   0   3   61.49   18.20
  -1   2  -3    6.60    8.60
  -1  -1  -3   22.30    9.20
  -2   1   3   28.00   17.10
   2  -1  -3   16.60    9.60
  -1  -1  -3    8.40    8.20
   1   1   3   33.70   21.20
  -1   2  -3   21.80    8.70
   1   1  -3   35.60    9.60
   1   1  -3   56.69   10.90
  -1  -1   3   32.40   16.20
  -2   1  -3   36.10    9.50
   2  -1   3   53.49   25.90
   1  -2  -3   36.20   10.00
  -1   2   3   42.90   20.10
  -2   1  -3   44.50    9.30
  -2   2  -3  403.76   24.00
   0  -2  -3  400.36   22.40
   2   0  -3  360.66   23.20
  -2   2  -3  362.06   22.10
   2   0  -3  400.56   20.80
   2   0   3  367.76   33.40
   0  -2  -3  347.87   22.50
   0  -2   3  348.77   33.20
  -2   2   3  360.46   30.80
   2  -2  -3  338.67   23.20
   0   2   3  376.46   35.40
   0   2  -3  355.66   22.50
  -2   0  -3  400.76   23.60
   0   2  -3  389.06   22.40
  -2   0   3  379.66   30.30
   2  -2  -3  437.16   21.20
  -2   0  -3  350.76   22.40
  -2   3  -3  225.08   16.00
  -2   3  -3  246.48   19.00
  -1  -2  -3  207.28   16.60
   3  -1  -3  217.38   13.30
   2   1   3  250.87   33.00
  -3   2   3  255.87   27.70
  -1  -2  -3  211.58   17.00
   1  -3   3  208.68   30.90
   3  -1  -3  213.78   17.00
   2  -3   3  224.48   26.20
  -3   1   3  225.58   24.40
  -1   3  -3  238.88   17.50
  -1   3  -3  230.68   16.30
  -2  -1  -3  217.68   17.40
   3  -2  -3  217.48   17.90
  -2  -1  -3  219.38   16.30
   1   2   3  250.57   33.20
  -4   2   3   24.60   15.40
   2   2   3   51.19   22.00
  -2   4  -3   33.20    8.80
  -2  -2  -3   13.10    9.00
  -2   4  -3   19.60    9.60
   4  -2  -3   32.00   10.60
   2  -4   3   30.00   17.00
  -2  -2  -3   26.90    9.30
   2   1  -3   51.19    9.70
  -2   3   3   73.69   20.90
  -1  -2   3   67.69   16.20
   1  -3  -3   54.99    8.50
  -3   2  -3   70.59   14.60
   2   1  -3   54.69   10.40
   3  -1   3   75.89   28.40
  -3   2  -3   55.69    9.50
   1  -3  -3   63.69   11.10
  -3   1  -3   57.39   10.50
   1   2  -3   65.89   11.60
  -2  -1   3   69.99   15.90
   1   2  -3   65.99   11.20
   2  -3  -3   76.49    9.70
   2  -3  -3   50.09   11.10
  -1   3   3   58.69   20.90
   3  -2   3   61.49   24.50
  -3   1  -3   61.49    9.70
   3   0  -3   32.90   10.00
  -3   3  -3   43.00    9.00
  -3   3   3   55.69   18.90
   0  -3  -3   34.50    9.70
   3   0   3   47.30   21.20
  -3   3  -3   34.60   10.40
   0   3  -3   32.20    9.50
  -3   0  -3   47.20    9.20
   0   3   3   54.69   22.30
   3  -3  -3   26.60   10.40
   0   3  -3   20.70    8.00
  -3   0   3   34.30   15.00
   3  -3   3   25.80   19.50
  -3   0  -3   28.80    9.80
  -3   4  -3   26.00    8.80
  -1  -3  -3   23.60    9.30
   3   1   3   58.29   21.60
   1  -4   3   24.80   15.90
  -3   4  -3   18.60   10.30
  -1  -3  -3   13.80    8.70
  -4   3   3   45.00   17.50
   4  -1  -3   26.00   10.50
  -3  -1  -3   16.70    9.50
  -3  -1  -3   33.10    9.10
  -4   1   3   29.00   15.10
   1   3   3   38.90   21.80
  -1   4  -3   32.60    9.10
   4  -3  -3   34.00   10.60
   3  -4   3   41.70   18.90
  -1   4  -3   21.70    8.40
   2  -5   3  130.29   18.60
   3   2   3  124.09   25.40
   5  -2  -3  101.19   14.30
  -3   5  -3  118.79   12.20
  -2  -3  -3  102.69   13.00
  -3   5  -3  116.89   16.60
  -2  -3  -3   96.99   14.50
  -5   3   3  136.89   21.90
   5  -3  -3  106.49   14.30
   2   3   3  128.19   25.00
  -2   5  -3  121.39   13.20
  -2   5  -3  125.99   15.20
   3  -5   3  127.39   23.20
  -3  -2  -3   98.99   12.20
  -5   2   3  131.59   20.60
  -3  -2  -3   98.29   15.20
   3   3   3   37.30   24.80
   6  -3  -3   22.70   10.80
  -3   6  -3   29.00    8.60
   3  -6   3   29.80   16.70
  -3  -3  -3    3.40    9.80
  -3   6  -3   12.20   10.30
  -6   3   3   19.50   15.50
   2  -4  -3   60.19   10.10
  -4   2  -3   75.49   11.30
  -4   2  -3   69.09   11.40
  -2   4   3   74.69   22.30
   2   2  -3   79.59   10.60
   2  -4  -3   75.79   11.50
   4  -2   3   88.59   25.90
  -2  -2   3   63.99   15.60
   2   2  -3   71.99   12.10
   3   1  -3  223.98   15.00
  -1  -3   3  242.08   22.60
   1  -4  -3  244.78   18.90
   1  -4  -3  239.88   16.80
   4  -1   3  280.17   36.40
  -3   4   3  248.38   28.50
  -4   3  -3  244.58   17.30
   3   1  -3  237.78   18.40
  -4   3  -3  283.27   20.60
  -4   1  -3  275.87   20.20
  -3  -1   3  267.37   24.40
   1   3  -3  228.68   16.80
   3  -4  -3  233.68   18.80
   3  -4  -3  256.97   14.80
   4  -3   3  274.87   31.10
  -4   1  -3  240.18   16.80
  -1   4   3  319.57   34.50
   1   3  -3  255.17   17.40
  -4   4  -3  533.95   30.10
  -4   4  -3  475.95   26.80
   0  -4  -3  483.05   27.30
   4   0  -3  485.45   28.00
   4   0   3  488.35   39.20
   0  -4  -3  450.15   28.00
  -4   4   3  550.84   37.70
  -4   0  -3  531.85   29.10
   0   4  -3  502.85   27.40
  -4   0  -3  476.35   27.40
   4  -4  -3  481.25   28.30
  -4   0   3  487.85   32.10
   4  -4   3  473.65   38.20
   0   4   3  517.85   39.20
   0   4  -3  491.45   27.70
  -1  -4  -3   54.09   10.70
   1  -5   3   60.19   15.60
  -1  -4  -3   51.19   10.20
   5  -1  -3   56.49   12.00
  -4   5  -3   75.59   10.90
   4   1   3   72.99   24.40
  -5   4   3   64.39   18.50
  -1   5  -3   73.29   11.70
  -4  -1  -3   62.29   10.10
   5  -4  -3   69.99   12.50
   4  -5   3   70.99   20.10
   1   4   3   89.89   22.90
  -1   5  -3   67.49   13.20
  -4  -1  -3   46.80   11.00
  -5   1   3   55.19   15.10
  -4   6  -3  330.27   20.60
   4   2   3  393.96   38.30
   2  -6   3  340.17   27.10
   6  -2  -3  336.27   22.10
  -2  -4  -3  302.37   21.60
  -4   6  -3  325.97   23.90
  -2  -4  -3  288.27   23.40
  -6   4   3  333.07   28.90
  -4  -2  -3  339.27   23.10
  -2   6  -3  342.27   20.60
   2   4   3  365.26   38.90
  -6   2   3  353.76   27.00
  -2   6  -3  357.66   22.50
   4  -6   3  340.87   30.90
   6  -4  -3  326.47   22.60
  -4   7  -3  267.87   25.40
   3  -7   3  305.27   27.00
  -7   4   3  314.87   27.10
  -4   7  -3  300.57   19.20
   4   3   3  356.06   38.80
   7  -3  -3  293.27   21.50
  -3  -4  -3  252.97   20.20
  -4  -3  -3  255.57   21.70
  -3   7  -3  307.27   21.50
  -3   7  -3  308.27   18.80
  -7   3   3  283.77   24.80
   4  -7   3  319.77   27.30
   7  -4  -3  310.17   21.90
   3   4   3  323.47   36.00
  -4  -4  -3   33.60    9.80
  -4   8  -3   28.10   11.00
   4  -8   3   41.80   16.50
  -4  -4  -3   17.20   11.90
   8  -4  -3   45.70   13.10
  -8   4   3   34.70   15.20
  -4   8  -3   40.00    9.40
   4   4   3   61.99   26.20
   3   2  -3  190.48   13.90
   5  -2   3  237.68   43.60
  -5   3  -3  214.48   19.10
  -2  -3   3  212.88   21.90
   2  -5  -3  185.78   16.80
   3   2  -3  210.68   16.60
  -3   5   3  204.18   32.30
  -5   3  -3  205.48   15.20
   2  -5  -3  193.78   14.90
   2   3  -3  198.78   14.70
   3  -5  -3  183.98   17.70
   2   3  -3  203.08   15.90
   3  -5  -3  194.48   13.70
  -2   5   3  223.58   33.60
   5  -3   3  263.57   29.80
  -5   2  -3  213.88   15.10
  -3  -2   3  215.78   20.90
  -5   2  -3  215.28   19.00
  -5   4  -3  211.58   15.00
   4   1  -3  224.28   16.80
  -4   5   3  248.08   28.10
  -1  -4   3  220.88   22.00
   1  -5  -3  192.18   17.00
  -5   4  -3  207.98   19.90
   5  -1   3  238.08   32.50
  -5   1  -3  219.08   15.60
  -1   5   3  227.08   32.80
   1   4  -3  221.08   16.00
  -5   1  -3  193.58   18.60
   4  -5  -3  189.98   18.30
   5  -4   3  240.68   29.80
  -4  -1   3  209.98   22.70
   1   4  -3  202.68   16.10
  -5   5  -3  117.19   12.70
   0  -5  -3  106.09   14.70
  -5   5   3  153.78   25.90
   5   0  -3  126.29   14.70
   5   0   3  142.89   26.70
   5  -5  -3  130.69   16.10
   0   5   3  140.69   25.70
   0   5  -3  131.99   14.30
  -5   0  -3   96.79   16.80
   5  -5   3  108.59   22.30
  -5   0  -3  124.69   12.10
  -5   0   3  104.29   19.30
   0   5  -3  146.99   13.40
   6  -1  -3  238.68   18.40
  -6   5   3  261.07   26.60
  -1  -5  -3  233.98   17.40
  -5   6  -3  228.78   16.70
  -5   6  -3  221.28   21.70
   5   1   3  272.37   35.10
   1  -6   3  227.28   22.90
  -1  -5  -3  199.68   17.10
  -6   1   3  220.38   22.10
   1   5   3  258.47   36.30
   5  -6   3  220.48   27.80
  -1   6  -3  236.18   16.70
   6  -5  -3  244.68   19.60
  -5  -1  -3  200.48   19.50
  -1   6  -3  238.48   18.00
   7  -2  -3  101.79   14.70
  -5   7  -3  112.49   12.20
  -7   5   3   67.59   17.40
   2  -7   3  128.09   21.30
   5   2   3   98.59   25.30
  -5   7  -3   72.29   13.60
  -2   7  -3   99.59   15.50
  -7   2   3   78.39   15.60
  -2   7  -3  102.09   12.40
   7  -5  -3  116.39   16.00
   5  -7   3   88.19   20.80
   2   5   3  104.29   27.10
  -3  -5  -3  144.29   16.20
  -3  -5  -3  121.19   15.70
   3  -8   3  149.09   20.80
  -5   8  -3  131.89   13.50
  -5   8  -3  114.79   18.60
  -8   5   3  148.69   23.30
   8  -3  -3  151.58   17.10
   5   3   3  150.28   27.20
  -8   3   3  138.99   21.40
  -5  -3  -3   99.59   16.70
   5  -8   3  171.98   24.70
   3   5   3  139.79   28.40
  -5  -3  -3  131.39   13.20
  -3   8  -3  136.89   14.00
   8  -5  -3  141.89   17.30
  -3   8  -3  144.69   17.80
  -5   9  -3  115.79   13.40
   5   4   3  148.89   28.60
   4  -9   3  130.59   22.30
  -5   9  -3  125.09   17.30
  -4  -5  -3  115.79   13.50
   9  -4  -3  114.39   17.80
  -4  -5  -3  111.49   15.40
  -9   5   3  137.09   20.70
  -9   4   3  113.99   17.10
  -5  -4  -3  105.99   12.90
   4   5   3  130.99   28.10
  -4   9  -3  108.49   12.90
  -4   9  -3  116.69   18.10
   9  -5  -3  112.79   18.30
  -5  -4  -3  104.39   16.10
  -5  10  -3   18.70   11.60
  -5  -5  -3   18.00    9.70
   5   5   3   13.60   26.70
  -5  -5  -3   16.00   10.10
 -10   5   3   15.20   14.80
  -5  10  -3   25.80    9.60
  10  -5  -3   31.70   14.10
   5 -10   3   52.19   16.20
  -3   6   3   47.10   23.10
   3  -6  -3   35.20   11.30
  -6   3  -3    8.90   10.80
  -3  -3   3   15.20   13.70
   3   3  -3   14.30    6.70
   6  -3   3   62.69   22.00
   3  -6  -3    1.60    6.90
  -6   3  -3   21.40    8.10
   3   3  -3   20.70    9.30
   2  -6  -3  378.66   23.30
   4   2  -3  325.17   19.90
   2  -6  -3  316.37   20.80
  -2  -4   3  369.96   26.60
   4   2  -3  346.17   22.30
  -6   4  -3  373.06   24.90
  -4   6   3  380.56   34.60
  -6   4  -3  342.97   21.10
   4  -6  -3  318.27   19.20
   2   4  -3  352.46   20.90
   6  -4   3  389.06   33.00
  -2   6   3  427.36   36.80
   2   4  -3  367.46   21.70
  -4  -2   3  332.77   25.60
  -6   2  -3  381.16   25.10
   4  -6  -3  350.26   24.00
  -6   2  -3  358.96   20.70
   1  -6  -3  361.76   23.70
  -6   5  -3  410.16   23.60
   6  -1   3  436.86   38.30
   1  -6  -3  379.06   24.70
   5   1  -3  414.16   24.70
  -1  -5   3  415.96   27.50
  -6   5  -3  457.25   27.40
  -5   6   3  453.15   33.60
   5  -6  -3  393.76   26.10
   1   5  -3  412.26   23.90
  -1   6   3  441.26   39.20
   1   5  -3  408.96   24.20
  -5  -1   3  395.46   28.40
  -6   1  -3  432.36   27.00
  -6   1  -3  404.66   23.30
   6  -5   3  423.56   34.00
  -6   6  -3   32.10    9.00
   0  -6  -3   31.20   10.30
   6   0  -3   34.90   11.40
   6   0   3   56.79   24.80
  -6   6   3   51.69   19.20
  -6   6  -3    9.00   12.40
   0  -6  -3   14.10    8.30
   0   6  -3   31.10    9.60
  -6   0  -3   37.80    9.00
   0   6   3   50.89   24.30
  -6   0  -3   15.60   10.60
   6  -6  -3   37.80   12.20
  -6   0   3   30.30   13.90
   0   6  -3   33.80    9.60
   6  -6   3   55.29   22.00
   7  -1  -3  269.27   19.50
  -6   7  -3  232.28   17.10
  -1  -6  -3  240.88   19.10
  -7   6   3  282.57   27.60
   6   1   3  303.37   35.80
  -6   7  -3  227.88   22.10
   1  -7   3  251.87   23.50
  -1  -6  -3  257.47   19.10
  -7   1   3  234.98   22.60
  -6  -1  -3  266.07   21.00
   6  -7   3  257.37   29.00
   7  -6  -3  250.27   20.90
  -1   7  -3  262.17   17.30
   1   6   3  293.47   36.60
  -1   7  -3  274.57   19.80
   2  -8   3  177.18   21.30
  -6   8  -3  176.28   15.20
  -8   6   3  187.88   24.30
  -6   8  -3  180.58   20.00
   8  -2  -3  179.18   17.30
  -2  -6  -3  158.58   16.20
   6   2   3  180.18   28.50
  -6  -2  -3  173.88   14.40
   6  -8   3  213.28   27.40
   2   6   3  212.48   34.80
  -8   2   3  162.08   20.80
  -2   8  -3  180.98   14.80
   8  -6  -3  198.48   19.10
  -6  -2  -3  162.68   18.10
   6   3   3   41.60   26.20
  -6   9  -3   19.40   12.30
   9  -3  -3   22.20   12.60
  -6   9  -3   25.50    9.20
   3  -9   3   15.10   14.00
  -9   6   3   27.00   16.10
  -3  -6  -3   18.20    9.30
  -3  -6  -3    8.90    9.90
  -6  -3  -3   21.50    9.00
  -9   3   3    1.70   14.10
  -6  -3  -3   11.80    9.70
   3   6   3   27.50   26.30
   9  -6  -3   19.50   14.00
  -3   9  -3   20.90    9.20
  -3   9  -3   23.80   10.80
  -6  10  -3  111.69   13.70
  -4  -6  -3   96.69   14.70
   6   4   3   95.89   28.10
  10  -4  -3  101.69   17.80
 -10   6   3  107.29   17.80
   4 -10   3  143.19   21.30
  -6  10  -3  114.89   20.40
  -4  -6  -3   73.59   13.20
 -10   4   3  100.69   16.30
  -6  -4  -3  104.39   12.80
   6 -10   3  159.18   23.30
  -4  10  -3  115.39   17.90
   4   6   3  126.39   29.60
  -6  -4  -3   96.99   16.30
  -4  10  -3   94.89   13.30
  10  -6  -3  109.09   18.50
  -5  -6  -3  159.78   15.10
  -6  11  -3  182.68   15.10
  -5  -6  -3  165.68   16.70
  -6  11  -3  210.38   26.50
   6   5   3  188.08   31.00
 -11   6   3  151.98   22.00
  11  -5  -3  190.38   20.50
  -6  -5  -3  180.68   17.80
  -6  -5  -3  182.58   15.40
  -5  11  -3  187.78   19.90
 -11   5   3  160.88   22.30
  11  -6  -3  173.78   21.40
   5   6   3  173.68   31.40
  -5  11  -3  172.38   15.40
  12  -6  -3   47.30   15.80
  -6  -6  -3   29.90   10.20
  -6  12  -3   40.20   10.20
  -6  12  -3   30.10   13.50
 -12   6   3    9.80   14.80
   6   6   3    0.60   27.40
   7  -3   3  218.38   35.80
   4   3  -3  135.19   12.30
  -7   4  -3  126.69   19.30
   3  -7  -3  146.39   17.10
  -3  -4   3  138.69   20.10
  -4   7   3  198.88   33.00
   4   3  -3  152.98   14.90
  -7   4  -3  147.49   13.30
  -7   3  -3  147.29   13.10
   3   4  -3  144.29   13.30
   4  -7  -3  148.49   17.00
   3   4  -3  156.38   14.30
  -7   3  -3  138.99   18.90
  -3   7   3  197.48   34.50
  -4  -3   3  122.19   20.60
  -2  -5   3  186.28   21.10
  -5   7   3  244.28   33.20
  -7   5  -3  187.68   20.50
   7  -2   3  271.17   35.60
   2  -7  -3  199.28   17.80
   5   2  -3  200.58   16.80
  -7   5  -3  196.48   14.90
   5   2  -3  155.88   13.00
   2   5  -3  185.88   15.80
  -5  -2   3  183.18   21.70
  -7   2  -3  182.58   14.80
  -7   2  -3  194.28   20.00
   2   5  -3  226.28   15.80
   5  -7  -3  189.08   19.00
  -2   7   3  229.68   32.50
  -1  -6   3  102.69   15.40
  -6   7   3  120.29   21.80
   1  -7  -3   74.99   12.20
   7  -1   3  128.09   25.20
   1  -7  -3   93.29   14.90
  -7   6  -3   93.99   12.00
  -7   6  -3   68.79   13.80
   6   1  -3   86.79   13.80
  -7   1  -3   97.09   11.30
   1   6  -3  108.19   12.70
  -7   1  -3   74.09   13.20
  -1   7   3  131.99   26.20
   6  -7  -3   92.09   15.00
   1   6  -3  107.09   13.40
  -6  -1   3  107.09   15.80
   7  -6   3  113.69   21.50
   0  -7  -3  209.98   17.40
   0  -7  -3  189.28   16.30
  -7   7  -3  198.78   15.50
   7   0  -3  207.08   17.80
  -7   7   3  258.67   29.80
  -7   7  -3  181.08   22.20
   7   0   3  175.78   31.80
  -7   0  -3  192.88   20.00
   0   7  -3  211.18   16.20
   0   7  -3  206.48   17.10
   7  -7   3  256.27   29.30
   7  -7  -3  202.38   20.30
  -7   0   3  173.58   21.00
  -7   0  -3  172.48   16.50
   0   7   3  258.57   36.30
   7   1   3   95.09   26.00
   8  -1  -3   92.09   14.50
  -7   8  -3   81.09   11.70
  -1  -7  -3   68.29   12.00
   1  -8   3   57.99   14.90
  -8   7   3   84.99   18.90
  -7   8  -3   55.09   14.20
  -1  -7  -3   51.49   10.00
  -8   1   3   54.09   14.80
   8  -7  -3   76.19   14.80
  -7  -1  -3   51.09   12.10
   1   7   3   91.99   27.60
  -7  -1  -3   75.79   14.40
   7  -8   3  115.19   22.50
  -1   8  -3   82.99   15.90
  -7   9  -3   62.09   14.70
  -7   9  -3   69.99   12.70
   2  -9   3   72.49   15.10
  -9   7   3   97.59   18.80
   9  -2  -3   70.19   13.60
   7   2   3   66.89   26.10
  -9   2   3   72.39   15.60
  -7  -2  -3   88.89   11.50
   7  -9   3  117.69   22.30
  -2   9  -3  115.69   17.40
   9  -7  -3   89.19   15.50
  -2   9  -3   96.39   12.40
  -7  -2  -3   69.19   12.50
   2   7   3   92.49   28.00
   3 -10   3  192.28   20.80
 -10   7   3  203.18   25.50
  -3  -7  -3  191.38   17.30
  10  -3  -3  181.78   20.10
  -3  -7  -3  172.08   16.10
  -7  10  -3  197.88   15.40
  -7  10  -3  180.48   21.80
   7   3   3  192.98   30.60
  -3  10  -3  217.68   20.10
 -10   3   3  152.28   21.50
  -7  -3  -3  178.18   18.00
  -7  -3  -3  204.78   15.10
   3   7   3  207.58   31.80
  10  -7  -3  194.58   20.60
  -3  10  -3  186.68   15.70
   7   4   3   38.30   28.50
 -11   7   3   53.69   16.00
  11  -4  -3   66.79   14.40
  -4  -7  -3   40.60   11.40
  -7  11  -3   49.30   14.70
  -7  11  -3   52.29   10.50
  -4  -7  -3   42.50   10.40
  -7  -4  -3   56.99    9.40
  -7  -4  -3   39.00   12.90
  -4  11  -3   52.29   10.40
  -4  11  -3   48.40   12.70
 -11   4   3   51.39   16.10
   4   7   3   35.10   28.60
  11  -7  -3   52.19   15.40
  -5  -7  -3  212.58   17.00
  -7  12  -3  245.68   23.90
  -5  -7  -3  209.18   18.70
   7   5   3  193.28   31.30
 -12   7   3  199.08   23.90
  -7  12  -3  227.78   17.00
  12  -5  -3  244.68   22.40
  -7  -5  -3  213.28   20.20
  12  -7  -3  237.08   21.90
   5   7   3  200.18   32.70
 -12   5   3  192.68   22.60
  -7  -5  -3  214.88   16.00
  -5  12  -3  192.58   22.60
  -5  12  -3  207.68   17.20
  13  -6  -3  168.98   22.90
  -7  13  -3  181.48   23.60
  -6  -7  -3  153.78   15.30
 -13   7   3  162.68   21.90
  -6  -7  -3  169.88   18.10
   7   6   3  158.98   30.80
  -7  13  -3  158.38   15.90
  -7  -6  -3  162.48   14.60
  -7  -6  -3  169.08   18.50
  13  -7  -3  179.88   20.90
  -6  13  -3  177.28   21.70
  -6  13  -3  149.09   15.70
   6   7   3  155.38   31.70
 -13   6   3  142.69   23.20
  14  -7  -3   32.60   16.10
   7   7   3   -6.50   28.80
 -14   7   3    2.20   16.00
  -7  14  -3   21.40   14.30
  -7  14  -3   21.90   10.10
  -7  -7  -3   25.60   11.50
  -7  -7  -3   10.60    9.70
  -4  -4   3   -8.00   13.60
  -8   4  -3   15.90    8.20
   4   4  -3   10.20    7.40
   4   4  -3    3.50    9.00
  -8   4  -3   -5.80   11.60
   4  -8  -3    7.60   12.00
  -4   8   3   31.20   24.30
   3  -8  -3  336.17   20.50
   5   3  -3  341.07   22.00
  -8   5  -3  333.97   20.40
  -3  -5   3  334.67   25.90
  -5   8   3  401.66   35.60
   3  -8  -3  332.17   23.70
  -8   5  -3  355.46   26.20
   5   3  -3  321.97   20.40
   3   5  -3  342.07   21.50
   8  -5   3  409.56   36.60
   3   5  -3  355.36   21.50
   5  -8  -3  326.47   24.00
  -3   8   3  386.26   37.20
  -5  -3   3  325.07   25.00
  -8   3  -3  362.36   25.20
  -8   3  -3  339.67   20.60
   6   2  -3  283.67   20.10
  -8   6  -3  266.27   18.30
   8  -2   3  293.67   34.90
   2  -8  -3  248.18   21.00
   2  -8  -3  256.47   18.60
   6   2  -3  241.48   16.40
  -6   8   3  347.97   34.20
  -2  -6   3  286.17   24.10
  -8   6  -3  314.17   23.90
  -2   8   3  340.17   36.00
   2   6  -3  294.47   18.50
   8  -6   3  369.86   34.60
   6  -8  -3  283.77   22.80
   2   6  -3  289.77   19.00
  -8   2  -3  277.87   22.40
  -8   2  -3  258.97   18.00
  -6  -2   3  238.78   23.80
  -1  -7   3   14.20   13.50
   7   1  -3   12.50   11.00
  -7   8   3   32.80   20.10
   1  -8  -3   10.90   11.00
  -8   7  -3   20.60    8.70
  -8   7  -3  -10.30   12.30
   1  -8  -3   14.40    8.40
   8  -1   3   17.00   24.30
  -8   1  -3   21.10    8.30
   1   7  -3   22.70    8.90
   7  -8  -3   25.40   13.20
  -7  -1   3    1.20   13.90
   1   7  -3   27.10    9.70
  -1   8   3   42.20   27.40
  -8   1  -3    3.70   11.50
   8  -7   3   38.80   21.90
   0  -8  -3  176.78   17.00
   8   0  -3  153.98   17.80
  -8   8  -3  163.98   14.60
   0  -8  -3  178.18   15.60
  -8   8   3  217.68   29.30
   0  -8   3  155.98   26.80
   8   0   3  186.98   28.50
  -8   8  -3  133.19   21.70
   8  -8  -3  177.38   19.30
   0   8   3  253.07   39.90
  -8   0   3  127.99   21.60
   8  -8   3  212.88   28.30
  -8   0  -3  165.98   19.00
   0   8  -3  188.48   16.90
   0   8  -3  166.88   14.80
  -1  -8  -3  435.06   27.20
   9  -1  -3  452.25   28.00
  -8   9  -3  429.96   25.90
  -9   8   3  460.85   34.40
  -1  -8  -3  433.86   27.70
   1  -9   3  460.85   30.10
  -8   9  -3  533.15   33.20
   8   1   3  419.36   43.10
   1   8   3  479.85   46.10
  -9   1   3  411.06   31.00
  -1   9  -3  471.45   28.20
  -8  -1  -3  454.35   29.30
   8  -9   3  509.25   37.10
  -8  -1  -3  445.66   25.40
  -1   9  -3  456.55   25.90
   9  -8  -3  462.95   29.10
  10  -2  -3   20.20   12.60
  -2  -8  -3   17.30    9.70
   2 -10   3   11.90   13.60
  -8  10  -3    3.60   16.40
 -10   8   3   19.10   17.30
  -8  10  -3   18.40    9.20
   8   2   3    1.10   25.90
  -8  -2  -3    5.20   12.80
 -10   2   3  -15.40   14.30
  -2  10  -3   24.80   10.80
  -8  -2  -3   22.00    8.40
   2   8   3   29.50   27.90
  -2  10  -3   30.60    9.80
  10  -8  -3   30.00   14.00
 -11   8   3  281.57   26.80
   3 -11   3  281.67   24.40
  -8  11  -3  278.17   18.90
   8   3   3  212.98   37.10
  -3  -8  -3  276.37   19.90
  -3  -8  -3  283.57   20.90
  11  -3  -3  289.17   23.90
  -8  11  -3  287.67   25.30
  -8  -3  -3  250.87   22.20
  11  -8  -3  286.47   23.40
  -8  -3  -3  280.67   18.10
  -3  11  -3  297.27   19.10
 -11   3   3  247.88   23.90
   3   8   3  290.27   42.80
  -3  11  -3  307.67   23.80
  -4  -8  -3   38.10   10.70
  -8  12  -3   34.70   14.90
   8   4   3   27.40   28.20
  -4  -8  -3   33.30   10.70
   4 -12   3   60.99   14.50
 -12   8   3   38.90   16.70
  12  -4  -3   59.59   15.00
  -8  12  -3   33.60   10.40
 -12   4   3   13.40   15.80
  -4  12  -3   48.80   10.70
  -8  -4  -3   37.10    9.50
  -8  -4  -3   25.50   11.50
   4   8   3   18.80   29.80
  12  -8  -3   51.69   15.80
   8   5   3  -12.80   27.00
  -8  13  -3   16.30   14.10
  13  -5  -3   25.90   16.10
  -5  -8  -3   11.60   10.70
 -13   8   3   23.00   15.90
   5 -13   3   56.89   14.70
  -8  13  -3   21.30   10.00
  -5  -8  -3    8.30   10.40
 -13   5   3   -1.80   16.10
   5   8   3  -10.70   28.80
  -5  13  -3   23.00   13.50
  13  -8  -3   24.40   16.10
  -8  -5  -3   20.90   11.30
  -5  13  -3   16.00   10.30
  -8  -5  -3   15.10    9.20
  -8  14  -3   56.49   11.20
  14  -6  -3   62.39   17.60
  -8  14  -3   45.90   16.00
  -6  -8  -3   52.69   11.30
 -14   8   3   41.50   16.50
   8   6   3   38.70   28.30
  -6  -8  -3   60.99   12.40
  14  -8  -3   80.09   17.60
   6   8   3   36.90   30.50
  -6  14  -3   67.89   15.40
  -6  14  -3   80.99   13.60
  -8  -6  -3   66.59   10.50
 -14   6   3   42.40   16.20
  -8  -6  -3   61.59   12.10
  -7  -8  -3  203.48   21.00
  -8  15  -3  223.88   24.60
  -8  15  -3  216.08   17.00
  15  -7  -3  218.08   24.50
 -15   8   3  175.38   24.50
  -7  -8  -3  196.88   17.40
   8   7   3  136.79   32.70
 -15   7   3  160.58   23.00
  -8  -7  -3  188.78   15.70
  -7  15  -3  208.88   24.00
   7   8   3  165.58   32.70
  -7  15  -3  178.78   17.10
  -8  -7  -3  206.38   20.90
  15  -8  -3  207.38   25.20
  -8  16  -3    0.20   14.90
   8   8   3  -38.70   28.50
  16  -8  -3    0.20   17.80
 -16   8   3  -10.80   16.30
  -8  16  -3    8.80   11.00
  -8  -8  -3    9.30   12.40
  -8  -8  -3    5.60    9.40
  -9   5  -3  103.89   12.20
  -9   5  -3   95.99   14.90
  -5   9   3  125.29   26.80
   5   4  -3   95.39   12.60
   4  -9  -3  107.39   17.60
   9  -4   3  123.49   26.60
   4  -9  -3   93.29   12.20
  -4  -5   3  107.89   16.10
   5   4  -3  100.99   13.40
  -9   4  -3   98.19   15.00
  -9   4  -3   98.29   11.90
   5  -9  -3   81.99   11.10
   4   5  -3  103.19   12.80
   5  -9  -3   97.59   15.10
   4   5  -3  104.69   13.30
  -4   9   3  144.19   27.40
   6   3  -3  117.79   12.80
  -9   6  -3  127.69   20.10
  -9   6  -3  151.98   14.00
   3  -9  -3  148.39   17.60
  -3  -6   3  163.78   20.80
   9  -3   3  236.68   33.30
   6   3  -3  155.38   15.40
   3  -9  -3  120.69   14.60
  -6   9   3  198.68   31.30
   6  -9  -3  136.39   18.00
   9  -6   3  223.68   30.50
  -9   3  -3  156.58   13.40
   3   6  -3  155.88   14.40
  -9   3  -3  150.98   19.70
   3   6  -3  167.48   14.90
  -3   9   3  198.18   36.00
  -2  -7   3  115.29   16.30
   9  -2   3  123.99   26.50
   7   2  -3   99.39   15.20
   2  -9  -3   98.59   16.00
  -9   7  -3  108.49   12.80
  -9   7  -3   98.39   17.60
   2  -9  -3  101.29   13.70
  -7   9   3  155.08   25.60
   2   7  -3  118.49   13.90
  -9   2  -3  113.29   12.10
  -9   2  -3   90.59   18.70
   2   7  -3  116.29   14.20
  -2   9   3  137.39   29.00
   7  -9  -3  121.79   17.20
  -9   8  -3  175.68   14.80
   8   1  -3  150.38   17.60
  -8   9   3  234.18   29.70
   9  -1   3  200.28   35.40
  -1  -8   3  157.88   21.20
   1  -9  -3  190.58   16.20
   1  -9  -3  178.48   18.20
  -9   1  -3  152.48   22.10
  -1   9   3  214.48   37.20
   1   8  -3  172.18   15.40
   9  -8   3  264.37   31.60
   1   8  -3  184.18   17.70
   8  -9  -3  188.68   19.10
  -9   1  -3  172.38   14.30
  -9   9  -3  162.58   14.40
   0  -9  -3  142.09   16.40
  -9   9   3  231.28   30.30
  -9   9  -3  133.79   23.70
   9   0   3  167.08   28.70
   0  -9  -3  145.39   17.30
   0  -9   3  141.69   21.60
   9   0  -3  166.18   17.30
   0   9  -3  183.38   14.80
   0   9  -3  166.58   17.20
   0   9   3  160.18   30.30
   9  -9  -3  164.68   20.60
   9   1   3  157.58   29.00
  -1  -9  -3  166.08   16.80
  -1  -9  -3  163.98   17.20
  -9  10  -3  142.19   22.90
  10  -1  -3  173.18   17.60
 -10   9   3  180.58   26.60
  -9  10  -3  165.78   15.30
  -9  -1  -3  161.98   13.60
   1   9   3  176.08   30.90
  -1  10  -3  175.58   18.90
  -1  10  -3  172.78   15.20
  -9  -1  -3  148.59   20.20
  10  -9  -3  177.68   21.70
  -9  11  -3   33.70   15.20
   2 -11   3   12.00   15.00
   9   2   3   46.20   28.60
  -2  -9  -3   53.89   11.20
 -11   9   3   48.50   18.50
  11  -2  -3   46.50   14.20
  -9  11  -3   51.79   10.20
  -9  -2  -3   26.10   11.70
  -2  11  -3   53.09   12.50
  -9  -2  -3   55.29    9.50
  11  -9  -3   66.99   16.00
   2   9   3   59.99   28.50
  -2  11  -3   55.79   10.60
   9   3   3   39.00   27.60
  -9  12  -3   50.29   10.40
  12  -3  -3   59.89   15.00
  -3  -9  -3   47.30   12.00
  -9  12  -3   45.50   15.40
  -3  -9  -3   47.70   11.50
 -12   9   3   64.69   18.50
  12  -9  -3   77.89   17.50
  -9  -3  -3   44.20   11.90
  -3  12  -3   58.99   11.00
 -12   3   3   33.30   16.00
  -3  12  -3   55.69   15.10
  -9  -3  -3   56.39    9.80
   3   9   3   33.30   30.60
  -4  -9  -3   43.30   11.40
   9   4   3   22.30   28.10
  -9  13  -3   45.20   10.70
  -9  13  -3   41.20   15.80
  13  -4  -3   57.19   16.20
 -13   9   3   42.40   16.90
   4   9   3   32.70   30.50
  -9  -4  -3   50.09    9.20
  -4  13  -3   59.79   11.20
 -13   4   3   17.60   16.30
  -9  -4  -3   36.90   12.10
  -4  13  -3   46.50   14.00
  13  -9  -3   54.99   17.60
   9   5   3  232.58   39.20
 -14   9   3  248.18   26.80
  -9  14  -3  265.17   19.30
  -5  -9  -3  303.87   22.80
  -5  -9  -3  264.57   19.90
  14  -5  -3  264.67   25.90
  -9  14  -3  300.97   27.30
   5 -14   3  223.08   21.50
  -9  -5  -3  270.57   17.70
 -14   5   3  234.08   26.00
  -5  14  -3  290.27   19.60
  14  -9  -3  305.17   26.60
  -5  14  -3  294.57   26.30
  -9  -5  -3  290.07   23.10
   5   9   3  254.87   35.20
  -9  15  -3   90.09   17.90
  15  -6  -3  117.99   18.50
   9   6   3   66.79   30.50
  -6  -9  -3   96.59   18.20
  -6  -9  -3   78.19   13.30
  -9  15  -3   94.69   13.80
   6 -15   3   52.59   16.70
 -15   9   3   76.39   17.50
  -9  -6  -3   81.89   11.50
  15  -9  -3  127.69   20.40
  -6  15  -3   89.69   17.00
  -9  -6  -3  105.79   17.40
 -15   6   3   69.99   18.20
   6   9   3   51.19   30.20
  -6  15  -3  102.59   14.60
  -9  16  -3   89.09   17.40
  -7  -9  -3  104.79   18.70
  -9  16  -3   92.69   14.90
   9   7   3   46.50   30.50
   7 -16   3   84.89   16.80
  16  -7  -3  115.69   19.00
 -16   9   3  103.39   18.30
  -7  -9  -3  113.39   13.50
 -16   7   3   70.99   17.80
  16  -9  -3  116.69   20.10
  -9  -7  -3  100.99   12.10
  -9  -7  -3  118.99   18.60
   7   9   3   82.99   30.50
  -7  16  -3   94.59   17.40
  -7  16  -3   99.39   14.30
  -8  -9  -3   58.09   14.10
  17  -8  -3   72.69   19.60
 -17   9   3   37.50   17.60
   8 -17   3  101.59   20.80
  -9  17  -3   50.79   16.90
  -8  -9  -3   50.09   10.30
   9   8   3   20.90   32.20
  -9  17  -3   64.49   12.60
  -9  -8  -3   68.29   10.60
  17  -9  -3   80.79   20.10
 -17   8   3   45.00   17.40
   8   9   3   10.80   30.80
  -8  17  -3   62.19   17.30
  -9  -8  -3   56.29   13.50
  -8  17  -3   63.49   12.20
  -9  18  -3   -1.40   16.30
   9   9   3  -48.00   31.10
  -9  -9  -3    5.30    9.30
 -18   9   3  -15.50   16.60
  18  -9  -3   13.20   19.30
  -9  18  -3   10.10   11.80
  -9  -9  -3   11.40   12.80
   5   5  -3   23.40    8.30
 -10   5  -3   -1.60   13.40
  10  -5   3   43.20   24.80
   5   5  -3   24.60   10.10
   5 -10  -3   13.50    7.70
  -5  10   3   50.29   25.60
   5 -10  -3   29.00   13.30
 -10   5  -3   28.40    9.00
 -10   6  -3  215.38   16.00
   6   4  -3  192.08   15.80
   4 -10  -3  223.68   16.20
 -10   6  -3  198.48   22.60
   6   4  -3  242.98   17.40
  -6  10   3  295.17   37.90
   4 -10  -3  219.98   20.60
 -10   4  -3  225.58   16.20
   6 -10  -3  217.38   20.70
  -4  10   3  306.27   36.40
   4   6  -3  217.48   17.30
   4   6  -3  223.48   17.70
 -10   4  -3  216.58   21.90
   6 -10  -3  186.58   15.30
   3 -10  -3  588.64   31.90
  -7  10   3  676.73   46.00
   7   3  -3  592.34   32.60
 -10   7  -3  573.44   31.70
  10  -3   3  574.44   46.80
 -10   7  -3  651.13   36.80
   7   3  -3  550.24   30.80
   3 -10  -3  536.95   34.30
 -10   3  -3  564.94   31.20
   7 -10  -3  560.94   35.10
   3   7  -3  556.04   32.10
   7 -10  -3  619.14   30.40
 -10   3  -3  606.34   35.90
  10  -7   3  644.74   43.60
  -3  10   3  613.94   47.00
   3   7  -3  597.94   32.30
  10  -2   3   34.00   25.40
 -10   8  -3   33.10    9.40
   8   2  -3   28.00   11.40
   2 -10  -3   21.60    8.90
   2 -10  -3   33.90   13.00
  -2  10   3   43.90   29.20
   2   8  -3   36.60    9.90
   2   8  -3   32.20   10.00
   8 -10  -3   38.60   14.60
 -10   2  -3   33.00    8.90
 -10   2  -3    6.90   12.50
 -10   9  -3  656.53   39.30
  -9  10   3  652.23   43.10
   1 -10  -3  595.54   34.70
   9   1  -3  624.94   34.60
 -10   9  -3  622.44   32.90
   1 -10  -3  653.63   33.90
  10  -1   3  554.84   46.70
  10  -9   3  728.13   45.70
 -10   1  -3  591.74   32.60
  -1  10   3  633.14   49.80
   1   9  -3  580.54   34.80
   9 -10  -3  579.74   36.40
   1   9  -3  586.54   33.30
 -10   1  -3  627.84   36.90
   0 -10   3  220.38   22.00
  10   0   3  210.68   36.90
 -10  10   3  283.57   32.30
   0 -10  -3  184.18   18.90
 -10  10  -3  211.18   17.00
   0 -10  -3  210.68   19.40
 -10  10  -3  213.68   25.40
  10   0  -3  199.58   19.60
   0  10   3  245.88   38.90
   0  10  -3  239.98   17.00
  10 -10  -3  241.18   22.60
   0  10  -3  222.38   19.80
 -10   0  -3  206.08   22.40
  10   1   3   41.00   27.50
 -10  11  -3   24.60   15.70
 -11  10   3   88.29   20.90
  -1 -10  -3   52.69   13.00
  -1 -10  -3   54.99   11.30
  11  -1  -3   50.69   13.40
 -10  11  -3   51.69   10.60
  11 -10  -3   59.39   17.00
   1  10   3   59.99   30.60
 -10  -1  -3   45.00   12.90
  -1  11  -3   61.39   10.70
  -1  11  -3   58.69   12.40
 -10  -1  -3   57.89    9.70
 -10  12  -3  147.69   14.80
  12  -2  -3  158.58   19.50
 -10  12  -3  164.68   24.40
  -2 -10  -3  164.48   17.70
  10   2   3  128.99   29.70
 -12  10   3  178.08   27.70
 -10  -2  -3  137.19   19.00
   2  10   3  159.28   32.60
  -2  12  -3  163.78   20.60
  12 -10  -3  160.18   22.20
 -10  -2  -3  164.28   13.70
  -2  12  -3  168.58   15.10
 -13  10   3  307.77   29.90
  -3 -10  -3  335.77   22.30
   3 -13   3  251.27   24.20
  13  -3  -3  312.07   26.50
 -10  13  -3  338.57   28.90
  10   3   3  270.07   38.90
 -10  13  -3  328.97   20.80
   3  10   3  289.37   45.40
 -10  -3  -3  312.87   19.40
 -10  -3  -3  299.47   24.10
  -3  13  -3  330.97   26.00
  13 -10  -3  346.77   27.10
  -3  13  -3  313.97   20.60
  14  -4  -3   28.90   16.10
  -4 -10  -3   21.30   11.10
  10   4   3    6.20   28.80
 -10  14  -3   33.80   10.80
 -10  14  -3   25.80   16.70
 -14  10   3   24.00   17.40
  -4 -10  -3   35.40   11.80
  14 -10  -3   33.60   18.20
   4  10   3    4.10   30.30
 -10  -4  -3   33.90    9.20
  -4  14  -3   21.20   10.70
  -4  14  -3   26.90   13.70
 -10  -4  -3   41.10   12.00
 -15  10   3  117.89   19.00
  -5 -10  -3  136.39   16.10
  15  -5  -3  133.69   21.50
 -10  15  -3  113.59   19.00
  -5 -10  -3  135.59   18.70
 -10  15  -3  123.19   15.30
  10   5   3   99.69   30.50
   5  10   3  111.19   31.70
 -10  -5  -3  137.79   19.90
 -10  -5  -3  130.49   13.10
  -5  15  -3  122.09   15.60
  15 -10  -3  129.79   20.90
  -5  15  -3  139.39   21.50
  10   6   3  -12.10   30.30
  16  -6  -3   28.00   17.60
  -6 -10  -3   34.50   13.00
 -16  10   3   26.60   17.00
 -10  16  -3   20.50   16.50
  -6 -10  -3   35.30   10.90
 -10  16  -3   38.10   11.30
 -10  -6  -3   32.70    9.10
  -6  16  -3   34.70   10.90
   6  10   3   -8.70   29.50
  -6  16  -3   15.40   14.80
 -10  -6  -3   32.60   12.30
  16 -10  -3   43.90   18.70
 -10  17  -3   57.39   17.20
 -17  10   3   34.00   17.10
 -10  17  -3   63.29   12.60
  17  -7  -3   66.09   18.50
  10   7   3   -2.30   31.00
  -7 -10  -3   62.89   13.90
  -7 -10  -3   49.20   10.90
 -17   7   3   19.90   18.00
 -10  -7  -3   53.69   10.30
 -10  -7  -3   49.90   13.40
   7  10   3   -2.60   30.60
  -7  17  -3   61.39   12.10
  -7  17  -3   51.49   16.50
  17 -10  -3   82.99   20.50
  -8 -10  -3   29.30   10.40
 -18  10   3   26.60   17.30
 -10  18  -3   26.20   17.20
  10   8   3    7.00   30.90
 -10  18  -3   35.90   12.00
  18  -8  -3   40.60   19.20
  -8 -10  -3   27.50   14.30
  -8  18  -3   29.30   12.30
  -8  18  -3   41.20   16.80
 -10  -8  -3   38.80    9.60
  18 -10  -3   40.40   19.70
 -10  -8  -3   33.40   13.30
 -18   8   3    2.40   17.40
   8  10   3   -7.50   31.70
  10   9   3   52.79   32.30
 -19  10   3   73.99   19.20
   9 -19   3  148.39   24.90
 -10  19  -3   90.89   14.90
 -10  19  -3  103.89   19.20
  -9 -10  -3  109.39   20.90
  19  -9  -3  116.99   22.30
  -9  19  -3   96.39   14.40
 -19   9   3   91.39   19.20
  -9  19  -3   99.89   19.70
  19 -10  -3   94.99   22.00
   9  10   3   42.00   32.00
 -10  -9  -3   90.59   16.60
 -10 -10  -3   26.40   13.80
  10  10   3  -17.60   29.30
 -10  20  -3   34.20   12.90
  20 -10  -3   33.40   20.90
 -10  20  -3    4.90   16.90
 -20  10   3   -5.80   16.60
  11  -5   3  119.19   33.30
 -11   6  -3   71.19   15.60
   6   5  -3  117.89   14.30
   5 -11  -3  108.19   18.00
 -11   6  -3   99.49   12.50
   6   5  -3   82.59   13.40
   5 -11  -3   76.09   12.40
  -6  11   3  156.68   28.90
   5   6  -3  107.29   14.10
   6 -11  -3   70.69   12.30
 -11   5  -3  103.49   12.50
   6 -11  -3  114.39   18.30
   5   6  -3  101.89   14.00
  -5  11   3  134.19   28.20
  11  -6   3  124.79   27.10
 -11   5  -3   79.49   15.60
   4 -11  -3  188.48   20.10
 -11   7  -3  206.68   15.40
   7   4  -3  215.38   17.40
   7   4  -3  185.58   15.40
   4 -11  -3  161.18   16.20
 -11   7  -3  206.18   23.40
  11  -4   3  190.88   33.30
  -7  11   3  284.87   36.00
 -11   4  -3  193.88   15.50
 -11   4  -3  170.98   22.30
   7 -11  -3  174.28   14.60
   4   7  -3  215.68   16.50
   7 -11  -3  190.28   21.60
  -4  11   3  250.57   38.70
   4   7  -3  200.98   16.80
  11  -3   3   70.89   26.30
   8   3  -3   74.89   12.60
 -11   8  -3   37.90   15.20
  -8  11   3  110.39   26.00
   3 -11  -3   81.29   14.90
 -11   8  -3   82.29   12.30
   3 -11  -3   60.69   10.20
 -11   3  -3   54.69   14.50
  11  -8   3  129.89   25.70
   8 -11  -3   87.39   16.60
  -3  11   3  102.79   31.10
 -11   3  -3   81.29   11.60
   8 -11  -3   59.09    8.00
   3   8  -3   72.19   11.70
   3   8  -3   93.49   15.80
   9   2  -3  185.38   18.70
   2 -11  -3  209.08   17.90
 -11   9  -3  206.28   16.00
   2 -11  -3  214.48   21.00
 -11   9  -3  171.68   24.10
  -9  11   3  295.07   35.80
  11  -2   3  219.28   30.40
   2   9  -3  218.58   19.90
 -11   2  -3  170.78   22.10
   2   9  -3  201.68   16.50
 -11   2  -3  217.18   15.90
  -2  11   3  232.88   42.70
   9 -11  -3  216.88   23.20
  11  -1   3   75.49   27.40
  10   1  -3  124.29   17.30
   1 -11  -3   88.49   16.90
   1 -11  -3   83.39   14.60
 -11  10  -3   98.89   12.80
 -10  11   3  164.38   29.20
   1  10  -3  120.89   13.60
 -11   1  -3   63.69   14.40
   1  10  -3  124.89   17.10
  10 -11  -3  126.59   21.80
  -1  11   3  104.39   30.60
 -11   1  -3   96.69   12.60
 -11  11  -3   49.60   10.60
  11   0  -3   51.59   13.30
   0 -11  -3   49.10   11.10
 -11  11  -3   31.50   16.20
  11   0   3   23.50   26.90
 -11  11   3   85.29   22.80
   0 -11  -3   60.69   14.00
 -11   0  -3   52.79   11.20
  11 -11  -3   63.99   17.10
   0  11   3   35.00   29.20
   0  11  -3   84.39   17.40
   0  11  -3   79.09   12.90
 -11   0  -3   40.60   13.50
  12  -1  -3  194.18   20.50
  -1 -11  -3  214.48   20.20
  11   1   3  210.88   32.10
 -11  12  -3  200.18   26.10
  -1 -11  -3  224.28   19.50
 -11  12  -3  202.88   17.20
 -12  11   3  247.78   29.00
 -11  -1  -3  215.18   15.50
  -1  12  -3  211.18   16.90
  12 -11  -3  217.88   25.60
 -11  -1  -3  180.58   21.00
   1  11   3  223.08   41.00
  -1  12  -3  229.88   22.00
 -11  13  -3   95.19   14.60
 -13  11   3  143.39   25.50
  13  -2  -3  119.09   19.60
 -11  13  -3   74.29   17.20
  -2 -11  -3   66.59   12.70
  11   2   3   48.20   28.70
 -11  -2  -3   77.49   11.80
  -2  13  -3  111.69   19.60
  -2  13  -3   99.39   14.00
  13 -11  -3  108.79   19.50
 -11  -2  -3   53.59   12.80
   2  11   3   58.89   30.90
  -3 -11  -3  148.09   16.30
 -11  14  -3  136.99   14.80
 -14  11   3  150.58   26.90
  -3 -11  -3  137.39   17.40
  11   3   3  103.59   30.40
 -11  14  -3  129.19   24.60
  14  -3  -3  146.29   21.70
  -3  14  -3  116.69   15.60
 -11  -3  -3  127.59   20.30
  14 -11  -3  170.98   24.00
  -3  14  -3  123.39   20.40
   3  11   3   91.39   32.70
 -11  -3  -3  135.09   13.10
  11   4   3   31.40   31.00
  -4 -11  -3   99.19   18.10
  15  -4  -3   81.99   18.10
 -15  11   3   66.49   19.40
 -11  15  -3   71.69   18.00
 -11  15  -3   82.09   14.10
  -4 -11  -3   77.69   13.40
   4  11   3   60.79   30.80
 -11  -4  -3   73.39   11.50
  15 -11  -3  100.49   20.00
  -4  15  -3   87.79   16.20
  -4  15  -3   84.29   14.60
 -11  -4  -3   85.89   17.20
 -11  16  -3   12.30   16.50
 -11  16  -3   20.50   11.10
  -5 -11  -3   20.20   13.50
  -5 -11  -3   16.30   11.00
  11   5   3  -40.00   29.70
  16  -5  -3   26.30   17.10
 -16  11   3   10.20   17.10
  16 -11  -3   34.30   19.90
 -11  -5  -3   27.50   12.80
  -5  16  -3   14.30   14.60
  -5  16  -3   16.20   10.40
 -11  -5  -3   16.90    9.10
   5  11   3   -6.40   29.60
  11   6   3   -9.40   30.60
  17  -6  -3   46.90   18.10
 -11  17  -3   24.60   17.50
 -17  11   3   31.90   17.00
 -11  17  -3   33.30   11.50
  -6 -11  -3   38.20   13.30
  -6 -11  -3   16.40   12.20
  17 -11  -3   47.90   20.60
 -11  -6  -3   30.60    9.30
   6  11   3   -4.20   30.90
  -6  17  -3   32.20   11.40
 -11  -6  -3   35.50   13.40
  -6  17  -3   21.50   15.30
  -7 -11  -3   21.50   12.90
 -11  18  -3   22.60   12.20
 -11  18  -3   17.30   17.00
  18  -7  -3   16.40   17.90
  -7 -11  -3   27.70   11.20
  11   7   3  -32.30   29.70
 -18  11   3   11.40   16.80
  -7  18  -3   13.20   15.50
  18 -11  -3   36.70   20.50
 -11  -7  -3   30.30   14.40
 -11  -7  -3   28.40    9.10
  -7  18  -3   18.80   11.70
   7  11   3  -39.50   30.70
 -19  11   3    4.40   16.90
  -8 -11  -3   19.40   13.20
 -11  19  -3   34.30   12.80
 -11  19  -3   10.60   16.80
  11   8   3  -24.20   29.70
  19  -8  -3   20.40   19.40
   8  11   3  -23.80   31.40
  -8  19  -3   11.10   16.00
 -11  -8  -3   26.80   13.40
  -8  19  -3   24.70   12.20
  19 -11  -3   17.90   20.80
 -11  20  -3   55.69   18.50
 -20  11   3   62.69   18.10
 -11  20  -3   76.29   13.30
  -9 -11  -3   58.99   14.90
  11   9   3    9.00   29.60
  20  -9  -3   62.49   20.60
 -11  -9  -3   62.69   11.10
  20 -11  -3   83.79   22.00
  -9  20  -3   67.89   12.90
 -11  -9  -3   54.09   14.20
 -20   9   3   61.69   18.80
   9  11   3   13.00   30.10
  -9  20  -3   60.19   17.00
 -11  21  -3   46.70   12.40
  21 -10  -3   45.40   20.60
 -11  21  -3   46.80   17.50
 -10 -11  -3   38.00   14.70
  10 -21   3   30.80   18.10
  11  10   3   24.80   30.00
 -21  11   3   32.60   17.10
 -10  21  -3   43.30   12.50
  21 -11  -3   52.79   20.90
 -21  10   3   31.20   17.40
 -11 -10  -3   50.29    9.20
 -11 -10  -3   35.70   15.90
  10  11   3   46.80   30.70
 -10  21  -3   39.90   17.20
  22 -11  -3    4.90   20.20
 -11  22  -3    3.40   15.70
  11  11   3   -7.90   25.80
 -22  11   3   -7.30   16.30
 -11 -11  -3    9.20    8.70
 -11  22  -3    6.00   12.00
 -11 -11  -3   13.00   13.70
  -6  12   3  114.19   28.40
 -12   6  -3   56.49   15.30
   6   6  -3   71.29   11.80
   6 -12  -3   51.09    9.40
   6 -12  -3   58.99   15.60
 -12   6  -3   70.19   12.10
   6   6  -3   74.79   14.00
  12  -6   3  112.39   27.00
   5 -12  -3  804.52   38.70
   7   5  -3  691.93   38.70
   5 -12  -3  697.73   41.20
   7   5  -3  706.03   39.20
 -12   7  -3  707.53   38.40
  -7  12   3  799.22   54.69
  12  -5   3  741.33   56.59
 -12   7  -3  831.22   44.10
   7   5  -3  690.73   38.60
   5   7  -3  725.83   39.60
   5   7  -3  699.13   38.10
  12  -7   3  755.22   50.09
   7 -12  -3  774.22   38.00
 -12   5  -3  723.33   38.40
  -5  12   3  759.92   52.79
   7 -12  -3  688.23   41.40
 -12   5  -3  803.72   43.20
   5   7  -3  706.73   39.00
  -8  12   3  323.77   37.20
 -12   8  -3  235.68   25.50
   4 -12  -3  244.48   21.60
   8   4  -3  204.68   17.00
   4 -12  -3  207.08   18.10
 -12   8  -3  229.28   17.20
   8   4  -3  229.18   19.20
   8   4  -3  255.67   18.00
  12  -4   3  206.78   35.20
   4   8  -3  254.77   17.50
   4   8  -3  229.28   18.60
  12  -8   3  300.07   34.90
 -12   4  -3  225.68   23.70
 -12   4  -3  225.68   16.70
   4   8  -3  199.78   17.80
   8 -12  -3  228.08   16.00
   8 -12  -3  250.27   23.00
  -4  12   3  300.27   41.50
 -12   9  -3  -13.20   14.90
  -9  12   3   79.89   26.50
   9   3  -3   23.10   11.90
   9   3  -3   32.60    9.50
   3 -12  -3   20.60   10.10
   3 -12  -3   47.00   14.20
 -12   9  -3   23.90    9.50
  12  -3   3   19.20   26.30
  12  -9   3   73.69   25.70
   9 -12  -3   16.90    7.30
  -3  12   3   37.30   30.40
 -12   3  -3   -4.70   14.20
 -12   3  -3   25.40    9.10
   3   9  -3   21.70    9.70
   3   9  -3   34.30    9.20
   3   9  -3   26.60   10.70
   9 -12  -3   53.99   16.50
  12  -2   3  122.69   28.70
   2 -12  -3  140.99   19.30
  10   2  -3  128.69   16.60
   2 -12  -3  148.59   19.50
 -10  12   3  200.68   34.00
 -12  10  -3   90.69   17.70
 -12  10  -3  134.89   13.90
  10   2  -3  149.39   15.10
 -12   2  -3  130.39   13.40
  -2  12   3  140.69   31.50
   2  10  -3  150.38   17.40
 -12   2  -3  107.69   21.30
   2  10  -3  146.99   14.60
 -10  -2   3  101.09   11.80
  10 -12  -3  129.29   23.20
 -12  11  -3  718.03   37.10
   1 -12  -3  733.83   38.90
   1 -12  -3  686.73   39.80
 -12  11  -3  804.42   44.40
  11   1  -3  753.12   39.40
  12  -1   3  673.23   51.49
 -11  12   3  767.22   47.30
  11   1  -3  658.93   37.50
 -12   1  -3  702.53   41.00
 -11  -1   3  601.94   35.30
  11 -12  -3  685.03   41.60
  -1  12   3  676.23   55.69
   1  11  -3  762.12   37.50
   1  11  -3  719.13   39.70
 -12   1  -3  647.44   38.10
  12   0   3   37.00   28.30
   0 -12  -3   71.49   14.10
 -12  12   3   78.39   22.40
   0 -12  -3   51.19   11.80
 -12  12  -3   60.49   10.70
  12   0  -3   61.99   15.20
 -12  12  -3   26.40   17.30
 -12   0   3   54.19    8.60
   0  12  -3   55.29   13.50
  12 -12  -3   55.19   18.50
   0  12  -3   81.49   13.10
 -12   0  -3   62.79   11.50
   0  12   3   45.30   31.20
 -12   0  -3   42.00   14.50
 -12  13  -3  375.36   24.90
 -12  13  -3  427.46   31.70
  -1 -12  -3  425.56   27.60
  13  -1  -3  436.76   27.60
  12   1   3  377.96   45.90
  13  -1  -3  402.46   24.50
  -1 -12  -3  406.16   28.50
 -13  12   3  452.95   36.50
   1  12   3  348.27   46.60
 -12  -1  -3  374.86   28.90
  -1  13  -3  435.96   29.00
  13 -12  -3  430.16   31.60
  -1  13  -3  416.66   24.60
 -12  -1  -3  398.46   23.80
 -12  14  -3   40.50   11.20
  14  -2  -3   53.19   15.90
  12   2   3    2.70   29.30
  -2 -12  -3   30.50   11.70
 -14  12   3   50.09   19.70
 -12  14  -3    6.40   15.80
 -12  -2  -3   26.10   12.30
 -12  -2  -3   29.70    9.00
  -2  14  -3   28.80   14.00
  -2  14  -3   33.10   10.90
   2  12   3   42.30   30.90
  14 -12  -3   46.40   19.20
 -12  15  -3   65.29   17.40
  12   3   3   17.40   30.50
 -12  15  -3   73.89   12.20
  -3 -12  -3   70.99   13.20
  -3 -12  -3   76.29   13.80
 -15  12   3   85.59   20.50
  15  -3  -3   78.29   17.30
  15  -3  -3  106.19   13.90
   3  12   3   24.70   31.70
  15 -12  -3   76.49   19.90
 -12  -3  -3   63.89   11.50
 -12  -3  -3   53.09   13.90
  -3  15  -3   68.29   18.10
  12 -15   3  138.39   27.00
  -3  15  -3   66.39   12.10
  -4 -12  -3   48.00   13.20
 -16  12   3   61.59   19.70
  12   4   3  -10.90   28.90
  16  -4  -3   55.09   18.00
 -12  16  -3   35.00   17.60
  -4 -12  -3   45.30   13.20
 -12  16  -3   54.89   11.80
   4  12   3   12.00   31.40
  -4  16  -3   52.49   15.10
  -4  16  -3   48.70   11.40
 -12  -4  -3   42.40    9.30
 -12  -4  -3   50.19   13.10
  16 -12  -3   46.40   19.30
 -12  17  -3  203.98   19.20
 -12  17  -3  252.67   28.90
  12   5   3  161.28   34.40
  -5 -12  -3  245.98   22.70
 -17  12   3  241.98   27.20
  17  -5  -3  244.28   25.10
  -5 -12  -3  231.68   18.50
   5 -17   3  189.28   20.60
   5  12   3  169.98   35.50
  17 -12  -3  248.98   27.80
  -5  17  -3  212.98   18.40
 -12  -5  -3  232.08   16.10
 -12  -5  -3  232.08   23.20
  -5  17  -3  244.18   27.30
 -18  12   3   39.90   18.00
 -12  18  -3   35.00   18.50
  18  -6  -3   49.70   19.30
  -6 -12  -3   47.50   13.70
 -12  18  -3   52.49   12.90
  -6 -12  -3   42.00   12.80
  12   6   3   16.20   30.60
 -12  -6  -3   42.70   13.20
   6  12   3  -11.00   31.50
  18 -12  -3   38.80   20.10
 -12  -6  -3   49.99   10.40
  -6  18  -3   44.40   16.50
  -6  18  -3   37.10   12.90
 -12  19  -3  176.38   17.50
  12   7   3  141.49   33.90
  -7 -12  -3  165.98   17.30
 -19  12   3  145.69   24.10
  -7 -12  -3  162.28   22.50
   7 -19   3  125.79   18.50
  19  -7  -3  142.39   25.50
 -12  19  -3  160.58   26.50
   7  12   3   80.59   36.10
  -7  19  -3  153.88   17.00
 -12  -7  -3  157.58   21.50
  -7  19  -3  187.68   25.80
  19 -12  -3  150.68   23.90
 -20  12   3   22.80   17.30
 -12  20  -3   46.90   17.30
  -8 -12  -3   32.10   14.40
  20  -8  -3   45.40   20.30
 -12  20  -3   36.30   12.80
  -8 -12  -3   38.80   10.90
  12   8   3    3.10   30.40
 -12  -8  -3   54.49   10.10
  -8  20  -3   38.40   12.80
  20 -12  -3   52.99   21.00
  12 -20   3  107.19   25.40
  -8  20  -3   43.40   17.90
   8  12   3   -0.40   29.80
 -12  -8  -3   37.30   14.20
 -12  21  -3   65.19   18.20
 -21  12   3   69.39   17.60
  -9 -12  -3   56.19   14.70
  21  -9  -3   52.69   21.30
  12   9   3   21.50   29.30
 -12  21  -3   61.59   12.90
  -9  21  -3   61.29   13.00
 -12  -9  -3   54.49   15.30
  21 -12  -3   68.29   21.90
  -9  21  -3   60.79   17.40
   9  12   3    7.10   30.10
 -12  -9  -3   70.79   12.10
 -12  22  -3   32.20   17.30
  12  10   3  -14.60   26.70
 -22  12   3   25.30   17.00
  22 -10  -3   41.70   20.00
 -10 -12  -3   48.10    9.00
 -10 -12  -3   47.00   14.30
 -12  22  -3   28.40   12.70
  10  12   3   -5.80   28.30
 -12 -10  -3   52.19    8.90
 -12 -10  -3   35.40   13.90
 -10  22  -3   40.70   12.40
 -10  22  -3   39.70   17.30
  22 -12  -3   40.30   21.20
  23 -11  -3   31.80   20.00
 -11 -12  -3   45.30   14.10
 -23  12   3   34.80   16.60
 -12  23  -3   36.40   15.90
  12  11   3   12.20   26.10
  11  12   3  -16.50   25.90
 -11  23  -3   37.10   16.30
  23 -12  -3   10.20   19.50
 -11  23  -3   43.70   13.00
 -12 -11  -3   26.20   13.90
 -23  11   3   24.20   16.80
 -24  12   3   -2.80   15.70
 -12 -12  -3    8.90   13.40
  24 -12  -3   -7.20   19.10
  12  12   3  -31.60   24.80
 -12  24  -3   12.90   15.10
 -13   7  -3   68.99   16.60
   7   6  -3   89.09   14.20
   7   6  -3  120.79   14.10
  -7  13   3  142.69   28.90
 -13   7  -3  109.99   13.30
   7   6  -3   94.19   14.90
   6 -13  -3  120.19   20.60
   6 -13  -3  104.39   13.90
 -13   6  -3   93.29   16.90
  13  -7   3  130.09   28.60
   6   7  -3  112.49   13.30
   6   7  -3   97.99   14.10
   6   7  -3  116.69   16.40
 -13   6  -3  111.59   13.00
  -6  13   3  158.48   30.80
   7 -13  -3  125.29   21.50
   7 -13  -3   99.69   13.00
  13  -5   3   70.89   27.80
   5 -13  -3   88.79   14.30
   8   5  -3  121.19   14.50
   8   5  -3  127.69   14.50
 -13   8  -3   67.89   11.50
   8   5  -3   79.19   14.80
   5 -13  -3  118.19   19.60
  -8  13   3  114.09   29.80
   5   8  -3  112.09   13.70
  13  -8   3  115.29   27.50
   5   8  -3  114.59   14.20
 -13   5  -3  102.29   13.20
   5   8  -3  109.89   19.30
  -5  13   3  121.19   32.00
   8 -13  -3   87.09   18.10
   8 -13  -3   77.99   12.50
  -9  13   3  137.19   29.60
   9   4  -3  121.29   14.60
   4 -13  -3   95.19   15.50
 -13   9  -3   95.99   13.50
  13  -4   3  116.59   28.80
   9   4  -3   86.99   14.60
   4 -13  -3   89.79   16.60
   4   9  -3  115.49   16.70
 -13   4  -3   81.69   12.80
  -4  13   3  105.29   32.70
   9 -13  -3  104.99   12.20
   9 -13  -3  109.99   18.60
  13  -9   3  141.49   27.70
   4   9  -3  122.79   14.10
   4   9  -3   99.39   14.20
 -10  13   3  163.28   29.00
   3 -13  -3  131.29   17.40
 -13  10  -3  137.39   14.30
  13  -3   3  162.68   30.50
   3 -13  -3  138.69   19.70
  10   3  -3  162.48   15.60
  10   3  -3  108.19   16.80
   3  10  -3  157.38   14.90
   3  10  -3  144.19   19.00
  13 -10   3  149.59   28.00
   3  10  -3  144.19   16.30
  -3  13   3  134.59   32.10
  10 -13  -3  145.79   12.60
  10 -13  -3  151.08   22.50
 -13   3  -3  136.19   14.20
   2 -13  -3   96.89   16.00
 -13  11  -3   67.89   18.00
  13  -2   3   68.99   28.80
  11   2  -3   97.89   17.60
   2 -13  -3  120.49   19.60
 -13  11  -3  126.59   13.80
  11   2  -3  144.29   14.20
 -11  13   3  197.08   33.50
  -2  13   3   95.29   32.40
  13 -11   3  158.28   30.80
 -13   2  -3   82.49   13.20
   2  11  -3  128.39   14.20
   2  11  -3  155.38   20.50
 -11  -2   3   95.49   12.20
 -13   2  -3   71.89   16.60
   2  11  -3  129.39   14.00
  11 -13  -3  119.99   20.00
 -12  13   3  130.09   25.30
  12   1  -3  120.99   14.10
   1 -13  -3  109.69   16.50
   1 -13  -3  111.39   18.70
  12   1  -3   88.09   15.70
 -13  12  -3  110.09   14.00
  13  -1   3   71.69   30.30
   1  12  -3   94.79   14.10
 -13   1  -3   91.89   15.10
   1  12  -3  119.49   22.00
  -1  13   3   80.19   31.90
   1  12  -3  116.69   13.70
  12 -13  -3  130.49   22.90
 -13  13  -3   73.69   19.00
  13   0  -3  138.89   15.10
  13   0   3   62.69   31.40
   0 -13  -3   93.09   17.40
 -13  13  -3  111.39   14.30
 -13  13   3  140.29   24.90
  13   0  -3  105.89   18.30
   0 -13  -3  105.19   15.70
 -13   0   3  117.29   10.40
   0  13   3   43.70   33.50
   0  13  -3   93.69   14.00
   0  13  -3  124.49   21.00
  13 -13  -3  112.09   20.60
 -13   0  -3   77.89   16.00
 -13   0  -3   95.59   12.90
 -14  13   3   50.59   21.80
  13   1   3   -1.30   31.80
  14  -1  -3   37.00   10.10
 -13  14  -3   32.40   11.00
  -1 -13  -3   18.80   11.80
  14  -1  -3   24.10   14.90
  -1 -13  -3   23.20   14.30
 -13  14  -3   -0.40   17.00
   1  13   3  -23.20   31.90
 -13  -1  -3   11.20   13.20
  -1  14  -3   26.80   13.50
  14 -13  -3   36.40   18.90
  -1  14  -3   21.00   10.50
 -13  -1  -3   21.20    9.30
 -13  15  -3  -18.60   17.10
 -13  15  -3   20.30   10.90
  -2 -13  -3   10.60   12.30
  15  -2  -3    7.60   16.00
  13   2   3  -58.59   28.90
 -15  13   3   15.00   21.00
  15  -2  -3   28.00   10.00
 -13  -2  -3   10.80   12.50
   2  13   3  -37.10   31.20
 -13  -2  -3    1.00    9.10
  15 -13  -3   17.30   19.50
  -2  15  -3    8.40   11.30
  -2  15  -3   10.60   14.30
  16  -3  -3   93.89   14.10
 -13  16  -3   44.10   18.20
 -16  13   3   72.99   21.10
  -3 -13  -3   71.09   14.60
  -3 -13  -3   58.09   13.80
 -13  16  -3   81.09   12.90
  13   3   3   40.10   30.30
  16  -3  -3   76.09   17.70
  -3  16  -3   68.39   16.50
  13 -16   3  139.79   27.50
   3  13   3   -0.10   31.00
  16 -13  -3   97.29   21.60
  -3  16  -3   66.19   12.70
 -13  -3  -3   60.69   14.40
 -13  -3  -3   75.59   11.80
 -17  13   3   69.79   20.70
 -13  17  -3   85.69   19.40
  13   4   3   54.29   30.50
  -4 -13  -3   76.09   14.70
  17  -4  -3  117.29   20.10
  -4 -13  -3  100.79   15.70
 -13  17  -3  113.79   15.80
  17  -4  -3  128.79   14.90
  17 -13  -3  108.59   21.80
  -4  17  -3   86.09   18.00
   4  13   3   36.20   32.10
 -13  -4  -3   85.39   12.50
 -13  -4  -3  119.69   18.80
  -4  17  -3  100.39   14.60
 -13  18  -3   18.70   17.90
  -5 -13  -3   35.70   13.60
 -18  13   3   31.40   18.50
  -5 -13  -3   22.90   11.70
  13   5   3  -20.80   30.00
 -13  18  -3   46.20   12.40
  18  -5  -3   42.20   11.00
  18  -5  -3   47.40   19.00
   5  13   3  -33.90   30.40
 -13  -5  -3   26.10   13.60
  18 -13  -3   34.40   20.60
  -5  18  -3   24.80   11.70
 -13  -5  -3   27.10    9.60
  -5  18  -3   23.90   15.40
 -13  19  -3  105.59   20.40
  -6 -13  -3   86.89   15.30
  13   6   3   67.69   31.60
  19  -6  -3  107.89   21.90
  -6 -13  -3  100.09   15.70
 -13  19  -3  107.19   15.90
 -19  13   3  105.19   19.30
  19 -13  -3  115.59   23.40
  -6  19  -3  108.19   15.60
   6  13   3   27.70   33.10
 -13  -6  -3   95.99   19.90
  -6  19  -3  116.09   23.70
 -20  13   3   14.10   17.60
 -13  20  -3   18.90   12.70
  13   7   3   -1.00   28.30
  20  -7  -3   20.50   18.30
 -13  20  -3    7.70   17.00
  -7 -13  -3   24.00   13.30
  -7 -13  -3   25.30   11.00
 -13  -7  -3   23.30   10.60
   7  13   3   -5.20   31.70
  -7  20  -3   24.40   16.30
  -7  20  -3   19.10   12.90
 -13  -7  -3   12.10   13.40
  20 -13  -3   27.30   21.00
  -8 -13  -3   52.39   14.20
 -21  13   3   37.50   17.30
  13   8   3   13.60   28.80
 -13  21  -3   40.80   17.40
  21  -8  -3   44.30   19.40
 -13  21  -3   43.40   12.40
  -8  21  -3   52.69   17.30
 -13  -8  -3   55.29   10.90
 -13  -8  -3   44.80   14.20
  -8  21  -3   44.80   13.20
  21 -13  -3   29.80   20.60
   8  13   3    1.10   28.80
  22  -9  -3   33.00   19.60
  13   9   3   -8.50   26.80
 -13  22  -3   10.20   16.60
 -22  13   3   19.30   16.10
  -9 -13  -3   25.70    9.10
  -9 -13  -3   24.20   13.30
  -9  22  -3   27.10   12.20
   9  13   3   -2.70   28.50
  -9  22  -3   27.40   16.30
 -13  -9  -3   26.00   13.80
  22 -13  -3   10.10   20.10
 -23  13   3   13.10   16.00
 -13  23  -3    6.20   16.20
  13  10   3  -18.90   26.70
  23 -10  -3    9.60   19.90
 -10 -13  -3    5.90   12.80
  10  13   3  -20.90   26.40
 -10  23  -3   13.60   16.20
  23 -13  -3    8.50   19.20
 -13 -10  -3   21.10   13.30
 -10  23  -3   14.60   11.20
  24 -11  -3   23.80   19.70
 -13  24  -3   26.90   16.10
 -11 -13  -3   31.70   13.50
 -24  13   3   23.20   16.80
  13  11   3    2.20   26.10
  11  13   3    7.40   26.70
 -13 -11  -3   23.00   13.70
  24 -13  -3   20.90   19.30
 -11  24  -3   39.40   16.30
  25 -12  -3    6.40   19.70
  13  12   3    5.70   27.90
 -13  25  -3   24.90   15.80
 -12 -13  -3   14.70   13.70
 -25  13   3   12.90   16.00
 -13 -12  -3   19.60   14.00
  12  13   3   -0.50   26.80
 -25  12   3   23.40   16.40
  25 -13  -3   -5.90   19.50
 -12  25  -3   27.50   16.00
 -13 -13  -3   48.00   15.40
 -13  26  -3   79.99   18.20
 -26  13   3   72.99   17.70
  26 -13  -3   55.29   21.40
  13 -26   3   60.29   29.80
  14  -7   3   36.30   29.20
   7   7  -3   44.20   11.70
   7   7  -3   44.00   11.30
   7 -14  -3   58.69   17.50
   7   7  -3   51.89   10.50
  -7  14   3   65.59   28.90
   7 -14  -3   52.69   10.00
 -14   7  -3   55.59   10.60
   8   6  -3  116.09   16.00
  14  -6   3  157.18   28.80
   6 -14  -3  153.88   22.30
 -14   8  -3  129.09   14.50
   8   6  -3  140.69   16.20
 -14   8  -3  105.09   18.30
   8   6  -3  160.68   15.10
   6 -14  -3  155.28   15.80
  -8  14   3  212.68   37.60
 -14   6  -3  143.29   14.30
 -14   6  -3  131.49   23.00
   6   8  -3  168.48   15.60
   8 -14  -3  131.79   23.50
  14  -8   3  141.89   29.20
   8 -14  -3  129.69   14.40
  -6  14   3  164.88   34.40
   6   8  -3  140.29   15.20
   5 -14  -3  734.23   43.80
   9   5  -3  770.92   41.10
  -9  14   3  857.41   57.29
 -14   9  -3  876.21   45.80
   5 -14  -3  804.12   41.00
  14  -5   3  738.63   53.09
   9   5  -3  748.03   40.70
 -14   9  -3  739.13   40.50
   9   5  -3  720.23   40.30
 -14   5  -3  806.52   46.20
   5   9  -3  742.03   40.50
  -5  14   3  737.63   57.39
 -14   5  -3  770.72   39.90
   5   9  -3  814.42   42.50
   5   9  -3  747.73   41.00
   9 -14  -3  745.43   45.60
  14  -9   3  798.02   53.79
 -14  10  -3  123.09   14.80
  10   4  -3  111.99   16.80
  14  -4   3  118.59   30.10
  10   4  -3  155.88   15.00
 -10  14   3  213.48   37.10
 -14  10  -3  100.69   18.50
   4 -14  -3  116.69   16.00
   4 -14  -3  125.79   20.00
  10 -14  -3  135.89   22.50
 -14   4  -3   85.89   17.60
   4  10  -3  152.78   14.90
 -14   4  -3  132.89   14.00
   4  10  -3  128.79   19.10
  14 -10   3  194.78   34.30
  -4  14   3  123.29   33.20
   4  10  -3  131.39   14.50
  11   3  -3  596.14   33.00
 -14  11  -3  588.64   32.80
 -14  11  -3  625.64   39.90
  11   3  -3  605.44   34.60
   3 -14  -3  614.94   36.00
 -11  14   3  682.03   48.70
   3 -14  -3  658.03   34.90
  14  -3   3  556.84   50.59
 -11  -3   3  576.74   32.60
 -14   3  -3  565.44   38.90
  11 -14  -3  564.64   39.10
   3  11  -3  577.64   32.90
 -14   3  -3  610.54   32.70
   3  11  -3  586.64   33.40
  -3  14   3  584.94   54.09
   3  11  -3  626.14   35.60
  14 -11   3  702.03   48.40
 -14  12  -3   97.69   14.20
   2 -14  -3  115.49   19.20
   2 -14  -3   85.29   17.30
 -12  14   3  160.98   28.60
  14  -2   3   81.09   30.70
  12   2  -3   98.39   17.00
  12   2  -3  126.79   15.30
 -14  12  -3   49.40   18.10
  12 -14  -3  137.79   23.40
   2  12  -3  102.49   14.00
  -2  14   3   87.39   32.30
 -14   2  -3   60.09   15.70
 -12  -2   3   65.89   12.00
 -14   2  -3   79.49   12.50
   2  12  -3  114.99   14.30
 -14  13  -3   49.50   11.50
  13   1  -3   41.20   15.30
   1 -14  -3   58.89   12.90
 -13  14   3   88.39   24.60
   1 -14  -3   64.69   15.90
  13   1  -3   80.79   13.60
  14  -1   3   10.00   29.40
  13 -14  -3   63.69   19.60
 -13  -1   3   39.70    8.10
   1  13  -3   76.59   13.80
   1  13  -3   57.99   11.30
  -1  14   3   38.20   32.40
 -14   1  -3   22.90   14.20
   1  13  -3   56.49   14.30
 -14   1  -3   65.29   13.10
  14   0  -3  120.19   14.80
 -14  14  -3   86.09   15.50
 -14  14   3  139.39   25.80
  14   0  -3  104.59   18.10
   0 -14  -3  113.49   16.50
   0 -14  -3  109.29   17.60
  14   0   3   68.79   30.50
  14 -14  -3  111.99   21.10
   0  14   3   68.79   34.00
 -14   0  -3   71.79   16.00
   0  14  -3  109.59   14.60
   0  14  -3  120.99   21.20
 -14   0   3   95.99   11.00
 -14   0  -3  103.79   12.90
   0  14  -3  116.79   14.70
  15  -1  -3  322.77   27.60
  -1 -14  -3  364.26   26.50
  14   1   3  278.67   44.40
  15  -1  -3  355.66   23.40
 -14  15  -3  348.57   33.00
 -15  14   3  400.26   36.10
 -14  15  -3  340.37   23.30
  -1 -14  -3  373.26   26.00
   1  14   3  290.97   45.20
 -14  -1  -3  380.86   22.10
 -14  -1  -3  328.37   27.70
  -1  15  -3  329.37   23.20
  15 -14  -3  367.96   30.70
  -1  15  -3  375.36   29.00
  -2 -14  -3  128.09   20.30
 -16  14   3  154.08   24.70
  14   2   3   72.49   32.20
  16  -2  -3  158.78   15.50
 -14  16  -3  138.39   16.80
  -2 -14  -3  128.69   20.20
 -14  16  -3   99.29   20.20
  16  -2  -3  123.79   19.60
 -14  -2  -3  144.39   14.50
   2  14   3   78.99   33.90
  16 -14  -3  156.08   27.20
  -2  16  -3  139.89   16.50
  -2  16  -3  148.79   23.80
 -14  -2  -3  119.29   23.30
  17  -3  -3  315.37   27.70
  14   3   3  209.98   37.70
  -3 -14  -3  325.57   25.10
 -14  17  -3  279.37   21.30
 -14  17  -3  275.17   30.90
  -3 -14  -3  284.27   25.20
 -17  14   3  321.27   31.00
  17  -3  -3  294.17   21.10
 -14  -3  -3  292.57   19.60
  -3  17  -3  295.97   27.50
 -17   3   3  253.17   18.50
  17 -14  -3  261.37   31.00
 -14  -3  -3  250.37   26.30
   3  14   3  249.48   38.40
  -3  17  -3  301.47   20.30
  18  -4  -3   33.20   18.70
  18  -4  -3   36.60   11.00
 -14  18  -3   37.20   12.30
  14   4   3  -37.60   30.40
  -4 -14  -3   12.10   13.40
 -14  18  -3   16.10   18.80
 -18  14   3   42.60   20.00
  -4 -14  -3   16.30   12.70
 -14  -4  -3   29.80   10.30
  -4  18  -3   23.10   15.60
  18 -14  -3   14.50   20.40
  -4  18  -3   15.30   11.80
 -14  -4  -3   22.80   13.70
   4  14   3  -15.60   31.20
  14   5   3   12.50   30.90
 -14  19  -3   63.19   13.30
  19  -5  -3   63.89   19.80
  -5 -14  -3   56.79   15.00
  19  -5  -3   91.49   15.40
 -14  19  -3   73.69   19.10
  -5 -14  -3   61.79   14.00
 -19  14   3   68.79   20.40
 -14  -5  -3   75.49   11.40
  19 -14  -3   52.79   21.50
   5  14   3   47.10   31.50
 -14  -5  -3   64.19   15.30
  -5  19  -3   65.59   17.30
  -5  19  -3   75.59   12.70
  -6 -14  -3   96.09   14.70
  -6 -14  -3   76.09   15.20
 -20  14   3  106.69   19.30
  14   6   3   66.19   29.20
 -14  20  -3   81.29   20.10
  20  -6  -3  109.79   15.20
  20  -6  -3   65.79   21.00
 -14  20  -3   89.19   15.60
  20 -14  -3   89.79   22.00
 -14  -6  -3   88.89   14.20
 -14  -6  -3   70.59   16.00
  -6  20  -3   89.39   13.50
  -6  20  -3   83.39   17.70
   6  14   3   24.80   32.00
 -21  14   3   76.79   18.50
   7 -21   3   66.09   16.60
  21  -7  -3  103.69   20.60
  21  -7  -3   80.89   14.20
  -7 -14  -3   85.19   13.20
  -7 -14  -3   82.09   15.60
  14   7   3   24.20   27.80
 -14  21  -3   85.09   18.90
 -14  -7  -3   85.69   12.60
  -7  21  -3   76.79   17.60
  -7  21  -3   86.39   14.80
  21 -14  -3   93.19   22.30
 -14  -7  -3   71.19   15.10
   7  14   3   46.80   30.90
  14   8   3  -12.80   26.70
 -14  22  -3   34.40   16.50
   8 -22   3   -6.20   14.40
 -22  14   3   43.80   17.40
  -8 -14  -3   29.70   13.50
  22  -8  -3   20.50   18.80
  -8  22  -3   36.10   12.50
  22 -14  -3   17.40   19.90
  -8  22  -3   36.90   16.10
   8  14   3    9.00   28.60
 -14  -8  -3   33.00   14.10
 -23  14   3   22.70   16.10
  23  -9  -3   22.30   19.80
  14   9   3  -10.30   27.20
  -9 -14  -3   27.20   13.30
 -14  23  -3   16.80   16.50
   9  14   3    2.50   28.00
  -9  23  -3   23.30   11.20
  23 -14  -3    2.40   19.30
 -14  -9  -3   29.90   13.40
  -9  23  -3   23.00   15.20
 -24  14   3   49.99   16.90
 -10 -14  -3   54.99   14.10
  14  10   3   23.50   27.30
  24 -10  -3   66.79   20.60
 -14  24  -3   61.09   17.70
 -14 -10  -3   45.30   14.30
  10  14   3   17.10   26.30
 -10  24  -3   62.79   17.40
  24 -14  -3   58.69   20.90
  25 -11  -3   -5.60   19.40
 -14  25  -3   29.10   16.10
 -11 -14  -3   15.60   13.10
 -25  14   3    5.30   15.90
  14  11   3    1.00   27.00
 -14 -11  -3   17.30   14.10
  25 -14  -3   -1.80   19.30
 -11  25  -3   17.10   15.50
  11  14   3   -2.00   26.60
 -12 -14  -3  131.99   22.50
  26 -12  -3  124.19   23.20
 -26  14   3  148.29   23.50
 -14  26  -3  161.08   25.70
 -12  26  -3  169.08   23.90
 -14 -12  -3  116.99   23.10
  26 -14  -3  119.79   23.00
 -13 -14  -3   62.19   16.30
  13 -27   3   56.69   27.80
  27 -13  -3   70.19   22.10
 -27  14   3   71.49   18.20
 -14  27  -3   83.99   23.60
  14  13   3   32.50   27.10
 -14 -13  -3   62.09   15.10
  27 -14  -3   55.69   30.60
  13  14   3   46.30   27.40
  14 -27   3   92.39   30.00
 -27  13   3   72.89   17.60
 -13  27  -3   80.19   19.60
  14 -28   3   16.50   25.70
  14  14   3   26.40   26.90
 -14  28  -3   37.80   17.80
  28 -14  -3   -8.70   20.80
   8   7  -3   51.89   10.70
   7 -15  -3   62.49   18.60
  -8  15   3   97.49   30.70
  15  -7   3   72.39   30.50
   8   7  -3   60.09   12.20
   8   7  -3   47.80   11.90
 -15   8  -3   67.19   11.40
  -7  15   3   88.79   33.00
   7   8  -3   58.89   11.20
  15  -8   3   50.69   29.00
   7   8  -3   57.89   11.10
 -15   7  -3   63.59   11.60
   7   8  -3   49.10   11.50
 -15   7  -3   27.80   16.30
   8 -15  -3   65.39   18.80
   6 -15  -3  137.49   22.50
  15  -6   3  117.69   30.30
   9   6  -3  130.29   15.40
   9   6  -3  106.99   16.00
   6 -15  -3  114.69   20.70
 -15   9  -3  131.09   14.80
   9   6  -3  144.79   15.70
 -15   9  -3   83.99   18.50
  -9  15   3  158.18   30.70
   6   9  -3  119.99   18.20
  -6  15   3  155.08   35.10
   9 -15  -3  156.58   24.10
 -15   6  -3  102.19   14.40
   6   9  -3  119.89   15.40
   6   9  -3  139.69   15.50
  15  -9   3  149.09   29.40
  10   5  -3   73.59   13.00
  15  -5   3   44.30   29.00
  10   5  -3   87.99   14.90
 -15  10  -3   31.50   16.70
 -15  10  -3   62.19   11.60
   5 -15  -3   69.19   17.40
 -10  15   3  112.59   30.90
   5 -15  -3   67.09   11.70
  -5  15   3   86.59   33.10
  10 -15  -3   91.69   19.30
  15 -10   3   94.29   27.80
   5  10  -3   59.49   11.60
   5  10  -3   64.59   12.40
   5  10  -3   92.39   14.00
 -15   5  -3   66.99   11.10
 -11  15   3  105.69   29.20
 -15  11  -3   72.79   11.70
  15  -4   3   25.80   28.60
   4 -15  -3   61.29   11.90
   4 -15  -3   75.89   17.40
  11   4  -3   51.39   11.30
  11   4  -3   58.89   13.30
  15 -11   3   96.59   27.10
 -15   4  -3   22.60   17.20
   4  11  -3   51.49   11.70
 -15   4  -3   57.59   10.90
  11 -15  -3   56.89   18.80
   4  11  -3   83.29   13.90
   4  11  -3   63.09   13.10
  -4  15   3   57.19   32.10
 -11  -4   3   71.09   13.20
   3 -15  -3   51.19   15.50
   3 -15  -3   26.30   11.60
 -12  15   3   73.09   28.00
  15  -3   3    7.00   28.70
  12   3  -3   24.30   13.90
 -15  12  -3   34.50   11.10
  12   3  -3   43.50   10.80
   3  12  -3   54.09   10.60
 -15   3  -3   41.40   10.10
 -12  -3   3   39.60    9.70
   3  12  -3   36.10   11.90
  12 -15  -3   40.60   19.00
 -15   3  -3   26.50   14.80
   3  12  -3   43.00   16.00
  -3  15   3   38.50   31.90
  15  -2   3   16.50   30.20
  13   2  -3   45.00   14.30
   2 -15  -3   44.20   15.10
 -13  15   3   40.30    9.60
 -15  13  -3   48.80   11.60
 -13  15   3   87.99   27.90
   2 -15  -3   54.79   15.10
  13   2  -3   56.39   11.30
   2  13  -3   39.80   11.70
  13 -15  -3   59.89   19.00
 -15   2  -3   16.50   14.50
  -2  15   3   27.10   34.00
  15 -13   3   69.99   27.00
 -13  -2   3   28.60    9.00
   2  13  -3   44.60   13.90
   2  13  -3   90.29   16.20
 -15   2  -3   49.00   10.70
  15  -1   3   86.59   31.10
  14   1  -3   87.89   17.40
   1 -15  -3  129.29   18.50
   1 -15  -3  142.89   19.90
 -14  15   3  149.29   26.60
 -15  14  -3  110.99   16.10
  14   1  -3  141.79   16.40
 -14  15   3   77.09   13.90
 -15   1  -3  108.89   17.50
   1  14  -3  136.59   15.30
   1  14  -3  140.59   22.00
  14 -15  -3  123.69   21.10
 -14  -1   3   99.79   12.60
   1  14  -3  103.79   14.90
 -15   1  -3   69.49   17.80
  -1  15   3   94.19   35.30
 -15  15   3  135.69   26.30
 -15  15  -3  112.49   14.90
  15   0  -3  103.79   16.70
 -15  15  -3   64.89   19.80
   0 -15  -3  103.89   17.00
   0 -15  -3   75.39   14.30
  15   0  -3  110.49   15.00
  15   0   3   44.70   31.10
   0  15  -3  117.19   21.00
   0  15   3   25.40   33.70
   0  15  -3  109.89   14.70
   0  15  -3  115.69   14.80
  15 -15  -3  104.79   21.30
 -15   0  -3   78.79   12.80
 -15   0  -3   73.29   16.30
  15 -15   3  157.98   28.30
  -1 -15  -3   95.19   18.90
  16  -1  -3   96.09   17.90
  16  -1  -3  122.89   16.30
 -15  16  -3  107.79   15.00
  15   1   3   56.19   31.30
 -16  15   3  120.19   25.30
  -1 -15  -3   91.19   16.60
 -16  15   3   74.79   10.10
 -15  16  -3   58.49   19.30
   1  15   3   56.59   34.10
  16 -15  -3  104.49   21.70
  -1  16  -3   80.99   16.70
 -15  -1  -3   52.99   15.70
  -1  16  -3  112.29   14.60
  -1  16  -3   78.99   13.30
 -15  -1  -3   82.59   12.80
 -15  17  -3  103.19   20.90
  17  -2  -3  117.09   20.60
  -2 -15  -3  124.99   19.80
 -17  15   3  125.99   24.50
  -2 -15  -3  120.29   20.40
  17  -2  -3  150.98   16.10
 -15  17  -3  136.29   16.00
  15   2   3   92.99   32.00
   2  15   3   58.39   34.50
 -15  -2  -3  128.29   15.00
  -2  17  -3  117.59   16.40
  17 -15  -3  128.79   22.60
  -2  17  -3  161.18   25.10
 -15  -2  -3  122.09   25.40
 -18  15   3   19.70   20.50
  15   3   3  -45.70   28.40
  18  -3  -3    8.10   17.90
 -15  18  -3   18.50   11.80
  -3 -15  -3   23.80   16.20
  -3 -15  -3   17.60   13.00
  18  -3  -3   37.10   11.10
 -15  18  -3   10.90   17.60
 -15  -3  -3   17.00   14.30
 -15  -3  -3   17.10    9.90
   3  15   3    1.70   30.60
  18 -15  -3   17.90   19.90
  -3  18  -3   22.40   16.00
  -3  18  -3   24.10   11.30
 -15  19  -3   54.59   19.00
  15   4   3   21.70   27.60
 -19  15   3   60.09   20.50
  -4 -15  -3   56.99   14.40
  19  -4  -3   47.40   20.10
 -15  19  -3   63.79   13.20
  -4 -15  -3   71.09   16.50
  19  -4  -3   80.89   14.40
 -15  -4  -3   66.99   12.00
  19 -15  -3   60.99   21.00
 -15  -4  -3   56.69   15.30
  -4  19  -3   55.39   16.80
  -4  19  -3   66.49   13.70
   4  15   3    1.10   31.40
  20  -5  -3   41.30   20.70
  -5 -15  -3   57.69   14.60
 -20  15   3   50.39   19.60
 -15  20  -3   41.50   18.30
  20  -5  -3   86.49   15.40
  -5 -15  -3   61.69   14.30
  15   5   3   25.30   28.90
  -5  20  -3   49.00   13.20
  -5  20  -3   56.89   16.60
 -15  -5  -3   53.89   15.50
   5  15   3   14.80   33.00
  20 -15  -3   55.29   21.10
  21  -6  -3   57.99   19.70
  21  -6  -3   41.50   11.00
  15   6   3   35.40   27.80
  -6 -15  -3   40.80   11.80
 -21  15   3   40.50   18.70
 -15  21  -3   42.70   18.50
  -6 -15  -3   42.50   14.10
  -6  21  -3   55.09   12.50
 -15  -6  -3   43.20   14.10
   6  15   3   -4.10   29.80
  -6  21  -3   51.89   16.50
 -15  -6  -3   37.40   10.50
  21 -15  -3   59.29   20.40
 -22  15   3   90.09   18.20
  22  -7  -3  110.39   14.40
  15   7   3   41.80   28.60
  -7 -15  -3   99.49   19.80
 -15  22  -3  102.69   19.10
  22  -7  -3   91.99   20.60
   7 -22   3  106.79   18.40
 -15  -7  -3   77.79   13.70
  -7  22  -3  120.59   24.00
  -7  22  -3   98.09   15.80
   7  15   3   52.59   29.20
 -15  -7  -3  110.69   21.20
  22 -15  -3  104.19   21.80
 -23  15   3   61.39   17.50
 -15  23  -3   65.99   17.60
  23  -8  -3   72.69   11.60
  23  -8  -3   61.69   19.40
  -8 -15  -3   58.09   14.40
  15   8   3   39.50   27.80
  23 -15  -3   55.89   19.80
  -8  23  -3   57.29   13.20
 -15  -8  -3   66.89   14.80
   8  15   3   61.09   30.20
  -8  23  -3   51.19   17.30
  15   9   3    0.40   25.80
 -24  15   3   28.60   16.10
  24  -9  -3    4.00   18.30
  -9 -15  -3   28.50   13.40
 -15  24  -3   41.80   17.00
   9  15   3   -0.40   26.60
 -15  -9  -3   28.80   14.20
  -9  24  -3   31.60   15.40
  24 -15  -3   13.70   19.00
  -9  24  -3   27.40   11.90
 -10 -15  -3   99.89   19.30
 -25  15   3  106.59   18.30
  25 -10  -3   85.59   21.80
  15  10   3   83.89   28.40
 -15  25  -3   96.59   19.10
  25 -15  -3  128.79   22.50
 -10  25  -3  130.99   24.20
 -15 -10  -3   70.29   15.90
  10  15   3   84.59   29.00
  15 -25   3   85.19   28.10
 -11 -15  -3   15.70   13.80
 -15  26  -3   40.20   16.80
 -26  15   3   23.80   16.70
  26 -11  -3    1.80   19.70
  26 -15  -3    5.40   19.60
 -11  26  -3   34.60   15.80
 -15 -11  -3   18.30   14.10
  11  15   3   13.60   36.20
 -27  15   3   23.20   16.90
  12 -27   3    6.10   24.10
 -12 -15  -3   16.90   13.80
  15  12   3   10.20   26.80
  27 -12  -3  -19.60   19.50
  15 -27   3   18.70   24.90
  12  15   3    8.90   27.30
 -12  27  -3   27.70   16.50
 -15 -12  -3   14.20   14.60
  15  13   3   70.29   27.80
 -28  15   3  100.79   21.70
 -15  28  -3  130.19   25.70
  13 -28   3   82.19   26.90
 -15 -13  -3   62.99   18.30
  15 -28   3  141.59   33.10
  28 -15  -3   71.79   22.00
 -13  28  -3  127.49   24.40
  13  15   3   64.99   29.90
 -29  15   3   40.50   18.40
 -14 -15  -3   28.70   15.30
  29 -14  -3    9.40   20.20
 -15  29  -3   38.30   17.50
  15  14   3   10.60   26.30
  14 -29   3   17.80   24.70
  14  15   3   37.00   26.70
 -15 -14  -3   24.10   15.20
  29 -15  -3    5.50   20.20
  15 -29   3   22.40   27.30
 -29  14   3   49.10   18.00
 -14  29  -3   38.80   17.50
 -16   8  -3  119.19   23.70
   8   8  -3  143.79   18.20
   8   8  -3  155.38   16.00
   8   8  -3  171.08   15.90
   8 -16  -3  145.79   24.60
 -16   8  -3  159.18   16.30
  -8  16   3  167.18   34.60
   7 -16  -3  636.94   40.30
   9   7  -3  615.74   35.10
  16  -7   3  617.14   49.80
 -16   9  -3  647.44   34.90
  -9  16   3  745.93   55.19
 -16   9  -3  687.53   42.30
   9   7  -3  592.44   36.00
   7   9  -3  656.63   37.20
   9 -16  -3  592.04   41.00
   7   9  -3  647.04   35.60
 -16   7  -3  687.13   40.50
  -7  16   3  698.83   57.39
   7   9  -3  617.44   35.00
  16  -9   3  677.43   49.30
 -16   7  -3  654.83   35.10
  10   6  -3  155.08   16.10
 -16  10  -3  131.39   25.80
  10   6  -3  138.09   17.50
 -10  16   3  216.98   39.30
   6 -16  -3  136.69   23.50
 -16  10  -3  150.18   16.20
  16  -6   3  110.49   30.70
  -6  16   3  123.09   34.70
  10 -16  -3  199.48   24.00
   6  10  -3  161.58   16.40
   6  10  -3  163.18   15.50
 -16   6  -3  127.79   15.10
   6  10  -3  146.39   19.00
  16 -10   3  170.48   29.80
   5 -16  -3   87.39   16.40
 -16  11  -3   45.50   18.20
  16  -5   3   72.59   30.60
  11   5  -3   95.39   14.60
 -11  16   3  131.49   31.80
 -16  11  -3  107.99   13.90
   5 -16  -3  103.59   18.60
  11   5  -3   74.99   13.60
   5  11  -3   76.09   14.70
   5  11  -3   98.49   15.20
 -16   5  -3   46.40   16.90
  11 -16  -3   92.59   19.20
 -16   5  -3   85.19   13.20
  16 -11   3   81.99   29.70
  -5  16   3   63.59   34.00
   5  11  -3   79.49   14.00
  12   4  -3  337.87   23.00
 -16  12  -3  282.77   32.30
   4 -16  -3  350.46   24.20
 -12  16   3  426.36   43.60
  12   4  -3  341.17   23.10
 -16  12  -3  311.57   22.60
   4 -16  -3  296.97   27.30
  16  -4   3  289.27   44.70
 -12  16   3  308.47   22.50
 -16   4  -3  295.37   29.50
  -4  16   3  356.26   49.00
   4  12  -3  340.27   26.70
  16 -12   3  404.96   40.80
  12 -16  -3  304.27   30.40
 -12  -4   3  325.57   22.00
   4  12  -3  341.27   22.10
 -16   4  -3  335.17   21.20
   4  12  -3  327.77   22.80
  16  -3   3  491.05   49.30
   3 -16  -3  498.65   33.00
 -13  16   3  609.44   45.10
 -13  16   3  514.45   29.00
 -16  13  -3  484.35   29.40
  13   3  -3  489.95   29.70
  13   3  -3  463.85   31.30
 -16  13  -3  487.75   37.90
 -16   3  -3  515.55   33.60
   3  13  -3  478.95   28.90
  -3  16   3  478.65   51.09
 -16   3  -3  534.65   28.10
   3  13  -3  489.45   28.90
 -13  -3   3  431.16   28.50
  13 -16  -3  475.15   36.00
  16 -13   3  527.05   45.20
   3  13  -3  518.15   33.40
   2 -16  -3  151.48   20.70
 -16  14  -3  172.58   16.40
  16  -2   3  141.49   33.50
  14   2  -3  159.58   20.10
  14   2  -3  187.28   17.30
   2 -16  -3  169.98   19.40
 -14  16   3  230.88   38.60
   2  14  -3  194.78   21.70
 -16   2  -3  125.79   26.30
  14 -16  -3  180.38   25.50
 -14  -2   3  128.29   14.80
   2  14  -3  165.78   18.10
  -2  16   3  150.68   37.30
  16 -14   3  250.07   37.00
   2  14  -3  176.18   17.00
 -16   2  -3  157.98   15.70
  15   1  -3  476.45   28.60
  15   1  -3  446.66   31.70
 -16  15  -3  448.36   28.30
   1 -16  -3  476.65   30.40
   1 -16  -3  466.95   31.10
 -16  15  -3  486.45   37.10
  16  -1   3  372.46   46.40
 -15  16   3  450.15   27.30
 -15  16   3  548.05   42.80
 -15  -1   3  466.05   26.10
   1  15  -3  472.95   27.80
  15 -16  -3  461.85   35.50
   1  15  -3  454.65   28.20
   1  15  -3  522.25   33.70
 -16   1  -3  440.76   32.50
  -1  16   3  406.36   49.90
 -16  16   3   17.60    9.60
 -16  16   3   81.49   25.60
 -16  16  -3   48.00   12.80
   0 -16  -3   34.30   16.40
  16   0  -3   42.30   11.30
   0 -16  -3   34.30   13.00
  16   0   3   22.90   29.80
  16   0  -3   39.10   15.30
 -16   0  -3   19.30   15.20
  16 -16  -3   52.69   20.10
   0  16   3  -15.40   33.10
   0  16  -3   38.00   15.70
 -16   0  -3   31.40   10.20
   0  16  -3   39.00   11.60
   0  16  -3   41.50   10.50
  17  -1  -3  151.28   17.40
  16   1   3  109.39   31.10
 -16  17  -3  112.19   21.90
 -17  16   3  131.49   15.30
  -1 -16  -3  142.39   20.50
 -17  16   3  201.58   33.20
  -1 -16  -3  155.08   21.30
 -16  17  -3  157.18   16.70
  17  -1  -3  149.19   22.40
 -16  -1  -3  123.09   23.40
  -1  17  -3  176.08   23.50
  -1  17  -3  153.78   16.00
   1  16   3  153.98   34.80
  -1  17  -3  130.79   17.50
  17 -16  -3  174.18   27.40
 -16  -1  -3  150.88   15.40
  16   2   3  110.39   32.00
  18  -2  -3  153.08   26.00
  -2 -16  -3  157.08   20.30
 -18  16   3  170.68   30.90
  -2 -16  -3  150.48   21.30
 -18  16   3  130.19   15.70
 -16  18  -3  152.88   26.90
  18  -2  -3  163.48   16.80
  -2  18  -3  172.98   25.30
   2  16   3  118.59   33.80
 -16  -2  -3  142.79   15.30
 -16  -2  -3  127.19   26.50
  -2  18  -3  148.79   16.60
  -2  18  -3  135.99   16.00
  18 -16  -3  147.49   25.70
  19  -3  -3  287.77   29.80
 -16  19  -3  283.17   31.10
  -3 -16  -3  273.77   25.50
 -19  16   3  281.07   33.00
  16   3   3  206.28   36.50
  19  -3  -3  270.17   21.10
 -19  16   3  289.17   19.30
  -3  19  -3  246.58   20.90
 -16  -3  -3  257.57   27.00
   3  16   3  242.18   37.70
 -16  -3  -3  268.57   19.70
  19 -16  -3  251.97   30.00
  -3  19  -3  291.67   27.40
  -4 -16  -3   73.39   14.80
  -4 -16  -3   93.79   15.30
 -20  16   3   76.69   21.10
 -16  20  -3   63.59   18.90
  20  -4  -3  102.09   15.00
  20  -4  -3   85.49   20.20
 -20  16   3   66.59   12.20
  16   4   3   43.40   30.00
 -16  -4  -3  104.89   21.70
   4  16   3   40.00   32.30
  -4  20  -3   93.29   18.30
  20 -16  -3   77.79   21.20
  -4  20  -3   84.39   13.50
  -5 -16  -3  162.68   21.30
  21  -5  -3  160.18   16.30
  21  -5  -3  161.88   25.50
 -16  21  -3  168.38   28.00
  -5 -16  -3  178.68   18.20
  16   5   3  134.49   31.80
 -21  16   3  162.98   26.00
  21 -16  -3  146.29   23.00
  -5  21  -3  165.28   17.10
   5  16   3  102.39   34.00
  -5  21  -3  196.28   24.70
 -16  -5  -3  184.08   22.40
  -6 -16  -3   77.59   12.20
  22  -6  -3   57.69   20.30
  16   6   3   39.70   29.40
  -6 -16  -3   65.79   14.70
  22  -6  -3   62.49   11.40
 -22  16   3   55.39   19.20
 -16  22  -3   74.19   18.60
 -16  -6  -3   57.59   15.30
  22 -16  -3   68.49   20.10
  -6  22  -3   68.09   13.20
  -6  22  -3   66.79   16.70
   6  16   3   49.90   29.00
  23  -7  -3   91.39   15.10
  16   7   3   66.19   28.30
  23  -7  -3   64.29   20.20
 -16  23  -3  127.39   24.70
  -7 -16  -3   90.99   16.10
 -23  16   3   99.69   18.80
   7  16   3   57.99   30.20
  23 -16  -3   86.19   21.10
  -7  23  -3  128.69   24.00
 -16  -7  -3  100.09   18.60
  -7  23  -3  104.29   15.10
 -16  24  -3  125.39   24.50
  16   8   3   70.29   27.00
  24  -8  -3   86.39   14.40
  -8 -16  -3   97.89   19.70
  24  -8  -3   84.79   20.30
 -24  16   3   89.89   18.40
  24 -16  -3   77.39   20.60
   8  16   3   54.39   29.40
  -8  24  -3   89.59   18.20
  16 -24   3   80.29   24.20
 -16  -8  -3   69.49   15.50
  -8  24  -3   90.79   15.60
 -16  25  -3  157.38   25.70
  16   9   3   88.09   28.60
 -25  16   3  134.39   23.90
  -9 -16  -3  134.39   21.20
  25  -9  -3  123.59   14.70
  25  -9  -3  144.99   22.60
   9  16   3   77.69   27.80
  25 -16  -3  107.79   21.70
  -9  25  -3  139.29   24.70
  16 -25   3  105.69   25.40
 -16  -9  -3  107.69   21.50
 -16  26  -3   42.00   17.30
 -10 -16  -3   39.40   14.20
  26 -10  -3   33.60   20.40
 -26  16   3   52.19   17.40
 -10  26  -3   45.10   17.10
 -16 -10  -3   40.30   14.70
  10  16   3    2.70   28.90
  26 -16  -3   18.60   20.10
  16 -26   3   52.09   37.40
 -11 -16  -3   21.10   14.60
  16  11   3    6.60   25.60
 -27  16   3   37.40   16.90
  11 -27   3   22.90   29.60
  27 -11  -3   16.60   20.70
  11  16   3    7.40   28.10
  27 -16  -3    6.30   22.70
 -16 -11  -3   28.60   15.10
 -11  27  -3   42.10   17.00
  16 -27   3   15.10   27.00
  16  12   3  127.09   28.90
 -16  28  -3  160.38   26.50
 -28  16   3  166.98   24.50
  12 -28   3  161.18   32.10
 -16 -12  -3  149.59   24.00
  12  16   3  121.89   29.90
  28 -16  -3  148.79   24.10
  16 -28   3  131.09   31.30
 -12  28  -3  168.48   26.20
 -13 -16  -3   16.80   15.10
  16  13   3   22.40   25.60
 -29  16   3   29.90   22.60
 -16  29  -3   39.50   17.80
  13  16   3   19.90   27.50
 -16 -13  -3   16.80   15.10
 -13  29  -3   32.50   17.40
 -17   9  -3  144.29   16.20
   9   8  -3  163.48   17.40
  -9  17   3  215.08   36.50
   9   8  -3  148.19   16.20
  17  -8   3  170.18   31.90
   9   8  -3  163.28   19.90
   8 -17  -3  169.18   25.40
 -17   8  -3  159.68   16.40
   8   9  -3  158.78   17.30
   8   9  -3  172.08   16.60
  -8  17   3  167.18   36.80
   8   9  -3  165.28   19.90
   9 -17  -3  175.08   25.20
 -17   8  -3  119.99   20.50
 -10  17   3  108.79   32.40
   7 -17  -3  100.79   19.60
  10   7  -3  104.99   15.40
  10   7  -3  104.19   16.30
 -17  10  -3  100.19   15.10
  17  -7   3   79.19   31.00
  10 -17  -3  109.79   19.90
   7  10  -3   86.69   14.50
  -7  17   3   85.19   33.30
   7  10  -3  117.29   15.80
  17 -10   3  105.99   29.70
   7  10  -3  105.99   18.80
 -17   7  -3  108.89   15.10
  11   6  -3  258.67   20.20
 -17  11  -3  247.38   19.00
 -11  17   3  341.67   43.20
  11   6  -3  243.48   20.00
   6 -17  -3  255.07   27.40
 -17  11  -3  220.88   27.50
  17  -6   3  267.87   42.00
 -11  17   3  226.18   21.00
  -6  17   3  227.48   38.70
  17 -11   3  288.47   38.70
 -17   6  -3  176.28   27.30
 -17   6  -3  259.97   19.00
   6  11  -3  262.57   19.60
   6  11  -3  226.48   21.70
  11 -17  -3  237.58   27.70
 -17  12  -3  102.69   15.10
  17  -5   3   37.40   30.30
   5 -17  -3   72.89   13.00
  12   5  -3   52.29   16.90
 -12  17   3   50.39   11.90
 -17  12  -3   41.10   18.70
 -12  17   3  135.49   32.10
   5 -17  -3   80.89   18.40
   5  12  -3   65.49   12.40
   5  12  -3  116.49   21.60
  -5  17   3   46.60   32.90
  17 -12   3   78.19   29.50
  12 -17  -3   87.19   19.80
 -17   5  -3   87.59   14.30
 -17  13  -3  148.19   16.40
 -13  17   3  104.69   17.30
  17  -4   3   89.79   31.40
   4 -17  -3  128.59   19.80
 -13  17   3  146.99   32.10
  13   4  -3  127.59   17.60
 -17  13  -3   92.19   20.30
  13   4  -3  166.08   16.50
   4 -17  -3  138.59   23.20
  -4  17   3   96.79   36.00
 -13  -4   3  133.19   16.80
   4  13  -3  151.58   15.50
 -17   4  -3  125.29   15.70
   4  13  -3  176.18   22.90
  13 -17  -3  178.78   25.90
   4  13  -3  154.58   16.40
  14   3  -3  119.59   16.80
   3 -17  -3   90.19   18.20
  17  -3   3   67.59   31.90
  14   3  -3   89.99   16.10
 -17  14  -3  119.39   15.70
   3 -17  -3   89.99   18.60
 -14  17   3   76.29   12.30
 -14  17   3  122.29   30.50
 -17  14  -3   48.90   19.90
  14 -17  -3  117.19   21.00
 -14  -3   3   75.59   12.50
   3  14  -3  109.99   16.10
  17 -14   3  142.39   30.30
   3  14  -3   84.69   17.10
   3  14  -3  101.19   14.60
 -17   3  -3   96.49   14.10
  -3  17   3   56.99   35.60
 -17  15  -3  155.78   23.60
   2 -17  -3  213.58   23.60
  17  -2   3  221.18   33.10
 -15  17   3  187.38   18.60
   2 -17  -3  200.88   21.40
  15   2  -3  175.98   21.80
 -17  15  -3  204.38   18.20
 -15  17   3  281.47   37.80
  15   2  -3  205.88   18.30
  15 -17  -3  229.58   28.20
 -17   2  -3  199.88   17.20
   2  15  -3  219.48   18.90
   2  15  -3  240.38   26.80
 -15  -2   3  177.98   17.00
  -2  17   3  179.48   37.90
   2  15  -3  204.58   18.10
 -17   2  -3  153.08   23.70
 -16  17   3   65.99   26.50
   1 -17  -3   34.30   13.40
  16   1  -3   36.60   16.50
  16   1  -3   53.89   12.10
 -17  16  -3   13.70   19.20
   1 -17  -3   47.00   16.50
  17  -1   3   37.70   29.90
 -16  17   3   29.50   10.50
   1  16  -3   46.30   16.10
  17 -16   3  100.79   27.20
 -16  -1   3   65.99   12.40
  16 -17  -3   42.50   19.80
 -17   1  -3   26.80   15.30
  -1  17   3   -7.50   33.00
   1  16  -3   43.40   12.70
   1  16  -3   51.79   11.10
   0 -17  -3  129.69   21.60
 -17  17   3   83.09   15.50
 -17  17   3  147.49   27.20
   0 -17  -3  125.39   20.00
  17   0  -3  131.49   16.20
 -17  17  -3   70.99   21.00
  17   0  -3  139.89   20.00
  17   0   3   74.29   31.60
 -17   0  -3   94.39   13.80
  17 -17  -3  110.49   21.20
   0  17  -3  149.88   24.10
   0  17  -3  123.59   16.30
 -17   0  -3   76.69   17.50
   0  17  -3  133.19   15.50
   0  17   3   65.69   34.10
  -1 -17  -3   80.29   16.60
  18  -1  -3   70.19   17.10
 -18  17   3   83.19   24.80
  18  -1  -3   99.39   16.10
 -18  17   3   44.10   11.00
 -17  18  -3   45.70   18.30
  -1 -17  -3   66.59   14.80
  17   1   3   31.80   31.00
   1  17   3   32.80   32.00
  -1  18  -3   64.59   11.50
  18 -17  -3   86.19   20.30
  -1  18  -3   57.59   13.20
 -17  -1  -3   38.70   15.40
  -1  18  -3   72.99   16.60
 -17  -1  -3   64.99   11.80
  -2 -17  -3  107.69   17.60
  19  -2  -3   88.99   18.70
 -19  17   3   99.19   23.70
 -19  17   3   74.59   11.50
 -17  19  -3   85.09   19.80
  19  -2  -3  114.69   15.30
  17   2   3   72.29   30.90
  -2 -17  -3   72.89   15.50
  -2  19  -3   79.69   14.50
  19 -17  -3   88.39   20.60
 -17  -2  -3   70.29   15.80
   2  17   3   34.30   32.30
  -2  19  -3  132.49   22.90
  -2  19  -3   94.49   14.50
  -3 -17  -3   41.80   14.60
 -20  17   3   39.40   11.60
 -17  20  -3   24.30   17.30
  20  -3  -3   39.60   17.90
  17   3   3    0.80   27.90
  20  -3  -3   43.30   11.40
 -20  17   3   41.40   21.60
   3  17   3    9.10   30.30
 -17  -3  -3   38.90   14.90
  20 -17  -3   47.80   19.20
  -3  20  -3   37.90   15.50
  -3  20  -3   28.30   10.30
  -3  20  -3   51.79   11.90
 -17  21  -3  218.78   28.90
  17   4   3  152.18   32.70
  -4 -17  -3  205.38   22.40
  -4 -17  -3  220.58   20.00
  21  -4  -3  189.88   18.40
  21  -4  -3  216.68   25.30
 -21  17   3  196.28   29.60
 -17  -4  -3  218.28   22.70
  -4  21  -3  188.98   17.80
  -4  21  -3  225.78   25.60
   4  17   3  141.19   34.10
  21 -17  -3  190.18   27.40
 -17  22  -3   15.10   17.20
  -5 -17  -3   37.30   12.10
  22  -5  -3   41.30   11.20
  -5 -17  -3   40.20   13.80
 -22  17   3   24.00   18.70
  22  -5  -3   32.30   19.50
  17   5   3   -8.20   29.00
  17 -22   3    7.60   25.00
  -5  22  -3   28.90   11.40
  -5  22  -3   38.00   16.50
   5  17   3    6.00   28.60
 -17  -5  -3   36.90   14.80
  22 -17  -3   37.00   18.60
  -6 -17  -3   69.99   14.10
 -17  23  -3   74.89   18.30
  17   6   3   60.29   28.10
  23  -6  -3   78.49   13.50
 -23  17   3   68.89   19.70
  23  -6  -3   64.89   20.10
  -6 -17  -3   74.19   14.70
  -6  23  -3   66.19   14.10
 -17  -6  -3   99.39   19.70
  23 -17  -3   70.49   19.60
  -6  23  -3   84.59   17.60
   6  17   3   46.00   29.40
  17 -23   3   68.59   24.90
  24  -7  -3    8.50   18.70
  24  -7  -3   17.70   10.40
 -17  24  -3   35.80   16.90
  17   7   3   -3.50   26.80
  -7 -17  -3   12.30   13.80
 -24  17   3   18.00   17.50
  -7  24  -3   23.00   15.40
  24 -17  -3   -5.40   17.50
  17 -24   3   10.50   24.70
   7  17   3  -21.30   27.20
 -17  -7  -3   22.70   12.80
  -7  24  -3   11.20   10.70
 -25  17   3   12.30   16.90
  17   8   3   19.20   26.50
  25  -8  -3   19.20   10.60
  -8 -17  -3    4.70   13.50
 -17  25  -3   23.80   16.60
  25  -8  -3   -5.90   17.70
  17 -25   3    2.40   24.10
   8  17   3    0.40   28.80
  -8  25  -3   30.00   16.40
  25 -17  -3    9.70   18.80
 -17  -8  -3   20.40   13.60
 -26  17   3   85.69   19.80
  26  -9  -3   60.09   13.70
  26  -9  -3   41.10   20.30
  -9 -17  -3   66.09   15.50
 -17  26  -3   97.69   19.00
   9  17   3   37.60   28.40
 -17  -9  -3  103.59   20.40
  17 -26   3   62.09   24.40
 -27  17   3   72.59   20.00
 -17  27  -3   82.39   18.90
 -10 -17  -3   50.09   15.90
  17  10   3   48.90   28.20
  27 -10  -3   59.29   22.20
 -10  27  -3   77.99   18.60
  27 -17  -3   49.00   20.40
  17 -27   3   58.29   25.10
  10  17   3   52.79   28.70
  17  11   3   21.50   26.90
  28 -11  -3   18.20   25.10
 -17  28  -3   40.50   17.40
 -28  17   3   21.40   17.50
  11 -28   3   26.90   28.30
 -11  28  -3   50.39   17.50
 -17 -11  -3   29.80   14.90
  11  17   3   29.30   27.30
  28 -17  -3    5.20   19.80
  17 -28   3   18.10   24.50
   9   9  -3   22.30   12.00
  18  -9   3   12.20   27.30
 -18   9  -3   32.30   11.30
  -9  18   3   20.40   34.50
   9 -18  -3   31.00   18.30
 -18   9  -3   -8.80   16.70
  -9  18   3    0.30   11.90
   9   9  -3   29.70   11.10
   9   9  -3   30.20   13.50
 -10  18   3  187.08   37.40
  18  -8   3  210.38   32.70
 -10  18   3  132.89   20.10
  10   8  -3  193.18   18.40
 -18  10  -3  145.79   26.00
 -18  10  -3  194.48   17.10
  10   8  -3  175.88   19.60
  10   8  -3  161.28   17.90
   8 -18  -3  215.88   26.00
   8  10  -3  170.48   26.30
  -8  18   3  188.38   36.80
 -18   8  -3  150.18   26.90
  18 -10   3  213.68   32.70
   8  10  -3  179.78   18.00
   8  10  -3  161.08   16.80
  10 -18  -3  193.38   25.70
 -18   8  -3  194.88   17.80
  11   7  -3  488.35   29.80
 -18  11  -3  477.45   29.50
  11   7  -3  483.15   30.20
   7 -18  -3  514.65   36.50
 -18  11  -3  536.65   38.40
  18  -7   3  532.55   47.80
 -11  18   3  569.94   49.20
  -7  18   3  478.75   53.89
   7  11  -3  520.65   33.10
 -18   7  -3  503.55   29.30
   7  11  -3  475.85   29.90
 -18   7  -3  504.75   35.30
   7  11  -3  534.85   29.50
  18 -11   3  541.85   43.30
  11 -18  -3  471.05   35.80
 -12  18   3  162.08   33.80
 -18  12  -3  159.08   17.00
  12   6  -3  169.48   17.60
   6 -18  -3  160.48   24.00
  18  -6   3  142.79   31.90
 -12  18   3  114.19   19.60
  12   6  -3  169.98   18.30
 -12  -6   3  153.78   18.40
  18 -12   3  187.58   33.00
 -18   6  -3  165.88   16.30
  12 -18  -3  165.68   24.60
  -6  18   3  126.49   36.40
   6  12  -3  184.28   22.40
   6  12  -3  161.58   16.50
   6  12  -3  179.98   17.60
 -18  13  -3  468.95   35.60
  13   5  -3  414.96   29.50
  18  -5   3  433.56   46.30
  13   5  -3  464.75   28.00
   5 -18  -3  453.15   33.40
 -13  18   3  472.35   29.70
 -13  18   3  526.25   48.70
  18 -13   3  565.84   42.30
 -18   5  -3  413.06   33.30
   5  13  -3  433.46   27.60
 -13  -5   3  452.05   29.20
 -18   5  -3  447.26   27.30
  13 -18  -3  429.66   34.50
  -5  18   3  459.05   53.49
   5  13  -3  474.55   31.50
   5  13  -3  468.45   28.40
 -14  18   3  158.18   32.90
  18  -4   3  123.09   33.20
   4 -18  -3  153.58   20.50
   4 -18  -3  152.88   23.90
  14   4  -3  166.38   17.40
 -18  14  -3  126.09   21.30
  14   4  -3  131.99   18.90
 -14  18   3  125.69   18.80
   4  14  -3  147.39   16.90
  14 -18  -3  152.88   24.80
 -18   4  -3  143.39   15.80
 -14  -4   3  131.79   16.90
  -4  18   3  123.19   36.70
   4  14  -3  150.88   17.70
  18 -14   3  211.48   36.40
   4  14  -3  173.78   23.40
 -15  18   3   73.29   12.80
   3 -18  -3   82.69   18.60
 -15  18   3   89.89   30.60
 -18  15  -3   38.20   20.10
  18  -3   3   65.79   33.70
  15   3  -3  110.49   17.10
  15   3  -3   79.99   16.20
   3 -18  -3   88.09   18.30
 -18   3  -3   83.69   14.20
  15 -18  -3  114.59   21.10
  -3  18   3   16.00   34.50
   3  15  -3   92.09   16.10
   3  15  -3  126.79   25.90
   3  15  -3   85.89   14.80
   2 -18  -3  135.59   19.50
 -16  18   3  107.09   17.30
  16   2  -3  146.39   16.60
 -18  16  -3   84.69   20.80
 -16  18   3  132.29   31.60
  16   2  -3  111.19   19.60
  18  -2   3  133.09   34.30
   2 -18  -3  133.39   22.60
 -16  -2   3  123.79   18.20
 -18   2  -3   98.39   17.40
   2  16  -3  133.19   15.60
   2  16  -3  122.79   15.90
  16 -18  -3  116.09   21.60
  -2  18   3   76.99   34.60
   2  16  -3  153.98   23.70
  18  -1   3  504.05   54.39
 -17  18   3  536.45   45.90
  17   1  -3  523.05   31.30
   1 -18  -3  561.64   34.50
 -17  18   3  539.15   30.80
 -18  17  -3  556.54   40.70
   1 -18  -3  535.05   34.20
  17   1  -3  512.75   36.10
  17 -18  -3  476.65   37.70
  -1  18   3  474.85   51.09
 -18   1  -3  463.15   36.80
   1  17  -3  602.84   37.60
   1  17  -3  486.35   32.60
   1  17  -3  529.75   30.70
   0 -18  -3  177.98   23.20
   0 -18  -3  175.28   21.20
 -18  18  -3  139.59   29.00
  18   0   3  177.38   32.90
 -18  18   3  125.99   17.80
  18   0  -3  169.08   22.30
  18   0  -3  167.98   17.50
 -18  18   3  139.99   27.20
   0  18  -3  204.68   25.60
 -18   0  -3  127.89   25.00
   0  18  -3  175.48   16.20
   0  18  -3  158.18   17.10
   0  18   3  103.79   33.80
  18 -18  -3  163.18   27.20
 -19  18   3  291.97   36.00
  19  -1  -3  298.27   22.20
 -19  18   3  281.17   21.40
  -1 -18  -3  288.87   25.20
 -18  19  -3  332.57   30.50
  18   1   3  249.97   42.10
  19  -1  -3  342.77   25.80
  -1 -18  -3  289.27   25.20
   1  18   3  246.28   37.70
  -1  19  -3  295.77   21.30
  -1  19  -3  270.67   21.10
  19 -18  -3  257.27   30.00
  -1  19  -3  337.57   31.90
 -18  -1  -3  230.78   27.30
  20  -2  -3   56.29   17.90
  -2 -18  -3   48.00   15.20
 -20  18   3   35.30   10.80
  18   2   3  -15.50   28.80
 -18  20  -3   30.00   18.00
 -20  18   3   37.20   22.60
  20  -2  -3   46.20   11.50
  -2 -18  -3   44.50   14.60
   2  18   3   -9.20   30.20
 -18  -2  -3   33.60   14.00
  -2  20  -3   46.80   15.60
  -2  20  -3   46.70   11.70
  -2  20  -3   19.90   10.30
  20 -18  -3   45.10   19.50
  18   3   3   80.29   29.80
  -3 -18  -3   99.29   19.70
 -18  21  -3   88.69   20.00
  21  -3  -3  106.69   14.80
  21  -3  -3  104.69   20.00
 -21  18   3  111.79   23.40
   3  18   3   80.29   33.00
  21 -18  -3   99.89   20.60
  -3  21  -3   95.19   16.20
  -3  21  -3   92.79   19.40
  -3  21  -3   89.49   12.20
  18 -21   3   68.59   25.60
 -18  -3  -3  108.69   20.80
  18   4   3   37.40   27.40
 -18  22  -3   73.89   18.50
  -4 -18  -3   67.89   14.80
  22  -4  -3   59.89   11.50
  -4 -18  -3   68.29   14.60
  22  -4  -3   69.39   19.60
 -22  18   3   66.09   20.70
  -4  22  -3   56.59   16.20
  22 -18  -3   56.99   19.40
 -18  -4  -3   51.99   15.70
  -4  22  -3   58.69   13.10
   4  18   3   30.30   30.00
  18 -22   3   40.90   24.00
  18   5   3  122.99   31.20
  -5 -18  -3  163.98   21.10
 -23  18   3  155.68   27.00
  23  -5  -3  153.68   17.40
  23  -5  -3  165.78   26.50
  -5 -18  -3  184.28   17.00
 -18  23  -3  206.08   27.70
 -18  -5  -3  179.58   22.20
  23 -18  -3  152.18   23.80
  18 -23   3  194.38   30.10
   5  18   3  156.48   32.90
  -5  23  -3  166.78   17.10
  -5  23  -3  174.08   25.50
  -6 -18  -3   56.99   14.70
  24  -6  -3   65.59   11.80
 -24  18   3   58.99   19.60
  18   6   3   27.00   29.00
  24  -6  -3   75.59   20.40
 -18  24  -3   80.89   19.10
   6  18   3   59.19   29.00
  -6  24  -3   80.59   13.00
  -6  24  -3   62.99   17.40
  18 -24   3   55.59   25.60
 -18  -6  -3   61.89   16.20
  24 -18  -3   51.09   18.80
 -18  25  -3   68.09   18.30
  18   7   3   43.60   26.80
 -25  18   3   40.80   19.00
  -7 -18  -3   32.60   15.60
  25  -7  -3   26.50   19.70
  25  -7  -3   42.20   11.20
   7  18   3   15.80   39.50
 -18  -7  -3   45.70   14.40
  -7  25  -3   49.30   17.30
  25 -18  -3   26.50   21.00
 -26  18   3   76.49   19.70
  -8 -18  -3   71.79   16.00
  26  -8  -3   68.49   21.40
 -18  26  -3  105.49   26.90
   8  18   3   50.99   30.60
  -8  26  -3  118.69   22.80
 -18  -8  -3   96.79   19.70
  26 -18  -3   81.29   23.40
  18 -26   3   62.59   25.20
  18   9   3   61.59   28.20
  27  -9  -3   78.29   12.60
  27  -9  -3  103.09   22.20
 -27  18   3   74.19   19.80
  -9 -18  -3   70.99   16.20
 -18  27  -3  117.39   24.30
   9  18   3   97.89   30.40
  18 -27   3   49.80   25.10
  27 -18  -3   62.59   20.10
  -9  27  -3  126.69   24.90
 -28  18   3   79.39   20.70
  28 -10  -3   74.59   12.60
  18  10   3   43.00   26.80
  28 -10  -3   86.89   22.90
  10 -28   3   45.90   29.70
 -18  28  -3  127.39   24.60
 -18 -10  -3   61.99   16.20
  18 -28   3   71.09   25.10
 -10  28  -3   97.79   19.00
  10  18   3   86.99   29.90
  28 -18  -3   55.89   20.40
  19  -9   3  105.59   31.60
 -10  19   3   71.19   35.40
   9 -19  -3   97.09   19.90
  10   9  -3  103.39   16.00
 -10  19   3   81.49   15.10
  10   9  -3   87.79   14.90
  10 -19  -3   85.49   20.00
   9  10  -3   91.29   16.50
  -9  19   3   40.20   34.00
  -9  19   3   75.99   14.30
 -19   9  -3   48.50   18.50
   9  10  -3   86.39   15.80
   9  10  -3   98.89   14.70
  19 -10   3  119.29   33.10
 -11  19   3  122.39   36.00
 -11  19   3  128.09   20.10
   8 -19  -3  147.69   23.80
  19  -8   3  163.08   32.90
  11   8  -3  120.19   17.10
  11   8  -3  145.29   17.30
  19 -11   3  182.38   36.20
  -8  19   3  129.59   22.30
  11 -19  -3  156.08   25.30
   8  11  -3  151.68   16.90
  -8  19   3  108.89   36.40
   8  11  -3  125.89   15.60
  12   7  -3   19.70   12.80
  19  -7   3    5.90   32.00
   7 -19  -3   45.10   19.00
 -12  19   3   43.60   31.70
  12   7  -3   40.70   11.50
 -12  19   3   15.30   12.70
 -19  12  -3    3.30   17.00
 -19   7  -3   -9.20   16.30
   7  12  -3   42.60   11.20
  19 -12   3   66.59   30.80
  12 -19  -3   48.80   18.70
   7  12  -3   20.70   13.90
  -7  19   3    0.60   32.60
  13   6  -3  171.68   17.90
 -13  19   3  130.49   33.90
  19  -6   3  144.59   33.10
   6 -19  -3  146.99   21.90
 -19  13  -3  115.39   21.60
  13   6  -3  145.19   17.20
  -6  19   3  107.39   36.10
 -19   6  -3   98.29   19.60
   6  13  -3  145.39   16.30
  19 -13   3  202.18   31.00
 -13  -6   3  159.08   18.00
  13 -19  -3  162.28   26.40
   6  13  -3  152.88   23.80
   6  13  -3  150.28   16.90
  14   5  -3  131.69   18.70
  14   5  -3  160.78   17.00
  19  -5   3  173.08   36.20
 -14  19   3  119.79   34.60
   5 -19  -3  140.79   24.80
 -14  19   3  123.39   20.20
  14 -19  -3  166.78   26.30
 -14  -5   3  134.99   17.70
   5  14  -3  168.88   16.30
  -5  19   3  130.59   37.20
   5  14  -3  169.48   17.90
   5  14  -3  148.69   23.90
   4 -19  -3  363.76   30.70
 -15  19   3  350.06   45.80
   4 -19  -3  444.36   28.40
  15   4  -3  368.56   26.70
  15   4  -3  378.46   25.90
 -19  15  -3  359.06   33.70
 -15  19   3  411.26   26.50
  19  -4   3  406.26   47.50
  -4  19   3  345.97   48.20
 -15  -4   3  380.46   26.00
 -19   4  -3  333.57   30.10
  19 -15   3  495.05   45.10
  15 -19  -3  356.76   31.40
   4  15  -3  368.36   25.20
   4  15  -3  383.46   24.90
   4  15  -3  432.76   32.00
 -16  19   3    9.10   11.50
 -16  19   3   25.00   29.00
  16   3  -3   22.60   14.60
   3 -19  -3   33.40   13.30
   3 -19  -3   37.50   17.40
  16   3  -3   38.70   11.50
  19  -3   3   11.50   30.00
 -16  -3   3   26.60   10.60
   3  16  -3   43.10   11.20
  -3  19   3  -10.80   31.70
  16 -19  -3   39.30   20.30
 -19   3  -3   10.80   15.50
  19 -16   3  105.29   24.90
   3  16  -3   37.90   13.00
   3  16  -3   42.10   17.50
   2 -19  -3  100.79   19.40
  19  -2   3  109.19   34.30
  17   2  -3  136.39   16.60
   2 -19  -3  118.89   18.90
 -17  19   3   98.19   17.40
 -19  17  -3   75.19   21.20
 -17  19   3  104.49   29.80
  17   2  -3  119.89   19.00
   2  17  -3  123.59   15.80
   2  17  -3  150.68   24.30
  -2  19   3   51.19   33.60
   2  17  -3  136.19   15.40
 -17  -2   3  145.19   15.00
  17 -19  -3  134.99   22.50
 -19  18  -3   -8.00   17.30
  18   1  -3   19.10   16.50
 -18  19   3    2.50   11.00
 -18  19   3   -5.80   26.50
  18   1  -3   29.30   11.20
  19  -1   3    8.90   28.90
   1 -19  -3   19.00   13.10
   1 -19  -3   21.00   15.80
 -19   1  -3    2.60   16.40
   1  18  -3   30.70   15.20
   1  18  -3   13.20   10.20
  18 -19  -3   33.70   19.70
   1  18  -3   27.50   12.10
  -1  19   3    4.10   30.80
 -19  19  -3  154.08   27.00
  19   0  -3  179.88   17.60
  19   0  -3  186.98   24.10
  19   0   3  147.79   36.10
   0 -19  -3  182.78   21.80
 -19  19   3  191.48   18.40
   0 -19  -3  169.78   22.40
 -19  19   3  177.28   31.90
   0  19  -3  210.48   16.90
  19 -19   3  113.49   28.60
 -19   0  -3  141.59   25.60
   0  19   3  185.38   35.30
  19 -19  -3  173.48   27.90
   0  19  -3  222.98   28.00
   0  19  -3  181.28   17.50
  19   1   3    6.10   27.80
 -20  19   3   39.90   23.40
  -1 -19  -3   30.40   13.20
  20  -1  -3   42.70   11.60
  -1 -19  -3   34.20   15.30
  20  -1  -3   40.30   17.30
 -20  19   3   25.70   11.30
 -19  20  -3   26.60   18.20
  -1  20  -3   25.50   10.50
  19 -20   3   21.70   24.60
  20 -19  -3   27.80   19.10
  -1  20  -3   28.40   15.20
   1  19   3   -5.80   30.10
 -19  -1  -3   36.70   14.80
  -1  20  -3   37.30   12.40
 -19  21  -3  156.58   25.40
  -2 -19  -3  148.49   18.70
 -21  19   3  129.19   26.40
  21  -2  -3  144.79   17.40
  21  -2  -3  173.88   24.70
  19   2   3  126.29   30.90
  -2 -19  -3  163.68   21.20
  -2  21  -3  135.59   16.10
 -19  -2  -3  152.38   20.90
  19 -21   3  120.79   27.90
   2  19   3  123.59   34.10
  -2  21  -3  121.09   16.00
  21 -19  -3  115.09   22.10
  -2  21  -3  184.38   24.40
  19   3   3   -1.30   28.20
 -19  22  -3   17.50   17.40
  22  -3  -3   19.70   10.30
 -22  19   3    5.90   20.70
  -3 -19  -3   17.70   13.20
  22  -3  -3   14.00   18.20
  -3  22  -3   20.60   10.90
  -3  22  -3   30.00   15.30
  19 -22   3   -0.50   21.80
   3  19   3    0.10   29.50
  -3  22  -3   -8.80    9.90
  22 -19  -3   21.90   18.50
 -19  -3  -3   19.80   14.40
  19   4   3   47.40   27.30
  23  -4  -3   44.40   18.30
  -4 -19  -3   25.80   13.40
 -19  23  -3   51.19   18.10
 -23  19   3   33.70   21.40
  23  -4  -3   48.70   11.60
  -4 -19  -3   25.20   13.50
   4  19   3    8.40   27.60
  -4  23  -3   40.20   13.00
  19 -23   3   41.50   23.40
  23 -19  -3   38.00   19.40
  -4  23  -3   49.20   16.30
 -19  -4  -3   51.39   14.90
 -24  19   3   39.90   20.30
  19   5   3    7.80   26.30
  -5 -19  -3   24.50   14.80
 -19  24  -3   50.79   17.70
  24  -5  -3   31.40   11.10
  24  -5  -3   47.70   20.00
  24 -19  -3   27.10   18.30
  -5  24  -3   33.80   11.40
   5  19   3   16.90   29.40
 -19  -5  -3   27.30   14.80
  -5  24  -3   64.89   16.30
  19 -24   3   35.90   24.20
  -6 -19  -3   86.09   15.90
  25  -6  -3   85.79   22.40
  19   6   3   54.69   28.80
 -25  19   3   83.69   21.20
  25  -6  -3   86.49   17.80
 -19  25  -3  123.89   23.90
  -6  25  -3   63.89   13.80
 -19  -6  -3   89.19   17.10
  -6  25  -3  119.19   23.60
  26  -7  -3   50.89   12.20
  -7 -19  -3   52.09   14.90
  26  -7  -3   64.89   21.30
 -26  19   3   42.90   20.00
  26 -19  -3   28.80   18.90
   7  19   3   29.10   27.50
  -7  26  -3   49.00   17.30
  19 -26   3   47.40   23.80
 -27  19   3   66.29   20.90
  19   8   3   79.69   29.30
 -19  27  -3   82.29   19.10
  27  -8  -3   87.79   15.60
  -8 -19  -3   89.79   17.00
  27  -8  -3  102.89   22.70
 -19  -8  -3   59.99   16.50
   8  19   3   84.09   29.50
  27 -19  -3   57.99   19.50
  -8  27  -3   77.19   21.40
  19 -27   3   73.39   24.70
  28  -9  -3    6.00   10.90
 -28  19   3    2.20   19.20
  19   9   3    6.10   27.30
   9 -28   3  -17.00   27.30
  28  -9  -3   -4.80   19.30
 -19  28  -3   24.60   17.30
  28 -19  -3  -31.50   17.60
   9  19   3   14.70   28.50
  -9  28  -3    1.00   16.40
  19 -28   3   10.10   25.20
 -19  -9  -3   15.30   13.60
  10 -20  -3  112.09   20.40
 -10  20   3   79.29   16.20
 -10  20   3   67.59   33.80
  10  10  -3  118.19   20.50
  10  10  -3  119.89   15.40
  20 -10   3  140.49   32.10
 -20  10  -3   88.59   18.90
  10  10  -3  136.09   15.80
 -11  20   3  419.86   27.60
 -11  20   3  343.27   47.80
  20  -9   3  416.56   46.40
  11   9  -3  393.56   25.50
   9 -20  -3  345.97   31.20
 -20  11  -3  334.67   34.30
  11   9  -3  437.96   25.10
  11 -20  -3  393.46   31.10
   9  11  -3  408.56   28.80
   9  11  -3  386.06   25.30
 -20   9  -3  303.37   33.90
  -9  20   3  360.16   50.59
  -9  20   3  369.86   28.50
 -20  12  -3   -3.70   16.70
   8 -20  -3   29.10   18.50
  20  -8   3   43.40   30.50
  12   8  -3   32.00   11.90
 -12  20   3   30.90   12.80
 -12  20   3   17.80   34.10
  12   8  -3   47.50   11.70
  -8  20   3    2.20   12.80
   8  12  -3   30.50   11.40
  -8  20   3  -18.30   32.30
  12 -20  -3   39.60   19.00
  20 -12   3   65.89   30.80
   8  12  -3   34.70   11.20
   8  12  -3   26.10   14.40
   7 -20  -3   53.89   19.20
 -13  20   3   22.00   13.00
  13   7  -3   47.90   11.80
  20  -7   3   49.70   32.40
 -13  20   3  -28.80   30.60
   7  13  -3   42.40   16.30
   7  13  -3   39.60   11.50
  20 -13   3   81.59   29.50
  -7  20   3  -29.90   32.70
   7  13  -3   30.90   11.70
  13 -20  -3   58.89   19.90
 -13  -7   3   49.40   15.60
 -20  14  -3   -9.00   17.40
 -14  20   3   15.70   12.50
  14   6  -3   39.00   11.10
  20  -6   3   23.80   29.70
   6 -20  -3   23.20   18.20
  14   6  -3   34.10   12.80
 -14  20   3    1.50   31.40
 -14  -6   3   35.70   11.80
  -6  20   3   -9.40   34.00
 -20   6  -3  -16.80   15.10
   6  14  -3   32.70   16.90
  14 -20  -3   47.40   20.00
   6  14  -3   22.20   12.00
   6  14  -3   36.90   11.30
  20 -14   3   69.49   28.60
 -20  15  -3  222.88   31.70
   5 -20  -3  247.18   26.70
 -15  20   3  256.17   36.40
  15   5  -3  236.78   23.00
  15   5  -3  270.47   19.80
 -15  20   3  239.38   22.60
  20  -5   3  254.87   42.10
   5  15  -3  255.27   20.70
 -20   5  -3  193.88   25.90
  -5  20   3  225.08   38.50
 -15  -5   3  248.48   22.30
   5  15  -3  262.47   20.40
   5  15  -3  302.07   26.60
  15 -20  -3  240.88   27.20
 -20  16  -3  118.89   22.00
 -16  20   3  111.19   20.60
  16   4  -3  174.08   17.90
  20  -4   3  160.28   32.80
 -16  20   3   98.79   32.10
   4 -20  -3  137.99   23.60
  16   4  -3  149.09   18.20
   4  16  -3  156.68   25.80
   4  16  -3  163.58   16.10
  16 -20  -3  153.18   25.40
 -16  -4   3  129.99   18.10
  -4  20   3   93.89   33.60
  20 -16   3  125.49   28.30
   4  16  -3  155.58   16.40
  17   3  -3  284.67   26.20
 -20  17  -3  266.37   34.20
   3 -20  -3  294.07   27.60
  17   3  -3  306.67   21.80
 -17  20   3  262.07   41.70
  20  -3   3  338.97   46.20
   3 -20  -3  328.67   24.90
  20 -17   3  344.07   37.40
 -17  -3   3  288.07   22.10
  -3  20   3  251.17   38.90
  17 -20  -3  285.27   30.90
   3  17  -3  311.97   31.50
   3  17  -3  300.87   21.90
   3  17  -3  301.07   23.00
   2 -20  -3    3.70   12.40
  20  -2   3    7.10   29.00
 -18  20   3    5.70   15.40
   2 -20  -3   14.60   16.20
  18   2  -3    6.40   13.90
  18   2  -3   25.50   11.30
 -20  18  -3  -15.60   17.40
 -18  20   3  -15.70   26.60
   2  18  -3   11.90   14.60
   2  18  -3   13.50   10.40
  -2  20   3  -38.70   29.90
  20 -18   3    0.60   23.60
   2  18  -3   15.70   10.70
  18 -20  -3   20.50   19.60
 -20   2  -3   -3.90   16.10
   1 -20  -3   62.49   15.90
 -20  19  -3   32.70   18.60
   1 -20  -3   59.59   14.20
  19   1  -3   58.39   12.20
  20  -1   3   40.40   30.10
  19   1  -3   72.19   16.80
 -19  20   3   43.90   27.00
 -19  20   3   55.99   14.90
  20 -19   3   64.39   24.20
   1  19  -3   66.89   11.60
  -1  20   3    5.80   30.10
  19 -20  -3   57.19   20.10
   1  19  -3   50.79   18.60
   1  19  -3   55.29   12.70
 -20   1  -3   34.50   17.10
   0 -20  -3   66.79   16.50
   0 -20  -3   56.79   14.50
  20   0  -3   50.79   15.90
  20   0  -3   53.79   11.80
 -20  20   3   41.00   14.40
 -20  20   3   46.40   24.70
  20   0   3   24.30   27.10
 -20  20  -3   49.70   18.40
  20 -20   3   44.20   23.30
   0  20   3   12.30   29.50
  20 -20  -3   39.40   19.70
   0  20  -3   47.20   11.10
   0  20  -3   50.99   16.10
   0  20  -3   59.39   11.80
 -20   0  -3   39.30   15.80
  -1 -20  -3  199.78   21.70
  21  -1  -3  176.38   17.50
 -20  21  -3  186.58   28.20
 -21  20   3  181.48   32.70
  20   1   3  152.78   32.90
  21  -1  -3  197.08   23.30
  -1 -20  -3  181.38   22.10
  20 -21   3  193.58   29.40
  -1  21  -3  161.68   17.60
  21 -20  -3  155.58   26.90
  -1  21  -3  187.88   24.50
  -1  21  -3  162.98   18.20
   1  20   3  178.88   36.20
 -20  -1  -3  159.68   22.80
 -20  22  -3   87.19   19.60
  20   2   3   78.59   28.50
  22  -2  -3  105.39   15.40
  22  -2  -3  115.49   19.30
 -22  20   3   83.59   24.20
  -2 -20  -3  111.69   18.80
  -2 -20  -3  132.19   19.10
  22 -20  -3   81.09   20.60
  -2  22  -3   91.09   12.50
 -20  -2  -3   73.89   15.90
  -2  22  -3  110.99   23.00
   2  20   3   66.59   31.10
  20 -22   3   69.89   25.90
  -2  22  -3   74.19   13.70
  20   3   3   57.69   27.60
  23  -3  -3   56.99   12.20
 -23  20   3   56.09   22.80
 -20  23  -3   84.99   19.40
  23  -3  -3   80.79   19.10
  -3 -20  -3   52.19   15.70
 -20  -3  -3   53.59   15.50
  -3  23  -3   50.89   11.70
   3  20   3   73.69   30.30
  -3  23  -3   73.19   17.90
  23 -20  -3   64.39   20.10
  -3  23  -3   83.19   13.40
  20 -23   3   60.99   23.60
  -4 -20  -3   51.09   14.40
 -20  24  -3   65.69   18.20
  20   4   3   47.00   28.00
  -4 -20  -3   56.59   15.00
  24  -4  -3   57.69   20.60
  24  -4  -3   41.70   12.80
 -24  20   3   43.10   21.30
   4  20   3   46.00   29.70
  -4  24  -3   56.49   21.30
 -20  -4  -3   44.10   15.70
  -4  24  -3   55.29   12.70
 -25  20   3   59.29   22.40
  25  -5  -3   67.39   17.10
  25  -5  -3   85.79   21.00
  -5 -20  -3   73.29   15.60
  20   5   3   58.79   29.20
  25 -20  -3   29.70   19.90
  -5  25  -3   80.39   19.60
  -5  25  -3   77.59   14.00
 -20  -5  -3   69.39   16.20
   5  20   3   36.30   40.60
  20 -25   3   71.79   26.30
  -6 -20  -3   73.89   16.10
 -26  20   3   66.79   22.10
 -20  26  -3   81.89   19.20
  26  -6  -3   88.79   15.30
  26  -6  -3   70.79   23.60
  -6  26  -3   85.49   19.30
  26 -20  -3   60.89   20.20
   6  20   3   61.59   29.50
  20 -26   3   74.59   25.10
  20   7   3   52.79   28.00
  -7 -20  -3   64.79   16.20
  27  -7  -3   80.99   13.00
 -27  20   3   80.39   21.60
  27  -7  -3   99.49   22.90
 -20  27  -3   79.19   18.80
  20 -27   3   53.29   25.00
 -20  -7  -3   49.10   16.90
   7  20   3   79.79   29.90
  27 -20  -3   43.90   19.80
  -7  27  -3   89.89   26.10
  20   8   3   45.40   28.00
  28  -8  -3   51.39   12.20
 -20  28  -3   54.09   18.80
 -28  20   3   42.00   20.90
  28  -8  -3   34.40   22.10
  -8  28  -3   49.60   18.40
   8  20   3   53.29   29.20
 -20  -8  -3   35.40   15.90
  28 -20  -3    3.80   18.40
  20 -28   3   34.40   25.00
 -11  21   3   34.60   14.40
  11  10  -3   33.70   13.30
  10 -21  -3   38.70   18.00
  11  10  -3   46.30   11.90
 -11  21   3   -6.20   32.30
  21 -10   3   95.89   34.40
  21 -10   3   84.09   26.10
  21 -11   3   81.39   26.00
  21 -11   3   53.79   26.80
  10  11  -3   38.90   15.60
 -10  21   3   28.90   13.50
  10  11  -3   56.49   12.10
  10  11  -3   39.50   11.10
 -10  21   3   11.00   32.80
  11 -21  -3   61.09   19.20
  21  -9   3  101.69   32.00
  21  -9   3  124.29   29.70
 -12  21   3   17.60   33.60
  12   9  -3   92.79   14.60
   9 -21  -3   70.99   19.10
  12   9  -3  109.89   16.60
 -12  21   3   68.99   17.80
   9  12  -3   87.69   17.20
   9  12  -3   96.79   14.30
  12 -21  -3   94.39   20.70
  21 -12   3  105.29   26.60
  -9  21   3   33.60   32.90
   9  12  -3   99.59   16.30
   8 -21  -3   29.80   18.30
 -13  21   3   21.60   13.50
  13   8  -3   41.40   12.10
  13   8  -3   39.60   12.10
  21  -8   3   47.70   30.40
  21  -8   3   68.89   28.10
 -13  21   3   -2.50   33.10
  -8  21   3   10.70   13.10
   8  13  -3   47.90   11.70
  13 -21  -3   57.29   19.80
  21 -13   3   97.19   28.20
   8  13  -3   33.40   12.50
   8  13  -3   36.60   14.70
  21 -13   3   51.99   25.90
  -8  21   3  -36.10   31.80
  21  -7   3   60.09   30.90
 -14  21   3    9.00   30.80
  14   7  -3   51.59   12.00
  21  -7   3  117.39   27.10
 -14  21   3   50.49   13.60
   7 -21  -3   57.59   18.30
  21 -14   3   99.39   24.80
   7  14  -3   43.50   13.30
 -14  -7   3   62.19   12.80
  14 -21  -3   62.29   20.40
  -7  21   3   -8.90   33.10
  21 -14   3   55.49   27.30
   7  14  -3   59.49   15.40
   7  14  -3   51.49   12.10
 -15  21   3   46.40   32.30
  21  -6   3  121.89   32.00
  21  -6   3  153.88   29.90
 -15  21   3   85.19   14.60
   6 -21  -3   77.39   20.00
  15   6  -3  122.09   15.80
  15   6  -3  126.79   15.80
  15 -21  -3   79.69   21.10
  21 -15   3  136.49   27.50
   6  15  -3  101.29   14.20
  -6  21   3   42.40   33.30
   6  15  -3  105.29   15.90
   6  15  -3  102.69   20.40
   5 -21  -3   57.89   18.50
  21  -5   3   53.99   32.40
  16   5  -3   65.09   12.10
 -16  21   3   10.60   30.00
 -16  21   3   58.49   13.20
  16 -21  -3   62.59   19.60
  21 -16   3  115.69   23.40
   5  16  -3   55.49   12.80
  21 -16   3   43.90   24.90
  -5  21   3   -3.50   31.60
   5  16  -3   68.99   16.20
   5  16  -3   71.29   12.00
 -17  21   3   63.09   30.60
  17   4  -3  111.09   16.30
 -17  21   3   91.49   18.00
   4 -21  -3  110.49   19.70
  21  -4   3  103.69   30.40
  17   4  -3  106.09   15.00
   4  17  -3   89.89   14.90
  17 -21  -3  102.19   20.70
 -17  -4   3   90.39   14.70
   4  17  -3   97.39   20.80
   4  17  -3   86.19   15.00
  21 -17   3   84.29   25.40
  -4  21   3   45.20   31.80
   3 -21  -3   80.29   14.70
 -18  21   3   71.39   13.30
  18   3  -3   64.99   11.90
  18   3  -3   67.99   16.30
 -18  21   3   67.19   29.20
 -21  18  -3   28.10   19.60
  21  -3   3   73.79   29.00
   3 -21  -3   79.69   19.00
  18 -21  -3   79.79   20.20
  21 -18   3   70.19   25.50
   3  18  -3   84.49   12.10
  -3  21   3   12.00   31.20
 -18  -3   3   80.09   15.80
   3  18  -3   72.09   12.60
   3  18  -3   79.29   19.60
 -19  21   3  139.39   29.80
  21  -2   3  186.78   32.10
 -19  21   3  156.58   19.40
  19   2  -3  167.18   16.60
   2 -21  -3  174.88   20.10
   2 -21  -3  159.88   23.20
 -21  19  -3  138.49   26.80
  19   2  -3  156.78   21.70
   2  19  -3  156.38   16.30
  21 -19   3  141.29   27.20
  -2  21   3  142.69   33.30
   2  19  -3  168.08   27.90
   2  19  -3  161.88   16.80
  19 -21  -3  151.58   24.20
 -21   2  -3  108.19   23.10
  20   1  -3   24.00   15.10
   1 -21  -3   21.70   15.60
  20   1  -3   29.30   11.00
  21  -1   3   32.20   28.00
 -20  21   3   -6.00   26.30
 -21  20  -3   -4.60   17.10
 -20  21   3   27.30   11.90
   1 -21  -3   27.50   12.90
  -1  21   3   -4.60   29.30
  20 -21  -3   19.80   18.30
   1  20  -3   30.40   18.80
   1  20  -3   26.60   10.40
  21 -20   3   12.00   23.10
   1  20  -3   27.60   11.60
 -21   1  -3    5.70   15.60
  21   0  -3   72.69   16.30
 -21  21  -3   48.60   18.30
  21   0   3   58.09   28.40
 -21  21   3   54.39   12.80
 -21  21   3   29.10   26.00
  21   0  -3   70.59   12.60
   0 -21  -3   44.80   16.80
   0 -21  -3   56.59   14.10
   0  21  -3   78.19   16.70
   0  21   3   24.40   31.20
   0  21  -3   76.19   12.30
   0  21  -3   54.19   11.40
  21 -21   3   56.39   23.60
 -21   0  -3   40.40   15.60
  21 -21  -3   51.09   18.90
  21   1   3   25.60   28.20
 -22  21   3   38.70   14.30
 -22  21   3   35.90   22.80
  22  -1  -3   30.20   11.20
 -21  22  -3   40.60   17.90
  22  -1  -3   39.00   16.30
  -1 -21  -3   30.90   14.10
  -1 -21  -3   22.30   17.80
  -1  22  -3   39.30   20.20
  -1  22  -3   31.70   12.10
   1  21   3   37.70   30.50
 -21  -1  -3   25.10   14.60
  22 -21  -3   32.30   18.90
  21 -22   3   44.70   25.00
  -1  22  -3   30.10   10.80
  21   2   3  134.09   30.80
  -2 -21  -3  133.39   20.90
 -21  23  -3  148.59   27.40
  -2 -21  -3  111.79   19.30
 -23  21   3  118.19   26.00
  23  -2  -3  126.89   16.80
  23  -2  -3  135.49   20.90
  21 -23   3   91.29   28.70
   2  21   3   86.39   30.80
  -2  23  -3  124.29   24.40
  -2  23  -3  113.79   15.10
  -2  23  -3   85.19   15.50
  23 -21  -3  119.49   23.50
 -21  24  -3   43.20   18.40
  21   3   3   41.00   28.60
  -3 -21  -3   43.00   16.80
 -24  21   3   36.80   23.20
  -3 -21  -3   58.59   14.40
  24  -3  -3   46.60   19.70
   3  21   3   26.40   36.80
 -21  -3  -3   44.60   15.00
  -3  24  -3   65.29   17.20
  24 -21  -3   25.70   21.50
  -3  24  -3   38.80   12.80
  -3  24  -3   39.30   11.60
  -4 -21  -3   84.19   16.50
  21   4   3   79.49   29.40
  25  -4  -3  134.99   22.50
 -25  21   3   77.19   23.40
  25  -4  -3   95.09   15.70
  21 -25   3  116.89   27.40
  -4  25  -3  111.09   22.60
   4  21   3   63.79   32.10
  -4  25  -3   81.49   14.30
  -4  25  -3   64.39   13.80
  25 -21  -3   61.29   20.10
 -21  26  -3   22.90   17.70
  -5 -21  -3    1.80   13.70
  26  -5  -3    0.80   11.00
 -26  21   3   -2.10   21.30
  26  -5  -3    1.90   20.90
 -21  -5  -3    6.10   15.10
  -5  26  -3   16.30   16.90
  21 -26   3    3.20   26.20
  26 -21  -3    0.10   18.70
   5  21   3   15.50   27.50
  -6 -21  -3   17.30   14.70
  27  -6  -3    2.30   20.20
  27  -6  -3   13.00   11.40
 -21  27  -3   25.60   17.70
 -27  21   3   -3.30   22.00
  21   6   3   -0.30   28.80
  27 -21  -3  -10.70   18.60
 -21  -6  -3    9.70   13.90
  21 -27   3   26.30   23.70
   6  21   3    7.90   28.60
 -22  11  -3  -17.60   17.20
  22 -11   3   76.59   25.30
  11  11  -3   38.10   11.00
 -11  22   3   16.50   13.60
 -11  22   3  -45.40   30.40
  22 -11   3   66.79   29.70
  11  11  -3   19.40   14.80
  11  11  -3   39.00   11.40
  11 -22  -3   28.30   17.80
 -12  22   3  -21.60   31.50
  22 -10   3   81.69   27.20
  12  10  -3   55.29   12.30
 -12  22   3   49.99   13.90
  10 -22  -3   69.99   18.70
  22 -10   3   73.79   29.80
  12 -22  -3   63.39   19.30
  10  12  -3   53.39   14.70
  22 -12   3   93.69   29.60
  22 -12   3   98.99   28.50
  10  12  -3   49.20   12.00
 -10  22   3  -24.30   30.70
  10  12  -3   61.99   12.00
 -10  22   3   51.59   14.40
  22  -9   3  114.19   27.40
   9 -22  -3   59.19   18.40
  13   9  -3   53.69   12.20
 -13  22   3   46.20   14.30
  13   9  -3   55.79   12.30
  22  -9   3   72.49   29.20
  -9  22   3   31.20   14.20
  13 -22  -3   66.19   19.60
  22 -13   3   94.69   31.70
   9  13  -3   47.30   18.00
   9  13  -3   64.19   12.20
  22 -13   3   95.69   27.00
  -9  22   3   -8.30   31.90
  14   8  -3   35.70   11.90
 -14  22   3  -18.70   32.00
  22  -8   3   46.00   30.00
  22  -8   3   84.29   29.80
   8 -22  -3   41.70   17.70
  14   8  -3   36.70   11.70
  14 -22  -3   22.60   18.50
  22 -14   3   45.50   26.60
  -8  22   3  -39.10   31.50
  -8  22   3   11.90   13.40
   8  14  -3   37.50   18.00
  22 -14   3   86.59   25.00
   8  14  -3   48.30   11.40
 -14  -8   3   63.19   14.90
   8  14  -3   41.90   11.60
  22  -7   3   50.89   28.10
  15   7  -3   39.70   13.30
  15   7  -3   50.79   12.10
   7 -22  -3   26.10   17.20
  22  -7   3   91.39   26.40
 -15  22   3   28.90   13.50
 -22  15  -3   -0.60   16.80
 -15  22   3  -16.80   29.90
  22 -15   3   47.30   25.10
  15 -22  -3   45.90   19.30
   7  15  -3   34.20   11.30
  -7  22   3   27.60   13.70
  -7  22   3  -13.00   31.70
   7  15  -3   31.60   18.70
 -15  -7   3   50.39   12.40
   7  15  -3   45.50   11.30
 -16  22   3   -7.70   29.70
  22  -6   3   65.19   28.70
 -16  22   3   40.40   13.10
  16   6  -3   55.89   12.00
   6 -22  -3   53.29   18.50
  22  -6   3  112.19   28.20
  16   6  -3   52.49   12.70
   6  16  -3   56.59   15.30
   6  16  -3   51.29   11.90
  22 -16   3   67.79   24.10
   6  16  -3   43.60   12.80
  16 -22  -3   40.20   19.20
  -6  22   3   18.80   30.50
 -16  -6   3   56.29   11.70
 -22  17  -3   26.70   18.90
  22  -5   3   69.19   28.90
  17   5  -3   63.29   14.80
  17   5  -3   95.59   15.00
 -17  22   3   15.80   28.80
  22  -5   3  134.39   27.10
 -17  22   3   61.89   13.50
   5 -22  -3   72.39   18.80
   5  17  -3   73.89   12.10
  -5  22   3   15.00   31.30
   5  17  -3   87.09   13.20
   5  17  -3   62.99   20.80
 -17  -5   3   63.99   15.00
  22 -17   3   67.49   26.30
  17 -22  -3   56.49   18.90
  18   4  -3  134.89   17.00
   4 -22  -3  156.08   21.70
  18   4  -3  136.09   17.70
 -18  22   3  114.69   31.90
  22  -4   3  169.98   32.50
 -18  22   3  138.59   19.40
   4  18  -3  125.09   22.10
  22 -18   3  125.19   29.30
  -4  22   3   83.59   32.70
  18 -22  -3  129.49   21.20
   4  18  -3  131.69   17.00
 -18  -4   3  144.89   15.30
 -22  19  -3    3.00   18.10
  19   3  -3   32.30   13.80
 -19  22   3   45.50   12.70
  19   3  -3   41.90   10.80
 -19  22   3    6.20   28.00
   3 -22  -3   43.40   13.50
  22  -3   3   38.20   32.80
   3 -22  -3   29.60   16.60
  19 -22  -3   39.10   18.40
  22 -19   3   72.59   24.60
 -22   3  -3   13.10   15.70
   3  19  -3   30.00   10.90
   3  19  -3   49.90   10.90
  -3  22   3    2.00   30.40
   3  19  -3   34.60   15.60
 -20  22   3   90.19   29.50
   2 -22  -3  129.79   19.80
  22  -2   3   94.39   28.80
  20   2  -3  101.19   17.60
 -20  22   3   83.89   17.80
   2 -22  -3  109.29   19.80
 -22  20  -3   90.89   19.50
  20   2  -3  107.79   16.20
   2  20  -3  101.39   15.60
  20 -22  -3  106.69   20.50
   2  20  -3   98.29   15.90
   2  20  -3   97.39   22.90
  22 -20   3   91.49   25.30
  -2  22   3   51.59   31.60
 -21  22   3   53.59   27.30
 -22  21  -3   40.10   18.10
  21   1  -3   90.19   15.10
 -21  22   3   72.19   13.50
   1 -22  -3   72.99   14.70
  22  -1   3   62.99   27.90
   1 -22  -3   51.09   16.60
   1  21  -3   69.99   12.00
 -22   1  -3   46.40   16.70
   1  21  -3   81.39   18.40
  -1  22   3   16.40   30.50
   1  21  -3   67.99   13.20
  21 -22  -3   65.59   19.10
  22 -21   3  101.39   26.40
   0 -22  -3   32.20   13.30
 -22  22  -3   29.60   17.50
  22   0  -3   12.70   19.60
   0 -22  -3   39.50   18.60
 -22  22   3   47.10   13.00
  22   0   3   32.30   28.50
  22   0  -3   30.10   11.80
 -22  22   3   -7.40   26.20
   0  22   3   11.70   30.30
   0  22  -3   41.70   11.20
   0  22  -3   33.50   11.30
   0  22  -3   35.00   16.10
 -22   0  -3   27.20   16.10
  22 -22  -3   16.10   18.30
  22 -22   3   23.80   22.40
  -1 -22  -3  107.59   19.70
 -22  23  -3  138.29   25.60
  -1 -22  -3   92.19   20.40
  22   1   3  112.29   29.80
 -23  22   3  155.38   28.10
  23  -1  -3   95.39   19.50
 -23  22   3   75.59   26.20
  22 -23   3  112.79   31.30
   1  22   3   54.09   31.00
  -1  23  -3  118.09   24.20
  -1  23  -3   88.59   15.30
 -22  -1  -3   64.49   15.80
  -1  23  -3   93.49   14.40
  23 -22  -3   68.19   35.10
  -2 -22  -3   54.19   18.20
  22   2   3   40.60   28.60
 -24  22   3   42.40   24.40
  24  -2  -3   60.39   18.40
  24  -2  -3   61.19   12.50
  -2 -22  -3   38.10   15.30
  -2  24  -3   35.60   11.90
  22 -24   3   52.99   24.10
  -2  24  -3   45.40   18.60
  -2  24  -3   43.90   13.30
  24 -22  -3   33.80   19.20
  25  -3  -3  143.09   24.60
  22   3   3  108.09   30.00
  -3 -22  -3  130.39   20.70
  25  -3  -3  128.29   17.30
 -22  25  -3  140.89   26.30
 -25  22   3   96.99   26.20
  22 -25   3   95.89   27.20
  -3  25  -3   92.09   24.30
  -3  25  -3  113.39   15.00
 -22  -3  -3   71.29   15.50
   3  22   3   94.79   32.50
  -3  25  -3   91.29   16.90
  25 -22  -3   98.79   21.00
  26  -4  -3   39.80   12.50
 -26  22   3   50.59   24.30
  26  -4  -3   58.29   21.60
 -22  26  -3   60.19   20.60
  -4 -22  -3   59.19   16.20
  22   4   3   56.79   34.00
  22 -26   3   72.59   28.20
  -4  26  -3   49.40   18.70
   4  22   3   41.50   28.80
  -4  26  -3   18.30   12.30
 -22  -4  -3   37.10   16.00
  26 -22  -3   35.60   18.80
  22   5   3    4.50   27.70
 -22  27  -3   26.20   19.40
  27  -5  -3    9.00   19.10
 -27  22   3   10.90   22.10
  -5 -22  -3   14.30   14.70
  27  -5  -3   12.40   11.40
  27 -22  -3  -20.40   18.50
   5  22   3   12.50   29.60
  22 -27   3   10.30   23.70
 -22  -5  -3   14.70   16.40
  23 -11   3   85.89   27.60
  12  11  -3   66.99   11.60
 -12  23   3   52.29   14.30
 -12  23   3  -15.30   30.30
  12  11  -3   43.30   11.80
  23 -11   3  113.29   26.10
  11 -23  -3   60.59   18.90
 -11  23   3   55.19   14.50
 -11  23   3  -21.60   30.60
  11  12  -3   55.69   12.00
  11  12  -3   61.19   11.70
  23 -12   3   81.49   26.00
  23 -12   3   95.29   29.90
  12 -23  -3   58.49   19.30
  11  12  -3   37.70   15.00
 -13  23   3   54.49   13.90
  13  10  -3   57.99   11.90
  10 -23  -3   41.60   17.30
  23 -10   3   84.79   27.40
  23 -10   3  102.29   26.20
 -13  23   3  -18.80   30.80
  10  13  -3   50.19   18.10
  13 -23  -3   66.89   19.10
  10  13  -3   58.99   12.00
  23 -13   3   78.49   26.60
 -10  23   3   39.40   14.60
  14   9  -3   33.80   11.40
 -14  23   3  -48.60   30.10
  23  -9   3   87.69   28.70
  23  -9   3   60.49   25.70
  14   9  -3   34.60   11.60
   9 -23  -3   24.00   16.50
 -14  23   3   30.00   13.00
  14 -23  -3   34.00   18.40
  -9  23   3   10.70   13.80
  -9  23   3  -41.70   31.20
   9  14  -3   34.70   11.40
  23 -14   3   59.09   24.50
  23 -14   3   60.79   26.00
   9  14  -3   36.50   10.60
   9  14  -3   30.60   17.30
  15   8  -3   36.90   12.80
 -15  23   3  -28.00   31.40
  23  -8   3   63.49   28.90
 -15  23   3   33.50   13.20
  15   8  -3   38.10   11.70
   8 -23  -3   27.40   17.70
  -8  23   3  -37.50   30.60
  15 -23  -3   41.70   18.60
  23 -15   3   49.70   25.20
   8  15  -3   38.00   11.20
  -8  23   3   11.20   13.20
   8  15  -3   41.00   11.50
  16   7  -3   43.00   12.20
 -16  23   3   46.10   14.50
   7 -23  -3   27.20   17.30
  23  -7   3  111.69   27.30
 -16  23   3  -26.40   30.50
  16   7  -3   50.19   11.90
  23  -7   3   37.30   28.50
  23 -16   3   62.99   24.80
   7  16  -3   38.20   14.50
   7  16  -3   56.89   11.70
   7  16  -3   54.29   11.70
  16 -23  -3   25.40   18.20
  -7  23   3  -16.00   30.40
  17   6  -3  124.59   16.00
 -23  17  -3   74.39   20.00
  17   6  -3  111.99   17.20
 -17  23   3   53.79   31.70
  23  -6   3  163.78   32.70
   6 -23  -3  134.29   20.20
  23 -17   3  135.59   26.90
   6  17  -3  112.29   23.70
  -6  23   3  108.09   32.90
  17 -23  -3  110.59   20.80
   6  17  -3  126.99   14.60
   6  17  -3  142.19   16.40
 -23   6  -3   85.69   19.80
  18   5  -3   29.10   11.20
 -18  23   3  -20.40   30.00
  18   5  -3   33.30   12.30
  23  -5   3   31.90   32.20
   5 -23  -3   19.60   17.80
   5  18  -3   18.50   14.10
 -18  -5   3   23.00   10.60
   5  18  -3   29.20   11.10
  23 -18   3   37.40   25.10
  18 -23  -3   25.60   18.50
  -5  23   3  -12.20   29.20
   5  18  -3   20.10   11.20
   4 -23  -3   21.80   17.20
  23  -4   3   50.79   30.40
  19   4  -3   39.50   11.30
 -19  23   3  -35.50   29.90
 -19  23   3   24.30   14.60
 -23  19  -3   -8.60   17.60
   4  19  -3   28.20   15.50
  -4  23   3  -12.50   29.50
   4  19  -3   29.10   10.80
 -23   4  -3   -5.10   15.10
   4  19  -3   27.50   11.40
  19 -23  -3   10.50   18.30
 -19  -4   3   26.00   10.10
  23 -19   3   31.70   26.20
 -23  20  -3   17.00   18.20
 -20  23   3   48.60   13.90
 -20  23   3  -18.90   28.50
  20   3  -3   45.40   16.00
   3 -23  -3   27.00   17.10
  20   3  -3   45.90   11.60
   3 -23  -3   51.39   14.00
  23  -3   3   62.49   27.70
  23 -20   3   59.49   24.60
   3  20  -3   40.40   11.60
   3  20  -3   41.50   16.30
  -3  23   3   22.60   30.00
  20 -23  -3   51.39   19.40
   3  20  -3   52.79   11.30
   2 -23  -3   20.30   18.00
 -21  23   3   39.30   12.80
   2 -23  -3   44.90   13.40
  21   2  -3   38.60   12.70
 -21  23   3  -25.70   26.90
 -23  21  -3   15.80   18.60
  21   2  -3   43.10   14.90
  23  -2   3   23.90   25.90
 -23   2  -3    0.60   15.80
  23 -21   3   29.10   22.90
   2  21  -3   39.80   11.70
  -2  23   3   18.20   30.80
   2  21  -3   25.20   12.00
  21 -23  -3   36.20   19.10
   2  21  -3   34.80   21.60
   1 -23  -3   55.29   17.10
 -22  23   3   41.60   27.70
   1 -23  -3   77.29   14.90
  23  -1   3   61.49   27.50
 -22  23   3   52.59   14.20
 -23  22  -3   53.49   18.60
  22   1  -3   76.29   16.80
  -1  23   3   52.09   31.50
   1  22  -3   59.49   12.30
   1  22  -3   71.29   18.60
 -23   1  -3   48.60   17.50
  23 -22   3   93.69   28.70
   1  22  -3   62.09   12.70
  23   0  -3  119.79   19.90
   0 -23  -3   80.49   16.80
   0 -23  -3  101.19   23.40
  23   0  -3   92.99   15.80
 -23  23   3   60.09   27.90
  23   0   3   81.39   31.90
 -23  23   3  133.19   23.70
   0  23  -3  103.79   13.80
   0  23  -3   94.89   13.80
  23 -23  -3   81.89   20.30
   0  23  -3   85.89   24.10
   0  23   3   80.89   32.10
 -24  23   3   -7.80   26.30
  -1 -23  -3   15.90   18.90
 -23  24  -3   34.60   17.80
  -1 -23  -3   27.80   13.90
  23   1   3   30.50   27.90
  24  -1  -3   16.50   17.40
  24  -1  -3   27.00   11.70
  24 -23  -3   13.70   18.60
  -1  24  -3   23.10   16.70
  -1  24  -3   25.50   11.70
   1  23   3    6.30   40.60
  23 -24   3   35.20   25.70
 -23  -1  -3   15.90   15.40
  -1  24  -3    6.20   11.50
  25  -2  -3   33.30   23.10
  25  -2  -3   27.70   12.10
 -23  25  -3   46.80   19.80
  23   2   3   19.80   29.70
 -25  23   3   40.10   24.70
  -2 -23  -3   40.30   14.30
   2  23   3   32.80   30.80
 -25   2   3   28.20   15.80
  -2  25  -3   25.60   12.10
  -2  25  -3   42.10   12.70
 -23  -2  -3   10.60   14.70
  25 -23  -3   20.90   18.60
  -2  25  -3   47.00   18.50
  23 -25   3   31.40   23.80
  26  -3  -3   39.60   12.20
  -3 -23  -3   38.50   15.80
  23   3   3   41.20   30.30
 -26  23   3   11.50   25.30
 -23  26  -3   73.49   19.50
  26  -3  -3   33.90   19.90
  -3  26  -3   45.40   19.40
 -23  -3  -3   30.00   15.90
  -3  26  -3   41.80   12.90
   3  23   3   51.39   30.30
  23 -26   3   63.89   27.10
  26 -23  -3   18.90   19.30
 -12  24   3  133.99   22.60
  12 -24  -3  135.59   21.50
  24 -12   3  232.88   34.10
  12  12  -3  166.38   15.70
  12  12  -3  167.58   17.80
  24 -12   3  192.38   32.20
 -24  13  -3  188.38   29.00
 -13  24   3  152.38   35.00
 -13  24   3  264.07   24.90
  11 -24  -3  210.88   25.90
  13  11  -3  260.67   19.50
  13  11  -3  275.57   18.30
  24 -11   3  287.77   37.60
 -11  24   3  203.78   36.80
 -11  24   3  262.17   24.90
  11  13  -3  249.88   27.80
  11  13  -3  239.08   20.30
  13 -24  -3  241.48   27.80
 -24  11  -3  207.48   27.20
  14  10  -3   32.00   11.10
  24 -10   3   91.19   25.40
  24 -10   3   67.19   27.40
  10 -24  -3   36.00   17.80
 -14  24   3   17.10   13.20
  14 -24  -3   24.30   17.90
 -10  24   3  -45.40   30.40
  10  14  -3   34.50   10.30
  24 -14   3   67.99   24.10
  10  14  -3   30.30   11.30
  10  14  -3    5.90   17.00
 -10  24   3    6.40   13.70
   9 -24  -3   -0.10   16.40
  15   9  -3   10.40   10.80
 -15  24   3    2.60   12.50
  24  -9   3   73.49   29.00
  24  -9   3   32.40   26.80
  15   9  -3   13.90   10.70
  15 -24  -3   20.10   17.90
  24 -15   3   25.40   25.00
 -15  -9   3   37.20   13.00
   9  15  -3   15.20   10.90
  -9  24   3  -10.50   13.70
  -9  24   3  -46.30   29.70
  24  -8   3   72.99   25.10
 -16  24   3   10.20   12.40
  16   8  -3   14.10   10.80
   8 -24  -3   11.20   16.60
  24  -8   3   41.80   25.80
  24 -16   3   33.20   23.60
  -8  24   3  -16.00   29.50
   8  16  -3   16.00   11.20
   8  16  -3   15.70   10.00
 -16  -8   3   22.00   12.60
   8  16  -3   19.10   14.00
  -8  24   3  -10.20   12.80
  16 -24  -3   20.70   18.30
   7 -24  -3  113.59   20.20
  17   7  -3  126.49   15.10
  17   7  -3  116.59   16.10
  24  -7   3  137.29   29.00
 -17  24   3  113.19   19.00
 -17  -7   3  114.09   17.30
   7  17  -3  100.49   15.60
  17 -24  -3  100.69   20.10
  -7  24   3   63.39   31.80
  24 -17   3  147.39   26.60
   7  17  -3  106.59   16.20
  -7  24   3   93.89   16.30
 -18  24   3   58.79   13.90
   6 -24  -3   67.69   18.70
 -24  18  -3   50.69   19.00
  18   6  -3   75.09   12.80
 -18  24   3    5.20   29.00
  24  -6   3   57.09   27.00
  18 -24  -3   57.39   19.30
   6  18  -3   61.69   12.30
 -18  -6   3   68.79   13.60
  24 -18   3   93.49   25.40
   6  18  -3   77.79   16.10
  -6  24   3   40.10   30.80
   6  18  -3   76.19   12.90
 -24  19  -3   56.99   18.80
 -19  24   3   93.19   15.40
  19   5  -3  100.39   16.10
   5 -24  -3   77.69   20.10
  19   5  -3   95.19   15.50
  24  -5   3   84.69   29.50
  24 -19   3   92.19   26.40
 -19  -5   3   92.69   14.90
   5  19  -3   93.29   13.50
  -5  24   3   68.59   31.20
  19 -24  -3   75.99   20.40
   5  19  -3  110.39   21.30
 -20  24   3   42.20   13.90
  24  -4   3   51.19   27.30
  20   4  -3   46.30   13.50
 -24  20  -3   17.10   18.50
 -20  24   3   -9.90   28.70
   4 -24  -3   18.10   18.00
  20   4  -3   45.20   17.10
  -4  24   3    4.80   29.80
   4  20  -3   43.10   11.80
   4  20  -3   46.60   16.10
  20 -24  -3   55.99   20.00
   4  20  -3   46.00   11.10
  24 -20   3   48.00   27.90
 -21  24   3   49.20   15.70
   3 -24  -3   33.90   17.80
  21   3  -3   50.09   15.50
 -21  24   3  -30.50   31.00
  21   3  -3   54.09   16.30
  24  -3   3   45.00   28.10
   3  21  -3   52.59   12.50
   3  21  -3   57.19   12.50
   3  21  -3   51.09   16.80
  24 -21   3   58.69   26.30
  -3  24   3   41.80   30.80
   2 -24  -3   64.19   15.90
  24  -2   3   87.29   29.10
  22   2  -3   52.49   12.00
   2 -24  -3   49.99   19.40
 -24  22  -3   46.90   21.40
 -22  24   3   60.89   16.10
 -22  24   3  -14.70   29.50
   2  22  -3   49.00   12.90
  24 -22   3   54.89   28.90
   2  22  -3   62.59   12.80
  22 -24  -3   40.80   19.70
  -2  24   3   67.99   32.50
 -24  23  -3   74.69   19.30
   1 -24  -3   78.69   15.30
 -23  24   3   14.90   28.30
  23   1  -3   63.69   12.40
 -23  24   3   87.99   17.60
   1 -24  -3   45.90   17.30
  24  -1   3   56.89   29.60
   1  23  -3   63.29   18.00
  23 -24  -3   33.40   19.40
   1  23  -3   49.40   12.30
 -24   1  -3   26.80   16.50
   1  23  -3   58.79   12.60
  24   0  -3  121.99   21.20
   0 -24  -3  122.89   23.20
  24   0  -3  118.79   16.60
   0 -24  -3  127.49   21.00
 -24  24   3   70.79   30.00
  24   0   3   83.49   32.60
 -24  24  -3  135.09   26.50
  24 -24   3  101.59   27.80
   0  24  -3  100.89   22.30
   0  24  -3  130.09   15.10
   0  24   3  120.79   33.00
  24 -24  -3   77.89   20.60
   0  24  -3  109.49   16.90
 -25  24   3   -9.30   26.90
  24   1   3   31.40   29.00
  -1 -24  -3   25.30   14.50
  -1 -24  -3   19.90   19.70
  25  -1  -3   31.30   11.90
 -24  25  -3   28.70   19.60
  25  -1  -3   35.90   17.40
  24 -25   3   38.00   28.20
  25 -24  -3    8.90   19.00
 -24  -1  -3    5.00   14.90
  -1  25  -3   41.00   18.90
  -1  25  -3   17.70   12.20
   1  24   3   31.80   31.00
  -1  25  -3   36.90   12.30
  -2 -24  -3   95.19   16.80
  26  -2  -3  114.39   21.10
 -24  26  -3  134.19   27.90
  26  -2  -3   78.29   13.60
  24   2   3   78.39   30.90
 -26  24   3   65.49   27.80
 -26   2   3  109.89   22.20
 -24  -2  -3   61.19   17.60
  -2  26  -3   76.09   14.20
   2  24   3   61.49   32.40
  26 -24  -3   46.20   19.60
  24 -26   3   71.29   27.90
  13  12  -3   15.00   11.10
  25 -12   3   45.40   25.00
  13  12  -3   16.00   10.20
  25 -12   3   43.00   29.70
 -13  25   3    4.30   13.80
  12 -25  -3   -6.00   17.10
  25 -13   3   43.00   25.50
  12  13  -3   10.60   10.80
 -25  12  -3  -20.10   15.10
 -12  25   3    5.40   14.00
  13 -25  -3   19.00   18.00
 -14  25   3    8.50   13.90
  11 -25  -3   29.10   18.20
  25 -11   3   50.39   25.50
  25 -11   3   80.49   26.80
  14  11  -3   30.80   11.50
  11  14  -3   36.70   10.50
  11  14  -3   31.30   11.40
  25 -14   3   55.89   25.50
  11  14  -3    6.00   13.60
 -11  25   3   12.40   14.20
  14 -25  -3   32.40   18.00
  15  10  -3   35.80   11.30
  10 -25  -3   21.10   17.30
  25 -10   3   68.09   27.20
  25 -10   3  116.89   32.20
 -15  25   3   40.90   14.60
  15  10  -3   30.00   11.50
 -25  15  -3    3.70   16.70
  10  15  -3   44.90   11.90
 -10  25   3  -41.60   29.70
  25 -15   3   67.39   26.40
 -10  25   3   34.50   15.10
  15 -25  -3   45.30   18.60
  16   9  -3    9.10   11.20
  25  -9   3   22.00   25.30
   9 -25  -3    6.90   16.40
 -16  25   3  -11.90   13.00
  16   9  -3    7.60   10.90
   9  16  -3    2.70   16.70
   9  16  -3    6.90    9.80
 -16  -9   3   26.00   13.70
  16 -25  -3    7.80   17.60
  25 -16   3   15.20   24.40
   9  16  -3    9.60   11.10
  -9  25   3  -17.80   13.80
  -9  25   3  -53.09   28.30
 -25  17  -3   -3.00   17.40
  17   8  -3   36.30   11.70
   8 -25  -3   32.80   17.30
  17   8  -3   48.40   11.90
  25  -8   3   48.70   31.30
 -17  25   3   23.40   14.00
  25 -17   3   61.49   26.90
  -8  25   3   15.60   13.90
  -8  25   3   -9.10   29.70
   8  17  -3   39.80   12.00
  17 -25  -3   35.20   19.40
   8  17  -3   41.70   15.40
 -17  -8   3   53.29   14.40
   8  17  -3   33.60   11.90
 -18  25   3    3.50   13.30
  18   7  -3   13.20   11.50
   7 -25  -3   -0.50   17.00
 -25  18  -3  -18.80   17.00
  25  -7   3   39.30   26.50
 -18  -7   3   12.50   11.90
  -7  25   3  -15.40   13.50
   7  18  -3    4.00   14.20
   7  18  -3   14.10   10.30
   7  18  -3    9.70   11.20
  18 -25  -3    2.10   18.00
  25 -18   3   42.20   26.20
  25  -6   3   57.79   27.60
  19   6  -3   44.80   12.80
   6 -25  -3   26.60   18.60
 -19  25   3   43.40   14.30
  25 -19   3   67.69   26.10
  19 -25  -3   23.10   19.30
   6  19  -3   56.09   12.40
  -6  25   3   -2.60   29.70
   6  19  -3   46.20   17.00
 -19  -6   3   44.10   12.30
  20   5  -3   15.20   11.80
 -20  25   3   15.80   13.80
  25  -5   3   40.50   27.40
   5 -25  -3   26.50   19.20
   5  20  -3   25.90   10.70
  25 -20   3   40.20   26.20
  -5  25   3   -2.50   29.90
   5  20  -3   27.50   11.60
   5  20  -3   18.60   17.10
   4 -25  -3   50.79   19.20
  25  -4   3   83.29   29.20
  21   4  -3   75.59   13.40
 -21  25   3   -1.70   29.40
 -21  25   3   60.99   14.90
   4  21  -3   82.39   13.70
  21 -25  -3   34.80   19.90
  -4  25   3   40.00   32.20
   4  21  -3   76.89   12.70
   4  21  -3   79.19   17.90
  25 -21   3   84.79   26.40
  25  -3   3   79.59   27.40
   3 -25  -3   -2.30   17.70
  25  -3   3   15.00   27.70
 -25  22  -3    2.20   18.50
  22   3  -3   14.20   15.10
  22   3  -3   13.60   11.40
 -22  25   3   11.40   13.00
   3  22  -3   24.90   17.10
  -3  25   3   10.30   32.90
   3  22  -3   10.30   12.00
 -25   3  -3  -20.30   13.80
  22 -25  -3   11.20   18.80
   3  22  -3   13.10   11.90
 -25  23  -3   57.59   18.90
  23   2  -3   98.79   17.60
 -23  25   3   70.89   15.30
 -23  25   3  -27.60   33.80
  23   2  -3   63.39   12.70
   2 -25  -3   47.70   19.80
   2 -25  -3   60.59   16.30
  25  -2   3   79.89   29.70
   2  23  -3   77.09   13.90
  23 -25  -3   41.00   19.60
  25 -23   3   86.59   28.60
   2  23  -3   67.89   13.50
 -25   2  -3   35.10   17.90
   2  23  -3   61.59   20.10
   1 -25  -3   46.60   18.30
  25  -1   3   52.69   31.00
   1 -25  -3   77.89   15.80
 -24  25   3    2.50   29.30
  24   1  -3   78.29   18.30
 -24  25   3   89.99   18.20
  24   1  -3   52.49   12.50
 -25  24  -3   82.29   20.70
  25 -24   3   70.29   26.10
  -1  25   3   39.60   31.10
   1  24  -3   46.10   12.80
  24 -25  -3   35.80   19.60
   1  24  -3   42.30   13.20
 -25   1  -3   14.00   15.30
   1  24  -3   63.49   18.60
   0 -25  -3   13.10   18.10
  25   0  -3   42.50   20.10
  25   0  -3   27.50   11.80
 -25  25   3  -19.50   28.80
   0 -25  -3   30.70   15.10
 -25  25  -3   44.50   19.90
   0  25  -3   30.60   12.10
 -25   0  -3   20.10   20.40
  25 -25   3   63.69   30.70
   0  25   3   38.20   31.90
  25 -25  -3   11.80   19.30
   0  25  -3   43.90   19.60
   0  25  -3   22.40   12.70
  13 -26  -3    9.80   18.00
 -13  26   3    7.00   14.30
  26 -13   3   62.89   32.50
  13  13  -3   -4.40   11.10
  14  12  -3   21.70   10.60
 -14  26   3   10.20   14.20
  14  12  -3   20.40   11.50
  12 -26  -3   13.60   18.10
  26 -12   3   77.89   28.10
  14 -26  -3   13.10   18.30
  12  14  -3   18.70   10.30
 -12  26   3    8.70   14.70
  12  14  -3    9.70   11.30
 -12  26   3  -55.09   29.50
  26 -14   3   33.40   27.20
 -26  12  -3  -19.70   17.40
  15  11  -3   60.99   13.00
 -26  15  -3   25.00   23.80
  26 -11   3  100.69   28.50
 -15  26   3   54.89   15.30
  11 -26  -3   64.19   19.40
  26 -15   3  109.99   28.30
  15 -26  -3   44.70   19.40
  11  15  -3   55.89   11.90
  11  15  -3   44.90   15.40
 -11  26   3   58.59   15.70
  11  15  -3   58.29   12.80
 -16  26   3   52.09   15.30
  26 -10   3   85.99   30.50
  10 -26  -3   42.30   18.50
  16  10  -3   71.69   12.30
  26 -10   3  128.19   29.90
  16  10  -3   55.39   12.80
  10  16  -3   62.89   11.80
 -10  26   3   31.80   15.40
 -10  26   3  -25.40   28.60
  10  16  -3   44.90   12.60
  16 -26  -3   53.29   19.70
  26 -16   3  108.99   29.20
  17   9  -3   56.19   17.30
 -17  26   3   52.39   15.30
   9 -26  -3   45.20   18.20
  26  -9   3   98.39   30.80
  -9  26   3  -24.80   29.30
   9  17  -3   51.79   16.40
 -17  -9   3   64.39   15.00
  -9  26   3   29.40   15.20
  17 -26  -3   33.40   19.20
   9  17  -3   55.39   12.30
  26 -17   3   92.29   29.30
   9  17  -3   59.49   12.70
  18   8  -3   14.50   11.10
   8 -26  -3  -15.70   16.60
 -26  18  -3  -23.90   18.60
  26  -8   3   23.20   31.90
 -18  26   3    1.90   14.10
  18   8  -3   12.40   16.70
  -8  26   3  -15.00   13.40
  18 -26  -3    0.10   18.80
   8  18  -3    9.60   11.80
  -8  26   3  -53.09   28.50
  26 -18   3   42.80   28.50
   8  18  -3    4.50   10.30
 -18  -8   3   21.70   13.50
  19   7  -3   47.30   13.10
  19   7  -3   37.50   12.10
 -19  26   3   29.50   14.70
  26  -7   3   69.39   33.50
   7 -26  -3   26.30   18.30
 -26  19  -3    9.80   19.50
  -7  26   3   13.40   14.70
  -7  26   3   -9.30   29.70
 -19  -7   3   50.69   13.90
   7  19  -3   46.40   12.60
  26 -19   3   78.59   29.70
  20   6  -3   14.00   11.20
 -20  26   3   -6.70   13.80
 -26  20  -3   -5.10   17.70
  26  -6   3   27.60   27.40
   6 -26  -3   -7.30   18.50
   6  20  -3   14.10   10.40
  26 -20   3   44.50   28.30
  20 -26  -3   20.70   18.80
  -6  26   3  -36.60   29.50
   6  20  -3   12.60   11.90
   5 -26  -3   19.60   19.70
 -26  21  -3    8.30   18.70
  26  -5   3   73.59   28.20
 -21  26   3   25.20   14.70
  21   5  -3   37.50   12.20
  21   5  -3   38.00   13.40
   5  21  -3   36.00   11.30
   5  21  -3   39.50   12.70
  21 -26  -3   22.70   19.20
 -26   5  -3   -4.30   17.70
  -5  26   3  -22.60   31.30
  26  -4   3  273.97   39.40
  26  -4   3  173.08   32.70
   4 -26  -3  166.18   23.30
  22   4  -3  185.98   19.10
  22   4  -3  156.68   18.30
 -26  22  -3  137.59   26.90
 -22  26   3  163.28   22.80
  26 -22   3  123.69   31.10
  22 -26  -3  139.29   23.20
   4  22  -3  180.88   29.00
   4  22  -3  158.28   19.50
   4  22  -3  154.58   18.30
 -26  23  -3   18.50   19.50
 -23  26   3   31.90   14.80
  26  -3   3   45.90   28.00
  23   3  -3   26.70   12.00
   3 -26  -3   -5.20   19.20
  23   3  -3   38.40   15.30
   3  23  -3   13.10   12.80
  23 -26  -3   21.40   18.90
   3  23  -3   48.50   18.40
  -3  26   3    0.40   31.30
   3  23  -3   33.50   12.10
  26 -23   3   32.00   31.00
  24   2  -3  105.09   18.50
 -24  26   3  121.99   22.20
  24   2  -3   97.79   16.50
   2 -26  -3  127.69   23.50
  26  -2   3   95.09   30.30
 -26  24  -3   87.89   21.60
   2 -26  -3   90.19   20.70
  24 -26  -3   46.90   19.80
  -2  26   3   61.99   32.10
   2  24  -3   92.79   15.20
   2  24  -3   86.79   15.10
  26 -24   3  121.99   31.90
   2  24  -3   85.89   21.80
  13 -27  -3   28.40   18.70
  27 -13   3  113.09   29.70
  14  13  -3   42.20   12.40
 -14  27   3   25.80   15.10
  14  13  -3   51.49   11.60
 -13  27   3   40.20   15.70
  27 -14   3  121.79   38.60
  14 -27  -3   38.10   19.10
 -13  27   3  -32.60   30.00
  13  14  -3   46.60   12.30
  27 -12   3  122.39   34.20
 -15  27   3   48.10   15.80
  12 -27  -3   52.49   19.70
  15  12  -3   84.99   18.50
 -27  15  -3   26.90   17.80
  12  15  -3   52.89   12.80
 -12  27   3  -26.70   30.50
  27 -15   3  125.89   31.00
  12  15  -3   71.09   12.00
 -12  27   3   62.99   16.70
  15 -27  -3   51.29   19.40
  16  11  -3   30.10   11.10
  11 -27  -3   24.00   19.10
 -16  27   3   21.80   14.70
  27 -11   3   73.09   29.20
 -27  16  -3   -4.00   18.60
  16 -27  -3   11.30   19.20
 -11  27   3  -44.90   28.60
  11  16  -3   29.70   12.00
  11  16  -3   16.00   15.00
 -11  27   3   25.50   14.90
  27 -16   3   73.49   29.50
  10 -27  -3   -1.90   17.80
 -17  27   3    4.20   14.20
 -27  17  -3  -13.70   17.70
  17  10  -3   14.20   12.10
  27 -10   3   54.89   26.70
 -17 -10   3   42.00   15.80
 -10  27   3  -11.00   14.90
  27 -17   3   56.09   30.60
 -10  27   3  -46.80   29.20
  17 -27  -3   23.60   19.80
  10  17  -3   25.80   10.90
  10  17  -3   16.30   11.80
  18   9  -3   49.90   12.90
 -18  27   3   52.49   15.40
   9 -27  -3   33.20   18.10
 -27  18  -3   32.50   19.40
  27  -9   3   87.19   33.20
  18   9  -3   69.09   13.00
   9  18  -3   61.49   12.40
  -9  27   3    9.00   30.80
 -18  -9   3   77.19   16.10
  27 -18   3   88.89   32.50
  -9  27   3   27.00   15.70
   9  18  -3   50.49   13.00
 -27  19  -3    8.20   17.20
 -19  27   3   28.00   15.00
  27  -8   3   51.69   28.00
   8 -27  -3   37.90   18.30
  19   8  -3   29.40   11.90
  19 -27  -3   32.10   19.70
  -8  27   3   17.60   15.60
  27 -19   3   70.19   33.20
   8  19  -3   40.30   16.20
 -19  -8   3   51.79   15.00
  -8  27   3  -11.70   30.20
   8  19  -3   25.40   12.40
  20   7  -3   22.80   11.80
  27  -7   3  102.89   29.60
  20   7  -3   31.00   12.70
 -27  20  -3   -0.20   17.30
   7 -27  -3   12.90   18.40
 -20  27   3   12.20   14.70
  27  -7   3   67.59   36.30
   7  20  -3   24.10   10.70
  27 -20   3   50.59   32.10
  20 -27  -3    0.00   18.60
  -7  27   3  -11.00   14.50
 -20  -7   3    1.50   13.20
   7  20  -3   21.70   12.70
   7  20  -3   22.00   15.80
  -7  27   3  -38.20   29.30
   6 -27  -3   35.80   19.70
  27  -6   3   95.59   31.20
  27  -6   3  130.09   34.90
 -27  21  -3   25.00   19.50
  21   6  -3   65.09   14.10
 -21  27   3   78.39   17.30
  21   6  -3   57.99   13.10
   6  21  -3   73.69   18.20
  -6  27   3   48.00   41.40
   6  21  -3   74.49   13.50
  21 -27  -3   40.90   19.30
   6  21  -3   73.19   14.00
  27  -5   3   66.69   29.90
  22   5  -3   24.40   14.60
 -22  27   3   11.00   15.50
  22   5  -3   22.60   12.00
   5 -27  -3   -2.90   19.60
  27  -5   3   68.59   29.10
 -27  22  -3   -6.30   17.10
   5  22  -3   10.40   17.50
  27 -22   3   58.89   29.90
   5  22  -3   26.30   12.80
  22 -27  -3    5.10   18.60
  -5  27   3  -17.20   36.80
   5  22  -3   21.20   14.20
 -14  28   3   44.30   16.30
  14  14  -3   40.50   18.50
  14 -28  -3   32.40   19.60
 -14  28   3  -11.20   30.20
  28 -14   3  114.29   33.00
  14  14  -3   49.50   14.20
 -15  28   3   13.90   31.60
 -15  28   3   54.29   16.60
  13 -28  -3   50.39   19.60
  15  13  -3   60.69   12.20
  15  13  -3   67.79   13.50
  28 -13   3  156.28   33.00
  28 -15   3  131.69   33.70
  15 -28  -3   38.60   20.00
 -13  28   3   -9.40   30.10
 -13  28   3   71.79   17.00
  13  15  -3   70.19   12.20
  16  12  -3   19.10   11.00
 -16  28   3   -3.30   14.50
  12 -28  -3   11.90   19.20
  16  12  -3   19.30   11.70
  28 -12   3   96.29   30.90
  12  16  -3    7.90   12.00
  16 -28  -3   -8.80   22.40
 -12  28   3    2.70   15.50
  28 -16   3   61.19   29.50
  17  11  -3   22.40   12.20
  11 -28  -3   14.70   19.10
 -17  28   3   -1.40   14.70
  28 -11   3  115.79   35.60
  17  11  -3   25.40   13.40
  11  17  -3    8.00   17.00
 -11  28   3  -29.40   29.60
  17 -28  -3    2.10   27.10
 -11  28   3    4.10   15.50
 -17 -11   3   45.40   17.10
  11  17  -3   15.70   10.60
  11  17  -3   23.00   12.10
  28 -17   3   61.39   31.80
  18  10  -3   10.80   11.70
  28 -10   3   78.19   33.60
 -18  28   3    2.50   14.70
  28 -10   3   32.90   26.30
  10 -28  -3   -1.60   18.60
 -28  18  -3  -21.80   15.70
  18  10  -3   20.00   11.20
  10  18  -3   -2.20   15.30
 -18 -10   3   35.00   15.00
  28 -18   3   68.09   27.90
 -10  28   3  -19.00   14.80
  10  18  -3   10.60   12.10
 -10  28   3  -33.70   28.90
  18 -28  -3    5.50   19.60
  19   9  -3   35.00   12.90
   9 -28  -3   15.00   18.10
 -19  28   3   24.10   15.20
 -28  19  -3    1.70   17.40
  28  -9   3  103.79   33.30
   9  19  -3   23.00   20.00
  -9  28   3    9.90   15.20
  28 -19   3   71.19   32.00
  -9  28   3   -3.70   30.50
  19 -28  -3    3.70   19.00
   9  19  -3   39.40   11.20
 -19  -9   3   59.49   15.60
   9  19  -3   45.60   13.10
  28  -8   3  122.99   34.70
  28  -8   3  101.89   29.60
   8 -28  -3   64.99   20.10
 -20  28   3   72.39   16.80
  20   8  -3   81.89   13.40
  20   8  -3   67.79   13.60
 -20  -8   3   53.39   15.90
   8  20  -3   75.89   14.00
  -8  28   3   54.79   36.40
  20 -28  -3   48.30   20.30
   8  20  -3   84.49   13.40
  -8  28   3   40.60   16.60
  14 -29  -3    5.80   19.70
  29 -14   3   54.59   31.30
  15  14  -3   22.20   11.00
 -15  29   3  -45.70   31.30
 -29  15  -3  -27.10   15.80
  15  14  -3   11.90   12.10
 -15  29   3   -0.70   15.40
  29 -15   3   66.89   40.10
  14  15  -3   12.10   12.40
 -14  29   3    4.80   15.40
 -14  29   3  -46.00   28.80
 -16  29   3  -14.30   31.10
 -16  29   3   43.20   16.50
 -29  13  -3   -4.60   19.20
 -13  29   3   41.30   16.90
 -13  29   3  -16.30   29.40
   0   0   4  116.39   32.70
  -1   1   4  109.89   32.30
   0  -1   4  110.09   32.40
   0   1   4  113.79   33.80
  -1   0   4  133.29   32.50
   1  -1   4  143.59   33.40
   1   1   4  119.79   34.20
   1  -2   4  133.69   31.80
  -2   1   4  131.89   30.50
   1  -2  -4  273.07   21.60
  -1   2   4  260.87   47.50
  -2   1  -4  324.47   24.90
   0  -2   4  471.85   48.10
   0  -2  -4  542.05   30.60
  -2   2   4  467.95   46.70
   2   0  -4  458.25   28.20
   2   0   4  438.06   47.00
   0   2   4  467.85   49.40
   2  -2  -4  508.95   27.90
   2  -2   4  518.55   50.39
   0   2  -4  498.95   30.90
  -2   0   4  414.26   41.40
   1  -3   4   92.59   32.70
   2  -3   4  106.69   32.40
  -3   1   4   87.19   28.20
   1   2   4  109.99   33.10
  -2   4  -4  143.79   22.00
   2  -4   4  131.69   33.50
   2   2   4  133.99   35.50
  -4   2   4  121.49   28.50
  -3   2  -4  236.28   19.10
   2   1  -4  177.58   21.20
   1  -3  -4  224.68   20.00
   1   2  -4  225.48   20.30
  -3   1  -4  210.58   19.10
   2  -3  -4  172.48   21.60
   0  -3   4  116.19   28.30
  -3   3   4  134.49   31.90
   3  -3   4  166.18   36.70
   0   3   4  163.58   35.50
   1  -4   4  306.67   38.20
  -3   4  -4  237.08   19.80
  -1  -3  -4  217.98   20.50
   4  -1  -4  204.78   21.90
  -3  -1  -4  207.68   21.70
  -1   4  -4  200.28   20.40
   4  -3  -4  178.08   23.20
   3   2   4   95.69   37.90
   2  -5   4   83.39   29.50
  -5   3   4   74.19   27.70
   2   3   4  109.89   37.20
   3  -5   4   84.39   30.50
  -5   2   4   74.19   26.60
   3  -6   4   56.19   31.30
   3   3   4   67.19   37.90
  -6   3   4   51.59   26.10
   2   2  -4  106.09   17.50
   4  -2   4  139.69   34.20
  -2   4   4  128.29   34.90
  -2  -2   4   70.59   26.30
  -3   4   4  106.19   32.40
  -1  -3   4   48.20   25.80
   4  -1   4  114.59   32.20
  -1   4   4  132.19   36.10
  -3  -1   4   66.49   25.60
   4   0   4  323.57   48.50
   0  -4  -4  343.47   23.90
  -4   4   4  367.66   46.50
   0  -4   4  264.07   39.00
   0   4   4  304.57   45.50
   0   4  -4  324.97   24.90
   4  -4   4  381.56   46.40
  -4   0  -4  391.16   26.70
  -4   0   4  261.27   35.40
   4   1   4  123.29   38.10
   1  -5   4   50.79   26.80
  -5   4   4  108.89   28.90
  -4   5  -4   23.90   12.40
  -1  -4  -4   30.20   14.70
   5  -1  -4   22.50   15.10
  -5   1   4   71.19   24.80
  -4  -1  -4   33.10   12.90
  -1   5  -4   23.20   13.70
   5  -4  -4   38.10   15.50
   4  -5   4   86.89   33.60
   4   2   4  150.18   38.80
  -2  -4  -4  101.29   15.80
   6  -2  -4  117.49   17.90
   2  -6   4  146.99   29.30
  -6   4   4  165.78   29.70
  -4   6  -4   98.69   16.60
  -6   2   4  141.79   26.00
   6  -4  -4  114.59   18.40
  -2   6  -4   82.79   15.30
  -4  -2  -4  101.39   16.20
   2   4   4  168.28   40.40
   4  -6   4  184.08   33.80
   7  -3  -4    5.60   15.60
  -7   4   4   61.89   25.80
   4   3   4   60.49   36.70
   3  -7   4   62.49   29.10
  -7   3   4   54.89   23.50
   7  -4  -4   12.60   16.10
   3   4   4   58.09   37.00
  -3   7  -4   20.70   13.20
   4  -7   4   69.79   32.00
  -4  -3  -4   42.60   13.30
  -8   4   4   65.29   24.50
   4   4   4   65.39   36.20
   4  -8   4   77.19   32.10
   8  -4  -4   31.30   16.30
  -4  -4  -4   32.30   13.20
   3   2  -4  116.99   14.50
  -5   3  -4   80.49   14.00
   2  -5  -4   87.99   16.00
   3   2  -4   90.49   15.50
  -2  -3   4  126.29   25.40
  -3  -2   4  107.39   25.10
   2   3  -4   85.19   15.20
  -5   2  -4   79.59   14.30
   2   3  -4  121.09   17.30
   3  -5  -4   78.59   16.90
   5  -1   4  170.48   37.90
   4   1  -4   87.19   15.20
  -5   4  -4   92.89   14.60
   1  -5  -4   86.89   16.30
  -1  -4   4  131.09   26.40
  -4  -1   4  130.09   25.10
  -1   5   4  176.08   36.20
   1   4  -4  101.99   15.40
   4  -5  -4   79.09   17.30
  -5   1  -4   93.49   14.90
   0  -5   4   42.10   24.70
   0  -5  -4   19.50   14.10
   5   0   4   68.49   36.70
   5   0  -4   20.80   14.30
  -5   5   4  112.89   31.10
   5  -5   4   97.59   32.20
   0   5  -4   22.50   14.00
   5  -5  -4   15.50   15.40
   0   5   4   74.59   34.10
  -5   6  -4  145.39   18.50
  -1  -5  -4  150.18   20.70
   5   1   4  250.97   43.00
   1  -6   4  232.68   38.50
   6  -1  -4  157.98   20.90
   5  -6   4  285.07   45.80
  -6   1   4  209.68   30.10
  -1   6  -4  169.58   18.50
   6  -5  -4  142.19   22.90
  -5  -1  -4  164.98   17.70
   7  -2  -4   16.90   15.20
  -2  -5  -4   27.70   13.50
   2  -7   4   65.59   26.60
  -7   5   4   64.39   27.70
   5   2   4   52.99   37.90
  -5   7  -4   24.90   12.80
  -5  -2  -4   28.20   12.50
  -2   7  -4   34.40   13.10
   7  -5  -4   20.70   15.80
   5  -7   4   92.79   34.90
   2   5   4  106.29   37.50
  -7   2   4   52.29   22.30
   8  -3  -4  268.67   25.20
   3  -8   4  337.07   38.70
  -3  -5  -4  275.77   22.50
  -5   8  -4  281.97   22.40
  -8   5   4  330.07   38.10
   5   3   4  313.17   46.60
  -8   3   4  317.07   34.50
   3   5   4  261.07   48.30
  -5  -3  -4  272.37   21.50
   8  -5  -4  281.07   25.30
   5  -8   4  375.36   45.20
  -5  -3  -4  248.28   24.40
  -3   8  -4  263.17   22.10
   9  -4  -4   25.60   16.40
   4  -9   4   53.79   28.90
   5   4   4   36.70   37.00
  -9   5   4   69.79   24.40
  -5   9  -4   17.20   13.60
  -4  -5  -4   36.50   13.40
  -9   4   4   42.00   22.60
   9  -5  -4   18.30   17.00
   4   5   4   57.79   36.60
   5  -9   4   90.89   32.60
  -4   9  -4   24.00   13.30
  -5  -4  -4   30.90   13.40
  10  -5  -4   19.20   16.60
 -10   5   4   41.30   22.50
   5 -10   4   85.49   32.20
   5   5   4   41.90   35.70
  -5  10  -4   57.09   17.50
  -3  -3   4   97.19   23.70
   3   3  -4  115.59   18.10
   3  -6  -4   75.49   16.00
   3   3  -4  101.09   15.10
  -6   3  -4   74.09   14.10
   2  -6  -4  228.88   23.60
   4   2  -4  269.37   22.70
  -2  -4   4  299.97   35.60
  -6   4  -4  225.08   21.80
  -6   2  -4  261.27   19.70
   4  -6  -4  215.58   24.60
   2   4  -4  267.87   22.10
   2   4  -4  291.87   22.10
  -4  -2   4  288.97   32.90
   1  -6  -4   99.29   16.70
  -6   5  -4   83.09   14.50
   6  -1   4  170.88   37.60
  -1  -5   4  126.79   25.20
  -5   6   4  155.58   32.70
   5   1  -4   85.89   15.90
  -6   1  -4   92.09   15.20
  -5  -1   4  119.69   23.80
   1   5  -4   89.99   14.90
   5  -6  -4   81.39   17.70
   6  -5   4  185.48   35.90
   6   0  -4   42.40   15.20
   6   0   4  114.89   37.30
   0  -6  -4   42.80   15.60
  -6   6   4  121.89   31.80
   0  -6   4   77.29   24.70
  -6   6  -4   39.50   14.00
   6  -6  -4   44.80   16.30
   0   6   4  135.09   36.20
   0   6  -4   44.00   13.70
  -6   0  -4   58.09   13.30
  -6   0   4   60.79   22.10
  -1  -6  -4   45.00   14.80
   7  -1  -4   52.19   16.10
  -6   7  -4   62.69   14.10
   6   1   4   78.79   37.70
   1  -7   4   83.39   25.40
  -7   6   4  101.69   28.60
   6  -7   4   90.29   33.70
  -1   7  -4   51.79   13.60
   1   6   4  107.69   40.60
   7  -6  -4   42.30   17.00
  -6  -1  -4   55.99   13.80
  -7   1   4   77.09   22.50
  -6   8  -4   83.29   15.70
  -2  -6  -4   70.09   15.30
   8  -2  -4   77.29   17.20
   6   2   4   95.29   35.70
  -8   6   4  121.89   28.40
   6  -8   4  148.09   36.10
  -8   2   4  103.69   22.60
  -2   8  -4   73.19   14.90
  -6  -2  -4   95.79   14.40
  -6  -2  -4   67.19   19.00
   2   6   4  102.49   38.30
   8  -6  -4   90.39   17.50
  -6   9  -4   32.40   13.20
   9  -3  -4   36.90   17.30
  -3  -6  -4   30.00   13.50
   3  -9   4   79.69   27.00
   6   3   4   42.60   37.20
   9  -6  -4   41.60   16.50
   3   6   4   54.79   38.20
  -6  -3  -4   34.20   12.60
   6  -9   4   98.89   35.30
  -3   9  -4   38.80   13.70
  -9   3   4   45.80   21.60
   6   4   4  171.08   40.00
  -6  10  -4  155.38   19.00
   4 -10   4  246.78   37.60
  10  -4  -4  152.28   22.80
 -10   6   4  152.08   26.80
  -4  -6  -4  155.08   18.10
   6 -10   4  253.77   41.20
   4   6   4  141.69   38.50
  10  -6  -4  130.29   23.00
  -6  -4  -4  161.18   16.90
  -4  10  -4  155.58   18.10
 -10   4   4  141.89   23.80
  11  -5  -4   44.40   16.60
  -5  -6  -4   20.90   13.40
   6   5   4   19.90   34.00
 -11   6   4   34.70   21.80
   5 -11   4  107.99   28.80
  -6  11  -4   31.50   13.50
   5   6   4   67.89   35.60
   6 -11   4  112.49   32.20
  11  -6  -4   45.10   17.80
 -11   5   4   37.90   21.20
  -6  -5  -4   26.80   12.80
  -5  11  -4   32.10   13.70
  12  -6  -4   51.99   18.10
 -12   6   4   38.70   20.60
   6   6   4   17.50   36.50
   6 -12   4  108.89   31.90
  -6  12  -4   50.59   13.40
   3  -7  -4  157.18   21.90
   4   3  -4  201.18   16.80
   7  -3   4  283.47   49.70
  -7   4  -4  189.08   18.30
   4   3  -4  142.29   20.70
  -3  -4   4  209.88   29.50
  -4   7   4  300.97   48.60
   7  -4   4  282.97   46.80
   3   4  -4  171.88   19.80
  -7   3  -4  174.58   18.20
   4  -7  -4  184.78   21.70
   3   4  -4  203.68   20.60
  -4  -3   4  172.68   30.20
   5   2  -4  117.49   18.30
   7  -2   4  179.48   41.20
  -5   7   4  164.18   35.10
  -2  -5   4  138.99   24.50
  -7   5  -4  114.89   16.10
   2  -7  -4  109.49   17.90
   2   5  -4   81.99   16.30
  -7   2  -4  108.49   16.40
   5  -7  -4  110.19   19.80
   2   5  -4  137.59   18.50
  -5  -2   4  134.89   23.10
   6   1  -4  111.89   17.70
   1  -7  -4  110.09   18.70
  -7   6  -4   92.79   15.50
   1  -7  -4  108.19   15.70
   7  -1   4  140.79   38.00
  -1  -6   4  132.19   26.10
  -1   7   4  180.78   38.40
  -7   1  -4   99.99   15.60
   1   6  -4  101.29   16.00
  -6  -1   4  163.78   29.00
   1   6  -4  161.38   22.50
   6  -7  -4  125.39   20.60
   0  -7   4   52.79   24.10
  -7   7   4   77.29   30.90
   7   0  -4   24.40   15.10
   0  -7  -4   32.40   11.20
  -7   7  -4   33.10   13.00
   0  -7  -4   41.40   15.20
   7   0   4   70.99   35.70
   0   7  -4   27.60   13.10
   7  -7   4  126.59   33.90
  -7   0  -4   29.30   12.50
   7  -7  -4   38.60   16.90
   0   7   4  113.19   39.60
  -7   0   4   45.80   21.20
   1  -8   4   41.30   24.80
  -7   8  -4   21.50   13.90
  -8   7   4   45.70   27.80
  -1  -7  -4   22.20   14.80
   8  -1  -4    9.90   15.50
   7   1   4   30.50   36.90
   8  -7  -4   18.00   16.50
  -8   1   4   32.70   20.80
  -7  -1  -4   16.60   11.70
   1   7   4   59.49   37.20
  -1   8  -4   12.10   13.50
  -7  -1  -4   55.99   14.90
   7  -8   4   92.39   32.60
  -1   8  -4   44.90   15.50
   7   2   4   33.80   35.40
  -2  -7  -4   11.60   13.70
   2  -9   4   45.80   24.10
   9  -2  -4   24.90   16.30
  -9   7   4   51.39   27.60
  -7   9  -4   12.50   12.90
   7  -9   4   91.79   35.60
   2   7   4   43.30   36.20
  -7  -2  -4   15.10   12.30
  -9   2   4   27.20   20.10
   9  -7  -4   14.30   16.80
  -2   9  -4   47.50   16.70
  -2   9  -4   25.20   13.40
  -3  -7  -4  316.37   23.70
  -7  10  -4  304.47   23.80
   7   3   4  276.47   43.70
 -10   7   4  326.37   38.00
   3 -10   4  415.46   38.60
  10  -3  -4  294.87   26.70
 -10   3   4  302.57   30.90
   7 -10   4  387.16   48.80
  -3  10  -4  298.97   23.40
   3   7   4  260.47   43.80
  -3  10  -4  382.06   32.20
  -7  -3  -4  302.87   22.80
  10  -7  -4  301.77   28.10
  -7  11  -4   64.49   14.00
  -4  -7  -4   60.59   14.60
  11  -4  -4   61.69   17.50
 -11   7   4   81.09   23.80
   7   4   4   69.09   35.60
 -11   4   4   61.29   20.30
  -4  11  -4  105.79   17.50
   4   7   4   45.00   35.50
  -7  -4  -4   61.29   13.60
  11  -7  -4   61.19   19.10
   7   5   4  404.46   51.79
  -7  12  -4  372.26   29.30
  -5  -7  -4  454.65   31.30
  12  -5  -4  456.85   31.90
 -12   7   4  472.65   37.50
  -5  12  -4  462.45   28.40
   5   7   4  452.75   53.79
  12  -7  -4  463.85   32.60
  -7  -5  -4  416.56   31.00
 -12   5   4  457.55   34.90
 -13   7   4   77.99   20.70
  13  -6  -4   71.39   18.70
   7   6   4   45.90   33.30
  -6  -7  -4   55.29   13.80
  -7  13  -4   69.69   15.70
  -7  -6  -4   68.99   13.30
   6   7   4   12.00   34.50
  13  -7  -4   68.69   18.80
  -6  13  -4   75.79   15.60
 -13   6   4   65.99   20.80
   7 -13   4  125.29   31.80
 -14   7   4   36.80   19.00
  -7  -7  -4   16.90   13.70
  -7  14  -4   20.90   13.90
   7   7   4  -24.10   32.10
  14  -7  -4   30.60   18.60
   7 -14   4   88.89   30.40
  -8   4  -4   11.20   12.70
   4   4  -4   22.30    9.80
   8  -4   4   99.59   39.40
   4   4  -4   16.00   14.20
  -4   8   4   68.99   36.60
   4  -8  -4   15.70   14.80
  -4  -4   4    6.90   20.40
  -5   8   4   96.29   35.60
   8  -3   4   53.19   35.00
   8  -5   4   70.19   35.70
  -3   8   4   89.99   36.40
   8  -2   4   86.79   36.00
   6   2  -4   70.59   15.00
  -6   8   4  150.68   35.70
   2  -8  -4   69.59   17.10
  -2  -6   4   91.69   22.30
  -8   6  -4   81.79   14.10
   2   6  -4   71.89   15.50
  -8   2  -4   77.49   14.20
   6  -8  -4   78.49   17.30
  -6  -2   4   81.99   21.40
   8  -6   4  143.29   37.40
   2   6  -4   93.79   19.20
  -2   8   4  125.99   37.10
   7   1  -4   23.70   15.20
   1  -8  -4   26.60   15.50
  -1  -7   4   44.90   21.50
  -7   8   4   43.70   32.10
   8  -1   4   24.50   35.70
  -8   7  -4   25.40   13.20
  -8   1  -4   21.70   12.50
   7  -8  -4   28.50   16.70
  -1   8   4   72.79   39.80
   1   7  -4   35.30   13.90
   8  -7   4  104.69   35.90
  -7  -1   4   44.30   20.20
   8   0  -4  110.59   17.70
   8   0   4   97.19   37.10
   0  -8   4  122.39   24.10
  -8   8   4  157.18   32.60
   0  -8  -4   96.79   17.70
  -8   8  -4  100.19   16.60
  -8   0   4   92.69   21.20
  -8   0  -4  101.49   15.80
   8  -8  -4  116.59   19.60
   0   8  -4   75.19   16.10
   0   8   4   96.39   39.50
   1  -9   4   70.59   23.40
  -9   8   4   70.39   27.90
  -8   9  -4   32.70   14.70
   8   1   4   45.50   35.90
   9  -1  -4   31.10   15.90
  -1  -8  -4   35.50   15.30
   1   8   4   33.30   37.90
   9  -8  -4   39.30   17.30
   8  -9   4  122.59   32.20
  -8  -1  -4   40.40   12.60
  -9   1   4   43.20   19.80
  -1   9  -4   50.19   14.60
   2 -10   4   74.49   23.70
  -8  10  -4   40.00   13.30
   8   2   4   36.30   36.90
  10  -2  -4   26.20   17.00
  -2  -8  -4   41.10   14.20
 -10   8   4   81.49   27.80
  10  -8  -4   44.00   18.00
 -10   2   4   53.99   19.60
  -8  -2  -4   56.89   12.90
  -2  10  -4   47.10   13.60
   8 -10   4  106.49   33.70
   2   8   4   29.80   36.50
  -8  11  -4   98.79   18.10
   8   3   4  102.19   36.50
  11  -3  -4  113.99   20.40
  -3  -8  -4  135.59   18.40
 -11   8   4  152.68   27.60
   8 -11   4  193.88   36.30
   3   8   4  129.09   37.70
  11  -8  -4  135.79   23.30
 -11   3   4  155.38   25.00
  -3  11  -4  144.19   18.50
  -3  11  -4  176.08   25.00
 -12   8   4  135.49   25.20
  -8  12  -4  152.18   18.20
  12  -4  -4  108.69   19.70
   8   4   4   96.89   36.40
  -4  -8  -4  121.09   21.20
 -12   4   4  154.48   25.30
  -8  -4  -4  115.69   15.70
  12  -8  -4  139.79   24.20
   4   8   4  114.19   39.00
   8 -12   4  242.98   43.00
  -4  12  -4  134.69   17.60
  13  -5  -4   58.79   16.90
 -13   8   4   38.90   22.00
  -8  13  -4   47.20   13.80
   8   5   4   26.10   33.10
  -5  -8  -4   46.60   16.50
   8 -13   4  136.89   34.80
   5   8   4   14.10   33.20
 -13   5   4   62.59   18.90
  -5  13  -4   53.19   14.30
  13  -8  -4   59.19   19.20
  -8  -5  -4   46.30   12.50
   8   6   4  162.08   35.30
 -14   8   4  200.28   27.20
  14  -6  -4  189.08   24.20
  -6  -8  -4  190.58   18.00
  -8  14  -4  186.18   18.70
 -14   6   4  194.08   26.20
   8 -14   4  299.17   42.60
  -8  -6  -4  170.98   20.80
  -6  14  -4  149.69   19.90
  14  -8  -4  173.68   26.80
   6   8   4  159.48   35.40
  15  -7  -4   74.49   19.50
   8   7   4   39.80   31.80
  -7  -8  -4   55.89   14.70
   7 -15   4  119.69   31.20
  -8  15  -4   48.80   14.30
 -15   8   4   58.19   19.60
  -7  15  -4   54.79   14.70
   8 -15   4  138.79   31.90
   7   8   4   30.20   31.20
 -15   7   4   59.49   19.10
  -8  -7  -4   58.09   12.60
  15  -8  -4   51.79   18.20
   8 -16   4   87.79   28.10
   8   8   4   12.50   32.70
 -16   8   4   45.10   18.60
  -8  -8  -4   44.60   13.70
  -8  16  -4   46.90   14.60
  16  -8  -4   39.90   18.70
   5   4  -4   55.39   14.60
  -4  -5   4   61.69   20.30
   5   4  -4   57.39   11.80
  -5   9   4   93.89   36.40
   4  -9  -4   69.39   16.90
   9  -4   4   82.79   34.90
  -9   5  -4   52.99   15.00
   4   5  -4   67.49   15.10
  -5  -4   4   42.00   20.10
   4   5  -4   59.89   11.70
   5  -9  -4   54.79   17.00
   9  -5   4  114.09   38.80
  -9   4  -4   52.09   14.70
  -4   9   4  102.99   36.80
  -9   6  -4   47.70   14.70
   9  -3   4   50.49   35.60
   6   3  -4   62.69   15.20
   3  -9  -4   63.99   16.40
  -3  -6   4   49.10   20.80
  -6   9   4  101.19   35.60
   3   6  -4   42.90   13.70
  -9   3  -4   52.09   14.00
  -6  -3   4   52.49   19.70
   3   6  -4   61.89   13.70
   6  -9  -4   56.19   17.00
   9  -6   4  151.68   37.60
  -3   9   4  111.19   36.60
   2  -9  -4   41.50   17.20
   9  -2   4   92.09   36.10
   7   2  -4   37.60   15.40
  -2  -7   4   31.70   20.90
  -9   7  -4   38.80   14.50
  -7   9   4   80.49   33.10
  -7  -2   4   33.50   19.30
  -2   9   4   72.69   38.40
  -9   2  -4   41.70   13.10
   7  -9  -4   42.70   17.20
   2   7  -4   48.10   14.30
   2   7  -4   53.39   15.20
  -1  -8   4  193.28   29.70
  -8   9   4  204.08   35.60
   1  -9  -4  176.18   21.80
   9  -1   4  172.58   37.80
   8   1  -4  169.18   20.90
  -9   8  -4  153.88   18.80
   1   8  -4  167.28   18.20
  -9   1  -4  162.78   17.90
  -8  -1   4  187.48   27.50
  -1   9   4  234.98   43.30
   8  -9  -4  159.68   24.70
   1   8  -4  228.18   24.90
   0  -9   4  174.98   30.40
  -9   9  -4  114.09   17.00
  -9   9   4  164.78   32.70
   0  -9  -4  110.09   18.30
   9   0   4  144.89   38.00
   9   0  -4  112.89   19.90
   0   9  -4  174.68   22.40
  -9   0  -4  132.59   16.30
  -9   0   4  112.29   21.20
   0   9   4   81.79   39.40
   0   9  -4  146.89   18.10
   9  -9  -4  135.29   22.80
  10  -1  -4  394.56   29.50
  -9  10  -4  414.96   27.10
   9   1   4  325.17   46.00
  -1  -9  -4  391.66   28.40
   1 -10   4  465.05   37.40
 -10   9   4  449.66   42.50
  -9  -1  -4  398.96   26.20
   1   9   4  350.46   51.19
  10  -9  -4  325.87   32.10
 -10   1   4  355.56   33.30
  -1  10  -4  388.26   26.70
  -1  10  -4  493.95   36.30
   9 -10   4  509.15   47.20
  11  -2  -4   85.19   18.10
  -9  11  -4   80.39   14.70
  -2  -9  -4   80.19   16.20
 -11   9   4   83.99   27.20
   9   2   4   43.10   35.70
   9 -11   4  110.99   34.30
  -2  11  -4   89.69   14.90
  11  -9  -4   69.59   19.10
   2   9   4   50.89   36.70
 -11   2   4   73.49   19.00
   9   3   4   10.40   32.40
 -12   9   4   44.50   24.20
  -3  -9  -4   19.10   16.60
   3 -12   4   87.39   22.90
  -9  12  -4   34.50   14.30
  12  -3  -4   35.10   17.20
  -3  12  -4   28.60   13.30
  12  -9  -4   26.50   17.90
 -12   3   4   14.10   18.30
  -3  12  -4   49.70   17.80
   3   9   4  -16.50   33.20
   9 -12   4   79.19   34.00
  -9  -3  -4   36.40   12.20
 -13   9   4   38.30   23.20
  13  -4  -4   32.80   17.30
   9   4   4  -20.00   32.40
  -9  13  -4   32.10   12.90
  -4  -9  -4   14.00   15.30
   9 -13   4   74.79   31.50
  -4  13  -4   24.10   13.70
 -13   4   4   28.60   17.90
  -4  13  -4   49.40   16.80
  13  -9  -4   23.40   17.80
  -9  -4  -4   16.40   13.10
   4   9   4   33.20   34.60
  14  -5  -4  421.76   28.40
  -9  14  -4  314.07   25.60
 -14   9   4  411.06   33.80
   9   5   4  372.86   49.60
  -5  14  -4  305.67   26.10
  14  -9  -4  324.17   31.00
   5   9   4  337.97   49.99
 -14   5   4  359.36   30.60
  -6  -9  -4   54.89   16.00
   9   6   4   54.19   30.10
 -15   9   4   57.29   20.00
  -9  15  -4   73.69   14.80
  15  -6  -4   62.89   19.50
  -6  15  -4   56.69   14.60
   9 -15   4  133.39   33.80
 -15   6   4   74.39   17.80
  -9  -6  -4   70.79   13.80
  15  -9  -4   81.79   18.90
   6   9   4   28.80   32.40
  -7  -9  -4  390.06   26.80
   9   7   4  287.57   47.70
  -9  16  -4  408.66   27.30
  16  -7  -4  356.86   32.40
 -16   9   4  339.27   32.60
  -7  16  -4  461.35   32.30
  -9  -7  -4  397.06   24.20
  16  -9  -4  380.06   30.50
 -16   7   4  349.07   29.60
  -7  16  -4  419.76   27.50
   9 -16   4  473.55   43.10
   7   9   4  313.37   46.50
   8 -17   4   81.89   35.20
  -8  -9  -4    7.00   12.80
  17  -8  -4   14.30   17.60
  -9  17  -4   13.50   12.70
   9   8   4   -9.80   29.40
 -17   9   4    9.90   17.60
  -8  17  -4   16.90   11.30
  -8  17  -4   57.29   18.80
  -9  -8  -4    3.20   10.70
 -17   8   4   15.70   16.70
  17  -9  -4    4.10   17.90
   8   9   4   -1.50   29.50
  -9  18  -4   29.40   11.90
  -9  -9  -4   14.50   11.00
   9   9   4    2.30   28.70
  18  -9  -4   23.10   18.70
 -18   9   4   15.60   17.00
   5 -10  -4    5.90   15.80
 -10   5  -4   18.80   14.10
   5   5  -4   12.20   11.70
  -5  10   4   72.09   36.00
  10  -5   4   54.49   39.00
   5   5  -4    7.80   14.60
  -5  -5   4   13.70   19.10
   4 -10  -4   84.49   17.40
  -6  10   4  112.29   37.10
  -4  -6   4   90.19   20.80
 -10   6  -4   81.09   15.20
   6   4  -4  101.59   16.10
  10  -4   4  121.69   37.20
 -10   4  -4   86.09   15.50
  10  -6   4  119.99   37.90
   6 -10  -4   73.89   18.50
  -4  10   4  108.69   37.30
  -6  -4   4   57.99   20.70
   4   6  -4   83.49   15.50
   4   6  -4   66.79   15.80
 -10   7  -4   39.30   14.90
  -3  -7   4   61.29   20.00
   3 -10  -4   26.40   11.30
   7   3  -4   51.39   14.80
  10  -3   4   74.89   40.60
   3 -10  -4   60.49   16.20
  -7  10   4   56.39   33.30
  10  -7   4   99.89   35.20
  -7  -3   4   48.10   19.50
  -3  10   4   64.99   38.60
   3   7  -4   51.69   14.00
   7 -10  -4   56.19   17.60
 -10   3  -4   46.60   13.50
   3   7  -4   50.89   14.80
  -8  10   4   33.00   32.00
  10  -2   4   40.40   35.00
  -2  -8   4   28.40   19.40
   8   2  -4   34.50   14.70
   2 -10  -4   27.30   16.50
 -10   8  -4   23.90   14.10
 -10   2  -4   37.30   12.40
  -8  -2   4   24.70   18.80
   2   8  -4   25.50   14.10
  -2  10   4   12.50   39.20
  10  -8   4  111.59   37.10
   2   8  -4   34.10   16.30
   8 -10  -4   23.10   17.50
  10  -1   4  138.19   37.00
  -9  10   4  132.19   33.20
   1 -10  -4  151.18   21.20
 -10   9  -4  110.69   17.90
   9   1  -4  123.89   20.70
  -1  -9   4  166.98   28.30
   1   9  -4  170.18   26.50
 -10   1  -4  151.68   16.30
  -9  -1   4  127.79   21.30
   9 -10  -4  123.49   21.00
   1   9  -4  125.39   17.60
  -1  10   4  158.68   38.30
 -10   1  -4   87.09   17.80
   0 -10   4   81.89   22.30
   0 -10  -4   61.59   16.00
 -10  10  -4   46.20   15.30
  10   0   4   38.20   40.90
 -10  10   4   61.29   29.90
  10   0  -4   60.29   17.60
   0  10  -4   69.89   15.80
  10 -10   4  154.38   37.40
 -10   0   4   61.59   19.50
  10 -10  -4   78.69   18.90
   0  10  -4   49.00   15.10
   0  10   4   52.49   35.60
 -10   0  -4   60.89   15.00
  -1 -10  -4   47.50   17.00
  10   1   4   23.70   33.00
 -10  11  -4   54.99   13.60
  11  -1  -4   60.09   16.50
 -11  10   4   71.69   27.60
   1  10   4   52.49   36.40
 -10  -1  -4   60.29   13.10
 -11   1   4   69.59   19.10
  11 -10  -4   55.59   18.20
  10 -11   4  118.09   35.90
  -1  11  -4   69.29   15.00
  10   2   4  128.19   35.40
  -2 -10  -4  140.19   23.80
 -12  10   4  208.48   35.80
 -10  12  -4  148.09   17.50
  12  -2  -4  169.28   22.30
 -10  -2  -4  161.08   16.30
  -2  12  -4  159.68   18.00
   2  10   4  101.49   36.90
 -12   2   4  115.29   20.60
  12 -10  -4  141.79   23.30
  13  -3  -4   71.79   17.10
 -13  10   4   85.49   25.20
  -3 -10  -4   67.99   18.20
  10   3   4   73.99   35.40
 -10  13  -4   60.19   15.10
 -13   3   4   59.69   18.50
   3  10   4   50.59   36.50
  -3  13  -4  102.49   17.90
  13 -10  -4   81.59   19.60
  10 -13   4  126.29   33.70
  10   4   4   35.00   31.60
  -4 -10  -4   25.00   12.60
 -10  14  -4   46.20   13.60
  14  -4  -4   29.60   16.60
 -14  10   4   29.60   21.70
 -10  -4  -4   40.80   11.70
  -4  14  -4   60.49   17.50
  14 -10  -4   46.70   19.00
 -14   4   4   32.80   17.80
  -4  14  -4   34.80   12.40
  10 -14   4   58.59   29.60
   4  10   4    5.10   32.80
 -10  15  -4   48.70   13.90
  15  -5  -4   68.49   17.90
  -5 -10  -4   55.99   15.60
  10   5   4   21.20   30.60
 -15  10   4   75.59   21.10
 -10  -5  -4   55.99   13.70
  15 -10  -4   74.69   19.40
  -5  15  -4   48.80   14.40
   5  10   4   31.10   30.90
  -5  15  -4   77.29   18.80
 -15   5   4   59.29   18.20
  -6 -10  -4  143.19   16.10
  16  -6  -4  142.29   21.70
 -16  10   4  147.19   27.00
 -10  16  -4  141.19   18.30
  10   6   4   98.29   32.10
   6  10   4  101.29   32.70
  -6  16  -4  155.38   19.00
  -6  16  -4  202.88   27.80
 -10  -6  -4  137.99   17.10
  10 -16   4  170.58   32.00
 -16   6   4  141.69   24.30
  16 -10  -4  125.69   21.40
  10   7   4   16.20   28.90
  -7 -10  -4   19.80   11.50
 -17  10   4   18.70   18.20
 -10  17  -4   27.80   11.90
  17  -7  -4   29.90   17.30
 -17   7   4   35.30   16.80
 -10  -7  -4   26.20   11.00
   7  10   4    2.00   29.60
  -7  17  -4   30.10   11.70
  17 -10  -4   19.30   17.90
  -8 -10  -4   97.19   16.80
 -18  10   4  100.39   19.90
  10   8   4   81.99   31.00
  18  -8  -4  141.99   21.10
 -10  18  -4   85.69   15.10
 -10  -8  -4  113.69   16.50
  18 -10  -4   96.19   21.20
   8  10   4   64.09   30.20
 -18   8   4  109.69   18.60
  -8  18  -4   77.49   15.50
  -9 -10  -4  119.09   16.00
  10   9   4   53.09   32.90
  19  -9  -4   90.09   21.90
 -10  19  -4  115.49   18.10
 -19  10   4   97.59   19.00
  19 -10  -4   92.49   22.20
  -9  19  -4  134.09   20.60
 -10  -9  -4  120.79   14.90
 -19   9   4  124.29   22.60
   9  10   4   52.19   29.90
 -10 -10  -4   -1.40   13.90
 -10 -10  -4   24.50   11.10
   6   5  -4    8.50   11.40
   5 -11  -4   31.20   13.00
 -11   6  -4   14.80   12.50
  -6  11   4   28.30   34.40
   5 -11  -4   24.60   16.50
  -5  -6   4   13.90   19.10
  11  -5   4   54.59   34.80
   6   5  -4   28.10   15.50
   6 -11  -4   22.30   17.40
   5   6  -4   38.10   13.70
  11  -6   4   71.49   36.80
 -11   5  -4   19.00   13.80
  -6  -5   4   23.50   18.40
  -5  11   4   24.20   35.00
   5   6  -4   22.00   13.40
  11  -4   4  242.98   39.90
 -11   7  -4  241.08   20.40
  -7  11   4  278.17   46.20
   4 -11  -4  194.78   23.80
   7   4  -4  181.18   21.10
  -4  -7   4  189.28   28.00
   4 -11  -4  172.88   17.90
   4   7  -4  218.78   20.40
   7 -11  -4  190.78   25.70
  -4  11   4  245.98   41.70
  11  -7   4  284.07   44.50
  -7  -4   4  232.68   27.40
 -11   4  -4  218.98   20.80
   4   7  -4  267.87   22.00
   8   3  -4  142.59   20.20
  11  -3   4  152.78   40.90
 -11   8  -4  166.68   18.00
  -8  11   4  159.58   37.10
  -3  -8   4  170.38   28.10
   3 -11  -4  148.79   20.60
   8 -11  -4  142.79   23.20
  11  -8   4  241.08   43.60
  -8  -3   4  126.79   21.30
  -3  11   4  186.08   42.00
 -11   3  -4  141.69   17.30
   3   8  -4  149.69   18.70
  -9  11   4   61.39   33.30
   2 -11  -4   55.59   18.30
   9   2  -4   38.70   16.10
  11  -2   4   65.49   33.10
  -2  -9   4   61.09   19.90
 -11   9  -4   56.49   13.40
  -9  -2   4   26.30   18.50
 -11   2  -4   26.30   16.00
  -2  11   4   44.90   38.50
 -11   2  -4   57.89   12.80
   9 -11  -4   46.10   18.20
   2   9  -4   68.29   17.40
  11  -9   4  129.49   38.10
   2   9  -4   41.10   14.70
 -10  11   4   39.30   30.90
   1 -11  -4   67.79   16.70
  11  -1   4   32.60   32.70
 -11  10  -4   60.99   14.20
  10   1  -4   46.70   15.80
  -1 -10   4   61.79   20.10
  -1  11   4   26.90   37.10
   1  10  -4   52.49   15.10
 -11   1  -4   43.10   13.80
  11 -10   4  103.29   36.20
 -10  -1   4   36.80   18.40
  10 -11  -4   48.00   18.70
   1  10  -4   47.80   13.80
   0 -11   4   71.69   19.50
  11   0  -4   14.80   16.70
 -11  11  -4   31.30   13.60
 -11  11   4   53.79   29.70
   0 -11  -4   29.90   15.10
  11   0   4   45.90   33.90
   0  11  -4   38.20   19.80
  11 -11  -4   35.10   18.20
  11 -11   4  114.29   37.40
   0  11   4    1.20   35.40
 -11   0   4   22.10   18.00
   0  11  -4   24.60   14.40
 -11   0  -4   30.20   12.10
  11   1   4  264.77   45.90
  12  -1  -4  237.38   26.20
 -11  12  -4  321.97   23.80
 -12  11   4  312.47   38.50
  -1 -11  -4  278.57   23.80
  11 -12   4  410.36   49.00
  12 -11  -4  255.97   29.50
  -1  12  -4  355.66   30.20
  -1  12  -4  226.48   23.40
 -11  -1  -4  322.07   21.20
 -12   1   4  263.27   27.30
   1  11   4  259.97   41.30
 -11  13  -4  107.59   17.10
  -2 -11  -4  101.69   17.70
  13  -2  -4   86.89   19.10
 -13  11   4  100.69   27.70
  11   2   4   69.49   32.70
   2  11   4   73.19   34.50
  -2  13  -4  129.99   18.70
 -13   2   4   82.69   19.00
 -11  -2  -4  104.89   17.00
  13 -11  -4   82.69   20.40
  -2  13  -4  157.28   24.80
  11 -13   4  127.29   35.70
 -14  11   4  350.76   34.90
 -11  14  -4  342.57   24.10
  -3 -11  -4  328.17   23.60
  14  -3  -4  263.47   28.60
  11   3   4  248.68   44.20
   3  11   4  275.67   45.80
 -14   3   4  297.77   28.50
  -3  14  -4  391.06   32.50
  11 -14   4  351.26   43.20
  14 -11  -4  324.17   29.10
  -3  14  -4  313.07   23.50
 -11  -3  -4  350.36   22.20
  11   4   4   21.10   32.30
  15  -4  -4   40.40   16.30
 -15  11   4   40.40   22.10
  -4 -11  -4   48.10   16.10
 -11  15  -4   31.30   13.40
  15 -11  -4   40.60   18.60
  11 -15   4   78.09   31.10
 -15   4   4   42.10   17.30
   4  11   4   -2.20   32.20
  -4  15  -4   47.90   15.00
  -4  15  -4   54.29   16.90
 -11  -4  -4   40.30   11.10
 -11  16  -4   30.90   13.60
  11   5   4   24.30   31.90
  16  -5  -4   35.70   17.20
 -16  11   4   24.70   20.90
  -5 -11  -4   37.50   12.70
 -11  -5  -4   39.30   11.50
  -5  16  -4   31.20   14.60
  -5  16  -4   64.79   18.20
  16 -11  -4   39.10   18.60
   5  11   4   12.30   29.70
 -16   5   4   27.70   16.20
 -11  17  -4   55.49   12.70
  17  -6  -4   54.69   18.90
 -17  11   4   56.59   20.40
  11   6   4   46.90   29.10
  -6 -11  -4   46.20   14.30
 -17   6   4   39.50   16.50
  -6  17  -4   51.19   12.40
   6  11   4   21.10   31.40
 -11  -6  -4   42.00   12.60
  17 -11  -4   52.29   18.80
  18  -7  -4  235.38   26.00
 -18  11   4  231.08   27.80
  11   7   4  225.18   40.60
  -7 -11  -4  209.28   19.10
 -11  18  -4  160.48   20.00
 -11  -7  -4  239.48   19.40
  18 -11  -4  230.98   27.10
  -7  18  -4  212.48   21.30
 -18   7   4  215.38   24.80
   7  11   4  168.98   35.10
 -19  11   4   79.69   19.30
  19  -8  -4   93.99   22.10
 -11  19  -4   76.99   15.90
  -8 -11  -4   80.59   14.60
  11   8   4   42.40   33.10
 -19   8   4   77.29   18.30
   8  11   4   44.80   29.10
 -11  -8  -4   83.89   15.00
  -8  19  -4  119.19   24.60
  19 -11  -4   76.89   20.50
  -8  19  -4  102.49   18.70
  -9 -11  -4   93.49   15.20
  11   9   4   94.49   34.60
 -11  -9  -4   52.49   16.00
 -11  21  -4   40.40   19.70
  11  10   4  -18.00   26.60
 -21  11   4   17.60   16.60
 -11  21  -4    7.00   13.50
 -10 -11  -4    7.40   12.80
  21 -10  -4   -0.70   18.90
  21 -11  -4   11.50   19.40
 -10  21  -4   14.80   11.90
 -11 -10  -4   -7.90   13.40
 -11 -10  -4   18.80   10.40
 -10  21  -4   50.49   19.30
 -21  10   4   11.90   17.00
  10  11   4    7.30   30.50
  22 -11  -4   32.50   20.50
 -11  22  -4   68.29   20.20
 -11  22  -4   35.20   13.10
  11  11   4    7.40   29.10
 -22  11   4   38.20   17.50
 -11 -11  -4   43.50   13.50
  12  -6   4   17.60   33.60
 -12   6  -4   18.40   12.70
   6 -12  -4   15.60   17.40
   6   6  -4   22.30   13.60
  -6  -6   4    4.80   18.80
  -6  12   4   11.50   34.40
   6   6  -4    6.40   11.90
   7   5  -4   72.79   15.80
   5 -12  -4   78.29   19.40
  -5  -7   4   73.39   19.80
 -12   7  -4   75.19   13.90
  12  -5   4   87.19   34.90
  -7  12   4   72.29   34.60
   7 -12  -4   61.69   18.50
 -12   5  -4   65.89   15.90
   5   7  -4   73.99   14.00
   5   7  -4   84.99   15.30
  -7  -5   4   61.19   19.40
  -5  12   4   92.79   37.70
  12  -7   4  117.39   35.60
   4 -12  -4   43.20   17.40
  12  -4   4   17.60   35.50
   8   4  -4   29.10   15.00
  -4  -8   4   39.80   18.80
 -12   8  -4   35.30   13.20
  -8  12   4   47.40   35.30
  12  -8   4   71.09   38.50
   4   8  -4   25.10   14.90
  -4  12   4    7.40   38.40
   8 -12  -4   33.30   17.90
  -8  -4   4   19.50   19.00
 -12   4  -4   44.30   13.70
  -3  -9   4   39.70   19.30
  12  -3   4   41.50   36.70
   9   3  -4   18.00   14.00
   3 -12  -4   34.00   15.50
  -9  12   4   33.60   33.30
 -12   9  -4   21.30   13.90
 -12   3  -4   16.90   15.60
  12  -9   4   87.49   37.40
  -9  -3   4    2.90   18.50
 -12   3  -4   33.80   11.80
   3   9  -4   22.50   14.50
  -3  12   4   21.50   37.30
   9 -12  -4   34.20   17.70
   3   9  -4   28.30   14.10
  10   2  -4   85.19   17.90
 -10  12   4  115.59   33.50
 -12  10  -4  124.09   16.70
  -2 -10   4  108.79   20.80
  12  -2   4  105.99   34.40
   2 -12  -4   99.59   18.20
  12 -10   4  194.78   38.20
   2  10  -4  116.99   17.60
  10 -12  -4  115.39   20.90
 -10  -2   4   90.19   20.40
  -2  12   4   78.99   37.00
 -12   2  -4  113.69   17.20
   2  10  -4  152.78   24.50
 -11  12   4   96.69   31.80
 -12  11  -4   67.99   13.60
   1 -12  -4   73.89   16.80
  11   1  -4   69.19   17.00
  12  -1   4   71.59   34.40
  -1 -11   4   83.59   20.90
   1  11  -4   70.09   14.00
  -1  12   4   58.89   36.50
 -11  -1   4   59.89   19.20
 -12   1  -4   74.89   13.20
  12 -11   4  113.39   38.30
  11 -12  -4   69.49   19.30
 -12  12   4   25.50   28.60
   0 -12   4   47.20   19.50
 -12  12  -4   18.20   12.10
   0 -12  -4   19.90   15.00
  12   0  -4   16.10   16.20
  12   0   4    7.50   31.70
 -12   0  -4   22.30   11.30
  12 -12  -4    7.60   17.90
   0  12  -4   21.20   13.00
 -12   0   4   16.40   18.00
   0  12   4    3.00   34.60
 -12  13  -4  173.58   18.00
  12   1   4  138.99   36.80
  -1 -12  -4  191.78   19.90
  13  -1  -4  197.98   23.00
 -13  12   4  211.48   36.10
   1  12   4  170.48   37.50
  13 -12  -4  168.28   23.90
 -12  -1  -4  192.78   16.80
 -13   1   4  165.38   25.30
  -1  13  -4  128.79   19.30
 -12  14  -4  158.88   17.30
  12   2   4  125.19   35.10
  -2 -12  -4  150.68   18.00
 -14  12   4  165.98   27.90
  14  -2  -4  157.08   22.80
 -14   2   4  116.79   20.10
  -2  14  -4  123.59   18.80
  14 -12  -4  134.79   21.50
  -2  14  -4  194.38   25.90
   2  12   4  115.89   37.30
  12 -14   4  241.78   41.20
 -12  -2  -4  140.09   17.20
  15  -3  -4   96.89   18.00
 -12  15  -4   90.39   15.60
  12   3   4   63.99   31.00
 -15  12   4   90.69   24.70
  -3 -12  -4   79.99   17.40
 -12  -3  -4   96.89   13.60
 -15   3   4   68.89   18.40
   3  12   4   43.60   32.00
  15 -12  -4   63.29   19.50
  -3  15  -4  106.19   18.10
  12   4   4   79.79   29.80
  -4 -12  -4   79.79   14.40
 -16  12   4   86.69   23.30
 -12  16  -4   99.09   15.50
  16  -4  -4   77.79   17.20
 -16   4   4   76.09   17.70
  16 -12  -4   99.59   20.00
   4  12   4   40.50   32.80
  -4  16  -4  113.19   15.90
 -12  -4  -4  116.69   16.30
  12   5   4   12.90   29.60
 -12  17  -4   27.40   13.40
  -5 -12  -4    6.40   12.20
  -5 -12  -4   15.80   13.20
  17  -5  -4   25.90   17.10
 -17  12   4   36.30   20.60
  -5  17  -4   21.90   13.20
 -12  -5  -4   26.70   12.30
   5  12   4    7.50   31.10
 -17   5   4   28.60   16.70
  17 -12  -4   30.30   19.00
  -5  17  -4   59.39   17.70
  12   6   4   46.10   32.60
  18  -6  -4   82.29   19.60
  -6 -12  -4   45.40   13.80
  -6 -12  -4   73.19   14.90
 -18  12   4   73.19   20.90
 -12  18  -4   66.19   15.20
 -18   6   4   60.09   17.20
  18 -12  -4   65.09   19.30
   6  12   4   26.90   30.20
 -12  -6  -4   80.29   13.20
 -19  12   4   34.70   19.30
 -12  19  -4   37.60   15.10
 -12  19  -4   63.39   20.30
  -7 -12  -4   13.30   12.20
  19  -7  -4   19.90   17.90
  -7 -12  -4   29.00   12.90
  12   7   4   14.20   29.20
  -7  19  -4   25.20   13.70
  -7  19  -4   68.69   19.20
  19 -12  -4   19.10   20.50
 -12  -7  -4   38.40   11.00
 -19   7   4   20.80   18.00
   7  12   4   36.20   30.40
  -8 -12  -4   63.59   13.10
  20  -8  -4   59.29   22.70
  -8 -12  -4   39.00   13.40
  12   8   4   32.50   32.20
   8  12   4   22.20   43.20
 -20   8   4   39.40   23.00
  -8  20  -4   86.49   19.90
 -12  21  -4   35.90   14.70
  21  -9  -4   35.80   20.80
  -9 -12  -4    4.40   12.70
 -21  12   4   11.80   18.10
  12   9   4   14.20   30.50
 -12  21  -4   58.19   21.10
  -9 -12  -4   25.10   13.40
   9  12   4    1.00   29.20
  -9  21  -4   50.79   20.50
  -9  21  -4   24.90   12.50
 -21   9   4   30.20   16.70
 -12  -9  -4   47.30   13.70
  21 -12  -4   34.70   19.70
 -12  -9  -4    1.40   13.50
  12  10   4   47.90   30.50
 -10 -12  -4   72.39   15.30
 -10 -12  -4   36.20   14.90
 -22  12   4   59.59   18.90
  22 -10  -4   68.39   21.10
  22 -12  -4   65.59   21.00
 -12 -10  -4   38.80   15.30
 -22  10   4   73.49   18.00
  10  12   4   24.80   29.10
 -12 -10  -4   86.49   14.30
 -10  22  -4   68.69   13.60
 -12  23  -4  142.89   17.00
 -11 -12  -4  111.09   20.60
 -23  12   4  129.29   22.40
  23 -11  -4  122.19   22.30
  12  11   4   98.29   32.50
 -11  23  -4   96.39   17.80
  23 -12  -4  135.69   23.20
  11  12   4   80.89   31.30
 -12 -11  -4   90.49   17.10
 -23  11   4  144.79   24.00
 -13   7  -4   79.39   13.90
   7   6  -4   75.09   15.50
   7   6  -4   41.10   12.80
  -7  13   4   80.59   35.60
  -6  -7   4   66.59   19.90
   6 -13  -4   61.79   18.20
  13  -6   4   82.39   37.30
   6   7  -4   56.09   15.50
  -6  13   4   64.59   36.80
  -7  -6   4   57.69   19.60
  13  -7   4   80.09   36.00
 -13   6  -4   79.29   14.30
   7 -13  -4   67.79   18.30
  -8  13   4  144.89   36.50
   5 -13  -4  126.99   20.70
  13  -5   4  174.68   38.50
 -13   8  -4  117.09   18.20
   8   5  -4  126.49   17.80
  -5  -8   4  156.08   26.10
   5   8  -4  110.09   19.30
  -8  -5   4  144.09   26.30
  -5  13   4  125.69   40.30
   8 -13  -4  128.59   20.90
  13  -8   4  197.08   35.90
 -13   9  -4  130.79   19.30
  13  -4   4  161.78   40.60
   9   4  -4  132.19   20.40
  -9  13   4  143.59   37.70
   4 -13  -4  163.18   22.30
  -4  -9   4  172.68   27.30
 -13   4  -4  163.08   25.90
   4   9  -4  169.18   18.50
  -9  -4   4  146.99   25.00
  13  -9   4  209.98   36.60
  -4  13   4  158.28   39.50
   9 -13  -4  152.88   24.00
   4   9  -4  189.98   21.80
 -13   4  -4  154.98   17.10
 -13  10  -4  188.68   20.80
   3 -13  -4  211.58   23.60
  13  -3   4  215.18   40.80
 -10  13   4  237.88   37.40
  10   3  -4  216.18   21.50
  -3 -10   4  225.18   28.10
 -13   3  -4  230.28   19.30
 -10  -3   4  194.98   26.20
   3  10  -4  213.48   19.70
  -3  13   4  215.48   40.40
   3  10  -4  268.07   26.20
  10 -13  -4  206.98   26.50
  13 -10   4  324.37   49.90
  13  -2   4  165.68   36.10
 -13  11  -4  208.88   19.20
 -11  13   4  180.08   34.00
  11   2  -4  197.98   21.00
  -2 -11   4  193.08   26.70
   2 -13  -4  183.98   21.80
 -11  -2   4  194.78   25.40
  -2  13   4  193.68   39.50
  11 -13  -4  190.08   23.90
 -13   2  -4  192.98   18.00
   2  11  -4  222.78   20.70
 -13  12  -4  241.48   19.80
  12   1  -4  209.98   23.70
 -12  13   4  212.68   34.80
   1 -13  -4  206.58   24.80
  -1 -12   4  266.87   28.80
  13  -1   4  234.58   36.40
 -13   1  -4  244.58   19.00
 -12  -1   4  222.98   26.00
   1  12  -4  200.38   21.40
   1  12  -4  272.67   25.90
  -1  13   4  203.88   40.30
  12 -13  -4  204.28   26.00
 -13  13   4   91.89   29.80
  13   0   4   54.49   30.90
   0 -13   4  115.69   20.20
   0 -13  -4   69.69   18.60
 -13  13  -4   79.49   14.40
  13   0  -4   69.19   17.40
   0  13  -4  129.59   25.30
   0  13   4   68.59   37.20
 -13   0   4   60.79   19.30
   0  13  -4   54.69   15.10
 -13   0  -4   83.49   14.10
  13 -13  -4   87.89   19.90
 -14  13   4   48.40   25.20
  14  -1  -4   29.70   16.40
  -1 -13  -4    4.90   11.30
  13   1   4    8.20   28.90
 -13  14  -4   30.80   13.40
  -1 -13  -4   25.50   16.30
  -1  14  -4   51.79   17.50
 -14   1   4   32.40   17.30
  14 -13  -4   40.50   17.70
   1  13   4    7.80   34.60
  -1  14  -4   27.40   13.60
  -2 -13  -4   15.00   15.50
 -13  15  -4   24.60   12.60
  15  -2  -4   31.60   16.70
 -15  13   4   43.90   24.70
  13   2   4    7.30   30.20
 -15   2   4    6.10   16.90
 -13  -2  -4   28.90   12.00
   2  13   4   -6.50   32.80
  15 -13  -4   29.10   18.20
  -2  15  -4   49.80   16.10
  -2  15  -4   17.00   13.30
  16  -3  -4  425.66   29.10
  -3 -13  -4  391.96   25.50
 -13  16  -4  348.27   26.10
  13   3   4  362.96   46.90
 -16  13   4  392.26   37.30
  -3 -13  -4  312.87   27.00
   3  13   4  310.97   47.50
 -16   3   4  345.97   29.90
  -3  16  -4  293.57   25.80
  -3  16  -4  443.26   33.20
 -13  -3  -4  418.36   23.50
 -13  -3  -4  286.57   27.60
  16 -13  -4  390.56   30.40
  17  -4  -4   76.99   18.30
  -4 -13  -4   58.79   13.90
  -4 -13  -4   68.39   15.90
  13   4   4   43.70   33.70
 -17  13   4   86.09   22.60
 -13  17  -4  102.59   17.30
 -13  -4  -4   87.29   13.20
 -17   4   4  103.19   18.60
  17 -13  -4   68.79   18.50
   4  13   4   68.49   32.30
  13   5   4  167.98   33.90
  18  -5  -4  207.98   26.10
  -5 -13  -4  255.97   21.30
  -5 -13  -4  174.58   22.30
 -18  13   4  207.98   30.50
 -13  18  -4  250.57   22.90
 -18   5   4  198.58   24.70
  18 -13  -4  203.38   25.80
   5  13   4  202.08   34.90
  -5  18  -4  200.98   20.60
  13   6   4   32.20   31.00
  -6 -13  -4   30.40   13.00
 -19  13   4   52.09   20.20
  19  -6  -4   67.49   19.00
  -6 -13  -4   56.79   15.00
   6  13   4   31.60   45.20
  -6  19  -4   72.49   19.60
  -6  19  -4   39.40   12.40
  19 -13  -4   40.80   26.80
  -7 -13  -4   12.80   12.90
 -20  13   4   43.90   28.90
  20  -7  -4   20.40   21.10
 -13  20  -4   78.29   21.20
  13   7   4    7.30   29.80
  -7 -13  -4   34.60   13.50
 -13  20  -4   30.90   16.30
 -20   7   4   22.90   18.10
 -13  -7  -4   41.90   10.90
  20 -13  -4    5.90   18.90
  -7  20  -4   54.99   19.40
   7  13   4    4.90   29.50
  13   8   4   49.70   34.70
  -8 -13  -4   81.79   14.30
  -8 -13  -4   37.90   14.80
 -13  21  -4   87.59   17.60
 -21  13   4   71.79   20.70
 -13  -8  -4   98.09   15.60
   8  13   4   56.79   32.50
 -21   8   4   51.69   17.10
  -8  21  -4   62.19   15.80
  21 -13  -4   55.49   19.50
  -9 -13  -4  134.19   21.50
  -9 -13  -4  163.78   15.20
 -13  22  -4  135.09   19.50
  22  -9  -4  171.78   26.40
  13   9   4  118.59   33.00
 -22  13   4  175.18   25.30
 -13  -9  -4  102.99   17.90
 -22   9   4  141.79   24.10
  -9  22  -4  208.88   28.60
  22 -13  -4  136.19   22.50
  -9  22  -4  181.68   20.60
   9  13   4  110.19   31.90
 -23  13   4   67.59   19.90
  23 -10  -4   50.69   21.70
 -13  23  -4   75.19   14.10
  13  10   4   33.10   31.50
 -10 -13  -4   38.60   14.60
 -23  10   4   54.29   17.90
  10  13   4   16.80   28.40
  23 -13  -4   49.10   21.00
 -13 -10  -4   11.10   16.40
   7   7  -4    9.00   12.90
  -7  14   4   23.10   34.30
  14  -7   4   40.30   35.90
  -7  -7   4    5.90   17.90
 -14   7  -4   27.70   11.90
   7   7  -4    0.10   11.70
   7 -14  -4   17.90   16.60
  14  -6   4   65.99   37.10
   6 -14  -4   83.39   18.10
  -8  14   4   56.29   33.70
 -14   8  -4   54.59   14.50
  -6  -8   4   51.39   19.70
   8   6  -4   56.29   14.10
 -14   6  -4   77.99   14.10
  14  -8   4   91.59   36.10
   8 -14  -4   64.09   18.20
  -8  -6   4   48.50   18.90
  -6  14   4   72.49   39.40
   6   8  -4   67.59   14.80
 -14   6  -4   74.89   18.20
   9   5  -4   53.19   15.50
  14  -5   4   38.60   36.60
  -5  -9   4   58.79   19.40
 -14   9  -4   57.29   14.10
   5 -14  -4   65.29   18.10
  -9  14   4   43.90   33.50
   9 -14  -4   43.20   18.10
 -14   5  -4   52.19   16.70
 -14   5  -4   52.49   14.00
   5   9  -4   62.29   13.50
  14  -9   4   85.99   35.20
  -5  14   4   58.99   38.00
   5   9  -4   60.89   14.40
  -9  -5   4   29.60   18.60
  -4 -10   4   42.50   19.60
  14  -4   4   41.10   37.40
  10   4  -4   26.00   14.70
 -14  10  -4   35.70   11.90
 -10  14   4   48.50   34.10
   4 -14  -4   35.50   16.40
 -14   4  -4   18.90   11.80
   4  10  -4   37.20   17.50
  10 -14  -4   37.00   18.00
 -10  -4   4    5.00   17.90
   4  10  -4   32.90   13.50
  14 -10   4   84.39   36.70
  -4  14   4   20.00   36.90
   3 -14  -4  132.49   21.70
 -14  11  -4  121.09   18.00
  11   3  -4  117.19   19.90
 -11  14   4  136.39   35.70
  -3 -11   4  155.98   25.70
  14  -3   4  151.68   39.20
 -11  -3   4  138.09   21.20
  11 -14  -4  135.99   23.30
  -3  14   4  108.99   37.90
 -14   3  -4  146.39   17.20
  14 -11   4  197.28   39.50
   3  11  -4  115.59   18.80
 -12  14   4  110.49   31.80
  14  -2   4   83.29   37.50
  -2 -12   4  113.49   21.00
  12   2  -4   54.89   16.70
   2 -14  -4   87.89   17.00
 -14  12  -4   73.69   14.90
   2  12  -4   91.89   15.40
 -14   2  -4  103.29   14.60
  12 -14  -4   72.09   18.90
 -12  -2   4   83.69   19.80
  -2  14   4   86.19   36.40
   2  12  -4  107.29   21.00
   1 -14  -4   54.49   12.60
 -13  14   4  108.69   31.30
 -14  13  -4   88.49   15.30
  -1 -13   4  118.99   20.10
  13   1  -4   69.49   15.80
   1 -14  -4   97.89   16.80
  14  -1   4   58.19   39.00
 -13  -1   4   77.89   19.00
  -1  14   4   72.19   35.90
  13 -14  -4   98.39   19.30
   1  13  -4  100.19   16.10
  14 -13   4  166.78   33.90
 -14   1  -4   86.59   14.20
   0 -14  -4    4.70   11.30
   0 -14  -4   23.30   14.40
  14   0  -4   27.80   15.10
 -14  14  -4   29.20   13.40
   0 -14   4   58.39   18.20
 -14  14   4   43.50   27.90
  14   0   4   24.40   32.20
   0  14  -4   29.60   13.40
  14 -14  -4   27.50   17.30
 -14   0   4   11.90   16.90
   0  14  -4   59.59   17.50
 -14   0  -4   37.30   13.80
   0  14   4  -18.70   33.40
 -14  15  -4   28.80   13.80
  -1 -14  -4   14.90   11.90
  -1 -14  -4   40.50   14.50
  15  -1  -4   21.40   16.60
 -15  14   4   21.50   24.40
  14   1   4    8.70   32.30
  -1  15  -4   25.40   13.10
 -15   1   4   14.00   17.10
   1  14   4   -7.80   32.90
 -14  -1  -4   31.60   12.50
  15 -14  -4   22.10   16.60
  -1  15  -4   35.30   17.40
 -16  14   4  187.48   33.10
  -2 -14  -4  126.39   20.50
 -14  16  -4  148.09   18.80
  14   2   4  130.19   35.20
  -2 -14  -4  154.68   18.00
  16  -2  -4  155.78   23.10
 -14  -2  -4  150.68   17.50
   2  14   4  147.29   35.30
  -2  16  -4  192.28   20.30
  -2  16  -4  212.78   27.80
 -16   2   4  145.29   22.50
  16 -14  -4  154.98   22.70
  17  -3  -4  105.09   19.20
 -17  14   4   87.69   25.00
  -3 -14  -4   55.19   13.90
 -14  17  -4   91.19   16.60
  -3 -14  -4   78.69   16.70
  14   3   4   82.99   32.40
   3  14   4   65.69   32.50
 -14  -3  -4   87.59   15.10
  17 -14  -4   66.29   18.30
  -3  17  -4   66.09   15.20
 -17   3   4   77.79   18.50
  14   4   4   54.59   31.40
  18  -4  -4   40.60   18.50
 -14  18  -4   89.59   17.20
  -4 -14  -4   67.99   13.80
 -18  14   4   61.39   22.30
  -4 -14  -4   48.70   14.10
 -14  -4  -4   76.09   12.80
  -4  18  -4   59.09   13.00
  18 -14  -4   51.19   18.20
 -18   4   4   58.29   17.80
   4  14   4   32.70   30.40
  -5 -14  -4   43.90   15.30
  14   5   4   47.20   30.70
  19  -5  -4   48.70   18.60
  -5 -14  -4   42.00   13.40
 -19  14   4   36.50   21.50
   5 -19   4   97.39   21.00
  -5  19  -4   41.10   13.80
 -14  -5  -4   61.59   11.80
  -5  19  -4   83.99   19.60
  20  -6  -4   36.20   21.00
  -6 -14  -4   28.20   14.60
 -14  20  -4   54.99   16.80
  14   6   4   31.90   28.30
  -6 -14  -4   47.70   15.70
  -6  20  -4   67.39   20.00
  20 -14  -4   37.00   17.90
   6  14   4   29.50   30.30
 -20   6   4   41.80   17.30
 -14  21  -4   64.19   17.00
 -21  14   4   52.09   21.20
  -7 -14  -4   34.30   13.60
   7  14   4   33.60   30.90
  21 -14  -4   47.50   18.40
  -7  21  -4   85.99   21.60
 -14  -7  -4   67.49   14.70
 -21   7   4   50.09   17.40
 -14  22  -4   79.09   21.20
  -8 -14  -4   25.30   13.80
 -14  22  -4   32.70   15.40
  22  -8  -4   25.80   19.60
  14   8   4   35.30   30.00
 -22  14   4   31.10   19.80
  -8  22  -4   36.00   15.10
  -8  22  -4   56.69   20.80
   8  14   4   12.10   31.00
 -22   8   4   31.00   17.20
  22 -14  -4   14.40   18.30
 -23  14   4   17.10   19.40
  23  -9  -4  -15.90   19.30
  14   9   4    1.50   27.10
  -9 -14  -4    3.00   14.80
 -14  23  -4   51.09   21.30
  -9  23  -4   30.90   22.40
  -9  23  -4    3.80   14.10
   9  14   4   -9.20   29.20
  23 -14  -4   -8.50   17.70
 -23   9   4    4.20   16.50
  -8  15   4    8.90   33.30
   7 -15  -4   -1.20   16.60
  15  -7   4   51.29   31.50
 -15   8  -4   29.40   16.90
  -7  -8   4    7.70   18.40
   8   7  -4    4.10   13.60
 -15   7  -4   21.40   15.30
  -8  -7   4  -22.90   18.30
  -7  15   4  -17.90   36.30
   7   8  -4    5.50   13.80
  15  -8   4   47.70   31.50
 -15   7  -4   17.10   11.50
   8 -15  -4    2.80   17.10
 -15   9  -4   17.80   12.10
  -6  -9   4   14.10   18.30
   9   6  -4    6.90   13.60
  15  -6   4   27.20   36.80
 -15   9  -4   54.39   16.90
   6 -15  -4   33.50   16.60
  -9  15   4   -2.60   33.40
 -15   6  -4   10.80   15.50
   6   9  -4   18.50   12.80
 -15   6  -4   19.40   13.40
   9 -15  -4   18.50   17.40
  -9  -6   4  -16.50   18.60
  15  -9   4   41.80   34.60
  -6  15   4   17.90   37.50
  -5 -10   4  147.19   24.80
 -10  15   4  179.78   36.00
   5 -15  -4  141.99   22.00
 -15  10  -4  125.59   18.00
  15  -5   4  162.18   41.10
  10   5  -4  139.69   18.90
  -5  15   4  150.08   37.70
 -10  -5   4  155.18   22.20
   5  10  -4  109.79   17.50
 -15   5  -4  102.39   20.10
 -15   5  -4  145.69   15.60
  15 -10   4  218.38   36.10
  10 -15  -4  139.29   22.30
   5  10  -4  144.09   23.50
 -11  15   4   48.10   33.90
  15  -4   4   38.80   36.70
 -15  11  -4   68.29   20.00
  11   4  -4   18.70   14.40
   4 -15  -4   22.00   16.50
 -15  11  -4   23.70   11.70
  -4 -11   4   30.90   18.10
 -11  -4   4  -12.80   18.20
   4  11  -4   28.90   13.70
  11 -15  -4   13.30   17.10
  -4  15   4    8.80   34.90
  15 -11   4  101.69   32.80
   3 -15  -4    8.10   15.50
 -15  12  -4   11.70   13.10
  15  -3   4   23.20   39.20
 -12  15   4   15.60   31.80
  -3 -12   4    6.20   18.10
 -15  12  -4   51.99   19.20
  12   3  -4   11.90   13.60
  12 -15  -4   20.60   16.60
 -15   3  -4   13.80   10.80
  -3  15   4  -32.60   34.70
 -12  -3   4  -11.60   18.10
   3  12  -4   -1.40   12.60
  -2 -13   4   38.30   18.30
   2 -15  -4    5.50   12.40
   2 -15  -4   38.70   17.20
  13   2  -4   23.20   13.90
  15  -2   4   33.50   32.50
 -13  15   4   30.20   29.40
 -15  13  -4   34.20   13.00
  -2  15   4   -3.60   33.50
   2  13  -4   20.10   13.20
  13 -15  -4   34.80   17.30
 -13  -2   4   -0.10   17.60
 -15   2  -4   38.30   11.20
  14   1  -4  170.88   23.90
 -15  14  -4  197.58   20.20
  -1 -14   4  236.58   27.20
  15  -1   4  214.98   38.20
   1 -15  -4  194.48   21.80
 -14  15   4  251.47   38.50
   1 -15  -4  219.88   21.60
 -14  -1   4  216.58   26.80
  14 -15  -4  207.28   23.90
   1  14  -4  182.28   20.10
  -1  15   4  198.38   38.50
   0 -15   4   72.19   18.60
  15   0   4   30.90   30.90
 -15  15  -4   35.20   13.40
   0 -15  -4   15.30   12.60
   0 -15  -4   35.00   14.50
 -15  15   4   40.90   27.70
  15   0  -4   44.40   15.60
   0  15  -4   62.59   19.50
  15 -15  -4   45.80   17.20
   0  15  -4   50.89   15.20
   0  15   4   15.60   32.00
 -15   0  -4   49.10   13.40
 -15   0   4   27.40   18.40
   1 -16   4  301.37   26.90
  -1 -15  -4  260.17   25.50
  15   1   4  216.18   38.40
 -16  15   4  245.98   35.60
  16  -1  -4  234.78   23.50
  -1 -15  -4  205.18   22.80
 -15  16  -4  236.78   19.70
   1  15   4  173.88   37.60
 -16   1   4  207.88   27.30
  -1  16  -4  192.78   21.30
  -1  16  -4  286.17   30.40
 -15  -1  -4  258.27   20.30
  16 -15  -4  234.48   24.10
   2 -17   4  135.09   20.20
  -2 -15  -4   98.49   19.00
 -15  17  -4  106.79   15.90
  -2 -15  -4   71.29   15.20
  17  -2  -4  103.69   20.10
 -17  15   4  101.49   26.30
  15   2   4  135.69   32.30
  17 -15  -4   91.29   19.70
 -15  -2  -4  122.39   15.30
  -2  17  -4  115.89   16.00
 -17   2   4  133.09   20.50
   2  15   4   84.09   32.80
  -2  17  -4  156.28   27.40
  15   3   4   25.80   29.20
  18  -3  -4   61.89   18.50
  -3 -15  -4   46.40   13.80
   3 -18   4   54.59   19.10
  -3 -15  -4   36.30   13.40
 -15  18  -4   33.30   14.30
 -18  15   4   29.30   24.20
   3  15   4   26.50   39.10
 -18   3   4   52.59   26.50
  -3  18  -4   38.50   14.20
 -15  -3  -4   52.69   11.70
  -3  18  -4   76.39   18.20
  18 -15  -4   33.10   25.50
   4 -19   4  128.69   22.10
  -4 -15  -4  104.59   18.90
  19  -4  -4  128.39   21.80
  15   4   4  116.39   33.90
 -19  15   4  102.89   25.00
  -4 -15  -4  112.89   18.70
 -15  -4  -4  129.19   17.20
   4  15   4   83.39   35.90
 -19   4   4  105.49   21.30
  -4  19  -4  120.79   19.70
  -4  19  -4  176.68   29.80
  19 -15  -4  105.69   22.50
 -15  20  -4  177.08   20.80
  -5 -15  -4  153.98   21.90
  20  -5  -4  236.58   26.20
  15   5   4  215.88   36.20
  -5 -15  -4  190.88   19.20
   5  15   4  162.58   34.50
 -20   5   4  195.78   24.70
  20 -15  -4  148.09   25.30
  -5  20  -4  241.48   29.90
 -21  15   4   40.10   22.00
  -6 -15  -4   26.90   13.50
  -6 -15  -4   32.10   14.80
 -15  21  -4   26.20   15.00
   6  15   4    7.30   31.30
  -6  21  -4   57.19   20.50
 -21   6   4   26.90   17.10
  21 -15  -4   17.50   17.90
  -6  21  -4   21.20   13.80
 -15  -6  -4   34.10   13.60
  22  -7  -4   48.80   21.60
 -15  22  -4   88.69   21.50
 -15  22  -4   51.49   15.90
  -7 -15  -4   30.60   15.10
 -22  15   4   24.30   20.90
  15   7   4   22.30   29.80
 -22   7   4   54.09   18.70
  -7  22  -4   67.99   21.10
  22 -15  -4   49.70   18.90
   7  15   4   20.80   32.10
  -7  22  -4   40.70   13.20
  -8 -15  -4   17.30   13.90
 -15  23  -4   20.50   14.10
 -15  23  -4   59.89   21.50
  15   8   4    3.30   28.10
  23  -8  -4   17.30   21.10
 -23  15   4   15.70   19.50
 -23   8   4   38.50   17.40
   8  15   4  -13.10   30.20
  23 -15  -4    7.80   18.30
  -8  23  -4   54.09   21.10
  -8  23  -4   28.50   13.00
   8 -16  -4   26.80   16.80
   8   8  -4   31.00   14.50
 -16   8  -4   27.40   12.80
  16  -8   4   61.19   35.20
  -8  16   4   49.10   35.90
 -16   8  -4   49.10   16.00
  16  -7   4   48.00   31.40
   9   7  -4   22.20   12.70
   7 -16  -4    8.50   16.40
 -16   9  -4   22.40   11.10
  -9  16   4   12.20   32.40
 -16   9  -4   38.40   16.40
  16  -9   4   41.30   34.50
   9 -16  -4   17.40   17.00
  -7  16   4   11.70   36.20
 -16   7  -4   14.30   11.00
 -16   7  -4   16.70   17.40
   7   9  -4   11.80   12.00
   7   9  -4    4.70   13.20
 -16  10  -4   33.10   13.10
  16  -6   4   46.40   32.00
   6 -16  -4   37.70   17.20
 -10  16   4   20.30   33.30
  10   6  -4   30.50   14.60
 -16  10  -4   57.69   17.10
  10 -16  -4   33.90   17.20
   6  10  -4   28.10   16.40
  -6  16   4   18.60   35.20
  16 -10   4   93.19   38.10
 -16   6  -4   27.40   12.70
 -16   6  -4   -2.70   15.20
   6  10  -4   36.60   13.70
  -5 -11   4   29.30   19.50
  16  -5   4   22.10   38.70
  11   5  -4    8.10   12.40
   5 -16  -4   12.70   15.90
 -11  16   4   26.50   31.90
 -16  11  -4   15.70   13.40
  16 -11   4   86.19   33.00
  11 -16  -4   24.50   17.00
  -5  16   4    9.90   33.90
 -16   5  -4   17.10   11.30
   5  11  -4   15.40   13.30
 -12  16   4   12.00   31.60
  12   4  -4   20.50   14.70
 -16  12  -4   31.20   12.80
 -16  12  -4   69.79   19.70
   4 -16  -4   24.90   16.30
  -4 -12   4   27.20   18.90
  16  -4   4   62.49   40.30
   4 -16  -4    3.30   11.60
  12 -16  -4   33.30   16.60
 -16   4  -4   27.20   11.00
   4  12  -4   24.00   12.00
  -4  16   4   11.30   34.70
  16 -12   4   64.19   32.10
  13   3  -4   49.60   16.30
   3 -16  -4   71.89   17.30
  16  -3   4   70.49   31.70
   3 -16  -4   42.10   13.30
 -13  16   4   61.39   31.70
 -16  13  -4   47.50   13.90
  -3 -13   4   52.69   18.40
   3  13  -4   66.59   15.00
  -3  16   4   30.60   35.20
  13 -16  -4   67.29   17.30
   2 -16  -4   68.59   16.90
 -14  16   4   62.79   30.00
 -16  14  -4   49.00   14.50
  -2 -14   4   60.49   18.90
   2 -16  -4   40.70   13.70
  14   2  -4   54.59   16.60
  16  -2   4   60.39   31.70
   2  14  -4   60.09   18.50
  14 -16  -4   68.69   18.00
   2  14  -4   72.09   15.30
  -2  16   4   53.29   35.50
  -1 -15   4   97.29   20.20
 -16  15  -4   94.49   16.20
   1 -16  -4   95.09   16.80
  16  -1   4   67.69   30.00
 -15  16   4   73.89   30.10
   1 -16  -4   78.79   15.60
  15   1  -4   77.59   18.60
  -1  16   4   80.09   34.20
   1  15  -4   99.69   19.80
   1  15  -4   72.19   13.60
 -16   1  -4   99.89   16.50
  15 -16  -4   81.69   18.50
 -16  16  -4   46.40   13.70
   0 -16  -4   36.30   17.00
   0 -16  -4   21.80   13.10
   0 -16   4   15.30   17.90
  16   0   4   31.10   30.90
  16   0  -4   14.20   17.20
 -16  16   4   25.30   28.00
   0  16  -4   47.20   18.30
  16 -16  -4   42.40   18.10
   0  16  -4   33.30   13.50
 -16   0  -4   34.30   12.50
   0  16   4   18.40   31.90
  -1 -16  -4   28.20   13.40
  16   1   4   53.59   31.20
 -17  16   4   43.40   25.70
 -16  17  -4   49.99   14.90
   1 -17   4   20.70   17.80
  -1 -16  -4   56.99   15.70
  17  -1  -4   38.10   16.20
  17 -16  -4   43.90   18.30
  -1  17  -4   55.39   15.80
   1  16   4   30.90   32.30
 -16  -1  -4   56.19   11.80
  -1  17  -4   48.60   19.40
  -2 -16  -4  154.78   21.30
  16   2   4  146.59   36.20
 -16  18  -4  133.89   18.40
  -2 -16  -4  117.09   20.60
   2 -18   4  132.59   21.30
 -18  16   4  145.39   27.50
  18  -2  -4  166.08   24.00
  -2  18  -4  145.09   19.50
 -16  -2  -4  173.38   18.00
 -19  16   4   67.79   26.50
  -3 -16  -4   53.19   14.80
  16   3   4   50.39   30.20
 -16  19  -4   71.59   15.70
  19  -3  -4   73.29   20.80
  -3 -16  -4   69.29   16.40
  19 -16  -4   68.39   19.20
  -3  19  -4   81.09   21.20
   3  16   4   39.40   30.10
 -19   3   4   63.19   19.20
  -3  19  -4   65.29   14.40
  -4 -16  -4   81.19   16.00
  20  -4  -4   87.49   19.30
  16   4   4   45.50   32.70
  -4 -16  -4   65.69   16.00
 -16  20  -4   97.29   15.50
  20 -16  -4   66.59   19.80
 -16  -4  -4   80.99   13.50
   4  16   4   54.79   31.30
 -20   4   4   85.89   19.00
  -4  20  -4  108.19   23.40
 -21  16   4   31.20   22.90
  -5 -16  -4    7.30   13.50
  -5 -16  -4   23.90   13.10
 -16  21  -4   13.00   13.90
  21 -16  -4   18.20   18.30
  -5  21  -4   15.10   13.30
   5  16   4   23.20   30.30
 -21   5   4   13.30   17.80
  -5  21  -4   22.90   18.00
  22  -6  -4    2.70   18.40
  -6 -16  -4    2.40   14.00
  16   6   4    2.00   30.30
 -22  16   4    7.40   21.30
   6  16   4  -25.30   30.20
 -22   6   4   13.60   16.60
  22 -16  -4   -3.40   17.90
  -6  22  -4   25.90   19.00
  -6  22  -4    4.10   14.00
  -7 -16  -4   20.20   12.70
  -7 -16  -4    7.00   13.60
  23  -7  -4    1.60   21.00
  16   7   4    0.90   28.00
 -23  16   4   -7.10   20.50
   7  16   4    6.00   28.70
  -7  23  -4   43.30   21.70
  23 -16  -4  -14.10   18.10
 -23   7   4    6.40   17.10
 -17   9  -4  139.29   23.90
  -9  17   4   79.99   37.00
   9   8  -4   97.99   17.10
   8 -17  -4  102.79   19.00
  17  -8   4  132.39   41.30
 -17   9  -4  105.19   15.40
   8   9  -4   85.09   16.80
 -17   8  -4  120.09   23.60
 -17   8  -4   80.09   15.00
  17  -9   4  147.19   34.30
  -8  17   4   95.59   37.20
   9 -17  -4   96.29   18.90
 -17  10  -4   17.00   12.80
  10   7  -4    9.50   13.30
   7 -17  -4    0.80   16.00
 -10  17   4  -12.50   31.90
  17  -7   4   65.39   32.00
   7  10  -4    8.20   13.70
  -7  17   4   -7.70   34.30
   7  10  -4   11.80   11.30
 -17   7  -4   12.30   12.40
 -17   7  -4  -11.80   14.80
  10 -17  -4   11.80   16.20
  17 -10   4   51.79   33.50
  11   6  -4   29.60   13.20
  17  -6   4   38.20   31.40
 -11  17   4   52.99   32.30
   6 -17  -4   25.70   16.90
   6 -17  -4    4.60   11.40
 -17  11  -4   37.50   12.90
 -17   6  -4   30.70   11.30
  17 -11   4  121.99   39.50
  -6  17   4   -5.30   34.30
   6  11  -4   27.80   13.50
  11 -17  -4   43.50   16.70
  17  -5   4  137.99   42.20
  12   5  -4   77.19   16.80
   5 -17  -4  100.29   18.60
 -17  12  -4   92.39   15.60
 -12  17   4  118.79   33.60
   5 -17  -4   92.79   14.40
   5  12  -4  114.69   17.50
  -5  17   4   69.89   34.90
 -17   5  -4  102.79   15.70
  12 -17  -4  134.79   19.30
   4 -17  -4    8.50   11.40
 -13  17   4   36.20   32.40
  13   4  -4   26.30   15.10
  17  -4   4   21.50   30.40
 -17  13  -4   24.20   13.70
   4 -17  -4   24.60   15.60
   4  13  -4   28.70   13.60
  13 -17  -4   30.80   16.60
  -4  17   4   16.80   34.00
 -17  14  -4  176.98   17.30
   3 -17  -4  151.08   22.30
  -3 -14   4  193.08   23.00
  17  -3   4  159.28   33.50
   3 -17  -4  136.59   18.40
  14   3  -4  142.89   21.10
 -14  17   4  157.78   33.90
 -17   3  -4  167.08   18.10
  14 -17  -4  132.79   23.00
  -3  17   4  122.59   37.80
   3  14  -4  122.69   18.10
 -17   3  -4  100.09   18.20
 -15  17   4   94.09   31.70
   2 -17  -4   65.59   14.10
  -2 -15   4   52.19   19.80
 -17  15  -4   76.69   15.40
   2 -17  -4   87.69   19.60
  15   2  -4   99.99   18.70
  17  -2   4  118.09   33.20
 -17   2  -4  107.69   15.60
  15 -17  -4   81.99   19.00
   2  15  -4  103.39   19.90
   2  15  -4  114.49   17.00
  -2  17   4   77.79   35.50
 -16  17   4   37.20   29.20
   1 -17  -4   20.90   12.90
  17  -1   4   42.10   40.30
 -17  16  -4   44.00   13.00
  16   1  -4   29.60   16.90
   1 -17  -4   43.60   15.40
   1  16  -4   55.39   20.70
  -1  17   4   28.70   32.70
   1  16  -4   46.20   14.40
 -17   1  -4   49.99   13.00
  16 -17  -4   41.20   18.50
 -17  17  -4   86.99   16.60
  17   0  -4   75.99   16.90
   0 -17  -4   74.49   18.30
 -17  17   4   62.59   29.60
  17   0   4   73.69   33.60
   0  17  -4   87.89   15.60
   0  17  -4  122.59   24.20
 -17   0  -4   78.09   14.00
 -18  17   4  358.76   39.70
  -1 -17  -4  330.27   27.40
  -1 -17  -4  372.56   28.60
  18  -1  -4  353.76   29.90
  17   1   4  388.76   44.10
   1 -18   4  278.57   31.50
 -17  -1  -4  382.26   25.10
 -17  -1  -4  252.57   28.70
   1  17   4  284.67   50.19
  -1  18  -4  294.87   24.80
  18 -17  -4  301.67   33.10
  19  -2  -4   94.09   21.10
  -2 -17  -4   69.79   15.60
  -2 -17  -4   35.80   14.20
  17   2   4   61.29   31.40
 -17  19  -4   51.59   14.90
   2  17   4   44.00   31.50
  19 -17  -4   54.59   19.30
 -17  -2  -4   91.19   15.20
  -2  19  -4   84.19   22.60
 -17  20  -4   87.69   15.20
   3 -20   4   45.50   21.00
  17   3   4   87.59   32.70
  -3 -17  -4   86.89   15.70
  -3 -17  -4   96.49   16.90
   3  17   4   69.99   31.10
 -17  -3  -4  105.89   15.00
  -3  20  -4  129.09   25.30
  20 -17  -4   75.79   19.50
  -4 -17  -4   75.99   15.70
 -21  17   4   57.99   25.30
 -17  21  -4   62.29   13.70
  -4 -17  -4   62.19   16.40
  -4  21  -4   84.89   17.00
 -17  -4  -4   79.09   13.40
  -4  21  -4   99.59   21.30
   4  17   4   38.00   30.30
  21 -17  -4   62.19   20.10
 -21   4   4  118.99   20.50
 -22  17   4   18.40   22.60
  -5 -17  -4   14.00   13.80
  -5 -17  -4   29.60   13.40
  17   5   4   30.00   27.80
  22  -5  -4   30.20   20.30
 -22   5   4   25.10   18.30
  22 -17  -4   18.10   18.10
  -5  22  -4   36.60   15.30
  -5  22  -4   60.59   20.30
   5  17   4    0.50   31.40
  18  -9   4   92.49   31.50
 -18   9  -4   62.99   13.50
  -9  18   4   30.00   36.40
 -18   9  -4   67.69   17.40
   9 -18  -4   49.50   17.80
   9   9  -4   75.19   15.40
  18  -8   4   63.09   37.60
 -18  10  -4   60.09   19.60
  10   8  -4   27.70   13.70
 -18  10  -4   42.30   13.50
 -10  18   4   15.50   34.70
   8 -18  -4   21.80   17.10
 -18   8  -4   16.70   16.10
  18 -10   4   95.99   35.90
   8  10  -4   21.50   15.80
   8  10  -4   36.60   13.60
 -18   8  -4   40.50   12.30
  -8  18   4   41.20   35.00
  10 -18  -4   29.60   16.50
  18  -7   4  216.28   37.60
 -11  18   4  161.18   35.80
  11   7  -4  146.79   16.80
   7 -18  -4  111.69   20.30
   7 -18  -4   96.89   17.40
 -18  11  -4  159.18   16.60
  -7  18   4  128.59   37.20
   7  11  -4  112.29   18.10
  11 -18  -4  145.59   21.90
  18 -11   4  234.28   40.50
 -12  18   4    5.40   32.70
 -18  12  -4   18.80   11.60
 -18  12  -4   51.29   17.80
  12   6  -4   13.70   14.40
   6 -18  -4   -9.80   10.90
  18  -6   4   54.99   37.90
   6 -18  -4    9.90   16.80
  -6  18   4  -15.90   33.20
 -18   6  -4   14.50   12.30
   6  12  -4   10.00   12.80
  12 -18  -4   11.40   16.30
   5 -18  -4   30.40   16.70
 -18  13  -4   30.20   13.80
   5 -18  -4    6.10   11.60
  13   5  -4   29.90   15.10
  18  -5   4   51.59   32.70
 -13  18   4   -4.60   31.80
 -18  13  -4   68.09   19.50
   5  13  -4   38.50   16.00
   5  13  -4   30.10   12.70
  13 -18  -4   27.60   17.30
  -5  18   4    9.70   34.40
 -18   5  -4   29.40   11.30
  18  -4   4    7.10   30.40
 -18  14  -4   14.70   13.30
  14   4  -4    4.60   14.30
   4 -18  -4   -5.10   11.10
 -14  18   4    6.50   31.20
   4 -18  -4   14.20   15.50
 -18   4  -4   20.40   10.80
   4  14  -4   15.20   13.20
  14 -18  -4   17.60   17.60
   4  14  -4   27.00   16.30
  -4  18   4    2.70   33.50
 -15  18   4  -13.40   30.80
  18  -3   4   -3.70   40.00
   3 -18  -4   13.80   16.10
 -18  15  -4   10.70   13.60
   3 -18  -4  -10.40   11.50
  15   3  -4    1.00   15.00
   3  15  -4   14.00   11.40
 -18   3  -4   18.10   10.90
  -3  18   4  -21.50   33.90
  15 -18  -4   13.20   18.00
   3  15  -4    9.00   18.20
  16   2  -4   80.29   17.90
 -16  18   4   51.79   31.40
  18  -2   4  106.49   34.50
 -18  16  -4   85.99   15.70
  -2 -16   4   21.50   20.20
   2 -18  -4   61.29   15.50
   2 -18  -4   90.99   18.10
  16 -18  -4   75.09   21.20
 -18   2  -4   85.19   15.10
   2  16  -4   67.79   15.00
   2  16  -4   82.69   22.00
  18  -1   4   33.20   30.70
 -18  17  -4   37.60   12.60
 -17  18   4    5.90   28.60
  17   1  -4   17.90   17.50
   1 -18  -4   24.60   15.40
   1 -18  -4   20.90   13.30
 -18   1  -4   46.50   12.70
   1  17  -4   48.20   15.30
   1  17  -4   51.19   20.50
   0 -18  -4   59.29   14.30
 -18  18   4   45.40   30.30
  18   0   4   56.59   33.40
   0 -18  -4   60.09   16.30
  18   0  -4   62.19   17.00
  18 -18  -4   59.19   19.30
   0  18   4   24.00   32.90
 -18   0  -4   62.99   14.20
   0  18  -4   72.89   15.80
   0  18  -4   87.79   23.10
 -18  19  -4   75.39   16.50
  18   1   4   49.40   34.40
  19  -1  -4   54.89   19.00
  -1 -18  -4   74.49   18.50
  19 -18  -4   39.80   19.00
  -1  19  -4   75.79   23.50
   1  18   4   38.50   32.70
 -18  -1  -4   64.89   13.70
 -20  18   4   -7.00   28.70
  -2 -18  -4    3.30   13.00
  -2 -18  -4   13.40   16.20
  18   2   4   14.10   30.10
 -18  20  -4   18.80   14.50
  20  -2  -4   16.20   19.60
   2  18   4   -1.80   29.70
  -2  20  -4   33.00   18.50
  -2  20  -4   14.70   13.40
  20 -18  -4    6.30   17.80
  -3 -18  -4    5.80   14.30
 -21  18   4   20.90   25.80
  -3 -18  -4   26.40   14.40
  21 -18  -4    5.40   18.20
   3  18   4    6.80   29.50
  -3  21  -4   22.70   13.80
  -3  21  -4   53.49   19.90
 -18  -3  -4   29.20   11.80
  -4 -18  -4   50.29   16.00
  22  -4  -4  109.99   22.10
  18   4   4   72.59   32.10
  -4 -18  -4   85.59   15.70
 -22  18   4   55.69   25.10
  -4  22  -4  103.29   24.60
  -4  22  -4   52.89   15.60
   4  18   4   28.70   31.10
  22 -18  -4   54.99   19.10
 -19  10  -4   80.19   15.30
   9 -19  -4   95.39   18.70
  10   9  -4   81.79   16.00
 -10  19   4   67.79   37.00
  19  -9   4  136.69   38.20
 -19  10  -4  119.19   24.40
  -9  19   4   69.09   35.20
 -19   9  -4   69.19   18.10
  19 -10   4  123.39   40.60
  10 -19  -4   98.19   18.70
   9  10  -4  105.09   17.10
 -19   9  -4   90.99   16.50
   8 -19  -4  101.99   17.80
 -19  11  -4  150.38   16.50
  19  -8   4  153.58   41.90
  11   8  -4  159.68   16.90
 -19  11  -4  212.08   27.80
 -11  19   4  168.68   39.60
   8 -19  -4  157.58   23.50
   8  11  -4  152.28   25.80
  19 -11   4  213.18   39.10
  -8  19   4  130.09   37.80
  11 -19  -4  126.49   20.10
 -19   8  -4  140.79   16.10
   8  11  -4  154.68   18.90
 -19  12  -4   15.30   13.70
  12   7  -4   16.10   14.10
  19  -7   4   25.10   30.90
   7 -19  -4   -4.70   12.80
 -12  19   4   -0.70   34.10
 -19  12  -4   48.40   17.60
   7 -19  -4   18.40   16.90
   7  12  -4    9.00   13.10
  19 -12   4   71.39   32.10
  -7  19   4   -2.20   33.70
 -19   7  -4   14.10   11.40
  12 -19  -4   10.30   16.40
   6 -19  -4   10.20   12.20
   6 -19  -4   24.00   17.20
 -19  13  -4   14.30   12.80
  13   6  -4   32.70   15.20
  19  -6   4   40.90   41.40
 -13  19   4  -14.40   31.80
   6  13  -4   18.50   13.20
  -6  19   4   -4.80   34.00
   6  13  -4    1.60   14.40
  13 -19  -4   22.20   17.90
 -19   6  -4   29.10   11.90
  14   5  -4  147.89   20.20
   5 -19  -4  141.69   22.20
 -19  14  -4  120.59   18.90
 -14  19   4  107.09   34.00
   5 -19  -4  123.79   20.30
  19  -5   4  223.18   37.90
   5  14  -4  170.78   28.10
  14 -19  -4  130.59   21.00
 -19   5  -4  148.39   16.10
 -19   5  -4  103.19   18.40
  -5  19   4  167.68   39.50
   5  14  -4  180.78   19.60
 -19  15  -4  107.09   17.40
   4 -19  -4   97.99   18.70
  15   4  -4  109.39   19.30
   4 -19  -4   71.69   14.40
 -15  19   4   53.49   33.10
 -19   4  -4   94.49   14.40
  15 -19  -4  107.09   19.90
   4  15  -4  119.59   24.90
   4  15  -4  116.69   18.20
   3 -19  -4  205.18   23.30
  16   3  -4  204.08   23.80
 -19  16  -4  193.48   18.50
   3 -19  -4  170.68   23.00
 -16  19   4  165.18   36.60
  19  -3   4  245.38   40.40
 -19   3  -4  200.78   17.60
  -3  19   4  195.68   54.49
   3  16  -4  164.08   20.40
   3  16  -4  243.68   29.90
   2 -19  -4   30.60   13.60
  19  -2   4   54.79   31.60
   2 -19  -4   56.39   19.70
  17   2  -4   48.60   17.70
 -17  19   4   28.00   32.00
   2  17  -4   65.29   13.40
 -19   2  -4   56.79   13.90
   2  17  -4   59.89   21.90
  -2  19   4   32.90   32.10
  17 -19  -4   35.80   18.90
  18   1  -4   72.59   19.80
  19  -1   4   80.29   34.40
   1 -19  -4   87.49   15.70
   1 -19  -4   98.29   20.70
 -19   1  -4   92.59   16.20
  18 -19  -4  108.89   20.10
  -1  19   4   83.59   34.40
   1  18  -4   95.69   16.90
   1  18  -4  105.19   24.70
   0 -19  -4   75.39   15.80
  19   0  -4   88.09   20.30
  19   0   4  122.09   34.00
   0 -19  -4  103.39   20.60
 -19   0  -4   45.20   17.10
  19 -19  -4   85.79   19.80
 -19   0  -4  118.39   16.20
   0  19  -4  149.39   30.60
   0  19   4   73.79   32.20
 -20  19   4   53.19   30.50
  -1 -19  -4   67.49   16.00
  19   1   4   95.79   34.40
  -1 -19  -4  103.49   17.80
  20 -19  -4   65.79   19.30
 -19  -1  -4   75.89   14.70
   1  19   4   60.19   31.90
  -1  20  -4  104.29   20.40
  -1  20  -4  108.29   18.70
  -2 -19  -4  115.49   19.80
 -21  19   4  117.89   30.00
  -2 -19  -4  105.49   17.00
 -19  -2  -4  116.99   15.10
  -2  21  -4  127.29   18.80
  21 -19  -4   94.59   20.20
   2  19   4   84.79   33.60
  -2  21  -4  131.59   24.10
  10  10  -4   27.90   10.60
 -10  20   4  -21.20   34.80
 -20  10  -4   19.60   13.50
  10 -20  -4    4.30   15.70
 -20  10  -4   -8.70   15.40
  20 -10   4   91.59   31.30
  10  10  -4   17.20   13.30
 -20  11  -4   35.20   20.70
  11   9  -4   42.30   13.00
 -11  20   4  -15.20   36.30
 -20  11  -4   36.50   12.70
   9 -20  -4   45.80   16.90
  20  -9   4   72.89   34.80
  11   9  -4   40.80   11.10
   9 -20  -4   50.79   14.70
   9  11  -4   13.50   13.60
   9  11  -4   41.30   11.10
   9  11  -4   40.40   14.00
  -9  20   4    7.20   34.60
  11 -20  -4   19.10   17.10
 -12  20   4  -12.30   35.00
  12   8  -4   17.90   14.00
 -20  12  -4   36.30   17.40
  12   8  -4   30.20   10.80
   8 -20  -4   21.30   16.70
 -20  12  -4   22.10   14.40
   8  12  -4   20.20   14.00
  12 -20  -4   36.10   18.10
 -12  -8   4   49.20   11.80
   8  12  -4   29.40   14.30
 -20   8  -4   20.20   13.90
  -8  20   4   12.10   36.10
  20  -7   4   61.59   30.00
   7 -20  -4    4.70   12.30
  13   7  -4   22.20   14.90
   7 -20  -4   10.10   17.30
 -20  13  -4   16.50   13.40
 -20  13  -4   54.99   17.80
  13   7  -4   19.80   10.70
 -13  20   4  -36.00   33.50
  13 -20  -4    7.80   17.20
 -20   7  -4   13.70   12.90
  -7  20   4   -5.30   47.30
   7  13  -4   12.60   13.40
  20  -6   4   98.79   32.00
  14   6  -4   98.49   17.50
 -14  20   4   45.90   33.30
   6 -20  -4   94.89   19.30
 -20  14  -4  104.19   16.40
  14   6  -4   96.89   17.90
   6 -20  -4   88.89   15.60
   6  14  -4   80.49   15.30
  14 -20  -4   90.79   19.70
   6  14  -4   91.09   19.70
 -20   6  -4   94.39   14.90
   5 -20  -4   54.69   13.80
   5 -20  -4   65.09   18.90
  15   5  -4   71.59   17.10
 -15  20   4   30.50   33.20
  20  -5   4   84.09   41.30
 -20  15  -4   60.99   15.00
  -5  20   4   48.30   39.90
   5  15  -4   78.09   20.20
   5  15  -4   76.09   15.30
  16   4  -4   36.50   10.90
  20  -4   4   42.40   31.80
  16   4  -4   25.10   16.00
 -20  16  -4   76.29   21.40
 -16  20   4   -8.40   36.30
   4 -20  -4   17.20   13.80
   4 -20  -4   33.40   17.00
 -20  16  -4   34.40   15.20
  16 -20  -4   13.00   20.10
   4  16  -4   52.59   14.40
  -4  20   4   -6.30   32.90
   4  16  -4   45.40   20.70
  17   3  -4   30.30   11.10
 -20  17  -4   72.89   20.80
  17   3  -4   36.10   17.00
   3 -20  -4   14.00   13.40
  20  -3   4   41.50   34.50
   3 -20  -4   28.60   18.90
  -3  20   4   -4.70   32.00
  17 -20  -4   22.30   18.30
 -20   3  -4   18.50   12.10
   3  17  -4   42.90   19.40
   3  17  -4   34.70   14.80
  18   2  -4   11.00   16.60
   2 -20  -4  -12.00   13.00
  20  -2   4   37.20   34.10
   2 -20  -4   13.10   18.90
  18 -20  -4    2.00   17.30
 -20   2  -4    2.30   12.80
  -2  20   4  -20.50   31.50
   2  18  -4   20.50   21.50
 -19  20   4   -5.70   31.50
  19   1  -4    3.50   17.20
   1 -20  -4   16.10   18.20
  20  -1   4    8.30   34.00
   1 -20  -4   -3.60   14.40
 -20   1  -4  -12.10   13.90
   1  19  -4   21.80   21.60
  19 -20  -4    4.80   18.20
  -1  20   4  -21.20   30.60
 -20   1  -4  -21.70   14.80
   0 -20  -4   88.99   20.00
   0 -20   4   11.90   21.20
 -20  20   4   62.69   31.00
   0 -20  -4   63.59   15.70
  20   0   4   87.99   37.20
   0  20   4   46.50   33.70
  20 -20  -4   87.19   19.90
   0  20  -4   69.49   15.10
  21  -1  -4   18.60   21.00
  -1 -20  -4    9.50   14.00
  -1 -20  -4   29.10   16.30
 -21  20   4   18.50   29.50
  -1  21  -4   16.70   13.60
  21 -20  -4    7.60   18.30
 -20  -1  -4  -23.90   15.90
  -1  21  -4   36.60   25.60
   1  20   4  -19.50   30.30
  11  10  -4   10.10   10.60
 -11  21   4  -16.50   48.00
 -21  11  -4    7.90   11.70
 -21  11  -4  -10.80   16.50
  21 -10   4   80.89   32.40
  11  10  -4   -2.00   13.20
  10 -21  -4    9.10   16.80
  11 -21  -4    3.40   16.90
  10  11  -4    6.50   13.00
 -21  10  -4  -25.30   15.50
 -21  10  -4   -5.90   11.80
  10  11  -4    7.20   10.60
  12   9  -4   98.69   16.10
  12   9  -4   98.79   15.50
   9 -21  -4  110.69   19.60
  21  -9   4  194.68   35.70
 -21  12  -4   99.49   20.30
  12 -21  -4   84.49   19.90
 -21   9  -4  100.69   15.40
   9  12  -4   82.99   15.30
   9  12  -4  128.49   16.70
  21  -8   4   60.49   38.10
   8 -21  -4   11.10   12.20
  13   8  -4   24.00   13.20
 -21  13  -4   53.99   17.90
   8 -21  -4   31.00   16.90
  13   8  -4   21.20   14.30
   8  13  -4    9.60   15.20
  -8  21   4  -13.80   38.90
   8  13  -4   15.00   10.70
 -21   8  -4   19.00   12.50
  13 -21  -4    9.60   17.90
   8  13  -4   22.30   14.30
 -14  21   4   60.19   50.49
   7 -21  -4   87.49   19.60
   7 -21  -4   93.19   15.30
  14   7  -4   81.79   17.30
 -21   7  -4   51.99   17.50
  14 -21  -4   69.29   21.30
   7  14  -4   71.49   12.50
   7  14  -4   96.39   21.70
  -7  21   4   53.69   35.90
   7  14  -4   82.69   15.90
 -21   7  -4   84.79   14.10
  15   6  -4   46.80   11.60
 -21  15  -4   80.39   21.60
  15   6  -4   49.50   16.40
   6 -21  -4   20.00   19.20
   6 -21  -4   40.10   13.60
  21  -6   4   81.59   34.30
   6  15  -4   35.30   20.00
   6  15  -4   46.60   12.50
  -6  21   4    2.20   35.10
 -21   6  -4   40.60   12.30
   5 -21  -4   25.90   13.60
  21  -5   4   45.50   34.80
  16   5  -4   26.50   16.10
  16   5  -4   24.70   10.80
   5 -21  -4   27.70   17.70
  -5  21   4  -19.20   33.70
   5  16  -4   13.80   13.60
  16 -21  -4   18.90   17.80
   5  16  -4   33.90   21.30
  21  -4   4   53.69   36.10
  17   4  -4   29.80   16.70
   4 -21  -4   24.30   18.70
  17   4  -4   55.89   11.80
 -21  17  -4   81.69   22.60
   4 -21  -4   36.70   14.30
   4  17  -4   64.09   18.60
   4  17  -4   52.99   15.30
  -4  21   4    4.30   32.80
  17 -21  -4   21.00   18.70
 -18  21   4   82.39   36.00
  18   3  -4  136.89   21.60
   3 -21  -4  135.89   21.80
  18   3  -4  127.29   16.10
  21  -3   4  160.28   37.00
   3 -21  -4  104.79   21.70
   3  18  -4  181.68   29.10
 -21   3  -4   90.99   22.00
  -3  21   4   71.19   33.50
  18 -21  -4  105.99   20.60
   2 -21  -4  129.29   20.30
  19   2  -4   99.29   20.10
 -19  21   4   89.29   33.60
  21  -2   4  114.39   37.40
  19   2  -4  113.59   16.20
   2 -21  -4  102.19   21.40
   2  19  -4  136.69   25.80
  19 -21  -4   97.79   20.40
  -2  21   4   26.20   32.80
   1 -21  -4   99.29   17.30
   1 -21  -4  125.09   22.10
 -20  21   4   59.79   31.70
  21  -1   4  119.89   35.40
   1  20  -4   85.09   16.30
   1  20  -4  138.49   26.70
  20 -21  -4   98.39   20.60
  -1  21   4   40.40   31.10
  11  11  -4    0.30   10.60
  11 -22  -4  -12.50   17.30
  11  11  -4   -1.10   12.80
 -11  22   4  -49.70   34.50
  10 -22  -4   40.50   16.10
 -22  12  -4   -0.40   16.70
  10 -22  -4   14.30   17.70
  12  10  -4   15.30   13.50
 -12  22   4  -39.50   38.90
 -10  22   4  -43.40   34.00
  12 -22  -4   13.40   18.10
  10  12  -4   14.00   13.90
  10  12  -4   18.10   11.10
 -12 -10   4   43.20   14.00
   9 -22  -4   47.00   13.50
 -22  13  -4   41.70   18.30
  13   9  -4   39.80   17.80
  13   9  -4   42.20   15.70
  22  -9   4   94.59   33.80
   9 -22  -4   40.10   17.80
 -13  22   4  -35.40   40.20
  -9  22   4   -7.10   34.20
  13 -22  -4   32.90   24.90
   9  13  -4   49.99   13.30
   9  13  -4   44.90   11.80
   8 -22  -4   14.20   17.00
   8 -22  -4   30.70   13.70
  14   8  -4   29.30   14.90
 -14  22   4  -57.69   41.20
  14   8  -4   29.50   11.10
  22  -8   4   48.40   32.40
 -22  14  -4   34.90   20.40
   8  14  -4   25.40   14.20
   8  14  -4   27.30   17.00
  -8  22   4  -30.80   33.70
   8  14  -4   10.60   11.10
  22  -7   4   46.60   32.60
   7 -22  -4   20.90   13.10
   7 -22  -4   -1.40   17.00
  15   7  -4    9.90   10.70
  15   7  -4    5.60   14.90
 -15  22   4  -48.60   35.80
   7  15  -4    9.00   10.90
   7  15  -4   17.40   18.40
  15 -22  -4   -2.60   17.60
   7  15  -4   15.50   13.70
  -7  22   4  -47.30   34.10
  16   6  -4   16.60   15.90
 -16  22   4  -43.20   33.00
  16   6  -4   24.20   11.00
   6 -22  -4   23.90   18.10
   6 -22  -4   23.20   13.30
  16 -22  -4   11.20   18.00
   6  16  -4   22.80   12.40
  -6  22   4  -34.40   33.70
   6  16  -4   14.00   18.20
   6  16  -4    7.40   11.20
  17   5  -4   17.50   10.90
   5 -22  -4    0.80   14.30
  22  -5   4   29.20   34.10
  17   5  -4   -2.00   15.60
   5 -22  -4   13.50   17.70
   5  17  -4   10.70   20.80
  -5  22   4  -54.09   30.90
  17 -22  -4   -5.60   17.60
 -18  22   4   69.39   35.30
  18   4  -4  123.99   16.90
   4 -22  -4  132.49   22.70
  22  -4   4  157.08   35.90
   4 -22  -4  135.59   22.00
  18   4  -4  132.89   20.90
  -4  22   4   61.39   33.90
   4  18  -4  187.98   25.40
  18 -22  -4  149.09   22.00
  12  11  -4   27.40   12.10
  12  11  -4   28.90   13.90
  11 -23  -4   18.40   18.10
 -12  23   4  -54.09   35.10
 -23  12  -4   -4.90   16.10
 -11  23   4  -62.09   33.80
  12 -23  -4   21.70   19.80
  11  12  -4   35.50   14.30
 -23  11  -4  -24.30   18.50
 -23  13  -4   85.49   20.70
  10 -23  -4   94.19   19.90
  13  10  -4  103.39   15.70
  13  10  -4   88.49   16.20
 -13  23   4   26.30   35.40
 -10  23   4   53.99   35.80
  10  13  -4  129.39   17.50
  10  13  -4   96.69   14.50
  14   9  -4   14.30   10.90
  14   9  -4   10.60   12.70
   9 -23  -4    8.60   17.10
 -23  14  -4    8.80   17.10
   9 -23  -4   14.20   13.60
   9  14  -4   -9.60   17.60
  14 -23  -4   -3.60   17.50
   9  14  -4    1.20   10.90
   9  14  -4    1.80   13.70
   8 -23  -4   30.50   14.20
  15   8  -4   22.00   10.90
  15   8  -4   22.80   14.80
 -15  23   4  -68.39   35.50
   8 -23  -4    8.60   16.90
 -23  15  -4   49.30   19.60
  15 -23  -4   11.60   18.40
   8  15  -4   24.50   11.50
   8  15  -4   13.80   18.50
   8  15  -4   26.10   14.60
  23 -15   4   53.59   28.20
   7 -23  -4  122.19   21.10
  16   7  -4  121.09   19.80
 -16  23   4   29.90   37.90
 -23  16  -4  192.88   32.30
   7 -23  -4  140.99   20.50
  16   7  -4  113.69   15.30
   7  16  -4  101.89   16.40
   7  16  -4  131.59   27.20
  16 -23  -4  115.79   21.10
  -7  23   4   24.10   35.10
   0   0  -5  168.28   21.90
   0   0   5  175.28   39.90
   1   0  -5  212.58   23.10
   0  -1   5  194.28   40.60
   1   0   5  260.67   46.00
   0  -1  -5  168.58   23.00
  -1   1   5  171.78   39.10
  -1   1  -5  221.98   23.60
   0   1  -5  212.08   24.80
  -1   0   5  246.38   42.70
   0   1   5  263.27   47.10
  -1   0  -5  166.38   22.40
   1  -1   5  281.47   47.50
   1  -1  -5  156.88   22.30
   1   1   5  185.78   39.00
   1  -2   5  198.68   40.20
  -1  -1  -5  160.78   21.50
   2  -1  -5  114.49   21.00
  -2   1   5  163.98   38.40
   1  -2  -5   93.99   18.50
   2  -1   5  200.48   40.70
  -2   1  -5  128.99   19.50
  -1   2   5  157.48   37.70
   1   1  -5  151.58   21.50
  -1  -1   5  157.48   37.90
   0  -2   5  648.84   57.89
   2   0  -5  689.23   40.90
   0  -2  -5  668.83   40.50
  -2   2   5  691.23   55.79
   2   0   5  696.53   58.69
  -2   0   5  679.63   56.99
  -2   0  -5  520.05   38.70
   0   2  -5  604.84   38.90
   2  -2   5  701.63   56.49
   0   2   5  638.54   59.49
   1  -3   5  170.78   39.10
  -3   2   5  140.39   35.90
   2   1   5  176.98   41.00
  -1  -2  -5  179.08   22.50
   3  -1  -5  162.58   20.90
   2  -3   5  163.98   40.40
   1   2   5  193.18   38.40
  -2  -1  -5  111.99   19.20
  -3   1   5  133.39   35.00
   3  -2  -5   87.49   18.40
  -1   3  -5  107.89   19.10
   2   2   5  124.09   41.00
  -2   4  -5  122.09   16.20
   4  -2  -5  118.79   20.30
  -4   2   5  115.59   35.40
  -2  -2  -5   83.49   17.20
   2  -4   5  166.18   39.80
   1  -3  -5  118.29   20.60
  -1  -2   5  144.49   35.70
   3  -1   5  168.98   39.10
  -2   3   5  160.18   39.70
   2   1  -5  135.29   21.70
  -1   3   5  155.88   37.80
   2  -3  -5   89.29   17.70
   3  -2   5  168.08   40.50
  -2  -1   5  143.29   35.90
   0  -3  -5  143.89   21.00
  -3   3  -5  168.28   17.40
  -3   3   5  123.29   38.60
   0  -3   5  168.38   36.40
   3   0   5  200.88   42.70
   3   0  -5  144.69   22.60
  -3   0   5  145.19   34.90
   3  -3  -5  134.39   21.00
   3  -3   5  174.38   40.00
   0   3   5  164.78   40.40
  -4   3   5  133.79   36.30
  -3   4  -5  110.89   15.70
   1  -4   5  104.79   36.00
  -1  -3  -5   98.59   18.20
   3   1   5  136.39   41.70
   4  -3  -5   81.59   17.50
  -3  -1  -5  107.89   18.60
  -4   1   5  122.89   34.00
   3  -4   5  171.98   38.40
   1   3   5  108.19   39.20
   2  -5   5  166.98   37.70
  -5   3   5   86.79   33.90
   3   2   5  125.39   40.70
  -2  -3  -5  114.99   17.00
  -3  -2  -5   92.89   17.30
  -5   2   5  123.99   34.00
   2   3   5  142.29   43.20
   3  -5   5  143.59   40.10
  -2   5  -5  112.79   17.60
   5  -3  -5  110.19   20.00
  -6   3   5   56.49   32.30
   3  -6   5   74.99   38.10
   3   3   5   76.29   39.20
  -3  -3  -5   45.50   15.10
   4  -2   5  150.58   39.60
  -4   2  -5   81.29   16.50
   2  -4  -5   80.49   17.30
  -2  -2   5  132.09   33.20
  -2   4   5  104.59   36.40
   4  -1   5  207.28   43.00
  -4   3  -5  131.09   19.70
   1  -4  -5  130.79   21.80
  -3   4   5  179.58   38.30
  -1  -3   5  252.37   43.80
  -3  -1   5  199.58   35.60
  -4   1  -5  147.49   19.60
  -1   4   5  197.38   38.80
   4  -3   5  228.28   41.90
   0  -4  -5  444.76   31.30
   0  -4   5  445.86   50.49
  -4   4   5  380.46   48.20
   4   0   5  452.15   58.59
  -4   0   5  404.86   48.50
  -4   0  -5  432.76   31.30
   4  -4   5  475.35   54.69
   0   4   5  388.76   56.79
   1  -5   5  104.59   36.50
  -1  -4  -5  105.79   19.10
  -5   4   5  126.79   34.40
  -4   5  -5  127.19   19.30
   4   1   5  146.49   40.60
  -4  -1  -5  131.19   19.90
   1   4   5  143.49   41.30
   4  -5   5  156.58   38.70
  -5   1   5  118.79   32.40
  -6   4   5  331.57   49.60
  -2  -4  -5  238.28   24.20
   4   2   5  286.17   47.90
   2  -6   5  323.17   47.70
   2   4   5  282.57   46.90
   4  -6   5  323.47   54.69
  -6   2   5  294.77   39.00
   7  -3  -5   54.09   16.90
   3  -7   5   83.49   37.40
   4   3   5   68.29   39.70
  -3  -4  -5   77.89   16.50
   3   4   5   75.89   39.40
  -7   3   5   77.19   43.10
  -4  -3  -5   60.89   16.30
   4  -7   5   89.29   39.20
  -4  -4  -5   46.30   15.20
   4   4   5   51.19   41.10
  -4   8  -5   53.39   16.20
   8  -4  -5   45.30   15.80
   4  -8   5   46.10   38.30
   2  -5  -5   54.19   15.80
  -2  -3   5   90.49   32.80
  -5   3  -5   82.69   18.30
   5  -2   5   96.39   41.20
  -3   5   5   58.89   36.40
  -3  -2   5   94.99   30.40
  -2   5   5   95.19   37.60
  -5   2  -5   61.29   17.00
   3  -5  -5   57.69   14.70
   5  -3   5  100.79   40.90
   1  -5  -5   50.29   16.50
  -1  -4   5   86.89   33.60
   5  -1   5   98.39   40.90
  -5   4  -5   61.79   17.70
  -4   5   5   67.39   37.80
  -1   5   5   58.69   38.00
  -4  -1   5   72.09   30.40
   4  -5  -5   50.89   14.80
  -5   1  -5   53.19   15.70
   5  -4   5   84.79   38.40
  -5   5  -5   64.59   17.60
  -5   5   5   78.09   39.80
   0  -5   5   80.89   34.40
   0  -5  -5   57.49   16.50
   5   0   5   90.99   38.20
   5  -5   5   99.69   37.70
   0   5   5   62.69   39.80
  -5   0   5   52.89   27.50
  -5   0  -5   52.59   15.30
   1  -6   5   59.99   33.90
   5   1   5   45.20   40.70
  -1  -5  -5   52.29   16.10
   1   5   5   45.40   40.40
  -5  -1  -5   49.00   13.20
   5  -6   5   69.69   36.60
  -6   1   5   68.19   28.70
  -2  -5  -5   62.19   17.10
   7  -2  -5   53.99   15.40
   5   2   5   93.29   40.80
   2  -7   5   91.99   34.80
  -5  -2  -5   87.19   16.90
  -7   2   5   82.79   38.70
  -5  -2  -5  107.19   19.50
   2   5   5   53.79   38.90
   5  -7   5  105.59   36.80
   3  -8   5   38.30   35.80
   8  -3  -5   25.80   16.80
  -3  -5  -5   36.00   16.10
  -8   5   5   21.10   30.50
   5   3   5   47.80   41.20
   5  -8   5   65.69   41.80
  -3   8  -5   40.60   16.20
  -8   3   5   40.30   32.40
   8  -5  -5   45.30   15.90
  -5  -3  -5   55.99   15.20
   3   5   5   35.10   47.50
   5   4   5   32.10   39.30
   9  -4  -5   84.59   20.80
  -4  -5  -5   72.39   15.50
  -9   5   5   62.79   27.00
  -5   9  -5   52.39   15.90
   4  -9   5   65.59   43.30
  -4   9  -5   50.49   15.80
  -5  -4  -5   69.19   16.90
  -5  -4  -5   36.00   14.70
   5  -9   5   86.19   40.60
  -9   4   5   59.29   27.60
   9  -5  -5   52.29   18.90
  10  -5  -5   26.90   17.30
  -5  -5  -5   42.70   15.20
  -5  10  -5   36.90   13.70
 -10   5   5   30.90   26.50
  -5  -5  -5   63.59   16.60
   5 -10   5   29.40   37.90
  -3  -3   5   63.39   28.00
  -3   6   5   51.19   42.40
   6  -3   5  119.59   48.10
   3  -6  -5   40.70   16.60
  -6   3  -5   52.89   15.10
   2  -6  -5  180.98   23.70
  -6   4  -5  185.38   21.30
   6  -2   5  251.27   44.10
  -4   6   5  289.57   57.99
  -2  -4   5  238.38   40.90
  -6   2  -5  232.98   19.90
   4  -6  -5  153.08   23.40
  -4  -2   5  246.58   37.40
   6  -4   5  262.57   45.00
  -2   6   5  297.57   49.10
  -1  -5   5  107.89   31.80
   6  -1   5   95.19   40.80
  -6   5  -5   78.39   17.10
   1  -6  -5  102.79   17.80
  -5  -1   5  106.79   30.20
   5  -6  -5   61.99   18.50
   6  -5   5  113.49   42.40
  -6   1  -5   79.39   16.40
  -1   6   5  118.49   46.20
   0  -6  -5   80.49   17.70
   6   0  -5   68.69   17.60
   6   0   5  105.79   43.30
   0  -6   5   96.69   33.10
  -6   0   5  122.79   28.20
   6  -6   5  125.79   39.50
  -7   6   5   70.69   35.70
   1  -7   5   36.50   33.50
   7  -1  -5   69.29   17.90
  -1  -6  -5   59.59   16.20
   6   1   5   83.09   40.30
  -6  -1  -5   87.09   17.10
   6  -7   5  106.39   44.70
  -7   1   5   53.09   35.40
  -6  -1  -5   78.49   15.80
   2  -8   5   95.39   36.60
   8  -2  -5  109.99   20.50
  -2  -6  -5   94.99   17.40
  -8   6   5   80.29   32.00
   6   2   5   84.59   40.70
  -2   8  -5   75.79   16.40
  -6  -2  -5   74.79   16.40
   8  -6  -5   63.29   18.30
   6  -8   5   98.39   38.20
  -9   6   5   83.79   31.00
  -6   9  -5   99.49   16.40
   3  -9   5  108.69   36.30
  -3  -6  -5   85.49   17.20
   6   3   5   64.59   43.20
   9  -3  -5   80.39   18.60
   9  -6  -5   64.09   19.20
   6  -9   5  126.99   38.50
  -6  -3  -5   85.99   16.20
  -9   3   5  108.09   27.90
  -3   9  -5   79.59   14.80
   4 -10   5   63.79   42.80
  -4  -6  -5  102.59   20.40
 -10   6   5   31.00   26.90
  10  -4  -5   40.80   16.30
  -6  10  -5   50.79   14.10
  -4  -6  -5   57.79   16.20
  -6  -4  -5   67.89   15.10
  10  -6  -5   66.59   18.90
   4   6   5   30.60   39.90
 -10   4   5   52.39   26.40
   6 -10   5   51.99   36.90
  -6  -4  -5   74.39   17.60
  -4  10  -5   48.40   14.20
   6   5   5   -1.30   41.50
 -11   6   5   -5.60   25.90
  -5  -6  -5    1.00   13.00
  -6  11  -5   11.80   12.80
  11  -5  -5    4.50   17.70
   5 -11   5   -8.20   36.00
  -5  -6  -5    4.60   14.40
  -6  -5  -5    6.20   14.80
  11  -6  -5   11.60   15.90
  -6  -5  -5   21.70   16.20
   5   6   5   21.30   40.70
   6 -11   5   22.80   45.40
  -5  11  -5    1.40   12.30
 -11   5   5  -16.20   23.80
  12  -6  -5   -5.40   17.00
   6   6   5   35.80   37.70
 -12   6   5   11.20   24.20
  -6  12  -5    6.40   14.40
  -6  -6  -5   -1.50   13.40
  -6  -6  -5    5.70   16.30
   3  -7  -5   14.70   15.40
  -7   4  -5   24.90   14.40
   7  -3   5   42.40   40.00
  -3  -4   5   15.00   27.80
  -7   3  -5   25.10   14.90
  -4  -3   5   46.00   27.30
   7  -4   5   75.39   38.80
   4  -7  -5    8.10   16.20
   7  -2   5   49.10   40.10
  -2  -5   5   28.60   28.80
   5   2  -5   29.40   17.80
   2  -7  -5   23.70   15.90
  -7   5  -5   34.40   14.90
   5  -7  -5   15.90   16.20
   7  -5   5   59.69   47.70
  -7   2  -5   33.30   16.00
  -5  -2   5   60.99   26.70
  -1  -6   5   38.30   29.30
  -7   6  -5   31.00   13.20
  -6   7   5   19.40   39.70
   7  -1   5   32.00   40.30
   1  -7  -5   32.30   15.00
   6   1  -5   33.30   18.10
   7  -6   5   82.89   41.30
  -6  -1   5   47.50   26.60
   1   6  -5   40.40   15.40
   7   0   5   24.20   37.70
   7   0  -5   26.50   16.70
   0  -7  -5   11.90   15.80
  -7   7   5   -2.60   32.20
   0  -7   5    2.90   33.60
  -7   0   5   22.90   30.20
  -7   0  -5   14.80   14.50
   7  -7   5   55.49   39.50
  -7   0  -5   40.00   14.60
  -7   8  -5    6.30   14.40
  -8   7   5    7.80   30.80
  -1  -7  -5   18.00   15.40
   7   1   5   16.30   39.70
   1  -8   5  -12.50   34.10
   1   7   5   25.40   45.60
   8  -7  -5    6.60   16.70
  -8   1   5   16.70   34.50
   7  -8   5   55.89   38.20
  -7  -1  -5   15.90   14.20
  -1   8  -5   15.00   12.60
   7   2   5  -11.10   37.20
   2  -9   5  -21.00   33.00
  -7   9  -5   11.10   12.70
  -9   7   5    4.50   30.70
   9  -2  -5   -1.10   14.30
  -2  -7  -5   15.30   15.50
   9  -7  -5    5.50   15.40
   2   7   5   18.20   38.70
   7  -9   5   36.20   37.20
  -2   9  -5    5.90   12.90
  -7  -2  -5   12.60   13.10
  -9   2   5    7.70   25.30
   7   3   5   21.90   43.90
 -10   7   5   -3.90   28.90
  -3  -7  -5   23.50   14.50
  -7  10  -5   20.60   13.10
  -3  -7  -5   45.20   14.40
  10  -3  -5    2.60   16.70
   3 -10   5    5.20   34.60
   3   7   5    2.20   39.00
   7 -10   5   25.00   44.60
  -7  -3  -5   18.80   14.20
  10  -7  -5   14.80   18.10
  -3  10  -5   12.60   12.80
  -7  -3  -5   31.20   17.00
 -10   3   5   12.00   24.00
  -4  -7  -5   80.39   16.70
   4 -11   5   46.00   36.00
   7   4   5   69.79   51.99
 -11   7   5   49.99   27.30
  -7  11  -5   57.39   16.20
  11  -4  -5  100.79   21.60
  -4  -7  -5   74.59   16.60
  -4  11  -5   59.89   16.20
  -7  -4  -5   73.09   15.60
  11  -7  -5   61.19   17.50
   4   7   5   64.99   38.80
 -11   4   5   75.69   25.20
   7 -11   5   60.79   46.40
  -5  -7  -5    9.10   15.80
  -7  12  -5   14.10   14.70
   7   5   5   14.30   39.50
  12  -5  -5   14.20   17.30
 -12   7   5   -1.00   26.60
   5 -12   5    7.90   36.60
  -5  12  -5   23.10   16.10
 -12   5   5   13.40   23.50
  -7  -5  -5   24.40   14.40
   7 -12   5   35.00   43.60
  12  -7  -5   11.80   18.10
  -7  -5  -5    7.00   15.50
   5   7   5   43.30   40.40
  -6  -7  -5   47.80   16.10
  -6  -7  -5   61.39   17.10
  13  -6  -5   32.70   18.30
 -13   7   5   43.30   24.60
   7   6   5   53.69   39.30
   6   7   5   15.20   39.20
  13  -7  -5   40.70   17.50
  -7  -6  -5   64.89   14.40
   7 -13   5   46.10   43.30
  -7  -6  -5   40.30   15.80
 -13   6   5   31.00   23.70
   7 -14   5   10.20   44.20
 -14   7   5    5.40   22.80
  14  -7  -5   -3.00   18.10
  -7  -7  -5   23.40   16.50
   7   7   5   23.90   36.30
  -4  -4   5   48.90   26.90
   4   4  -5   32.60   15.10
   4  -8  -5   32.70   17.30
   8  -4   5   91.89   41.80
  -8   4  -5   45.30   16.20
  -4   8   5   47.90   36.60
   3  -8  -5  104.69   19.10
  -5   8   5  102.49   35.80
  -3  -5   5  105.29   29.30
   8  -3   5  132.29   42.00
  -8   3  -5   87.49   17.40
  -3   8   5  116.79   40.40
   8  -5   5  149.19   42.70
  -5  -3   5  105.89   27.50
   3   5  -5   99.59   15.80
   6   2  -5  111.49   17.70
   8  -2   5  121.89   39.50
  -8   6  -5  138.99   20.20
   2  -8  -5  144.19   22.40
  -2  -6   5  129.59   31.40
  -6   8   5  102.49   38.70
  -8   2  -5  140.69   19.60
   8  -6   5  145.79   41.30
  -6  -2   5  151.78   27.80
  -2   8   5  106.19   42.20
   2   6  -5  112.49   16.60
   8  -1   5   84.19   39.40
   1  -8  -5   42.30   17.00
   7   1  -5   50.69   14.60
  -7   8   5   70.29   35.00
  -1  -7   5   45.60   30.20
  -1   8   5   40.60   42.10
   1   7  -5   53.39   13.50
  -8   1  -5   59.79   15.90
   8  -7   5   96.29   40.30
   8   0  -5   47.70   14.90
   8   0   5   55.99   42.90
  -8   8   5   51.49   34.10
   0  -8   5   35.60   29.90
   0  -8  -5   44.20   15.90
  -8   0   5   59.39   34.40
   0   8  -5   54.39   13.80
   0   8   5   54.89   42.20
  -8   0  -5   58.19   16.70
  -8   0  -5   66.39   17.60
   8  -8  -5   59.49   18.50
   8  -8   5   63.89   41.20
  -1  -8  -5   53.99   16.60
  -9   8   5   34.10   31.10
   1  -9   5   20.90   30.80
   8   1   5   57.79   41.90
   9  -1  -5   25.60   16.40
  -8   9  -5   29.20   15.30
  -1   9  -5   35.40   13.40
   8  -9   5   77.39   48.90
   9  -8  -5   27.40   16.30
  -9   1   5   43.30   24.30
  -8  -1  -5   47.00   15.20
   1   8   5   49.40   38.60
  -2  -8  -5   20.30   15.10
 -10   8   5   22.90   30.30
  10  -2  -5   14.10   18.10
   2 -10   5  -31.10   36.60
  -8  10  -5    9.20   14.20
   8   2   5    3.00   38.70
  -8  -2  -5    6.70   15.50
  10  -8  -5   14.40   18.00
 -10   2   5   18.00   23.00
  -2  10  -5   14.50   14.80
  -8  -2  -5   19.60   14.60
   2   8   5   12.40   38.50
 -11   8   5   28.80   29.60
  -3  -8  -5   14.30   14.20
   3 -11   5    9.10   35.60
  11  -3  -5   25.40   17.70
  -3  -8  -5   27.80   16.10
 -11   3   5   25.80   23.10
  -8  -3  -5   37.10   15.60
  -8  -3  -5   40.80   16.70
   8 -11   5   52.39   44.80
  11  -8  -5   24.00   16.50
   3   8   5   16.40   40.20
  -4  -8  -5   46.70   15.90
   8   4   5   44.40   40.70
   4 -12   5   16.40   35.20
  -4  -8  -5   59.89   15.50
 -12   8   5   61.39   26.90
  -8  12  -5   48.70   16.80
  12  -4  -5   52.39   17.00
   8 -12   5   45.60   43.80
  -8  -4  -5   62.89   16.50
  -8  -4  -5   55.69   15.20
  12  -8  -5   46.90   18.60
   4   8   5   52.49   38.00
 -12   4   5   61.79   23.20
   8   5   5   98.29   41.00
  -5  -8  -5  125.09   17.00
  -5  -8  -5  159.18   25.80
 -13   8   5  123.59   28.50
  13  -5  -5  155.28   24.90
   5 -13   5   97.59   43.50
   5   8   5  131.59   40.50
   8 -13   5  180.78   46.10
 -13   5   5  115.19   25.00
  -8  -5  -5  137.29   19.80
  -8  -5  -5  129.49   24.10
  13  -8  -5  124.39   22.00
  -6  -8  -5   42.00   15.10
  14  -6  -5   43.50   17.30
 -14   8   5   27.60   25.00
  -6  -8  -5   48.30   14.60
   8   6   5   28.10   36.50
 -14   6   5   45.80   22.50
  -8  -6  -5   37.80   17.50
  -6  14  -5   41.60   18.20
  14  -8  -5   42.40   19.20
  -8  -6  -5   45.00   13.60
   6   8   5    8.70   36.70
  -5   9   5   34.00   35.20
   9  -4   5   72.19   39.00
   5   4  -5   18.30   14.40
   4  -9  -5   29.80   16.50
  -9   5  -5   42.00   13.30
  -4  -5   5   41.60   26.40
   4   5  -5   20.50   14.90
  -5  -4   5   31.40   25.00
   9  -5   5   48.50   39.00
  -4   9   5   40.70   38.50
   5  -9  -5   22.10   18.20
  -9   4  -5   27.20   14.70
  -3  -6   5   28.90   27.30
  -6   9   5   11.00   35.10
   9  -3   5   63.09   40.10
   3  -9  -5   18.70   15.90
   6   3  -5   24.40   15.60
  -9   3  -5   30.20   15.00
  -6  -3   5   19.80   23.90
   9  -6   5   53.59   40.20
  -3   9   5   33.70   39.70
   7   2  -5   28.20   16.10
   9  -2   5   62.39   41.80
   2  -9  -5   17.20   16.10
  -7   9   5   25.30   34.60
  -2  -7   5   14.70   27.20
   9  -7   5   74.09   49.60
  -9   2  -5   34.30   15.30
  -2   9   5   18.30   38.40
   9  -1   5   33.60   41.10
  -8   9   5   32.20   33.90
   1  -9  -5   20.30   16.30
   8   1  -5   27.70   18.70
  -1  -8   5   25.80   29.40
   1   8  -5   29.10   15.50
  -1   9   5    5.90   38.00
  -9   1  -5   32.90   14.50
  -9   1  -5   25.30   16.30
   8  -9  -5   20.20   17.20
  -8  -1   5   43.90   32.50
   9  -8   5   80.79   50.39
   0  -9  -5   19.90   14.60
   0  -9   5   -2.20   29.70
   9   0   5   11.90   39.50
  -9   9   5   43.30   33.30
   9   0  -5   20.70   17.20
  -9   0  -5   28.90   15.00
  -9   0   5   22.30   22.80
   0   9   5   12.10   38.00
   9  -9  -5   12.70   16.30
   0   9  -5   18.30   16.30
  -1  -9  -5   41.20   16.40
   9   1   5   64.29   39.50
  10  -1  -5   37.70   16.80
 -10   9   5    7.90   30.90
   1 -10   5   36.70   30.50
 -10   1   5   57.09   23.50
   1   9   5   58.09   39.40
  -9  -1  -5   53.19   15.90
  10  -9  -5   47.00   18.60
  -9  -1  -5    7.50   16.30
  11  -2  -5   51.29   16.30
  -2  -9  -5   82.89   17.00
   2 -11   5   77.79   32.90
 -11   9   5   75.69   31.90
 -11   2   5   75.29   23.40
  11  -9  -5   60.09   19.40
  -9  -2  -5   93.59   18.30
   2   9   5   61.09   39.30
  -9  -2  -5   71.99   16.00
   9 -11   5   84.29   47.80
   3 -12   5   17.50   37.20
  -3  -9  -5   29.80   16.00
 -12   9   5   13.50   28.80
  12  -3  -5   22.40   18.70
   9   3   5    6.70   42.30
  -3  -9  -5   19.70   15.00
   3   9   5    9.20   38.70
  -9  -3  -5   29.40   16.10
  12  -9  -5   -2.20   17.20
 -12   3   5   25.50   22.10
  -9  -3  -5   24.20   15.00
   9 -12   5   32.90   45.60
  -3  12  -5   15.60   16.10
  -3  12  -5   65.29   27.20
  -4  -9  -5   41.80   15.30
   9   4   5   16.20   38.30
 -13   9   5   31.40   26.10
   4 -13   5   19.90   35.70
  13  -4  -5   26.60   18.20
  -4  -9  -5   39.70   15.00
   9 -13   5   71.79   44.70
  -9  -4  -5   51.99   14.10
  13  -9  -5   38.30   17.20
  -9  -4  -5   29.10   16.30
   4   9   5   22.00   39.80
 -13   4   5   48.30   22.20
  -5  -9  -5   23.00   14.90
   5 -14   5   30.00   44.00
   9   5   5   22.20   37.20
 -14   9   5   21.60   26.00
  -5  14  -5   79.69   23.60
   5   9   5   22.80   35.50
  -9  -5  -5   31.10   17.10
 -14   5   5   15.00   21.60
  -5  -5   5   93.49   25.10
   5 -10  -5   76.29   19.20
  -5  10   5  104.39   38.70
   5   5  -5  108.29   20.70
  -4  -6   5  125.39   28.10
  -6  10   5  127.39   37.90
  10  -4   5  143.79   43.00
   6   4  -5  157.98   23.30
   4 -10  -5  136.19   21.20
  -4  10   5  140.39   41.90
  -6  -4   5  135.09   26.00
 -10   4  -5  148.09   20.30
  -7  10   5  224.18   40.70
  -3  -7   5  212.38   37.00
   7   3  -5  225.78   25.00
   3 -10  -5  200.58   24.80
  10  -3   5  249.78   43.60
 -10   3  -5  240.28   22.50
  -3  10   5  266.67   45.20
  10  -2   5   86.89   40.60
  -8  10   5   71.49   35.50
  -2  -8   5   71.49   28.10
   2 -10  -5   51.89   15.50
 -10   2  -5   65.99   15.90
 -10   2  -5   43.40   17.50
   8 -10  -5   52.39   18.70
  -8  -2   5   61.89   32.60
   2   8  -5   61.79   17.40
  -2  10   5   52.79   38.90
   9   1  -5  160.78   20.00
  -1  -9   5  190.68   33.10
  -9  10   5  197.18   38.10
  10  -1   5  228.28   42.80
   1 -10  -5  175.38   21.30
 -10   9  -5  153.58   21.50
 -10   1  -5  189.38   21.30
  -9  -1   5  182.58   30.30
  -1  10   5  167.48   42.00
   1   9  -5  189.18   22.40
   9 -10  -5  171.28   22.70
   0 -10  -5   78.09   18.40
  10   0   5   94.69   41.10
   0 -10   5   84.39   31.40
  10   0  -5  100.59   17.80
 -10  10  -5   84.79   18.50
 -10  10   5   80.19   33.10
   0  10  -5   73.69   17.10
   0  10   5   84.59   39.80
 -10   0   5   82.59   22.90
 -10   0  -5  102.99   17.80
  10 -10  -5  103.29   20.60
  -1 -10  -5   93.09   17.50
   1 -11   5   93.49   32.50
  11  -1  -5   94.99   20.60
  10   1   5   54.99   40.70
 -11  10   5   57.19   33.00
 -10  11  -5  109.69   20.30
 -10  -1  -5  129.89   24.60
 -10  -1  -5   94.99   17.70
 -11   1   5   79.99   22.50
   1  10   5   56.99   39.10
  -1  11  -5  115.79   24.60
  11 -10  -5   63.19   19.80
  -2 -10  -5   57.79   17.30
  12  -2  -5   74.19   19.80
   2 -12   5   49.40   31.50
 -12  10   5   43.90   31.00
  12 -10  -5   59.99   18.80
 -12   2   5   83.99   22.80
 -10  -2  -5   76.69   16.00
  -2  12  -5  123.29   27.60
   2  10   5   54.09   38.10
  -2  12  -5   67.49   14.50
  10   3   5   36.80   39.00
  -3 -10  -5   30.60   15.70
 -13  10   5   33.30   29.20
   3 -13   5   39.10   36.80
  13  -3  -5   23.60   16.20
  -3 -10  -5   34.90   16.20
  -3  13  -5   85.09   22.90
 -10  -3  -5   37.90   16.70
 -10  -3  -5   36.10   15.50
 -13   3   5   40.00   21.30
  13 -10  -5   29.80   18.80
   3  10   5   36.10   41.80
  -3  13  -5   33.40   13.90
   6   5  -5   58.09   14.30
  -6  11   5   48.30   35.80
  -5  -6   5   45.80   24.00
  11  -5   5   87.19   42.60
   5   6  -5   52.79   14.50
 -11   5  -5   41.40   15.40
  -5  11   5   48.00   39.80
  11  -6   5  113.09   43.00
  -6  -5   5   39.90   23.90
  -4  -7   5   34.80   24.70
  11  -4   5   52.99   43.20
  -7  11   5   76.49   37.90
  -4  11   5   26.80   40.70
 -11   4  -5   54.79   16.00
   4   7  -5   53.49   13.90
   7 -11  -5   34.00   19.10
  11  -7   5   90.49   40.90
  -8  11   5   57.49   35.50
   8   3  -5   35.20   16.30
  -3  -8   5   29.40   26.10
   3 -11  -5   26.70   17.30
  11  -3   5   83.99   43.10
  -8  -3   5   38.40   22.30
 -11   3  -5   36.40   15.80
 -11   3  -5   25.00   17.10
  11  -8   5   57.19   40.10
  -3  11   5   35.70   40.60
   8 -11  -5   34.60   16.70
   3   8  -5   45.40   13.40
 -11   9  -5   35.30   15.60
   9   2  -5   35.30   17.50
  -9  11   5   31.20   35.40
   2 -11  -5   36.80   17.20
  -2  -9   5   42.90   26.40
  11  -9   5   88.69   40.00
 -11   2  -5   38.40   14.80
  -9  -2   5   31.30   21.50
   2   9  -5   31.80   13.30
  -2  11   5   28.20   39.20
   9 -11  -5   28.40   17.70
  11  -1   5   55.89   40.20
 -11  10  -5   49.00   14.10
 -10  11   5   23.40   34.90
  -1 -10   5   27.60   27.70
  10   1  -5   52.29   19.90
   1 -11  -5   47.70   17.50
 -11   1  -5   55.09   16.10
  -1  11   5   47.10   40.00
  10 -11  -5   52.89   18.60
 -10  -1   5   49.99   21.70
  11 -10   5   99.89   39.30
   1  10  -5   40.70   13.70
   0 -11  -5   27.90   15.80
  11   0  -5    6.10   16.50
 -11  11  -5   22.30   13.40
  11   0   5   14.40   39.00
   0 -11   5   17.50   28.30
 -11  11   5   -6.00   32.40
   0  11  -5   18.20   13.00
 -11   0  -5   16.70   16.80
 -11   0   5   31.30   20.80
  11 -11  -5   18.80   16.10
 -11   0  -5   34.50   14.60
   0  11   5   36.00   39.80
   1 -12   5   37.60   30.90
  12  -1  -5   31.00   15.60
  -1 -11  -5   42.00   16.20
 -12  11   5   41.90   32.40
 -12   1   5   33.10   20.50
 -11  -1  -5   67.89   17.60
  12 -11  -5   38.20   18.40
  -1  12  -5   44.80   13.80
 -11  -1  -5   55.59   16.00
   1  11   5   37.10   40.20
 -11  13  -5   52.89   16.40
 -13  11   5   31.00   30.00
  -2 -11  -5   54.89   15.50
   2 -13   5   49.10   31.40
  11   2   5   34.40   38.60
  13  -2  -5   54.29   20.40
  -2 -11  -5   34.10   15.30
 -11  -2  -5   43.60   17.90
  13 -11  -5   23.70   18.50
 -11  -2  -5   62.59   14.80
   2  11   5   44.50   40.70
 -13   2   5   28.50   21.20
  -2  13  -5   79.89   21.60
  -2  13  -5   26.30   15.10
  12  -6   5  135.99   39.40
  -6  12   5  127.99   40.50
  -6  -6   5  117.49   32.30
 -12   6  -5  149.79   20.90
  -7  12   5  298.17   48.70
  -5  -7   5  249.58   34.60
  12  -5   5  377.46   49.00
  -5  12   5  275.67   48.00
  12  -7   5  343.97   49.00
 -12   5  -5  281.87   25.60
   7 -12  -5  280.77   25.90
   8   4  -5  118.79   20.00
  12  -4   5  121.29   38.50
   4 -12  -5   90.49   19.70
  -8  12   5   84.39   36.70
  -4  -8   5   87.29   26.00
 -12   4  -5   89.49   20.30
   8 -12  -5   64.89   19.00
  -4  12   5   74.79   41.50
  12  -8   5  168.48   40.80
  -8  -4   5   92.29   23.10
 -12   4  -5  116.59   18.90
   9   3  -5   39.40   17.10
  -3  -9   5   50.89   25.50
   3 -12  -5   71.39   17.60
  -9  12   5   50.59   35.30
  12  -3   5   75.89   38.00
  12  -9   5   87.99   38.70
 -12   3  -5   67.09   17.10
   9 -12  -5   31.40   17.70
  -9  -3   5   50.59   21.20
  -3  12   5   52.99   39.10
  -2 -10   5   53.19   26.50
  10   2  -5   44.20   15.10
   2 -12  -5   56.59   17.10
 -10  12   5   60.39   36.80
  12  -2   5   94.19   38.90
  10 -12  -5   69.69   19.50
 -10  -2   5   55.99   21.50
  -2  12   5   22.30   38.40
 -12   2  -5   49.80   15.50
  11   1  -5   93.39   19.40
  -1 -11   5  116.29   31.60
   1 -12  -5  115.29   19.70
 -12  11  -5  100.79   18.50
 -11  12   5   83.79   36.60
  12  -1   5  162.08   42.40
 -11  -1   5  117.49   22.70
 -12   1  -5  161.98   19.40
  11 -12  -5  117.69   19.60
 -12   1  -5  139.49   26.60
  -1  12   5  100.19   39.60
   0 -12  -5   42.80   16.20
 -12  12  -5   43.00   13.50
 -12  12   5   10.60   31.50
   0 -12   5    9.30   30.30
  12   0  -5   43.10   20.50
  12 -12  -5   51.89   17.90
 -12   0  -5   53.09   15.20
   0  12   5   37.40   38.80
 -12   0  -5   58.69   18.20
 -12   0   5   24.50   20.50
  13  -6   5  101.79   40.30
   7   6  -5   56.59   14.70
  -7  13   5   26.50   39.50
  -6  13   5   23.70   40.90
   7 -13  -5   45.90   18.90
 -13   6  -5   62.79   21.30
   6   7  -5   51.59   14.20
  -7  -6   5   48.50   25.20
  13  -7   5   91.69   38.00
 -13   6  -5   39.70   16.10
  -8  13   5   24.20   36.10
  -5  -8   5   23.90   23.20
   8   5  -5   34.30   13.50
  13  -5   5   69.59   39.70
   8 -13  -5   24.00   17.80
  -8  -5   5   27.00   21.10
  13  -8   5   71.79   37.10
  -5  13   5   15.50   40.00
   5   8  -5   27.30   13.00
 -13   5  -5   -6.30   16.10
 -13   5  -5   38.00   15.60
  -9  13   5   49.60   36.70
   4 -13  -5   54.49   19.60
   9   4  -5   49.10   16.70
  -4  -9   5   48.10   24.50
  13  -4   5   63.59   39.80
 -13   9  -5   46.10   15.70
  -9  -4   5   40.10   21.70
 -13   4  -5   50.09   15.90
   4   9  -5   54.69   14.00
  13  -9   5   73.29   37.90
   9 -13  -5   50.89   18.20
  -4  13   5   67.09   41.20
 -13  10  -5   40.30   16.10
  10   3  -5   73.79   21.30
   3 -13  -5   48.70   17.80
 -10  13   5   51.19   34.70
  -3 -10   5   63.59   25.40
  13  -3   5   80.79   41.20
 -13   3  -5   72.59   15.40
   3  10  -5   57.19   14.10
 -10  -3   5   48.10   21.50
  -3  13   5   43.10   38.10
  10 -13  -5   58.89   18.90
  13  -2   5   50.59   40.40
 -11  13   5  -22.10   34.50
   2 -13  -5   16.10   16.70
  11   2  -5    2.50   16.90
  -2 -11   5   12.30   25.60
 -13   2  -5    5.00   17.60
 -11  -2   5   30.20   20.60
   2  11  -5    8.70   12.80
  -2  13   5    6.60   37.90
  11 -13  -5   12.70   16.00
 -13   2  -5   12.00   14.40
  -7  -7   5  100.99   24.50
   7 -14  -5  117.79   20.10
  -7  14   5   76.29   43.40
 -14   7  -5  155.98   31.00
 -14   8  -5   79.49   14.90
   6 -14  -5   60.69   19.00
  -8  14   5   59.19   38.50
  14  -8   5  130.49   38.10
  -6  14   5   64.39   40.50
  -8  -6   5   73.59   22.40
   8 -14  -5   76.59   18.60
 -14   6  -5   30.90   18.80
  -9  14   5  193.28   39.60
  14  -5   5  226.58   45.70
  14  -9   5  313.47   45.00
 -14   5  -5  168.88   29.70
  -9  -5   5  215.58   30.10
  -5  14   5  211.78   43.70

_computing_structure_solution     'SHELXT 2014/4 (Sheldrick, 2014)'
;
_shelx_hkl_checksum              24410
loop_
_space_group_symop_operation_xyz
'x, y, z'
'-y, x-y, z'
'-x+y, -x, z'
'y, x, z'
'x-y, -y, z'
'-x, -x+y, z'
loop_
_atom_site_label
_atom_site_type_symbol
_atom_site_fract_x
_atom_site_fract_y
_atom_site_fract_z
_atom_site_U_iso_or_equiv
_atom_site_adp_type
_atom_site_occupancy
_atom_site_site_symmetry_order
_atom_site_calc_flag
_atom_site_refinement_flags_posn
_atom_site_refinement_flags_adp
_atom_site_refinement_flags_occupancy
_atom_site_disorder_assembly
_atom_site_disorder_group
C1 C 0.7352(10) 0.8226(11) 0.385(6) 0.002(7) Uiso 1 1 d D . . . .
C2 C 0.7767(10) 0.8177(10) 0.452(6) 0.002(7) Uiso 1 1 d D . . . .
C3 C 0.7814(15) 0.7814(15) 0.353(10) 0.015(13) Uiso 1 2 d DS . P . .
H3 H 0.761387 0.761388 0.227071 0.018 Uiso 1 2 calc R U P . .
C4 C 0.8044(12) 0.8438(13) 0.659(6) 0.019(9) Uiso 1 1 d D . . . .
H4 H 0.797703 0.865592 0.730387 0.022 Uiso 1 1 calc R U . . .
C5 C 0.841(2) 0.841(2) 0.768(13) 0.045(19) Uiso 1 2 d DS . P A .
C6 C 0.873(3) 0.9124(17) 0.962(17) 0.02(2) Uiso 0.5 1 d D . P A -1
H6A H 0.873921 0.918856 1.144229 0.029 Uiso 0.5 1 calc R U P A -1
H6B H 0.846683 0.913166 0.888204 0.029 Uiso 0.5 1 calc R U P A -1
C7 C 0.918(5) 0.951(5) 0.84(4) 0.15(8) Uiso 0.5 1 d D . P A -1
H7A H 0.920169 0.980798 0.867322 0.218 Uiso 0.5 1 calc R U P A -1
H7B H 0.944678 0.951223 0.913348 0.218 Uiso 0.5 1 calc R U P A -1
H7C H 0.917405 0.945525 0.656990 0.218 Uiso 0.5 1 calc R U P A -1
C8 C 0.7155(13) 0.9136(12) 0.105(8) 0.018(9) Uiso 1 1 d D U . . .
C9 C 0.7522(10) 0.9593(9) -0.007(5) 0.001(7) Uiso 1 1 d D U . . .
C10 C 0.7581(14) 1.000000 0.096(9) 0.006(10) Uiso 1 2 d DS U P . .
H10 H 0.739327 1.000000 0.229154 0.007 Uiso 1 2 calc R U P . .
C11 C 0.7786(11) 0.9600(12) -0.215(6) 0.019(9) Uiso 1 1 d D U . . .
H11 H 0.771067 0.931621 -0.291436 0.022 Uiso 1 1 calc R U . . .
C12 C 0.8152(18) 1.000000 -0.315(11) 0.027(15) Uiso 1 2 d DS . P B .
C13 C 0.840(2) 0.9573(17) -0.569(13) 0.007(16) Uiso 0.5 1 d D . P B -1
H13A H 0.808658 0.934566 -0.621691 0.009 Uiso 0.5 1 calc R U P B -1
H13B H 0.848439 0.944539 -0.423054 0.009 Uiso 0.5 1 calc R U P B -1
C14 C 0.874(6) 0.967(7) -0.79(3) 0.14(8) Uiso 0.5 1 d D . P B -1
H14A H 0.873088 0.937990 -0.839683 0.203 Uiso 0.5 1 calc R U P B -1
H14B H 0.865871 0.978949 -0.935415 0.203 Uiso 0.5 1 calc R U P B -1
H14C H 0.905545 0.988896 -0.737310 0.203 Uiso 0.5 1 calc R U P B -1
C15 C 0.6173(11) 0.7580(11) 0.578(6) 0.003(8) Uiso 1 1 d D . . . .
C16 C 0.5711(16) 0.6741(13) 0.572(9) 0.072(19) Uiso 1 1 d D . . . .
H16 H 0.588027 0.673260 0.431191 0.087 Uiso 1 1 calc R U . . .
C17 C 0.5348(16) 0.6351(15) 0.689(7) 0.065(18) Uiso 1 1 d D . . . .
C18 C 0.5091(17) 0.6348(16) 0.899(8) 0.067(18) Uiso 1 1 d D . . . .
H18 H 0.485861 0.606851 0.968889 0.081 Uiso 1 1 calc R U . . .
C19 C 0.5190(17) 0.6774(14) 1.002(10) 0.055(16) Uiso 1 1 d D . . . .
C20 C 0.5544(14) 0.7182(14) 0.901(7) 0.036(12) Uiso 1 1 d D . . . .
H20 H 0.561932 0.747150 0.969495 0.043 Uiso 1 1 calc R U . . .
C21 C 0.5784(14) 0.7146(13) 0.694(7) 0.049(14) Uiso 1 1 d D . . . .
C22 C 0.472(2) 1.0585(18) 0.679(13) 0.061(9) Uiso 1 1 d D U . . .
C23 C 0.496(2) 0.7200(17) 1.292(10) 0.052(15) Uiso 1 1 d D . . . .
H23A H 0.490685 0.736851 1.155402 0.063 Uiso 1 1 calc R U . . .
H23B H 0.526742 0.740153 1.363383 0.063 Uiso 1 1 calc R U . . .
C24 C 0.459(2) 0.707(3) 1.502(12) 0.07(2) Uiso 1 1 d D . . . .
H24A H 0.460269 0.734281 1.570084 0.108 Uiso 1 1 calc R U . . .
H24B H 0.428214 0.686774 1.429422 0.108 Uiso 1 1 calc R U . . .
H24C H 0.464165 0.690066 1.636797 0.108 Uiso 1 1 calc R U . . .
C25 C 0.5184(9) 0.9461(12) 0.382(6) 0.050(6) Uiso 1 1 d D U . . .
C26 C 0.5516(19) 0.8932(17) 0.312(11) 0.076(15) Uiso 1 1 d D U . . .
H26 H 0.565858 0.906344 0.468151 0.091 Uiso 1 1 calc R U . . .
C27 C 0.5607(15) 0.8586(16) 0.221(8) 0.058(15) Uiso 1 1 d D U . . .
C28 C 0.5320(15) 0.8367(16) 0.009(7) 0.08(2) Uiso 1 1 d D . . . .
H28 H 0.534990 0.812704 -0.064703 0.101 Uiso 1 1 calc R U . . .
C29 C 0.4998(18) 0.8461(17) -0.105(10) 0.072(14) Uiso 1 1 d D U . . .
C30 C 0.4999(19) 0.8848(17) -0.002(8) 0.072(11) Uiso 1 1 d D U . . .
H30 H 0.480838 0.894062 -0.084106 0.086 Uiso 1 1 calc R U . . .
C31 C 0.5249(17) 0.9116(16) 0.210(8) 0.058(7) Uiso 1 1 d D U . . .
C32 C 0.6007(17) 0.8512(18) 0.297(7) 0.049(15) Uiso 1 1 d D . . . .
C33 C 0.432(2) 0.820(3) -0.358(14) 0.10(2) Uiso 1 1 d D U . . .
H33A H 0.439659 0.852214 -0.379243 0.121 Uiso 1 1 calc R U . . .
H33B H 0.410086 0.805890 -0.218726 0.121 Uiso 1 1 calc R U . . .
C34 C 0.413(3) 0.792(3) -0.609(14) 0.09(2) Uiso 1 1 d D U . . .
H34A H 0.384999 0.791822 -0.657673 0.134 Uiso 1 1 calc R U . . .
H34B H 0.436067 0.806635 -0.743271 0.134 Uiso 1 1 calc R U . . .
H34C H 0.406737 0.760692 -0.584071 0.134 Uiso 1 1 calc R U . . .
O1 O 0.7146(11) 0.8070(11) 0.155(6) 0.030(8) Uiso 1 1 d . . . . .
O2 O 0.7276(9) 0.8493(9) 0.507(5) 0.015(6) Uiso 1 1 d . . . . .
O3 O 0.8665(13) 0.8665(13) 0.931(9) 0.034(11) Uiso 1 2 d DS . P . .
O4 O 0.6974(8) 0.8774(8) -0.036(5) 0.004(5) Uiso 1 1 d . . . . .
O5 O 0.7072(10) 0.9146(10) 0.335(6) 0.020(7) Uiso 1 1 d . . . . .
O6 O 0.8421(12) 1.000000 -0.497(8) 0.023(10) Uiso 1 2 d DS . P . .
O7 O 0.6232(9) 0.7591(10) 0.351(6) 0.020(6) Uiso 1 1 d . . . . .
O8 O 0.6361(10) 0.7965(10) 0.725(6) 0.022(7) Uiso 1 1 d . . . . .
O9 O 0.4645(15) 1.0494(15) 0.434(8) 0.057(9) Uiso 1 1 d . U . . .
O10 O 0.4966(16) 1.0505(15) 0.778(9) 0.067(9) Uiso 1 1 d . U . . .
O11 O 0.4933(16) 0.6784(15) 1.191(8) 0.067(12) Uiso 1 1 d D . . . .
O12 O 0.5017(12) 0.9591(12) 0.205(7) 0.049(5) Uiso 1 1 d D U . . .
O13 O 0.5278(11) 0.9542(12) 0.612(6) 0.035(5) Uiso 1 1 d D U . . .
O14 O 0.6079(10) 0.8263(10) 0.147(6) 0.022(7) Uiso 1 1 d D . . . .
O15 O 0.6196(9) 0.8668(10) 0.509(5) 0.020(6) Uiso 1 1 d D . . . .
O16 O 0.4738(18) 0.817(2) -0.312(10) 0.096(16) Uiso 1 1 d D U . . .
CU1 Cu 0.6581(2) 0.8128(2) 0.126(2) 0.0389(19) Uani 1 1 d . . . . .
CU2 Cu 0.67547(19) 0.85935(19) 0.554(2) 0.0258(15) Uani 1 1 d . . . . .
CU3 Cu 0.5133(2) 1.000000 0.706(2) 0.0133(16) Uiso 1 2 d S U P . .
CU4 Cu 0.4750(2) 1.000000 0.277(2) 0.0182(17) Uiso 1 2 d S U P . .
loop_
_atom_site_aniso_label
_atom_site_aniso_U_11
_atom_site_aniso_U_22
_atom_site_aniso_U_33
_atom_site_aniso_U_23
_atom_site_aniso_U_13
_atom_site_aniso_U_12
CU1 0.017(3) 0.016(3) 0.084(5) -0.017(3) -0.002(3) 0.008(3)
CU2 0.022(3) 0.016(3) 0.040(3) -0.011(2) -0.003(3) 0.010(2)
loop_
_atom_type_symbol
_atom_type_description
_atom_type_scat_dispersion_real
_atom_type_scat_dispersion_imag
_atom_type_scat_source
C C 0.0040 0.0020 'Calculated using XDISP in WinGX (Farrugia, 1999)'
H H 0.0000 0.0000 'Calculated using XDISP in WinGX (Farrugia, 1999)'
O O 0.0132 0.0074 'Calculated using XDISP in WinGX (Farrugia, 1999)'
Cu Cu 0.2913 1.4803 'Calculated using XDISP in WinGX (Farrugia, 1999)'
loop_
_geom_angle_atom_site_label_1
_geom_angle_atom_site_label_2
_geom_angle_atom_site_label_3
_geom_angle
_geom_angle_site_symmetry_1
_geom_angle_site_symmetry_3
O2 C1 O1 120(3) . .
O2 C1 C2 119(3) . .
O1 C1 C2 119(3) . .
C3 C2 C4 120(3) . .
C3 C2 C1 121(2) . .
C4 C2 C1 118(3) . .
C2 C3 C2 116(4) 4 .
C2 C3 H3 122.0 4 .
C2 C3 H3 122.0 . .
C5 C4 C2 127(4) . .
C5 C4 H4 116.7 . .
C2 C4 H4 116.7 . .
O3 C5 C4 125(3) . 4
O3 C5 C4 125(3) . .
C4 C5 C4 110(5) 4 .
O3 C6 C7 114(9) . .
O3 C6 H6A 108.7 . .
C7 C6 H6A 108.7 . .
O3 C6 H6B 108.7 . .
C7 C6 H6B 108.7 . .
H6A C6 H6B 107.6 . .
C6 C7 H7A 109.5 . .
C6 C7 H7B 109.5 . .
H7A C7 H7B 109.5 . .
C6 C7 H7C 109.5 . .
H7A C7 H7C 109.5 . .
H7B C7 H7C 109.5 . .
O5 C8 O4 126(3) . .
O5 C8 C9 115(3) . .
O4 C8 C9 119(3) . .
C10 C9 C11 121(3) . .
C10 C9 C8 119(3) . .
C11 C9 C8 121(3) . .
C9 C10 C9 117(4) 5_675 .
C9 C10 H10 121.7 5_675 .
C9 C10 H10 121.7 . .
C12 C11 C9 124(4) . .
C12 C11 H11 118.1 . .
C9 C11 H11 118.1 . .
O6 C12 C11 123(3) . 5_675
O6 C12 C11 123(2) . .
C11 C12 C11 113(5) 5_675 .
O6 C13 C14 109(9) . .
O6 C13 H13A 109.8 . .
C14 C13 H13A 109.8 . .
O6 C13 H13B 109.8 . .
C14 C13 H13B 109.8 . .
H13A C13 H13B 108.2 . .
C13 C14 H14A 109.5 . .
C13 C14 H14B 109.5 . .
H14A C14 H14B 109.5 . .
C13 C14 H14C 109.5 . .
H14A C14 H14C 109.5 . .
H14B C14 H14C 109.5 . .
O7 C15 O8 123(3) . .
O7 C15 C21 119(3) . .
O8 C15 C21 117(3) . .
C21 C16 C17 110(5) . .
C21 C16 H16 124.9 . .
C17 C16 H16 124.9 . .
C18 C17 C16 127(4) . .
C18 C17 C22 105(4) . 6_655
C16 C17 C22 125(4) . 6_655
C17 C18 C19 118(4) . .
C17 C18 H18 121.1 . .
C19 C18 H18 121.1 . .
O11 C19 C20 120(4) . .
O11 C19 C18 119(4) . .
C20 C19 C18 120(5) . .
C19 C20 C21 117(4) . .
C19 C20 H20 121.3 . .
C21 C20 H20 121.3 . .
C20 C21 C16 128(4) . .
C20 C21 C15 119(3) . .
C16 C21 C15 113(3) . .
O10 C22 O9 119(5) . .
O10 C22 C17 132(6) . 6_665
O9 C22 C17 98(4) . 6_665
O11 C23 C24 109(5) . .
O11 C23 H23A 109.9 . .
C24 C23 H23A 109.9 . .
O11 C23 H23B 109.9 . .
C24 C23 H23B 109.9 . .
H23A C23 H23B 108.3 . .
C23 C24 H24A 109.5 . .
C23 C24 H24B 109.5 . .
H24A C24 H24B 109.5 . .
C23 C24 H24C 109.5 . .
H24A C24 H24C 109.5 . .
H24B C24 H24C 109.5 . .
O13 C25 O12 138(4) . .
O13 C25 C31 128(4) . .
O12 C25 C31 94(3) . .
O13 C25 CU3 45(2) . .
O12 C25 CU3 93(3) . .
C31 C25 CU3 173(3) . .
C31 C26 C27 131(5) . .
C31 C26 H26 114.3 . .
C27 C26 H26 114.3 . .
C28 C27 C26 109(4) . .
C28 C27 C32 123(4) . .
C26 C27 C32 127(4) . .
C29 C28 C27 129(5) . .
C29 C28 H28 115.7 . .
C27 C28 H28 115.7 . .
C28 C29 C30 113(6) . .
C28 C29 O16 117(5) . .
C30 C29 O16 129(5) . .
C29 C30 C31 128(5) . .
C29 C30 H30 115.9 . .
C31 C30 H30 115.9 . .
C30 C31 C26 109(4) . .
C30 C31 C25 132(4) . .
C26 C31 C25 117(4) . .
O14 C32 O15 128(4) . .
O14 C32 C27 114(3) . .
O15 C32 C27 118(3) . .
O16 C33 C34 103(6) . .
O16 C33 H33A 111.2 . .
C34 C33 H33A 111.2 . .
O16 C33 H33B 111.2 . .
C34 C33 H33B 111.2 . .
H33A C33 H33B 109.1 . .
C33 C34 H34A 109.5 . .
C33 C34 H34B 109.5 . .
H34A C34 H34B 109.5 . .
C33 C34 H34C 109.5 . .
H34A C34 H34C 109.5 . .
H34B C34 H34C 109.5 . .
C1 O1 CU1 111(2) . .
C1 O2 CU2 136(2) . .
C5 O3 C6 121(4) . .
C8 O4 CU1 120(2) . .
C8 O4 CU2 138(2) . 1_554
CU1 O4 CU2 99.4(10) . 1_554
C8 O5 CU2 124(2) . .
C12 O6 C13 120(3) . .
C15 O7 CU1 129(2) . .
C15 O8 CU2 119(2) . .
C15 O8 CU1 136(2) . 1_556
CU2 O8 CU1 101.7(12) . 1_556
C22 O9 CU4 120(3) . .
C22 O10 CU3 130(4) . .
C19 O11 C23 125(4) . .
C25 O12 CU4 121(3) . .
C25 O13 CU3 107(3) . .
C32 O14 CU1 131(3) . .
C32 O15 CU2 111(2) . .
C29 O16 C33 111(5) . .
O14 CU1 O7 89.5(12) . .
O14 CU1 O1 169.9(13) . .
O7 CU1 O1 91.3(12) . .
O14 CU1 O4 87.3(11) . .
O7 CU1 O4 167.4(11) . .
O1 CU1 O4 89.8(11) . .
O14 CU1 O8 83.7(11) . 1_554
O7 CU1 O8 112.0(11) . 1_554
O1 CU1 O8 105.3(12) . 1_554
O4 CU1 O8 79.8(9) . 1_554
O14 CU1 CU2 77.1(8) . .
O7 CU1 CU2 83.1(8) . .
O1 CU1 CU2 93.0(9) . .
O4 CU1 CU2 84.2(7) . .
O8 CU1 CU2 155.5(8) 1_554 .
O2 CU2 O5 88.8(12) . .
O2 CU2 O15 165.7(11) . .
O5 CU2 O15 85.1(12) . .
O2 CU2 O8 92.8(11) . .
O5 CU2 O8 170.0(12) . .
O15 CU2 O8 91.1(12) . .
O2 CU2 O4 88.2(10) . 1_556
O5 CU2 O4 110.8(10) . 1_556
O15 CU2 O4 106.0(10) . 1_556
O8 CU2 O4 79.1(9) . 1_556
O2 CU2 CU1 75.0(8) . .
O5 CU2 CU1 84.8(9) . .
O15 CU2 CU1 91.6(8) . .
O8 CU2 CU1 86.0(9) . .
O4 CU2 CU1 157.0(6) 1_556 .
O2 CU2 O12 151.2(8) . 5_676
O5 CU2 O12 79.8(9) . 5_676
O15 CU2 O12 39.5(8) . 5_676
O8 CU2 O12 103.0(9) . 5_676
O4 CU2 O12 71.7(6) 1_556 5_676
CU1 CU2 O12 129.4(3) . 5_676
O13 CU3 O13 89(2) . 5_675
O13 CU3 O10 90.0(16) . 5_675
O13 CU3 O10 175.4(16) 5_675 5_675
O13 CU3 O10 175.4(16) . .
O13 CU3 O10 90.0(16) 5_675 .
O10 CU3 O10 90(2) 5_675 .
O13 CU3 C25 88.7(14) . 5_675
O13 CU3 C25 28.0(9) 5_675 5_675
O10 CU3 C25 147.5(15) 5_675 5_675
O10 CU3 C25 88.5(13) . 5_675
O13 CU3 C25 28.0(9) . .
O13 CU3 C25 88.7(13) 5_675 .
O10 CU3 C25 88.5(13) 5_675 .
O10 CU3 C25 147.5(15) . .
C25 CU3 C25 75.5(12) 5_675 .
O13 CU3 CU4 95.7(10) . .
O13 CU3 CU4 95.7(10) 5_675 .
O10 CU3 CU4 79.9(13) 5_675 .
O10 CU3 CU4 79.9(13) . .
C25 CU3 CU4 67.9(8) 5_675 .
C25 CU3 CU4 68.0(8) . .
O13 CU3 O12 83.2(12) . 1_556
O13 CU3 O12 117.1(12) 5_675 1_556
O10 CU3 O12 67.3(15) 5_675 1_556
O10 CU3 O12 101.2(15) . 1_556
C25 CU3 O12 144.5(13) 5_675 1_556
C25 CU3 O12 108.3(11) . 1_556
CU4 CU3 O12 147.1(8) . 1_556
O12 CU4 O12 72(2) . 5_675
O12 CU4 O9 96.7(16) . 5_675
O12 CU4 O9 161.4(16) 5_675 5_675
O12 CU4 O9 161.4(16) . .
O12 CU4 O9 96.7(16) 5_675 .
O9 CU4 O9 90(2) 5_675 .
O12 CU4 CU3 77.0(10) . .
O12 CU4 CU3 77.0(10) 5_675 .
O9 CU4 CU3 86.0(12) 5_675 .
O9 CU4 CU3 86.0(12) . .
O12 CU4 O10 65.3(13) . 5_674
O12 CU4 O10 98.9(14) 5_675 5_674
O9 CU4 O10 89.5(15) 5_675 5_674
O9 CU4 O10 132.5(15) . 5_674
CU3 CU4 O10 141.2(9) . 5_674
O12 CU4 O10 98.9(14) . 1_554
O12 CU4 O10 65.3(13) 5_675 1_554
O9 CU4 O10 132.5(15) 5_675 1_554
O9 CU4 O10 89.5(15) . 1_554
CU3 CU4 O10 141.2(9) . 1_554
O10 CU4 O10 58.1(17) 5_674 1_554
loop_
_geom_bond_atom_site_label_1
_geom_bond_atom_site_label_2
_geom_bond_distance
_geom_bond_site_symmetry_2
C1 O2 1.21(4) .
C1 O1 1.35(4) .
C1 C2 1.50(3) .
C2 C3 1.38(3) .
C2 C4 1.40(3) .
C3 C2 1.38(3) 4
C3 H3 0.9300 .
C4 C5 1.37(3) .
C4 H4 0.9300 .
C5 O3 1.21(7) .
C5 C4 1.37(3) 4
C6 O3 1.43(4) .
C6 C7 1.53(6) .
C6 H6A 0.9700 .
C6 H6B 0.9700 .
C7 H7A 0.9600 .
C7 H7B 0.9600 .
C7 H7C 0.9600 .
C8 O5 1.23(5) .
C8 O4 1.27(5) .
C8 C9 1.50(3) .
C9 C10 1.37(2) .
C9 C11 1.38(3) .
C10 C9 1.37(3) 5_675
C10 H10 0.9300 .
C11 C12 1.37(3) .
C11 H11 0.9300 .
C12 O6 1.30(6) .
C12 C11 1.37(3) 5_675
C13 O6 1.43(4) .
C13 C14 1.54(5) .
C13 H13A 0.9700 .
C13 H13B 0.9700 .
C14 H14A 0.9600 .
C14 H14B 0.9600 .
C14 H14C 0.9600 .
C15 O7 1.20(4) .
C15 O8 1.34(5) .
C15 C21 1.49(3) .
C16 C21 1.39(2) .
C16 C17 1.39(2) .
C16 H16 0.9300 .
C17 C18 1.38(2) .
C17 C22 1.51(4) 6_655
C18 C19 1.38(3) .
C18 H18 0.9300 .
C19 O11 1.31(6) .
C19 C20 1.37(3) .
C20 C21 1.38(2) .
C20 H20 0.9300 .
C22 O10 1.10(6) .
C22 O9 1.30(7) .
C22 C17 1.51(4) 6_665
C23 O11 1.43(4) .
C23 C24 1.54(5) .
C23 H23A 0.9700 .
C23 H23B 0.9700 .
C24 H24A 0.9600 .
C24 H24B 0.9600 .
C24 H24C 0.9600 .
C25 O13 1.23(3) .
C25 O12 1.25(3) .
C25 C31 1.55(3) .
C25 CU3 2.52(4) .
C26 C31 1.40(2) .
C26 C27 1.40(2) .
C26 H26 0.9300 .
C27 C28 1.39(2) .
C27 C32 1.51(3) .
C28 C29 1.38(3) .
C28 H28 0.9300 .
C29 C30 1.39(3) .
C29 O16 1.41(8) .
C30 C31 1.39(2) .
C30 H30 0.9300 .
C32 O14 1.24(3) .
C32 O15 1.24(3) .
C33 O16 1.43(4) .
C33 C34 1.54(5) .
C33 H33A 0.9700 .
C33 H33B 0.9700 .
C34 H34A 0.9600 .
C34 H34B 0.9600 .
C34 H34C 0.9600 .
O1 CU1 1.97(3) .
O2 CU2 1.93(3) .
O4 CU1 2.05(2) .
O4 CU2 2.24(2) 1_554
O5 CU2 1.95(3) .
O7 CU1 1.95(3) .
O8 CU2 2.02(3) .
O8 CU1 2.19(3) 1_556
O9 CU4 2.00(4) .
O10 CU3 2.04(5) .
O12 CU4 1.98(4) .
O13 CU3 1.87(3) .
O14 CU1 1.92(3) .
O15 CU2 1.99(3) .
CU1 O8 2.19(3) 1_554
CU1 CU2 2.600(8) .
CU2 O4 2.24(2) 1_556
CU2 O12 9.65(4) 5_676
CU3 O13 1.87(3) 5_675
CU3 O10 2.04(5) 5_675
CU3 C25 2.52(4) 5_675
CU3 CU4 2.566(10) .
CU3 O12 2.87(3) 1_556
CU4 O12 1.98(4) 5_675
CU4 O9 2.00(4) 5_675
CU4 O10 2.98(4) 5_674
CU4 O10 2.98(4) 1_554
