#------------------------------------------------------------------------------
#$Date: 2019-06-14 11:52:13 +0300 (Fri, 14 Jun 2019) $
#$Revision: 215963 $
#$URL: file:///home/coder/svn-repositories/cod/cif/1/55/14/1551425.cif $
#------------------------------------------------------------------------------
#
# This file is available in the Crystallography Open Database (COD),
# http://www.crystallography.net/
#
# All data on this site have been placed in the public domain by the
# contributors.
#
data_1551425
loop_
_publ_author_name
'Ren-Wu Huang'
'Yong-Sheng Wei'
'Xi-Yan Dong'
'Xiao-Hui Wu'
'Chen-Xia Du'
'Shuang-Quan Zang'
'Thomas C. W. Mak'
_publ_section_title
;
 Hypersensitive dual-function luminescence switching of a
 silver-chalcogenolate cluster-based metal-organic framework
;
_journal_name_full               'Nature Chemistry'
_journal_page_first              689
_journal_page_last               697
_journal_paper_doi               10.1038/nchem.2718
_journal_volume                  9
_journal_year                    2017
_chemical_absolute_configuration ad
_chemical_formula_moiety         'C80 H104 Ag12 F12 N8 O8 S8, 4(C H Cl3)'
_chemical_formula_sum            'C84 H108 Ag12 Cl12 F12 N8 O8 S8'
_chemical_formula_weight         3562.10
_space_group_crystal_system      tetragonal
_space_group_IT_number           121
_space_group_name_Hall           'I -4 2'
_space_group_name_H-M_alt        'I -4 2 m'
_atom_sites_solution_hydrogens   geom
_atom_sites_solution_primary     direct
_cell_angle_alpha                90
_cell_angle_beta                 90
_cell_angle_gamma                90
_cell_formula_units_Z            2
_cell_length_a                   17.1887(3)
_cell_length_b                   17.1887(3)
_cell_length_c                   20.4219(19)
_cell_measurement_reflns_used    1745
_cell_measurement_temperature    100.00(5)
_cell_measurement_theta_max      27.1300
_cell_measurement_theta_min      3.7260
_cell_volume                     6033.7(6)
_computing_cell_refinement
;
CrysAlisPro, Agilent Technologies,
Version 1.171.36.32 (release 02-08-2013 CrysAlis171 .NET)
(compiled Aug  2 2013,16:46:58)
;
_computing_data_collection
;
CrysAlisPro, Agilent Technologies,
Version 1.171.36.32 (release 02-08-2013 CrysAlis171 .NET)
(compiled Aug  2 2013,16:46:58)
;
_computing_data_reduction
;
CrysAlisPro, Agilent Technologies,
Version 1.171.36.32 (release 02-08-2013 CrysAlis171 .NET)
(compiled Aug  2 2013,16:46:58)
;
_computing_molecular_graphics    'Olex2 (Dolomanov et al., 2009)'
_computing_publication_material  'Olex2 (Dolomanov et al., 2009)'
_computing_structure_refinement  'ShelXL (Sheldrick, 2015)'
_computing_structure_solution    'ShelXS (Sheldrick, 2008)'
_diffrn_ambient_temperature      100.00(5)
_diffrn_detector_area_resol_mean 16.2312
_diffrn_measured_fraction_theta_full 0.996
_diffrn_measured_fraction_theta_max 0.878
_diffrn_measurement_details
;
#__ type_ start__ end____ width___ exp.time_
  1 omega  -52.00   40.00   1.0000   75.0000
omega____ theta____ kappa____ phi______ frames
    -       19.6323  -19.0000   90.0000 92

#__ type_ start__ end____ width___ exp.time_
  2 omega   60.00   86.00   1.0000   75.0000
omega____ theta____ kappa____ phi______ frames
    -       19.6323  178.0000   60.0000 26
;
_diffrn_measurement_device_type  'Xcalibur, Eos, Gemini'
_diffrn_measurement_method       '\w scans'
_diffrn_orient_matrix_UB_11      -0.0271675000
_diffrn_orient_matrix_UB_12      0.0114015000
_diffrn_orient_matrix_UB_13      -0.0243779000
_diffrn_orient_matrix_UB_21      -0.0171095000
_diffrn_orient_matrix_UB_22      -0.0375087000
_diffrn_orient_matrix_UB_23      0.0010956000
_diffrn_orient_matrix_UB_31      -0.0259524000
_diffrn_orient_matrix_UB_32      0.0128426000
_diffrn_orient_matrix_UB_33      0.0247087000
_diffrn_radiation_monochromator  graphite
_diffrn_radiation_type           MoK\a
_diffrn_radiation_wavelength     0.71073
_diffrn_reflns_av_R_equivalents  0.0465
_diffrn_reflns_av_unetI/netI     0.0765
_diffrn_reflns_Laue_measured_fraction_full 0.996
_diffrn_reflns_Laue_measured_fraction_max 0.878
_diffrn_reflns_limit_h_max       17
_diffrn_reflns_limit_h_min       -21
_diffrn_reflns_limit_k_max       23
_diffrn_reflns_limit_k_min       -23
_diffrn_reflns_limit_l_max       27
_diffrn_reflns_limit_l_min       -13
_diffrn_reflns_number            7208
_diffrn_reflns_point_group_measured_fraction_full 0.983
_diffrn_reflns_point_group_measured_fraction_max 0.831
_diffrn_reflns_theta_full        25.250
_diffrn_reflns_theta_max         29.162
_diffrn_reflns_theta_min         2.831
_diffrn_source                   'Enhance (Mo) X-ray Source'
_exptl_absorpt_coefficient_mu    2.373
_exptl_absorpt_correction_T_max  1.00000
_exptl_absorpt_correction_T_min  0.96296
_exptl_absorpt_correction_type   multi-scan
_exptl_absorpt_process_details
;
CrysAlisPro, Agilent Technologies,
Version 1.171.36.32 (release 02-08-2013 CrysAlis171 .NET)
(compiled Aug  2 2013,16:46:58)
Empirical absorption correction using spherical harmonics,
 implemented in SCALE3 ABSPACK scaling algorithm.
;
_exptl_crystal_colour            colourless
_exptl_crystal_colour_primary    colourless
_exptl_crystal_density_diffrn    1.961
_exptl_crystal_description       block
_exptl_crystal_F_000             3472
_exptl_crystal_size_max          0.15
_exptl_crystal_size_mid          0.12
_exptl_crystal_size_min          0.08
_refine_diff_density_max         0.940
_refine_diff_density_min         -0.738
_refine_diff_density_rms         0.137
_refine_ls_abs_structure_details
;
 Flack x determined using 948 quotients [(I+)-(I-)]/[(I+)+(I-)]
 (Parsons and Flack (2004), Acta Cryst. A60, s61).
;
_refine_ls_abs_structure_Flack   -0.05(4)
_refine_ls_extinction_coef       .
_refine_ls_extinction_method     none
_refine_ls_goodness_of_fit_ref   1.066
_refine_ls_hydrogen_treatment    constr
_refine_ls_matrix_type           full
_refine_ls_number_parameters     233
_refine_ls_number_reflns         3542
_refine_ls_number_restraints     101
_refine_ls_restrained_S_all      1.073
_refine_ls_R_factor_all          0.0827
_refine_ls_R_factor_gt           0.0526
_refine_ls_shift/su_max          0.000
_refine_ls_shift/su_mean         0.000
_refine_ls_structure_factor_coef Fsqd
_refine_ls_weighting_details
;
 w=1/[\s^2^(Fo^2^)+(0.0528P)^2^+13.2670P]
 where P=(Fo^2^+2Fc^2^)/3
;
_refine_ls_weighting_scheme      calc
_refine_ls_wR_factor_gt          0.1107
_refine_ls_wR_factor_ref         0.1251
_reflns_Friedel_coverage         0.735
_reflns_Friedel_fraction_full    0.967
_reflns_Friedel_fraction_max     0.774
_reflns_number_gt                2659
_reflns_number_total             3542
_reflns_threshold_expression     'I > 2\s(I)'
_cod_data_source_file            nchem.2718-s12.cif
_cod_data_source_block           ag12bpy_chloroform
_cod_database_code               1551425
_chemical_oxdiff_formula         C1H1O1N1S1Ag1
_shelx_space_group_comment
;
The symmetry employed for this shelxl refinement is uniquely defined
by the following loop, which should always be used as a source of
symmetry information in preference to the above space-group names.
They are only intended as comments.
;
_shelx_estimated_absorpt_t_max   0.833
_shelx_estimated_absorpt_t_min   0.717
_reflns_odcompleteness_completeness 99.72
_reflns_odcompleteness_iscentric 1
_reflns_odcompleteness_theta     26.32
_olex2_refinement_description
;
1. Fixed Uiso
 At 1.2 times of:
  All C(H) groups
 At 1.5 times of:
  All C(H,H,H) groups
2. Restrained distances
 C2-C1 = C3-C1
 1.53 with sigma of 0.01
 C8-F3
 1.35 with sigma of 0.02
 O1-C7 = C7-O2
 1.21 with sigma of 0.01
 C7-C8
 1.54 with sigma of 0.01
 O1-C8 = C8-O2
 2.4 with sigma of 0.01
 C14-Cl1 \\sim C14-Cl2 \\sim C14-Cl3
 with sigma of 0.02
 F1-F2 \\sim F2-F3 \\sim F1-F3
 with sigma of 0.02
 F1-C8 \\sim F3-C8 \\sim F2-C8
 with sigma of 0.01
3. Uiso/Uaniso restraints and constraints
Uanis(O1) \\sim Ueq, Uanis(O2) \\sim Ueq: with sigma of 0.005 and sigma for
terminal atoms of 0.01
Uanis(C2) \\sim Ueq, Uanis(C3) \\sim Ueq, Uanis(C4) \\sim Ueq, Uanis(C6) \\sim
Ueq, Uanis(C5) \\sim Ueq, Uanis(C7) \\sim Ueq, Uanis(C8) \\sim Ueq, Uanis(C14)
\\sim Ueq, Uanis(F1) \\sim Ueq, Uanis(F2) \\sim Ueq, Uanis(F3) \\sim Ueq,
Uanis(Cl1) \\sim Ueq: with sigma of 0.01 and sigma for terminal atoms of 0.02
Uanis(Cl2) = Uanis(Cl3)
4. Others
 Fixed Sof: Ag2(0.5) Ag2B(0.5) Ag3(0.25) H3A(0.5) H3B(0.5) H3C(0.5) H6A(0.5)
 H6B(0.5) H6C(0.5) O1(0.5) O2(0.5) C7(0.5) C8(0.5) F1(0.5) F2(0.5) F3(0.5)
 Cl1(0.5) Cl2(0.5) Cl3(0.5) C14(0.5) H14(0.5)
5.a Ternary CH refined with riding coordinates:
 C14(H14)
5.b Aromatic/amide H refined with riding coordinates:
 C9(H9), C10(H10), C12(H12), C13(H13)
5.c Idealised Me refined as rotating group:
 C2(H2A,H2B,H2C), C3(H3A,H3B,H3C), C5(H5A,H5B,H5C), C6(H6A,H6B,H6C)
Comments: The silver atom (Ag2) was found to be disordered over 
two sites with the same occupancy of 0.5. The trifluoroacetate 
anion was also disordered; however, only the two majorities 
related by symmetry were assigned for clarity, and their 
occupancies were each set to 0.5. The geometry was constrained 
with similar C-F bonds and C-O bonds using "SADI 0.01" 
and "SADI", respectively. The "PART -1" command was 
applied to suppress the symmetry according to the chemistry. 
The same disorder was also exhibited by chloroform. It 
was treated the same manner as the trifluoroacetate. 
The geometry of the groups involved in the disorder 
was restrained using "DFIX" or "SADI" based on the 
chemistry, and their ADPs were restrained with strict 
"ISOR" commands and constrained with "EADP" for 
the atoms very close to each other.
;
_shelx_res_file
;
TITL A in I-42m
CELL 0.71073 17.1887 17.1887 20.4219 90 90 90
ZERR 2 0.0003 0.0003 0.0019 0 0 0
LATT -2
SYMM +Y,-X,-Z
SYMM -X,-Y,+Z
SYMM -Y,+X,-Z
SYMM +X,-Y,-Z
SYMM -X,+Y,-Z
SYMM -Y,-X,+Z
SYMM +Y,+X,+Z
SFAC C H Ag Cl F N O S
UNIT 168 216 24 24 24 16 16 16
DFIX 1.53 0.01 C2 C1 C3 C1
DFIX 1.35 C8 F3
DFIX 1.21 0.01 O1 C7 C7 O2
DFIX 1.54 0.01 C7 C8
DFIX 2.4 0.01 O1 C8 C8 O2
SADI C14 Cl1 C14 Cl2 C14 Cl3
SADI F1 F2 F2 F3 F1 F3
SADI 0.01 F1 C8 F3 C8 F2 C8
ISOR 0.005 0.01 O1 O2
ISOR 0.01 0.02 C2 C3 C4 C6 C5 C7 C8 C14 F1 F2 F3 Cl1
EADP Cl2 Cl3

L.S. 19
PLAN  2
SIZE 0.15 0.12 0.08
TEMP -173.15(5)
BIND O1 Ag2
BIND O1 Ag2B
BOND $H
MORE -1
HTAB
CONF
fmap 2
acta 50.5
OMIT 0 2 4
OMIT 3 3 2
OMIT -5 5 6
REM <olex2.extras>
REM <HklSrc "%.\\Ag12bpy_Chloroform.hkl">
REM </olex2.extras>

WGHT    0.052800   13.267000
FVAR       0.04396
AG1   3    0.500000    0.500000    0.203098    10.25000    0.01291    0.01291 =
         0.03402    0.00000    0.00000    0.00011
PART 1
AG2   3    0.472351    0.656660    0.154080    10.50000    0.02466    0.01671 =
         0.03682    0.00065    0.00090    0.00194
PART 0
PART 2
AG2B  3    0.471049    0.663645    0.174256    10.50000    0.02281    0.01478 =
         0.04306   -0.00379   -0.00522    0.00503
PART 0
AG3   3    0.416216    0.500000    0.000000    10.25000    0.01804    0.02178 =
         0.03260   -0.00796    0.00000    0.00000
S1    8    0.400271    0.400271    0.198501    10.50000    0.01620    0.01620 =
         0.03507    0.00294    0.00294   -0.00136
C1    1    0.374982    0.374982    0.284611    10.50000    0.03538    0.03538 =
         0.02829    0.00589    0.00589   -0.00561
C2    1    0.288667    0.387784    0.291580    11.00000    0.02866    0.10085 =
         0.05944    0.00535    0.01055   -0.00783
AFIX 137
H2A   2    0.276399    0.442351    0.282261    11.00000   -1.50000
H2B   2    0.272593    0.375111    0.336369    11.00000   -1.50000
H2C   2    0.260864    0.354218    0.260645    11.00000   -1.50000
AFIX   0
C3    1    0.422082    0.422082    0.333368    10.50000    0.06691    0.06691 =
         0.03614   -0.00504   -0.00504   -0.01878
PART -1
AFIX 137
H3A   2    0.393931    0.424980    0.375027    10.50000   -1.50000
H3B   2    0.430145    0.474713    0.316208    10.50000   -1.50000
H3C   2    0.472592    0.396975    0.340359    10.50000   -1.50000
AFIX   0
PART 0
S2    8    0.398542    0.601458    0.070258    10.50000    0.04742    0.04742 =
         0.02484   -0.00174    0.00174    0.02737
C4    1    0.330327    0.669673    0.030970    10.50000    0.03941    0.03941 =
         0.02909    0.00446   -0.00446    0.01610
C5    1    0.375677    0.728627   -0.009472    11.00000    0.06065    0.08442 =
         0.09632    0.04453    0.02219    0.03150
AFIX 137
H5A   2    0.414955    0.753720    0.018165    11.00000   -1.50000
H5B   2    0.339913    0.768081   -0.026617    11.00000   -1.50000
H5C   2    0.401362    0.702038   -0.046004    11.00000   -1.50000
AFIX   0
C6    1    0.285134    0.714866    0.083418    10.50000    0.06362    0.06362 =
         0.05882    0.00278   -0.00278    0.04482
PART -1
AFIX 137
H6A   2    0.282663    0.683959    0.123689    10.50000   -1.50000
H6B   2    0.232273    0.725267    0.067714    10.50000   -1.50000
H6C   2    0.311601    0.764237    0.092350    10.50000   -1.50000
AFIX   0
O1    7    0.357413    0.665483    0.248041    10.50000    0.06752    0.06363 =
         0.06798   -0.00381    0.00442    0.01327
O2    7    0.417212    0.726601    0.320983    10.50000    0.07494    0.09080 =
         0.07057    0.01075    0.00886   -0.00318
C7    1    0.360982    0.689390    0.302852    10.50000    0.05584    0.05552 =
         0.06096    0.01913   -0.01665    0.00866
C8    1    0.291608    0.681605    0.350280    10.50000    0.04023    0.03122 =
         0.02784   -0.00592   -0.00983    0.00581
F1    5    0.243661    0.736656    0.335895    10.50000    0.08023    0.12520 =
         0.10664    0.00464    0.01513    0.05405
F2    5    0.323362    0.690714    0.407136    10.50000    0.14490    0.09838 =
         0.06911   -0.03249   -0.04775   -0.01817
F3    5    0.258640    0.614585    0.344178    10.50000    0.10055    0.14894 =
         0.15408    0.03897    0.03616   -0.05690
PART 0
N1    6    0.483808    0.793928    0.168268    11.00000    0.02808    0.02487 =
         0.05762    0.00442    0.00168    0.01054
C9    1    0.550388    0.829645    0.149424    11.00000    0.03719    0.02706 =
         0.05539   -0.00896    0.00362    0.01068
AFIX  43
H9    2    0.593361    0.798200    0.136964    11.00000   -1.20000
AFIX   0
C10   1    0.558824    0.908782    0.147442    11.00000    0.03005    0.02634 =
         0.07407    0.00712    0.01721    0.00435
AFIX  43
H10   2    0.607258    0.930754    0.134786    11.00000   -1.20000
AFIX   0
C11   1    0.496853    0.957454    0.163864    11.00000    0.02840    0.02391 =
         0.05588    0.00191   -0.00036    0.00639
C12   1    0.427297    0.921513    0.181739    11.00000    0.02654    0.02457 =
         0.08465    0.00203   -0.00252    0.00912
AFIX  43
H12   2    0.382624    0.951865    0.191618    11.00000   -1.20000
AFIX   0
C13   1    0.424051    0.841576    0.184920    11.00000    0.02626    0.02791 =
         0.06059   -0.00611   -0.00820    0.00794
AFIX  43
H13   2    0.377075    0.818336    0.199685    11.00000   -1.20000
AFIX   0

PART -1
CL1   4    0.842173    0.998505   -0.001103    10.50000    0.12236    0.18597 =
         0.10281    0.01367    0.04254   -0.04865
CL2   4    0.710368    1.082956    0.029625    10.50000    0.13344    0.07231 =
         0.13269   -0.04016   -0.02607    0.01088
CL3   4    0.684946    0.932900   -0.026205    10.50000    0.13344    0.07231 =
         0.13269   -0.04016   -0.02607    0.01088
C14   1    0.745650    0.983224    0.032246    10.50000    0.08055    0.06763 =
         0.07589   -0.00217    0.00790   -0.00788
AFIX  13
H14   2    0.745343    0.959646    0.077011    10.50000   -1.20000
AFIX   0
HKLF 4

REM  A in I-42m
REM R1 =  0.0526 for    2659 Fo > 4sig(Fo)  and  0.0827 for all    3542 data
REM    233 parameters refined using    101 restraints

END

WGHT      0.0528     13.2369

REM Instructions for potential hydrogen bonds
EQIV $1 -y+1, -x+1, z
HTAB C2 O2_$1
EQIV $2 y-1/2, -x+1/2, -z+1/2
HTAB C2 F1_$2
EQIV $3 x-1/2, y-1/2, z+1/2
HTAB C3 Cl1_$3
EQIV $4 -x+1, -y+2, z
HTAB C5 Cl2_$4
EQIV $5 y-1, x, z
HTAB C6 Cl2_$5
HTAB C6 Cl2_$4

REM Highest difference peak  0.940,  deepest hole -0.738,  1-sigma level  0.137
Q1    1   0.3984  0.6966  0.2530  11.00000  0.05    0.94
Q2    1   0.6207  1.0000  0.0000  10.50000  0.05    0.65
;
_shelx_res_checksum              33146
_shelx_hkl_file
;
   0   0   4    1.51    0.63
   0   0   6 3716.45   51.36
   0   0  -8  204.90    5.32
   0   0   8  201.21    5.38
   0   0  10   -0.05    0.89
   0   0  12  405.16    9.65
   0   0  14   23.00    2.40
   0   0  16    2.63    1.39
   0   0  18   10.33    2.09
   0   0  20   26.13    3.06
   0   0  22   11.55    2.25
   0   0  24   11.02    2.39
  -1   0   3  549.55    8.10
   0  -1   3  528.48    8.50
   1   0   3  526.48    8.59
   0   1   3  531.49    8.24
   1   0  -5  305.73    5.67
  -1   0   5  296.84    5.71
   1   0   5  302.03    6.16
   0   1   5  296.68    5.83
   0  -1   5  294.79    6.05
   0  -1   7   27.37    1.92
   0  -1  -7   28.51    1.81
   1   0  -7   26.98    1.69
   1   0   7   27.73    1.98
  -1   0   7   29.00    1.80
   0   1   7   26.35    1.75
   0  -1   9  100.43    3.88
   1   0   9  107.19    4.04
  -1   0   9  107.65    3.83
   0   1   9  104.01    3.78
   0  -1  -9  105.07    3.76
   1   0  -9   93.78    3.52
   0   1  11   66.42    3.30
   1   0  11   71.57    3.65
  -1   0  11   74.83    3.51
   0  -1  11   76.75    3.75
   1   0  13   37.73    2.90
  -1   0  13   39.18    2.81
   0   1  13   36.60    2.74
   0  -1  13   40.02    3.00
   0   1  15   18.88    2.17
  -1   0  15   15.84    1.98
   1   0  15   17.02    2.31
   0  -1  15   14.70    2.03
   1   0  17   -0.17    1.26
   0  -1  17    0.70    1.23
  -1   0  17    1.94    1.36
   0   1  17   -0.56    1.20
   0   1  19   16.88    2.41
  -1   0  19   19.19    2.64
   1   0  19   16.35    2.52
   0  -1  19   18.32    2.67
   0   1  21    0.94    1.39
   1   0  21   -0.70    1.47
  -1   0  21   -1.04    1.35
   0  -1  21   -1.41    1.62
  -1   0  23    1.65    1.45
   1   0  23    5.81    2.10
   0  -1  23    4.15    1.86
   0  -1  25    5.61    2.23
  -1   0  25   13.47    2.68
   1  -1  26    4.38    2.13
   1  -1  24    7.08    2.41
   1  -1  22    7.30    2.09
  -1   1  22    5.46    2.04
  -1   1  20   16.96    2.43
   1  -1  20   19.98    2.80
  -1   1  18    9.88    1.93
   1  -1  18    5.47    1.68
   1  -1  16    5.72    1.65
  -1   1  16    3.84    1.42
  -1   1  14   48.42    3.15
   1  -1  14   49.07    3.42
  -1   1  12   28.70    2.26
   1  -1  12   25.35    2.35
   1  -1  10   75.25    3.65
  -1   1  10   72.07    3.13
  -1   1   8   15.53    1.37
   1   1  -8   15.48    1.44
  -1  -1  -8   14.40    1.50
   1  -1   8   16.50    1.67
   1  -1   6  153.52    4.29
   1   1  -6  153.02    3.96
  -1   1   6  149.42    3.76
   1  -1   4   77.75    2.52
  -1   1   4   77.60    2.10
  -1  -1   4   82.01    2.41
   1   1   4   80.80    2.51
   1  -1  -4   83.84    2.13
   1  -1  -6  170.84    4.00
   1   1   6  165.78    4.41
  -1  -1   6  165.29    4.30
   1  -1  -8   21.30    1.56
  -1  -1   8   17.60    1.62
   1   1   8   20.44    1.71
  -1  -1  10   74.84    3.37
   1  -1 -10   72.93    3.19
   1   1  10   76.51    3.48
  -1  -1  12   25.33    2.30
   1   1  12   27.67    2.36
   1   1  14   51.58    3.41
  -1  -1  14   57.13    3.49
   1   1  16    5.19    1.59
  -1  -1  16    3.24    1.41
   1   1  18    5.48    1.66
  -1  -1  18    6.37    1.78
   1   1  20   21.20    2.79
  -1  -1  20   16.17    2.56
  -1  -1  22    6.15    2.05
  -1  -1  24    6.95    2.01
  -1  -1  26    5.02    2.10
   0   2   2   55.07    1.59
   2   0   2   53.67    1.76
  -2   0   4    4.81    0.65
   0  -2   4    4.79    0.89
   2   0  -4    5.51    0.63
   2   0   4    4.75    0.87
   0  -2   6  317.42    6.94
   0  -2  -6  333.14    6.60
  -2   0   6  320.86    6.22
   2   0  -6  324.82    6.11
   2   0   6  318.98    7.04
   0  -2   8   17.51    1.76
  -2   0   8   17.56    1.54
   2   0  -8   16.99    1.47
   0  -2  -8   17.83    1.55
   0   2  -8   17.09    1.67
   0   2   8   19.12    1.62
   2   0   8   17.54    1.85
  -2   0  10   37.73    2.29
   0   2  10   33.40    2.28
   0  -2  10   37.60    2.52
   2   0 -10   33.26    2.08
   2   0  10   37.36    2.59
   0   2  12    8.34    1.45
   2   0  12    8.30    1.67
   0  -2  12   10.60    1.87
  -2   0  12    8.23    1.47
   0  -2  14   31.54    2.86
   0   2  14   32.16    2.64
   2   0  14   32.17    2.87
  -2   0  14   32.08    2.62
   2   0  16    7.10    1.75
   0  -2  16   10.86    2.04
   0   2  16    8.05    1.75
  -2   0  16    9.87    1.78
   2   0  18    8.44    2.06
  -2   0  18    4.77    1.55
   0  -2  18    3.89    1.88
   2   0  20   19.22    2.82
  -2   0  20   16.92    2.41
   0  -2  20   17.95    3.00
  -2   0  22    0.66    1.28
   2   0  22   -0.43    1.47
   0  -2  22    3.31    1.91
   0  -2  24   -1.70    1.88
  -2   0  24    4.90    1.88
   0  -2  26    0.48    1.66
   1  -2  27    0.61    1.66
   1  -2  25    2.01    1.69
   2  -1  25    6.20    2.25
   1  -2  23    4.22    1.95
   2  -1  23    3.12    1.91
   1  -2  21    3.30    1.79
   2  -1  21   -0.01    1.55
  -2   1  21   -0.41    1.20
  -2   1  19   12.68    2.15
   1  -2  19    9.99    2.17
   2  -1  19   11.09    2.28
  -1   2  17    4.37    1.46
  -2   1  17    7.76    1.64
   2  -1  17    5.70    1.70
   1  -2  17    5.42    1.73
   2  -1  15   43.03    3.44
  -2   1  15   37.22    2.90
   1  -2  15   39.47    3.29
  -1   2  15   38.01    2.93
   1  -2  13   12.33    1.83
  -1   2  13   12.74    1.63
   2  -1  13   16.42    2.14
  -2   1  13   14.71    1.73
  -1   2  11   84.87    3.53
   2  -1  11   83.06    4.05
  -2   1  11   85.08    3.50
   1  -2  11   90.54    4.21
   1  -2   9   51.77    2.94
   2  -1   9   58.13    3.09
   2   1  -9   54.34    2.59
  -1   2   9   50.63    2.52
  -2   1   9   53.50    2.48
  -2   1   7   22.17    1.45
   1  -2   7   25.06    1.95
  -1  -2  -7   27.15    1.83
   1   2  -7   23.41    1.70
  -1   2   7   25.24    1.56
   2   1  -7   26.12    1.62
   2  -1   7   25.15    1.97
   2   1  -5  180.01    4.02
   2  -1   5  175.75    4.61
   1  -2   5  175.49    4.54
  -2   1   5  174.62    3.66
   1  -2   3   42.82    1.76
   2  -1   3   44.56    1.84
  -2   1   1  179.66    3.45
  -1  -2   3   41.72    1.68
  -2  -1   3   43.32    1.52
  -1  -2   5  173.69    4.27
   2   1   5  165.55    4.40
   2  -1  -5  176.30    3.59
   1  -2  -5  177.92    3.83
  -2  -1   5  175.70    4.00
  -1  -2   7   25.55    1.79
   2   1   7   26.58    1.94
   2  -1  -7   21.24    1.37
  -2  -1   7   22.75    1.62
   1  -2  -7   27.15    1.62
  -1  -2   9   54.82    2.88
   2   1   9   54.92    2.93
   2  -1  -9   54.65    2.42
   1   2   9   51.79    2.72
   1  -2  -9   53.14    2.54
  -2  -1   9   58.62    2.78
  -1  -2  11   88.80    4.00
   1   2  11   86.96    3.86
   2   1  11   82.76    3.93
  -2  -1  11   81.72    3.67
   2   1  13   13.83    1.92
  -2  -1  13   17.18    1.92
  -1  -2  13   12.84    1.79
   1   2  13   13.86    1.86
   2   1  15   40.79    3.25
  -1  -2  15   40.27    3.23
  -2  -1  15   36.46    2.95
   1   2  15   34.56    2.99
  -1  -2  17    4.20    1.71
   2   1  17    2.17    1.32
  -2  -1  17    5.65    1.60
   2   1  19   11.26    2.19
  -1  -2  19    6.04    1.81
  -2  -1  19   12.53    2.25
  -2  -1  21    0.96    1.41
  -1  -2  21    0.23    1.52
  -1  -2  23    1.71    1.47
  -2  -1  23    0.41    1.40
  -1  -2  25    6.74    2.35
  -2  -1  25    4.76    1.91
  -1  -2  27    4.74    2.11
   2  -2  26    2.86    2.15
   2  -2  24    0.87    1.66
   2  -2  22    1.37    1.79
   2  -2  20   18.53    2.77
   2  -2  18    3.58    1.54
  -2   2  18    6.02    1.51
   2  -2  16    5.61    1.84
  -2   2  16   11.09    1.72
  -2   2  14   60.75    3.28
   2  -2  14   58.00    3.83
   2  -2  12  105.16    4.80
  -2   2  12  102.31    3.98
  -2   2  10  126.60    4.11
   2  -2  10  134.80    5.09
   2   2  -8   29.04    1.93
   2  -2   8   28.59    2.18
  -2   2   8   28.49    1.68
   2   2  -6  116.21    3.44
   2  -2   6  111.65    3.81
  -2   2   6  107.79    2.81
   2  -2   4   18.57    1.50
  -2   2   2   72.39    2.29
   2  -2   2   69.51    2.16
   2  -2   0    4.33    0.46
  -2  -2   4   20.14    1.32
   2  -2  -4   18.31    0.85
  -2  -2   6  113.17    3.48
   2  -2  -6  110.73    2.90
  -2  -2   8   31.29    2.00
   2  -2  -8   31.51    1.72
  -2  -2  10  134.59    4.69
   2  -2 -10  125.58    4.10
  -2  -2  12  106.27    4.44
  -2  -2  14   56.74    3.48
  -2  -2  16    9.83    2.02
  -2  -2  18    1.76    1.46
  -2  -2  20   23.29    2.85
  -2  -2  22    0.97    1.67
  -2  -2  24    6.81    2.18
  -2  -2  26    0.52    1.64
  -3   0   1    5.20    0.56
   0  -3   1    5.89    0.75
   0  -3   3  521.20    8.97
  -3   0   3  507.82    7.65
   3   0   3  533.77    8.99
   3   0   5   93.40    3.31
   3   0  -5   95.77    2.42
  -3   0   5   92.46    2.41
   0  -3   5   88.76    3.13
  -3   0   7    2.13    0.71
   3   0   7    1.61    0.95
   0  -3   7    0.87    0.93
   3   0  -7    2.27    0.71
   0  -3  -7    2.84    0.81
  -3   0   9   17.68    1.48
   3   0   9   20.65    2.08
   0  -3  -9   16.12    1.61
   0  -3   9   21.35    2.02
   3   0  -9   18.07    1.43
   3   0  11   10.37    1.80
   0  -3  11   12.33    1.81
  -3   0  11   10.73    1.41
   0  -3  13    2.03    1.29
  -3   0  13    2.08    1.08
   3   0  13    1.93    1.24
  -3   0  15   19.78    2.13
   0  -3  15   19.57    2.47
   3   0  15   22.57    2.61
   3   0  17    1.15    1.49
  -3   0  17    3.13    1.38
   0  -3  17    2.83    1.63
   0  -3  19   19.78    2.86
   3   0  19   20.97    2.88
  -3   0  19   16.91    2.31
  -3   0  21    3.57    1.63
   0  -3  21    6.00    2.02
   3   0  21    2.29    1.60
  -3   0  23    3.73    1.71
   0  -3  23    1.31    1.61
   0  -3  25    2.32    1.87
   0  -3  27    2.41    2.03
   1  -3  26    1.22    1.78
   3  -1  24    5.21    2.11
   1  -3  24    3.78    2.09
  -3   1  22   -0.25    1.21
   1  -3  22    1.54    1.80
   3  -1  22    2.07    1.81
   1  -3  20    7.33    1.97
  -3   1  20    9.60    1.97
   3  -1  20   10.60    2.46
   1  -3  18    2.75    1.60
  -3   1  18    3.13    1.27
   3  -1  18    2.57    1.62
  -3   1  16    6.54    1.48
   1  -3  16   11.41    2.18
   3  -1  16   11.92    2.26
   1  -3  14   18.74    2.40
   3  -1  14   17.88    2.36
  -3   1  14   21.85    2.03
   3  -1  12   43.31    3.19
   1  -3  12   33.96    2.83
  -3   1  12   42.93    2.54
   3  -1  10  102.05    4.40
   3   1 -10   94.42    3.54
  -3   1  10   95.39    3.44
   1  -3  10   91.86    4.23
   1  -3   8   44.70    2.71
   3  -1   8   46.10    2.80
   3   1  -8   41.56    2.12
  -1  -3  -8   42.46    2.40
  -3   1   8   43.08    1.98
   3   1  -6   11.87    1.04
   3  -1   6   11.76    1.40
  -3   1   6   11.65    0.89
   1  -3   6   11.74    1.42
  -1  -3  -6   10.35    1.19
  -3   1   4   90.06    1.89
   3  -1   4   93.14    3.11
   1  -3   4   93.76    3.11
  -3   1   2  123.43    3.11
   3  -1   2  123.96    3.09
   1  -3   2  124.35    3.19
  -1   3   2  121.08    3.12
  -1  -3  -2  127.03    2.66
   3  -1   0   44.16    1.29
   1  -3   0   41.16    1.48
  -3   1   0   42.08    1.30
   1   3   2  121.79    2.60
  -1  -3   2  118.79    3.14
  -3  -1   4   85.86    2.42
  -1  -3   4   86.48    2.92
   3  -1  -4   88.08    1.83
  -1  -3   6   11.05    1.34
   3  -1  -6   10.98    0.83
   1  -3  -6   11.52    1.04
  -3  -1   6   10.71    1.11
   3   1   6   11.29    1.35
   3   1   8   44.45    2.57
   1  -3  -8   43.67    2.19
   3  -1  -8   41.15    1.88
  -3  -1   8   40.52    2.13
  -1  -3   8   39.52    2.49
   3  -1 -10   90.71    3.24
  -3  -1  10   94.95    3.73
  -1  -3  10   92.69    4.11
   1  -3 -10   99.10    3.66
   3   1  10   88.88    4.02
  -3  -1  12   39.36    2.57
  -1  -3  12   42.40    3.03
   3   1  12   40.42    2.92
  -1  -3  14   19.73    2.37
   3   1  14   19.12    2.34
  -3  -1  14   21.35    2.19
  -1  -3  16    5.13    1.70
   3   1  16    5.57    1.73
  -3  -1  16    5.57    1.62
   3   1  18    2.75    1.64
  -3  -1  18    2.77    1.34
  -1  -3  18    3.30    1.44
  -1  -3  20    8.68    2.20
  -3  -1  20    5.92    1.79
  -3  -1  22   -1.06    1.49
  -1  -3  22    5.17    2.08
  -3  -1  24   -0.76    1.54
  -1  -3  24   -0.36    1.66
  -1  -3  26    4.89    2.21
   3  -2  25    3.91    1.92
   2  -3  25    7.39    2.40
   3  -2  23   -1.48    1.75
   2  -3  23   -0.94    1.53
   3  -2  21    2.46    1.83
   2  -3  21    5.59    2.01
  -3   2  19    4.14    1.32
   3  -2  19    7.34    1.96
   2  -3  19    4.35    1.60
   3  -2  17    5.61    1.85
   2  -3  17    1.40    1.47
  -3   2  17    3.56    1.24
   2  -3  15   88.22    5.10
  -3   2  15   87.95    4.03
   3  -2  15   92.50    5.10
   2  -3  13   32.15    2.97
   3  -2  13   33.03    3.01
  -3   2  13   29.19    2.24
  -3   2  11   36.52    2.18
   2  -3  11   38.34    2.92
   3  -2  11   38.60    3.02
   3   2  -9  274.34    6.70
   2  -3   9  301.43    7.75
  -3   2   9  278.85    6.06
   3  -2   9  299.67    7.85
   3  -2   7   96.47    3.82
   2  -3   7   95.29    3.82
  -2  -3  -7   92.54    3.53
  -3   2   7   85.94    2.54
   3   2  -7   92.43    3.17
   2   3  -7   87.31    3.30
   3  -2   5   20.02    1.63
   3   2  -5   22.47    1.41
   2  -3   5   22.94    1.78
   2  -3   3  416.22    7.72
  -3   2   3  417.22    7.78
  -2  -3  -3  420.50    6.67
  -2   3   3  410.38    7.80
   3  -2   3  413.59    7.70
   2  -3   1    9.57    0.92
  -3   2   1    6.33    0.85
   3  -2   1    8.41    0.81
   2  -3  -1   11.00    0.72
  -2  -3   3  416.06    7.66
   2  -3  -5   23.97    1.17
  -3  -2   5   24.39    1.52
   3  -2  -5   23.82    0.95
  -2  -3   5   25.16    1.67
   3  -2  -7   93.47    2.63
  -2  -3   7   95.98    3.49
   2  -3  -7   96.95    2.91
  -3  -2   7   86.82    3.15
  -2  -3   9  297.08    7.26
   3  -2  -9  292.68    6.18
  -3  -2   9  283.77    6.92
   2  -3  -9  291.41    6.46
  -3  -2  11   41.60    2.64
  -2  -3  11   41.79    2.78
   3  -2 -11   36.89    2.15
   2  -3 -11   37.56    2.33
  -2  -3  13   31.27    2.70
  -3  -2  13   31.05    2.58
  -2  -3  15   88.59    4.66
  -3  -2  15   84.99    4.41
  -2  -3  17    3.35    1.64
  -3  -2  17    7.51    1.83
  -3  -2  19    3.69    1.53
  -2  -3  19    4.02    1.61
  -2  -3  21    0.91    1.59
  -3  -2  21    4.00    1.63
  -3  -2  23   -2.65    1.63
  -2  -3  23   -0.58    1.51
  -2  -3  25    2.73    1.76
  -3  -2  25    2.61    1.61
  -2  -3  27    0.74    1.84
   3  -3  26    6.94    2.59
   3  -3  24   -1.01    2.00
   3  -3  22    5.20    1.93
   3  -3  20    5.70    1.86
   3  -3  18   59.91    4.56
   3  -3  16    4.91    1.61
   3  -3  14   11.29    2.05
   3  -3  12  226.09    7.56
   3  -3  10  185.25    6.26
   3  -3   8    1.97    1.15
   3   3  -8    0.11    0.74
   3  -3   6  438.21    9.19
   3   3  -6  425.63    8.41
   3  -3   4  189.00    4.93
  -3   3   2    8.37    1.13
   3  -3   2   10.02    1.03
  -3   3   0   23.56    1.17
   3  -3   0   21.13    1.06
   3  -3  -2   10.58    0.59
  -3  -3   4  188.89    4.65
   3  -3  -6  441.44    7.16
  -3  -3   6  414.78    8.49
  -3  -3   8    0.60    0.98
   3  -3  -8    0.98    0.54
  -3  -3  10  171.01    5.40
   3  -3 -10  158.75    4.39
  -3  -3  12  227.61    6.91
  -3  -3  14   10.89    1.88
  -3  -3  16    5.72    1.63
  -3  -3  18   57.24    4.07
  -3  -3  20    3.71    1.71
  -3  -3  22    3.37    1.68
  -3  -3  24    1.64    1.82
  -3  -3  26    6.72    2.25
  -4   0   0   17.69    0.98
   0  -4   2    1.72    0.90
   4   0  -2    1.26    0.74
   0   4   2    0.71    0.83
   0  -4  -4    1.06    0.72
   4   0   4    1.87    0.79
  -4   0   4    2.67    0.51
   0  -4   4    1.82    0.92
   4   0  -6   99.79    2.67
   0  -4   6  104.51    3.80
  -4   0   6  105.45    2.76
   4   0   6  104.06    3.79
   0  -4  -8    0.06    0.66
   0  -4   8    0.34    0.97
   4   0  -8    0.40    0.60
  -4   0   8    0.60    0.69
   4   0 -10    2.34    0.71
   4   0  10    1.66    1.25
  -4   0  10    3.17    0.92
   0  -4  10    2.38    1.17
   0  -4  12    2.67    1.47
  -4   0  12    2.77    1.02
   4   0  12    1.96    1.42
   0  -4  14    0.42    1.18
  -4   0  14    0.97    1.03
   4   0  14    2.38    1.49
  -4   0  16    6.36    1.56
   0  -4  16    5.63    1.77
   4   0  16    7.47    1.93
  -4   0  18    5.97    1.51
   0  -4  18    3.45    1.56
   4   0  18    1.00    1.42
   0  -4  20    6.47    2.14
   4   0  20    4.15    1.77
  -4   0  20    2.63    1.45
  -4   0  22    1.47    1.40
   0  -4  22    0.46    1.54
   0  -4  24    3.72    1.99
   0  -4  26   -1.36    1.78
   1  -4  25    2.67    2.05
   1  -4  23    1.72    1.76
   4  -1  23    1.34    1.70
   1  -4  21    2.73    1.91
   4  -1  21    4.58    1.89
  -4   1  21    0.66    1.25
   4  -1  19   17.42    2.72
  -4   1  19   10.54    1.98
   1  -4  19   14.61    2.66
   1  -4  17    2.00    1.67
  -4   1  17    1.69    1.13
   4  -1  17   -0.48    1.52
  -4   1  15    9.22    1.58
   4  -1  15   11.07    2.13
   1  -4  15   10.75    2.14
  -4   1  13    5.90    1.19
   4  -1  13    5.26    1.61
   1  -4  13    5.25    1.59
   4  -1  11   22.85    2.38
   1  -4  11   25.92    2.38
  -4   1  11   21.77    1.71
  -4   1   9   92.38    3.02
   4   1  -9   83.54    3.11
   4  -1   9   88.23    4.06
   1  -4   9   92.59    4.10
   4   1  -7   18.28    1.32
  -4   1   7   18.49    1.16
   4  -1   7   21.13    1.93
   1  -4   7   20.40    1.92
   1  -4   5   68.04    2.91
  -1  -4  -5   70.80    2.54
   4  -1   5   70.68    2.94
  -4   1   5   68.29    1.71
  -1   4   3   25.70    1.56
  -1  -4  -3   25.15    1.32
   1  -4   3   27.16    1.77
   4  -1   3   25.90    1.62
   4   1  -1   17.31    0.93
  -4   1   1   17.42    0.81
   4  -1   1   16.62    1.05
  -4   1   1   17.64    1.19
   1  -4   1   16.84    1.24
  -4   1  -1   18.26    1.16
  -1  -4   3   24.95    1.66
   1   4   3   25.01    1.34
  -1  -4   5   65.87    2.87
   4  -1  -5   61.13    1.58
  -4  -1   5   64.32    2.22
  -1  -4   7   17.18    1.73
  -4  -1   7   18.27    1.32
   4  -1  -7   16.42    1.02
   1  -4  -7   17.02    1.42
  -1  -4   9   88.07    3.88
  -4  -1   9   90.26    3.30
   1  -4  -9   84.84    3.32
   4   1   9   95.65    4.08
   4  -1  -9   85.50    2.83
  -1  -4  11   20.53    2.17
  -4  -1  11   23.54    1.97
   4  -1 -11   20.18    1.56
   4   1  11   23.52    2.28
  -4  -1  13    5.05    1.25
   4   1  13    6.01    1.48
  -1  -4  13    4.55    1.37
  -4  -1  15   10.29    1.69
  -1  -4  15   13.18    2.08
   4   1  15    6.49    1.60
   4   1  17    2.04    1.50
  -4  -1  17    1.05    1.19
  -1  -4  17    4.40    1.63
  -1  -4  19   15.80    2.64
  -4  -1  19   13.61    2.09
  -1  -4  21   -1.39    1.63
  -4  -1  21    1.54    1.42
  -4  -1  23    1.43    1.34
  -1  -4  23    0.17    1.61
  -1  -4  25    0.45    1.67
  -1  -4  27    3.69    2.23
   2  -4  26    2.41    1.71
   4  -2  24    5.83    2.11
   2  -4  24    0.98    1.79
   2  -4  22    2.58    2.22
   4  -2  22    2.49    1.70
   4  -2  20    0.37    1.43
   2  -4  20    7.96    2.25
   4  -2  18   10.93    2.29
   2  -4  18    7.26    2.16
  -4   2  18    8.61    1.64
   2  -4  16    2.37    1.41
   4  -2  16   -0.73    1.45
  -4   2  16    0.72    1.01
   4  -2  14   14.00    2.23
  -4   2  14   11.31    1.52
   2  -4  14   13.25    2.17
   4  -2  12  119.59    5.35
  -4   2  12  117.51    4.01
   2  -4  12  124.38    5.42
  -4   2  10   80.53    2.88
   4  -2  10   85.66    4.23
   2  -4  10   85.97    4.25
  -4   2   8   19.49    1.19
   4  -2   8   17.71    1.95
   4   2  -8   18.85    1.58
   2  -4   8   19.61    2.00
   2  -4   6  112.00    4.04
   4  -2   6  116.54    4.13
  -4   2   6  102.17    2.31
   2  -4   4  169.90    4.62
  -2  -4  -4  162.21    3.69
   4  -2   4  167.81    4.63
  -2   4   4  162.88    4.51
  -2   4   2   61.44    2.42
   2  -4   2   61.52    2.35
  -4   2   2   61.39    2.37
   4  -2   2   59.84    2.23
   2  -4   0   36.32    1.57
   4  -2   0   36.77    1.39
  -4   2   0   38.49    1.39
   2   4   2   57.95    1.68
  -4   2  -2   57.86    2.21
  -2  -4   4  164.09    4.53
  -4  -2   4  169.60    4.05
   4  -2  -6  105.06    2.30
  -2  -4   6  108.94    3.80
  -4  -2   6  107.72    3.33
   2  -4  -8   17.20    1.35
  -4  -2   8   16.34    1.46
   4  -2  -8   16.08    1.05
  -2  -4   8   19.52    1.85
  -2  -4  10   84.06    3.92
  -4  -2  10   83.19    3.49
   2  -4 -10   90.21    3.34
   4  -2 -10   79.24    2.80
  -4  -2  12  123.07    4.68
   4  -2 -12  113.14    3.87
  -2  -4  12  123.13    5.17
  -2  -4  14   14.18    1.95
  -4  -2  14   11.30    1.74
  -4  -2  16    2.20    1.30
  -2  -4  16    2.55    1.47
  -2  -4  18    6.96    1.92
  -4  -2  18    9.72    1.91
  -4  -2  20    6.46    1.75
  -2  -4  20    5.14    1.86
  -4  -2  22    2.21    1.45
  -2  -4  22    4.00    1.76
  -2  -4  24    2.17    1.73
  -4  -2  24   -2.73    1.86
  -2  -4  26    3.31    2.18
   4  -3  25    1.83    1.98
   3  -4  25    3.07    2.12
   4  -3  23    2.19    1.96
   3  -4  23   -1.15    1.80
   4  -3  21   -2.45    1.88
   3  -4  21   -0.57    1.59
   4  -3  19    3.07    1.76
   3  -4  19    0.49    1.68
   4  -3  17    9.26    2.07
   3  -4  17    8.53    2.12
   3  -4  15   52.74    4.03
   4  -3  15   51.53    3.97
   3  -4  13   50.80    3.75
   4  -3  13   56.07    3.94
   3  -4  11    3.12    1.47
   4  -3  11    2.23    1.27
   4  -3   9  115.67    4.85
   3  -4   9  123.48    4.90
   3  -4   7  153.32    5.17
   4  -3   7  155.47    5.13
   4  -3   5   34.02    2.19
   3  -4   5   37.86    2.31
  -4   3   3  155.76    4.39
  -3  -4  -3  155.86    3.05
   4  -3   3  147.23    4.17
   3  -4   3  156.31    4.23
  -3   4   3  168.14    4.50
   4  -3   1   61.74    2.15
   3  -4   1   59.79    2.19
  -4   3   1   63.56    1.70
  -4   3  -1   63.89    2.17
   4  -3  -1   70.17    1.82
   3  -4  -1   72.76    2.05
  -3   4  -1   66.74    2.30
  -4   3  -3  156.68    4.17
  -3  -4   5   36.19    2.13
  -4  -3   5   29.98    1.80
   3  -4  -7  153.96    3.61
   4  -3  -7  153.42    3.22
  -4  -3   7  149.84    4.50
  -3  -4   7  144.96    4.68
  -4  -3   9  114.03    4.11
  -3  -4   9  110.46    4.34
   4  -3  -9  114.30    3.17
   3  -4  -9  117.67    3.51
  -3  -4  11    2.34    1.11
   4  -3 -11    2.46    0.66
  -4  -3  11    0.55    0.88
   3  -4 -11    2.46    0.78
  -3  -4  13   50.83    3.47
  -4  -3  13   61.59    3.52
  -3  -4  15   56.05    3.84
  -4  -3  15   54.44    3.60
  -4  -3  17    5.29    1.74
  -3  -4  17    9.93    1.97
  -3  -4  19    2.22    1.63
  -4  -3  19    0.02    1.27
  -4  -3  21    0.78    1.52
  -3  -4  21    3.12    1.78
  -3  -4  23   -0.16    1.55
  -4  -3  23    0.99    1.40
  -4  -3  25    2.77    1.96
  -3  -4  25    1.90    1.56
   4  -4  24    1.37    2.01
   4  -4  22   16.73    2.94
   4  -4  20    0.65    1.56
   4  -4  18   30.85    3.45
   4  -4  16    1.09    1.58
   4  -4  14    5.39    1.87
   4  -4  12  128.70    5.70
   4  -4  10   84.55    4.30
   4  -4   8  135.69    5.11
   4  -4   6  262.40    6.94
   4  -4   4  235.57    5.96
  -4   4   4  242.22    6.10
   4  -4   2  175.71    4.44
  -4   4   2  178.71    4.91
   4  -4   0   26.45    1.34
  -4   4   0   26.73    1.38
   4  -4  -2  173.05    3.33
  -4   4  -2  168.36    4.28
  -4   4  -4  240.72    5.92
   4  -4  -6  249.80    4.42
  -4  -4   6  249.93    6.22
   4  -4  -8  124.19    3.11
  -4  -4   8  124.03    4.36
   4  -4 -10   85.56    2.88
  -4  -4  10   82.78    3.83
  -4  -4  12  127.63    5.05
   4  -4 -12  114.74    3.84
  -4  -4  14    6.69    1.54
  -4  -4  16    4.44    1.57
  -4  -4  18   34.33    3.25
  -4  -4  20    2.39    1.52
  -4  -4  22   18.87    2.90
  -4  -4  24   -2.84    1.94
  -5   0   1   41.21    1.66
  -5   0  -1   39.36    1.78
   0   5   3  151.10    3.94
   0  -5   3  158.42    4.39
   5   0  -3  148.93    3.88
   0  -5  -5  119.62    3.70
   5   0   5  122.05    4.07
   0  -5   5  121.94    4.12
  -5   0   5  119.25    2.80
   0  -5   7   39.68    2.59
  -5   0   7   38.80    1.68
   5   0   7   38.02    2.57
   0  -5  -7   39.73    2.29
   0  -5   9   30.48    2.47
   5   0  -9   31.49    1.72
  -5   0   9   31.88    1.81
   5   0   9   31.24    2.56
   5   0  11    1.37    1.16
   0  -5  11    0.30    1.10
   5   0 -11    0.80    0.71
  -5   0  11    1.27    0.71
   0  -5  13    0.88    1.28
  -5   0  13    1.80    0.91
   5   0  13    2.30    1.31
  -5   0  15   40.34    2.81
   0  -5  15   35.65    3.28
   5   0  15   36.31    3.32
   5   0  17    1.03    1.53
  -5   0  17    3.10    1.23
   0  -5  17    4.44    1.75
   0  -5  19    6.21    2.02
  -5   0  19    5.91    1.57
   5   0  19    5.69    1.89
  -5   0  21    3.45    1.49
   0  -5  21    1.86    1.78
   0  -5  23    1.01    1.69
   0  -5  25   -2.32    1.98
   1  -5  26    2.86    1.94
   1  -5  24   -0.21    1.86
   5  -1  22    0.45    1.64
   1  -5  22   -1.92    1.72
   1  -5  20    4.48    2.02
   5  -1  20    4.56    2.01
  -5   1  20    6.04    1.64
  -5   1  18    0.74    1.05
   5  -1  18   -1.84    1.50
   1  -5  18    0.83    1.41
  -5   1  16    2.84    1.07
   1  -5  16    5.14    1.95
   5  -1  16    3.79    1.71
   5  -1  14    4.39    1.64
   1  -5  14    4.84    1.66
  -5   1  14    3.18    1.05
   1  -5  12    3.25    1.46
   5  -1  12   -0.06    1.24
  -5   1  12    1.97    0.87
   5  -1  10   18.63    2.12
   1  -5  10   14.78    1.90
  -5   1  10   18.48    1.40
   5   1 -10   18.81    1.52
   5   1  -8    9.02    1.03
   1  -5   8    8.23    1.43
   5  -1   8    7.54    1.48
  -5   1   8    8.29    0.86
  -5   1   6   68.56    1.85
   1  -5   6   73.27    3.34
  -1  -5  -6   68.84    2.72
   5  -1   6   68.49    3.26
  -5   1   4    5.46    0.45
   1  -5   4    5.97    1.25
  -1  -5  -4    7.74    0.96
   5  -1   4    5.14    1.11
  -1   5   4    6.09    1.07
  -5   1   2  113.11    3.31
   5   1  -2  118.61    3.00
   5  -1   2  112.22    3.32
   1  -5   2  119.18    3.59
  -1   5   2  112.58    3.37
  -5  -1   0   96.53    2.30
  -5   1   0   99.39    2.62
  -5   1  -2  117.24    3.39
   5  -1  -2  107.30    3.19
   1   5   2  112.24    3.00
  -1  -5   2  112.10    3.58
   5  -1  -4    6.08    1.07
   1  -5  -4    7.82    1.09
  -1  -5   4    7.50    1.24
  -1  -5   6   67.99    3.16
   1  -5  -6   69.35    2.97
  -5  -1   6   68.16    2.40
  -5  -1   8    8.49    1.06
   5  -1  -8    7.93    0.85
  -1  -5   8    7.25    1.42
   1  -5  -8    6.44    0.99
   5  -1 -10   16.85    1.28
  -5  -1  10   15.75    1.47
  -1  -5  10   16.54    2.03
   5  -1 -12    1.74    0.76
  -1  -5  12   -1.22    1.25
  -5  -1  12    4.12    1.15
  -5  -1  14    3.51    1.14
  -1  -5  14    2.71    1.52
  -5  -1  16    3.46    1.26
  -1  -5  16    4.14    1.57
  -5  -1  18   -0.82    1.27
  -1  -5  18   -0.99    1.59
  -1  -5  20    4.63    1.98
  -5  -1  20    7.97    1.94
  -1  -5  22    0.68    1.53
  -5  -1  22    0.39    1.39
  -1  -5  24    2.89    1.91
  -1  -5  26   -0.54    1.70
   5  -2  25    2.22    2.19
   2  -5  25   -1.43    1.74
   5  -2  23   -1.13    1.92
   2  -5  23    4.19    2.12
   2  -5  21    2.94    1.82
   5  -2  21    0.44    1.78
  -5   2  19    0.95    1.01
   2  -5  19    4.25    2.07
   5  -2  19    3.14    1.91
  -5   2  17    9.37    1.66
   2  -5  17   13.59    2.46
   5  -2  17    8.04    2.10
   2  -5  15    4.26    1.76
  -5   2  15    3.55    1.11
   5  -2  15    2.64    1.62
   5  -2  13   11.25    2.02
  -5   2  13    8.54    1.22
   2  -5  13   10.38    2.07
   2  -5  11    6.22    1.59
   5  -2  11    7.54    1.67
  -5   2  11    6.20    0.95
   5   2  -9    9.00    1.15
   5  -2   9    8.68    1.66
  -5   2   9   10.27    0.93
   2  -5   9    6.25    1.52
   2  -5   7   17.89    1.87
   5  -2   7   23.18    2.17
  -5   2   7   21.21    0.97
  -2  -5  -5   54.65    2.17
   2  -5   5   50.59    2.68
   5  -2   5   53.02    2.74
   2  -5   3   17.82    1.53
  -5   2   3   18.26    1.50
  -2   5   3   15.18    1.56
   5  -2   3   15.80    1.38
  -5   2   1    9.76    1.14
   5   2  -1    8.89    0.73
  -5   2   1   10.07    0.73
   5  -2   1    9.73    0.99
   2  -5   1    9.28    1.09
  -2   5  -1    9.82    1.10
   2  -5  -1    9.65    0.99
  -5   2  -1    9.41    1.00
   2   5   3   14.17    1.06
  -2  -5   3   15.23    1.53
  -5   2  -3   11.83    1.25
  -2  -5   5   48.95    2.63
  -5  -2   5   49.80    2.20
  -2  -5   7   20.34    1.95
   5  -2  -7   16.83    0.85
  -5  -2   7   19.44    1.50
   5  -2  -9    8.27    0.83
  -2  -5   9    9.90    1.62
  -5  -2   9    6.94    1.08
   2  -5  -9   10.94    1.21
   5  -2 -11    6.91    0.96
  -5  -2  11    6.37    1.28
  -2  -5  11    8.88    1.63
  -5  -2  13    8.01    1.45
   5  -2 -13    9.91    1.24
  -2  -5  13    9.28    1.82
  -2  -5  15    5.23    1.73
  -5  -2  15    4.74    1.37
  -2  -5  17    9.45    2.18
  -5  -2  17   12.14    1.89
  -2  -5  19    3.18    1.82
  -5  -2  19    2.65    1.42
  -2  -5  21    0.30    1.57
  -5  -2  21   -0.30    1.36
  -2  -5  23   -3.29    2.13
  -5  -2  23    2.21    1.58
  -2  -5  25    2.37    1.88
  -2  -5  27    1.11    1.81
   5  -3  24    2.95    2.08
   3  -5  24   -0.06    1.95
   5  -3  22    8.59    2.44
   3  -5  22    6.59    2.23
   5  -3  20    0.75    1.62
   3  -5  20    1.60    1.86
   3  -5  18    5.14    2.03
   5  -3  18    5.56    1.97
   3  -5  16    1.98    1.81
   5  -3  16    1.62    1.58
   5  -3  14    6.32    1.81
   3  -5  14    3.77    1.51
   5  -3  12   83.56    4.57
   3  -5  12   79.52    4.56
   5  -3  10   26.56    2.56
   3  -5  10   26.43    2.59
   5  -3   8   61.89    3.49
   3  -5   8   62.31    3.48
  -3  -5  -6   67.71    2.45
   3  -5   6   67.28    3.28
   5  -3   6   67.97    3.34
  -3  -5  -4    7.49    0.78
   5  -3   4    8.09    1.26
  -5   3   4    8.62    1.35
   3  -5   4    6.91    1.18
  -3   5   4    8.05    1.34
  -3   5   2  139.08    4.11
  -5   3   2  128.66    3.99
   3  -5   2  132.09    3.82
  -5   3   2  126.55    2.44
   5  -3   2  135.68    3.74
   3  -5   0   45.24    1.96
  -5   3   0   47.38    1.72
   5  -3   0   46.32    1.74
  -3   5  -2  127.90    3.76
   3   5   2  133.81    2.83
   3  -5  -2  145.36    3.30
  -5   3  -2  132.17    3.70
   5  -3  -2  126.61    2.51
  -3  -5   4    7.40    1.30
  -5   3  -4    7.11    1.17
  -5  -3   6   61.38    2.70
  -3  -5   6   66.08    3.15
  -3  -5   8   58.17    3.16
   3  -5  -8   59.74    2.29
  -5  -3   8   56.48    2.74
   5  -3  -8   52.51    1.65
  -3  -5  10   23.54    2.21
   5  -3 -10   23.75    1.35
  -5  -3  10   25.62    2.06
   3  -5 -10   24.07    1.73
  -5  -3  12   86.05    3.92
  -3  -5  12   74.49    4.07
   5  -3 -12   72.00    2.80
  -3  -5  14    3.51    1.44
  -5  -3  14    4.21    1.21
  -3  -5  16    0.78    1.25
  -5  -3  16    3.90    1.48
  -3  -5  18    8.33    2.02
  -5  -3  18    7.25    1.79
  -3  -5  20    1.25    1.48
  -5  -3  20    2.65    1.40
  -3  -5  22    7.84    2.30
  -5  -3  22    8.70    2.17
  -5  -3  24   -3.77    1.75
  -3  -5  24   -0.42    1.80
  -3  -5  26    0.38    1.85
   4  -5  23    6.05    2.39
   5  -4  23   10.37    2.84
   4  -5  21    5.54    2.12
   5  -4  21    6.50    2.23
   5  -4  19    2.23    1.77
   4  -5  19    3.86    1.60
   4  -5  17   25.08    3.08
   5  -4  17   22.00    3.04
   4  -5  15   22.43    2.84
   5  -4  15   25.51    3.05
   5  -4  13   53.53    3.99
   4  -5  13   54.71    3.94
   5  -4  11   41.39    3.23
   4  -5  11   39.54    3.17
   4  -5   9    3.09    1.34
   5  -4   9    1.03    1.13
   4  -5   7  385.35    9.28
   5  -4   7  383.51    9.16
  -4   5   5  149.75    4.95
  -4  -5  -5  153.55    3.48
   5  -4   5  150.48    4.85
   4  -5   5  152.10    4.95
  -5   4   3  193.21    5.37
   5  -4   3  181.75    4.93
   4  -5   3  187.37    5.06
  -4   5   3  197.00    5.43
  -5   4   1  169.73    3.55
   4  -5   1  164.14    4.22
   5  -4   1  166.23    4.16
  -4   5  -1  166.98    4.27
  -5   4  -1  167.82    4.12
   5  -4  -1  176.70    3.72
   4  -5  -1  182.16    3.97
  -4   5  -3  183.93    4.95
   4  -5  -3  180.39    3.66
   5  -4  -3  178.19    3.13
  -5   4  -3  183.85    4.84
  -4  -5   5  143.74    4.69
  -5  -4   5  147.73    4.52
  -4  -5   7  365.28    8.33
   5  -4  -7  327.71    5.45
   4  -5  -7  368.96    6.28
  -5  -4   7  347.02    7.97
   4  -5  -9    1.21    0.53
  -4  -5   9    5.03    1.32
   5  -4  -9    2.16    0.47
  -5  -4   9    3.04    1.14
   5  -4 -11   33.82    1.71
  -4  -5  11   39.88    2.93
  -5  -4  11   39.83    2.71
   4  -5 -11   38.78    2.03
   5  -4 -13   42.01    2.21
  -4  -5  13   46.99    3.31
  -5  -4  13   45.88    3.21
  -4  -5  15   20.49    2.61
  -5  -4  15   26.71    2.66
  -4  -5  17   28.84    3.08
  -5  -4  17   20.92    2.57
  -5  -4  19    5.58    1.76
  -4  -5  19    3.94    1.91
  -5  -4  21    5.28    1.80
  -4  -5  21    2.85    1.77
  -5  -4  23    7.37    2.23
  -4  -5  23    0.83    1.54
  -4  -5  25    0.60    1.78
   5  -5  24   -1.30    2.04
   5  -5  22   22.87    3.55
   5  -5  20    4.92    1.84
   5  -5  18   27.03    3.39
   5  -5  16   10.74    2.11
   5  -5  14   26.95    3.12
   5  -5  12   36.77    3.31
   5  -5  10   80.51    4.36
   5  -5   8  264.81    7.68
   5  -5   6   16.60    1.84
  -5   5   4  187.58    5.63
   5  -5   4  195.25    5.45
  -5  -5  -4  172.39    3.26
  -5   5   2  266.55    6.59
   5  -5   2  241.77    5.84
   5  -5   0  122.62    3.40
  -5   5   0  128.70    3.42
  -5   5  -2  256.17    6.01
   5  -5  -2  276.59    5.06
  -5   5  -4  181.97    5.18
   5  -5  -4  174.12    3.31
  -5  -5   6   16.88    1.77
   5  -5  -6   13.30    0.73
   5  -5  -8  244.63    4.61
  -5  -5   8  238.85    6.77
   5  -5 -10   71.73    2.42
  -5  -5  10   76.94    3.83
   5  -5 -12   33.47    1.87
  -5  -5  12   34.74    2.87
  -5  -5  14   21.95    2.50
  -5  -5  16   10.22    1.98
  -5  -5  18   27.45    3.14
  -5  -5  20    1.58    1.48
  -5  -5  22   22.49    3.30
  -5  -5  24   -2.13    1.55
  -6   0   0  238.90    4.90
   6   0  -2  108.24    3.17
   0  -6   2  112.36    3.78
  -6   0  -2  111.67    3.49
   0  -6   4   15.58    1.72
  -6   0  -4   17.18    1.57
   6   0  -4   17.82    1.51
   0   6   4   17.63    1.55
   0  -6  -6  170.69    4.93
  -6   0   6  175.99    3.79
   0  -6   6  174.74    5.50
  -6   0   8    0.54    0.58
   0  -6   8    2.29    1.23
   6   0   8    2.14    1.23
   6   0  10    6.84    1.57
  -6   0  10    5.93    1.02
   0  -6  10    7.78    1.66
   6   0 -10    7.06    0.97
  -6   0  12   28.93    2.00
   6   0 -12   24.77    1.78
   6   0  12   30.53    2.82
   0  -6  12   25.50    2.73
   6   0  14   -0.02    1.44
   0  -6  14   -1.65    1.35
  -6   0  14    1.63    0.90
   0  -6  16   19.62    2.79
   6   0  16   20.65    2.78
  -6   0  16   21.72    2.11
   0  -6  18    5.63    1.88
  -6   0  18    4.68    1.35
   6   0  18    8.22    2.17
  -6   0  20    9.26    1.77
   0  -6  20    8.68    2.39
   0  -6  22    3.68    1.80
   0  -6  24    5.06    2.04
   1  -6  25    3.13    1.84
   1  -6  23   -3.36    2.16
   6  -1  21   -2.12    1.86
   1  -6  21    1.38    1.77
   6  -1  19    6.09    1.92
   1  -6  19    5.28    1.95
  -6   1  19    3.67    1.27
   1  -6  17    7.50    1.93
   6  -1  17    3.61    1.69
  -6   1  17    7.18    1.44
  -6   1  15   18.59    1.83
   1  -6  15   21.12    2.82
   6  -1  15   26.09    3.00
   1  -6  13   11.61    2.14
  -6   1  13   11.89    1.41
   6  -1  13   12.97    2.22
   6  -1  11    6.32    1.57
   6   1 -11    4.86    1.00
   1  -6  11    4.70    1.58
  -6   1  11    6.98    1.07
  -6   1   9   97.74    2.86
   6  -1   9   91.71    4.36
   1  -6   9   93.07    4.37
   1  -6   7   53.09    3.09
  -1  -6  -7   55.37    2.66
  -6   1   7   53.61    1.72
   6  -1   7   53.82    3.13
   1  -6   5  147.94    4.86
   6  -1   5  153.79    4.81
  -1  -6  -5  151.83    4.13
  -6   1   5  140.15    2.77
  -1   6   5  146.41    4.58
   6  -1   3  610.00   11.09
  -1   6   3  612.92   11.08
  -6  -1  -3  618.04   11.28
   6   1  -3  613.67   10.46
   1  -6   3  625.26   11.53
  -6   1   1  115.57    2.83
  -6  -1  -1  107.24    2.63
  -6   1   1  110.98    3.32
   1  -6   1  113.71    3.63
   6   1  -1  110.31    2.86
  -6   1  -1  120.43    3.42
   1   6   3  591.63   10.48
  -6   1  -3  615.52   11.26
  -1  -6   3  612.86   11.56
   6  -1  -3  641.89   11.03
   6  -1  -5  141.20    4.47
  -1  -6   5  148.41    4.92
   1  -6  -5  150.96    4.52
  -6  -1   5  148.10    3.63
  -6   1  -5  148.85    4.86
  -6  -1   7   52.53    2.19
  -1  -6   7   50.48    3.03
  -6  -1   9   97.94    3.35
   6  -1  -9   88.61    2.66
  -1  -6   9   95.81    4.35
  -6  -1  11    6.06    1.13
   6  -1 -11    5.79    0.94
  -1  -6  11    5.17    1.44
  -1  -6  13    9.38    1.91
  -6  -1  13   11.31    1.56
   6  -1 -13    9.26    1.16
  -6  -1  15   19.92    2.04
  -1  -6  15   20.76    2.68
  -1  -6  17    4.18    1.87
  -6  -1  17    5.10    1.51
  -6  -1  19    5.10    1.49
  -1  -6  19    5.54    2.08
  -6  -1  21    1.50    1.22
  -1  -6  21    0.59    1.69
  -1  -6  23   -0.11    1.58
  -1  -6  25   -1.34    1.90
   2  -6  24    5.28    2.29
   6  -2  24   -0.62    1.68
   2  -6  22    4.20    1.60
   6  -2  22    4.74    1.79
   6  -2  20    2.73    1.70
   2  -6  20    5.53    2.19
   2  -6  18    5.78    2.10
  -6   2  18    1.15    0.92
   6  -2  18    4.17    1.68
   2  -6  16    8.48    2.09
  -6   2  16    4.66    1.12
   6  -2  16    8.75    2.14
  -6   2  14    1.53    0.84
   2  -6  14   -0.36    1.37
   6  -2  14    0.21    1.26
  -6   2  12    0.98    0.70
   6  -2  12    3.35    1.50
   2  -6  12    1.14    1.50
   2  -6  10   10.44    1.79
   6  -2  10   12.05    1.93
  -6   2  10   12.11    1.03
   6  -2   8   56.78    3.29
   2  -6   8   54.37    3.26
  -6   2   8   51.02    1.62
   6  -2   6  102.51    4.08
   2  -6   6   97.02    4.05
  -2  -6  -6  100.64    3.31
   6  -2   4  143.29    4.44
   2  -6   4  149.93    4.68
  -2   6   4  141.11    4.46
   6   2  -2  132.96    3.24
  -6   2   2  129.86    2.71
   2  -6   2  135.11    4.13
  -6   2   2  129.75    3.98
   6  -2   2  131.29    3.80
   2  -6   0  200.75    4.90
  -6   2   0  195.19    4.30
  -6   2  -2  133.57    3.80
   2   6   2  131.14    3.36
  -2   6  -2  136.45    4.09
   6  -2  -4  138.38    4.40
  -6   2  -4  140.67    4.35
  -2  -6   4  143.81    4.66
  -6  -2   6   99.06    3.22
  -2  -6   6   94.82    3.97
  -6  -2   8   51.74    2.52
  -2  -6   8   54.44    3.19
  -6  -2  10   12.17    1.41
  -2  -6  10   10.29    1.70
   2  -6 -10   11.95    1.31
   6  -2 -10   10.85    0.94
   6  -2 -12    1.16    0.66
  -6  -2  12   -2.03    1.13
  -2  -6  12   -1.47    1.40
  -2  -6  14    0.05    1.32
  -6  -2  14   -0.49    0.99
  -2  -6  16    5.91    1.80
  -6  -2  16    6.72    1.57
  -2  -6  18    3.89    1.82
  -6  -2  18    2.07    1.30
  -2  -6  20    2.16    1.49
  -6  -2  20    2.44    1.46
  -6  -2  22    2.69    1.54
  -2  -6  22    9.86    2.43
  -2  -6  24   -1.67    1.68
  -2  -6  26    0.10    1.76
   6  -3  23    5.40    2.40
   3  -6  23    4.26    2.43
   3  -6  21    3.29    1.93
   6  -3  21    2.50    1.99
   3  -6  19    0.90    1.70
   6  -3  19    5.30    2.18
   3  -6  17   12.74    2.62
   6  -3  17   16.64    2.75
   6  -3  15    8.14    2.06
   3  -6  15    5.47    1.59
   3  -6  13    8.58    1.94
   6  -3  13    8.14    1.92
   3  -6  11   11.98    1.98
   6  -3  11   15.18    2.33
   3  -6   9    7.48    1.61
   6  -3   9    3.80    1.33
   3  -6   7   54.09    3.21
   6  -3   7   52.57    3.13
  -3  -6  -7   55.15    2.40
   3  -6   5   14.96    1.68
  -3   6   5   15.46    1.79
  -3  -6  -5   15.96    1.15
   6  -3   5   15.99    1.73
   3  -6   3  113.54    3.89
   6  -3   3  109.17    3.72
  -3   6   3  111.36    4.06
  -6   3   3  112.08    3.90
  -6   3   1   17.32    0.99
   3  -6   1   14.32    1.30
   6   3  -1   16.58    0.89
  -6   3   1   16.26    1.50
   6  -3   1   15.82    1.22
   3  -6  -1   16.01    1.23
   6  -3  -1   17.44    0.99
  -3   6  -1   15.62    1.37
  -6   3  -1   16.41    1.23
  -3   6  -3  119.79    3.97
   3   6   3  116.33    2.98
  -6   3  -3  124.81    3.93
  -3  -6   5   15.76    1.78
  -3  -6   7   54.48    3.09
  -6  -3   7   52.86    2.61
   6  -3  -9    5.22    0.55
  -3  -6   9    6.72    1.48
   3  -6  -9    6.64    0.91
  -6  -3   9    7.53    1.24
  -3  -6  11   10.82    1.76
   6  -3 -11   10.30    0.94
   3  -6 -11   13.08    1.36
  -6  -3  11   12.90    1.61
  -6  -3  13    9.26    1.56
   6  -3 -13    5.88    0.89
  -3  -6  13    5.94    1.47
  -6  -3  15    2.43    1.21
  -3  -6  15    1.76    1.31
  -3  -6  17   20.73    2.85
  -6  -3  17   17.67    2.40
  -3  -6  19    1.89    1.40
  -6  -3  19    1.87    1.31
  -3  -6  21    1.69    1.75
  -6  -3  21    3.08    1.59
  -3  -6  23    3.20    2.10
  -3  -6  25   -2.00    1.93
   6  -4  24   -1.31    1.80
   4  -6  24    3.28    2.06
   6  -4  22   18.02    3.29
   4  -6  22   22.14    3.54
   6  -4  20    4.21    2.19
   4  -6  20    4.65    1.89
   4  -6  18    9.36    2.39
   6  -4  18    6.57    2.06
   6  -4  16    4.37    1.81
   4  -6  16    0.85    1.48
   4  -6  14   19.31    2.63
   6  -4  14   15.69    2.41
   4  -6  12   13.73    2.16
   6  -4  12   19.65    2.45
   6  -4  10   21.50    2.39
   4  -6  10   20.24    2.33
   4  -6   8  218.70    6.92
   6  -4   8  212.86    6.86
  -4  -6  -8  197.02    5.15
   6  -4   6   10.27    1.60
   4  -6   6    8.81    1.48
  -4  -6  -6    9.56    0.97
   4  -6   4   65.75    3.09
  -4   6   4   69.60    3.34
   6  -4   4   66.16    3.08
  -6   4   4   62.83    3.16
  -4   6   2  281.58    6.68
   4  -6   2  258.90    6.12
  -6   4   2  252.60    6.43
   6  -4   2  243.66    5.87
  -6   4   2  252.46    4.49
  -6   4   0  161.38    3.81
   4  -6   0  155.79    4.14
  -4   6   0  156.51    4.12
   6  -4   0  158.32    3.85
  -4   6  -2  252.97    6.12
  -6   4  -2  256.37    5.92
   4  -6  -2  288.44    5.50
   4   6   2  259.92    4.67
   6  -4  -2  259.88    4.68
  -6   4  -4   63.50    2.90
  -4  -6   6   10.80    1.62
  -6  -4   6   10.09    1.35
   4  -6  -8  206.87    4.65
  -6  -4   8  209.39    5.93
  -4  -6   8  210.29    6.46
   4  -6 -10   20.92    1.51
  -6  -4  10   20.16    2.06
  -4  -6  10   19.14    2.08
   6  -4 -10   18.48    1.01
   6  -4 -12   13.33    1.11
  -4  -6  12   13.46    1.97
   4  -6 -12   14.92    1.42
  -6  -4  12   15.23    1.93
  -6  -4  14   19.24    2.28
  -4  -6  14   14.71    2.11
  -4  -6  16    2.43    1.54
  -6  -4  16    3.28    1.45
  -6  -4  18    5.46    1.72
  -4  -6  18    6.95    2.08
  -6  -4  20    4.34    1.65
  -4  -6  20   -1.50    1.47
  -6  -4  22   16.13    2.73
  -4  -6  22   13.34    2.73
  -4  -6  24    0.20    1.66
  -4  -6  26   -0.04    1.88
   5  -6  23   15.16    3.07
   6  -5  23    9.87    2.61
   6  -5  21   10.17    2.77
   5  -6  21   12.66    2.87
   5  -6  19    1.29    1.63
   6  -5  19    1.34    1.58
   5  -6  17   31.69    3.61
   6  -5  17   35.80    3.88
   5  -6  15   -0.31    1.52
   6  -5  15    2.15    1.49
   6  -5  13   23.30    2.76
   5  -6  13   21.67    2.72
   5  -6  11   42.36    3.43
   6  -5  11   41.36    3.39
   6  -5   9   51.29    3.43
   5  -6   9   48.86    3.40
   5  -6   7  144.96    5.43
  -5  -6  -7  138.48    3.71
   6  -5   7  148.10    5.41
  -5  -6  -5  143.58    3.15
  -5   6   5  138.25    5.06
   6  -5   5  142.28    4.87
  -6   5   5  140.34    5.04
  -6  -5  -5  132.21    2.80
   5  -6   5  139.35    4.90
  -5   6   3  373.53    8.54
  -6   5   3  345.91    8.22
   6  -5   3  334.80    7.64
   5  -6   3  335.21    7.79
  -6   5   1  101.36    2.78
   5  -6   1   95.73    3.27
   6  -5   1   94.93    3.19
  -5   6  -1   95.59    3.27
   5  -6  -1  105.18    3.09
  -6   5  -1   98.57    3.20
   6  -5  -1   99.30    2.85
  -6   5  -3  334.45    7.51
   6  -5  -3  334.21    5.65
  -5   6  -3  338.07    7.70
   5  -6  -3  351.40    6.22
   5  -6  -5  120.23    2.84
  -5  -6   5  138.45    4.84
  -6  -5   7  135.61    4.83
  -5  -6   7  142.45    5.05
   6  -5  -9   41.83    1.37
   5  -6  -9   53.22    1.96
  -6  -5   9   49.40    3.02
  -5  -6   9   51.07    3.21
  -5  -6  11   38.28    2.95
  -6  -5  11   43.06    2.92
   5  -6 -11   41.42    1.97
   6  -5 -11   35.55    1.55
  -6  -5  13   21.06    2.31
   5  -6 -13   20.86    1.59
  -5  -6  13   19.96    2.39
  -6  -5  15    2.26    1.25
  -5  -6  15    1.59    1.38
  -5  -6  17   30.30    3.22
  -6  -5  17   31.96    3.23
  -5  -6  19    2.91    1.73
  -6  -5  19    2.43    1.50
  -5  -6  21   10.38    2.54
  -6  -5  21   10.10    2.18
  -5  -6  23   15.83    2.97
  -6  -5  23   13.68    2.63
  -5  -6  25   -3.04    1.99
   6  -6  22   20.58    3.52
   6  -6  20   -2.13    1.66
   6  -6  18    3.62    1.52
   6  -6  16   16.12    2.75
   6  -6  14    3.59    1.76
   6  -6  12    0.64    1.43
   6  -6  10   10.02    1.90
   6  -6   8  191.89    6.57
  -6   6   6   50.07    3.17
   6  -6   6   48.61    3.03
  -6  -6  -6   47.27    1.69
   6  -6   4  108.22    4.17
  -6   6   4  103.43    4.47
  -6   6   2  307.07    7.97
   6  -6   2  313.92    7.21
  -6   6   0  414.50    7.92
   6  -6   0  406.83    7.97
   6  -6  -2  330.78    6.14
  -6   6  -2  309.99    7.17
   6  -6  -4  103.75    2.47
  -6  -6   6   49.78    2.94
   6  -6  -6   38.61    1.22
  -6  -6   8  183.68    5.95
   6  -6  -8  165.46    3.26
   6  -6 -10    9.42    0.77
  -6  -6  10    7.57    1.65
  -6  -6  12    0.66    1.16
   6  -6 -12    0.53    0.49
  -6  -6  14    4.47    1.59
  -6  -6  16   15.25    2.26
  -6  -6  18    7.96    2.06
  -6  -6  20    2.86    1.70
  -6  -6  22   29.57    3.57
  -6  -6  24    1.17    1.74
   0  -7   1   71.74    3.07
  -7   0  -1   68.65    2.69
  -7   0   1   68.88    2.51
  -7   0  -3  433.05    8.95
   0  -7   3  426.13    9.21
   0   7   3  427.86    8.52
   7   0  -3  427.26    8.31
  -7   0   5  112.37    2.84
   0   7   5  111.54    3.94
   7   0  -5  112.12    3.90
   0  -7   5  115.40    4.48
  -7   0   7   18.38    1.17
   0  -7   7   17.27    2.07
  -7   0   9   80.05    2.73
   0  -7   9   79.25    4.11
   0  -7  11    2.55    1.44
  -7   0  11    1.67    0.77
   7   0  11   -0.11    1.22
  -7   0  13    2.56    0.93
   7   0  13    3.18    1.47
   0  -7  13    5.55    1.85
  -7   0  15   14.26    1.73
   0  -7  15   17.32    2.62
   0  -7  17    6.02    1.95
  -7   0  17    3.65    1.17
   0  -7  19   10.06    2.42
  -7   0  19    9.17    1.72
   0  -7  21    0.55    1.69
   0  -7  23    2.02    2.24
   0  -7  25    6.08    2.58
   1  -7  24    1.94    1.91
   1  -7  22    2.25    1.92
   7  -1  20    4.49    1.99
   1  -7  20    4.79    1.97
   7  -1  18   -0.38    1.53
   1  -7  18    1.16    1.50
  -7   1  18    1.04    0.98
   1  -7  16   17.19    2.71
   7  -1  16   11.82    2.48
  -7   1  16   14.45    1.69
  -7   1  14    6.73    1.11
   1  -7  14    6.70    1.84
   7  -1  14    6.39    1.79
   7  -1  12    5.15    1.72
   1  -7  12   -1.04    1.44
  -7   1  12    4.23    0.86
   7  -1  10   18.30    2.15
   1  -7  10   20.09    2.30
  -7   1  10   21.01    1.34
   1  -7   8  111.35    4.80
   7  -1   8  115.64    4.77
  -7   1   8  116.47    2.86
   1  -7   6  152.59    5.26
  -1  -7  -6  146.74    4.41
   7  -1   6  151.43    5.14
  -7   1   6  139.25    2.89
  -1   7   4  165.95    5.03
   7   1  -4  174.63    4.64
   1  -7   4  171.30    5.37
  -7   1   2  156.54    4.34
  -7   1   2  152.29    3.44
   1  -7   2  154.38    4.77
   7   1  -2  154.97    3.90
   1  -7   0  428.53    8.62
  -7  -1   0  420.42    7.31
  -7   1   0  419.09    7.80
  -7   1   0  407.35    7.96
  -1  -7   2  152.06    4.85
  -7   1  -2  156.60    4.46
  -7   1  -4  177.29    5.30
   7  -1  -4  172.58    4.93
  -1  -7   4  180.70    5.53
   1   7   4  173.41    4.68
  -7  -1   6  146.55    3.80
  -1  -7   6  152.70    5.31
  -7  -1   8  112.99    3.44
  -1  -7   8  106.27    4.65
  -7  -1  10   19.18    1.56
  -1  -7  10   18.98    2.23
   7  -1 -12    4.58    0.84
  -7  -1  12    4.71    1.12
  -1  -7  12    3.29    1.41
  -7  -1  14    5.21    1.16
  -1  -7  14    4.31    1.66
  -7  -1  16   15.80    2.02
  -1  -7  16   19.24    2.88
  -7  -1  18    0.08    1.02
  -1  -7  18    1.72    1.85
  -1  -7  20    4.28    2.05
  -7  -1  20    4.78    1.53
  -1  -7  22   -0.01    1.74
  -1  -7  24    1.79    1.90
   2  -7  23    0.31    1.92
   7  -2  23   -1.98    2.03
   2  -7  21    1.13    1.79
   7  -2  21    0.93    1.69
   7  -2  19    7.98    2.13
   2  -7  19    7.34    2.34
   7  -2  17   24.67    3.29
  -7   2  17   14.20    1.64
   2  -7  17   14.39    2.65
   2  -7  15   -0.67    1.42
  -7   2  15   -0.39    0.82
   7  -2  15    1.34    1.66
   7  -2  13   11.37    2.08
   2  -7  13    8.38    2.02
  -7   2  13    8.72    1.08
  -7   2  11    5.11    0.77
   2  -7  11    2.88    1.27
   7  -2  11    6.61    1.76
  -7   2   9   11.10    0.77
   2  -7   9   13.38    1.82
   7  -2   9   13.15    1.88
  -2  -7  -7   86.91    3.31
   7  -2   7   87.54    3.98
   2  -7   7   86.90    4.13
   2  -7   5  155.38    5.19
  -2   7   5  155.11    4.99
   7  -2   5  156.04    5.10
   7   2  -3  317.58    6.40
  -7   2   3  308.41    5.23
   7  -2   3  322.15    7.24
   2  -7   3  327.95    7.62
  -2   7   3  323.66    7.52
  -7   2   3  324.92    7.35
  -7  -2  -1  274.66    4.81
  -7   2   1  268.72    6.30
  -7   2   1  275.73    5.33
   2  -7   1  276.26    6.50
   7   2  -1  271.96    5.17
   2  -7  -1  271.42    6.27
  -7   2  -1  282.55    6.03
   2   7   3  337.25    6.67
  -7   2  -3  330.60    7.38
  -2  -7   3  320.80    7.85
  -2  -7   5  158.63    5.33
  -2  -7   7   82.95    3.98
  -7  -2   7   81.18    3.00
  -7  -2   9   14.14    1.48
  -2  -7   9   12.76    2.05
  -2  -7  11    2.71    1.23
   7  -2 -11    2.50    0.60
  -7  -2  11    3.75    0.99
   7  -2 -13    7.68    0.98
  -2  -7  13    5.62    1.52
  -7  -2  13    8.89    1.49
  -7  -2  15    1.53    1.07
  -2  -7  15    0.65    1.32
  -7  -2  17   15.00    2.03
  -2  -7  17   15.55    2.67
  -7  -2  19    6.89    1.66
  -2  -7  19    9.99    2.27
  -2  -7  21    1.42    1.69
  -2  -7  23    1.20    1.86
  -2  -7  25   -5.39    2.50
   3  -7  24   -0.66    1.83
   7  -3  24   -2.97    2.00
   3  -7  22    8.04    2.72
   7  -3  22    6.27    2.16
   3  -7  20    4.63    1.90
   7  -3  20    3.43    1.95
   7  -3  18    3.30    1.84
   3  -7  18   10.29    2.60
   3  -7  16    3.56    1.72
   7  -3  16    1.72    1.46
   3  -7  14    2.48    1.65
   7  -3  14    1.06    1.52
   3  -7  12   21.31    2.68
   7  -3  12   19.77    2.47
   7  -3  10    0.86    1.25
   3  -7  10    1.41    1.19
   7  -3   8   69.08    3.72
   3  -7   8   67.15    3.74
  -3  -7  -6    9.48    1.10
  -3   7   6    8.60    1.49
   7  -3   6    8.81    1.51
   3  -7   6    9.01    1.56
   3  -7   4   83.85    3.62
  -3   7   4   89.35    3.84
   7  -3   4   84.27    3.51
  -7   3   4   84.43    3.63
  -7   3   2  101.17    2.39
  -7   3   2   99.35    3.71
   7  -3   2   98.77    3.39
   7   3  -2  100.28    2.73
   3  -7   2   97.78    3.66
   7  -3   0   31.44    1.61
   3  -7   0   31.84    1.92
  -7   3   0   36.10    1.68
   3   7   2  102.39    2.87
  -3   7  -2  100.44    3.65
  -7   3  -2  101.16    3.43
   3  -7  -2  100.16    3.37
  -7   3  -4   77.30    3.35
  -3  -7   4   85.39    3.71
  -7  -3   6    8.11    1.22
  -3  -7   6   10.50    1.73
  -3  -7   8   63.13    3.64
  -7  -3   8   66.37    3.08
  -3  -7  10    4.81    1.44
   3  -7 -10    1.95    0.73
  -7  -3  10    4.06    1.05
  -7  -3  12   18.38    1.93
  -3  -7  12   20.91    2.40
   7  -3 -12   14.29    1.08
  -7  -3  14    0.14    1.08
  -3  -7  14    1.24    1.33
  -3  -7  16    3.00    1.66
  -7  -3  16    1.56    1.11
  -3  -7  18    5.90    2.12
  -7  -3  18    7.80    1.82
  -7  -3  20    1.92    1.47
  -3  -7  20    2.29    1.73
  -3  -7  22    2.50    2.08
  -3  -7  24   -0.55    1.66
  -3  -7  26   -4.14    2.24
   4  -7  23    8.85    2.83
   7  -4  23   -0.64    1.77
   4  -7  21    6.59    2.44
   7  -4  21    3.40    2.17
   4  -7  19   -0.78    1.77
   7  -4  19    1.69    1.68
   4  -7  17   19.65    3.04
   7  -4  17   17.58    2.85
   4  -7  15    3.16    1.72
   7  -4  15    6.44    1.98
   4  -7  13   12.39    2.18
   7  -4  13   14.12    2.33
   4  -7  11    8.02    1.81
   7  -4  11    9.63    1.95
   4  -7   9   28.16    2.69
   7  -4   9   28.96    2.70
   4  -7   7   31.27    2.56
   7  -4   7   29.00    2.50
  -4  -7  -7   30.74    1.78
   4  -7   5   46.54    2.83
   7  -4   5   44.81    2.76
  -4   7   5   44.63    2.88
  -7   4   5   46.36    2.86
  -7   4   3  218.68    6.01
   7  -4   3  218.47    5.61
  -4   7   3  236.58    6.41
   4  -7   3  222.04    5.81
  -7   4   1   15.89    1.69
  -7   4   1   18.02    1.10
   4  -7   1   16.73    1.49
   7   4  -1   16.69    0.88
   7  -4   1   18.25    1.43
  -4   7  -1   19.27    1.60
  -7   4  -1   18.19    1.39
   7  -4  -1   18.51    1.16
   4  -7  -1   19.65    1.50
   4  -7  -3  242.91    5.25
   4   7   3  223.30    4.61
  -7   4  -3  222.75    5.84
  -4  -7   5   46.88    2.99
  -4  -7   7   30.58    2.51
  -7  -4   7   28.25    2.05
  -4  -7   9   24.57    2.37
  -7  -4   9   23.20    2.13
   4  -7  -9   30.48    1.75
  -7  -4  11    7.63    1.49
   7  -4 -11    7.02    0.62
  -4  -7  11    8.68    1.80
   4  -7 -11    9.24    1.14
  -7  -4  13   10.89    1.77
  -4  -7  13    6.68    1.69
  -4  -7  15    3.25    1.56
  -7  -4  15    0.78    1.00
  -7  -4  17   18.84    2.54
  -4  -7  17   15.36    2.53
  -4  -7  19    2.42    1.55
  -7  -4  19    0.25    1.29
  -7  -4  21    5.50    1.84
  -4  -7  21    1.94    1.47
  -4  -7  23    1.27    1.72
  -4  -7  25   -0.42    1.87
   7  -5  22   20.30    3.56
   5  -7  22   19.56    3.52
   5  -7  20    4.71    2.24
   7  -5  20    1.62    1.54
   5  -7  18    6.41    2.29
   7  -5  18    7.58    2.27
   5  -7  16    7.66    2.21
   7  -5  16    8.62    2.27
   5  -7  14    1.72    1.59
   7  -5  14    4.89    1.80
   5  -7  12   18.17    2.56
   7  -5  12   18.80    2.59
   7  -5  10    0.52    1.25
   5  -7  10   -0.49    1.22
  -5  -7  -8   79.92    2.97
   7  -5   8   86.35    4.35
   5  -7   8   86.36    4.40
   5  -7   6   15.54    1.88
  -5   7   6   13.89    1.88
   7  -5   6   14.00    1.81
  -7   5   4    6.72    1.39
   7  -5   4    6.35    1.23
   5  -7   4    7.10    1.31
  -5   7   4    4.68    1.30
   7  -5   2  120.54    4.01
   5  -7   2  124.44    4.19
  -5   7   2  143.16    4.87
  -7   5   2  125.39    4.65
  -7   5   2  122.33    2.93
   5  -7   0  126.35    3.87
  -7   5   0  129.10    3.58
   7  -5   0  130.55    3.63
   5  -7  -2  138.87    3.65
   5   7   2  117.84    2.68
  -7   5  -2  116.26    3.84
  -5   7  -2  118.80    4.06
   7  -5  -2  116.12    2.94
   5  -7  -4    6.57    0.88
  -7  -5   6   11.95    1.61
  -5  -7   6   12.92    1.87
  -5  -7   8   82.45    4.14
  -7  -5   8   83.33    3.78
  -5  -7  10    0.79    1.19
   5  -7 -10    0.21    0.50
  -7  -5  10   -0.47    0.97
  -7  -5  12   17.56    2.07
   7  -5 -12   11.83    0.86
   5  -7 -12   17.14    1.42
  -5  -7  12   16.75    2.30
  -5  -7  14    0.95    1.32
  -7  -5  14    0.39    1.07
  -7  -5  16    7.60    1.74
  -5  -7  16    8.46    1.93
  -7  -5  18    6.28    1.90
  -5  -7  18    6.95    2.10
  -7  -5  20    0.27    1.24
  -5  -7  20   -1.14    1.44
  -7  -5  22   21.01    2.97
  -5  -7  22   16.66    3.08
  -5  -7  24    2.83    2.09
   7  -6  23    7.06    2.65
   6  -7  23   11.14    3.07
   7  -6  21    6.77    2.33
   6  -7  21    8.07    2.25
   6  -7  19    7.84    2.27
   7  -6  19    2.64    1.97
   6  -7  17   40.64    4.19
   7  -6  17   34.12    3.87
   6  -7  15    9.78    2.29
   7  -6  15    5.63    1.91
   6  -7  13   17.40    2.56
   7  -6  13   15.14    2.49
   7  -6  11   27.79    2.89
   6  -7  11   26.29    2.79
  -6  -7  -9   49.71    2.33
   6  -7   9   51.72    3.57
   7  -6   9   53.20    3.74
  -7  -6  -7   35.09    1.51
   6  -7   7   36.36    2.88
  -6  -7  -7   37.04    1.68
   7  -6   7   36.71    2.80
  -6   7   5    8.69    1.75
   6  -7   5   10.79    1.58
  -7   6   5   10.60    1.83
   7  -6   5   10.57    1.52
   6  -7   3  240.85    6.57
  -7   6   3  250.71    7.15
   7  -6   3  233.69    6.35
  -6   7   3  266.48    7.37
  -7   6   1    4.68    0.81
   7  -6   1    5.55    0.99
   6  -7   1    4.72    1.00
   6  -7  -1    4.69    0.89
   7  -6  -1    3.64    0.73
  -7   6  -1    3.06    0.84
  -6   7  -1    3.85    0.97
   7  -6  -3  221.25    4.49
   6  -7  -3  247.91    5.02
   6  -7  -5   10.11    0.81
   6  -7  -7   33.27    1.34
  -6  -7   7   37.94    2.82
  -7  -6   7   35.64    2.61
   6  -7  -9   52.10    1.82
  -7  -6   9   49.27    3.24
  -6  -7   9   53.04    3.50
  -7  -6  11   28.87    2.65
   6  -7 -11   24.59    1.36
  -6  -7  11   25.19    2.65
  -6  -7  13   13.09    2.04
  -7  -6  13   17.33    2.34
  -6  -7  15    5.71    1.77
  -7  -6  15    5.27    1.63
  -7  -6  17   34.35    3.34
  -6  -7  17   27.70    3.20
  -6  -7  19    4.95    1.79
  -7  -6  19    6.98    1.97
  -6  -7  21    6.39    2.06
  -7  -6  21    4.98    2.03
  -6  -7  23    8.62    2.36
  -7  -6  23   13.71    2.73
   7  -7  22    9.20    2.64
   7  -7  20    4.08    2.22
   7  -7  18    5.46    2.07
   7  -7  16   21.47    3.19
   7  -7  14   26.08    3.12
   7  -7  12    8.50    2.03
  -7  -7 -10   29.23    1.88
   7  -7  10   32.24    3.00
  -7  -7  -8  126.66    3.40
   7  -7   8  128.24    5.54
   7  -7   6    2.38    1.29
  -7   7   6    2.34    1.28
  -7   7   4   46.36    3.23
   7  -7   4   45.93    2.82
  -7   7   2  273.46    7.70
   7  -7   2  267.61    6.81
  -7   7   0   49.62    2.37
   7  -7   0   50.02    2.37
   7  -7  -2  289.16    6.03
   7  -7  -4   38.32    1.52
   7  -7  -6    1.36    0.30
  -7  -7   6    2.42    1.32
  -7  -7   8  131.08    5.28
  -7  -7  10   33.82    2.89
   7  -7 -10   23.90    0.95
  -7  -7  12    8.65    1.83
  -7  -7  14   24.64    2.69
  -7  -7  16   15.27    2.34
  -7  -7  18    2.66    1.55
  -7  -7  20    2.46    1.78
  -7  -7  22   10.92    2.63
  -8   0   0   16.27    1.29
   0  -8   2   14.69    1.72
  -8   0  -2   16.77    1.47
   0  -8   4   35.13    2.53
   0   8   4   32.19    2.13
   8   0  -4   31.91    2.05
  -8   0   6    0.11    0.52
   0  -8   6   -0.32    1.25
   0  -8   8    0.99    1.17
  -8   0   8    0.21    0.53
   0  -8  10   44.24    3.32
  -8   0  10   48.73    2.19
  -8   0  12    4.76    0.97
   0  -8  12    0.91    1.33
   0  -8  14   38.04    3.54
  -8   0  14   39.14    2.41
  -8   0  16    3.64    1.14
   0  -8  16    6.05    2.01
   0  -8  18    1.38    1.68
   0  -8  20    9.42    2.50
   0  -8  22   10.37    2.65
   0  -8  24    5.75    2.41
   1  -8  23    4.06    2.31
   1  -8  21   -0.25    1.76
   1  -8  19    6.16    2.11
  -8   1  17   16.11    1.73
   8  -1  17   11.20    2.54
   1  -8  17   14.82    2.69
   8  -1  15   34.18    3.47
   1  -8  15   28.96    3.39
  -8   1  15   32.66    2.17
   8  -1  13   13.46    2.11
   1  -8  13   13.18    2.34
  -8   1  13   12.56    1.27
  -8   1  11    2.61    0.66
   8  -1  11    1.24    1.30
   1  -8  11    1.98    1.36
   1  -8   9   23.43    2.45
  -8   1   9   23.21    1.25
   8  -1   9   23.01    2.37
  -8   1   7   95.03    2.33
   8  -1   7   97.57    4.30
   1  -8   7   94.34    4.44
  -1   8   5   83.60    3.60
   1  -8   5   83.40    3.88
   8   1  -5   83.38    3.30
  -8   1   5   72.74    1.99
   8   1  -3   10.53    1.17
  -1   8   3    8.10    1.23
   1  -8   3   10.86    1.66
  -8   1   1  139.47    4.13
  -8  -1  -1  138.58    3.46
  -8   1   1  140.49    3.71
   1  -8   1  131.11    4.56
  -8   1  -1  137.32    4.10
   8  -1  -3   11.60    1.29
  -8   1  -3   10.01    1.30
  -1  -8   3   10.46    1.64
   1   8   3   12.14    1.32
  -1  -8   5   80.19    3.83
   1   8   5   79.37    3.26
  -1  -8   7   97.69    4.46
  -8  -1   7   94.77    3.07
  -8  -1   9   23.12    1.60
  -1  -8   9   21.36    2.40
  -1  -8  11    2.06    1.45
  -8  -1  11    2.84    0.80
  -8  -1  13   15.57    1.71
  -1  -8  13   13.56    2.27
  -1  -8  15   35.16    3.51
  -8  -1  15   28.96    2.31
  -8  -1  17   17.00    1.97
  -1  -8  17   23.47    3.13
  -1  -8  19   -1.37    1.86
  -1  -8  21    3.64    1.90
  -1  -8  23    4.23    2.10
  -1  -8  25    1.66    2.09
   2  -8  24    0.97    1.97
   2  -8  22    3.23    2.20
   2  -8  20   -0.32    1.73
   8  -2  20    4.83    2.26
   2  -8  18   13.27    2.69
   8  -2  18   11.38    2.33
  -8   2  16    3.68    0.90
   2  -8  16    1.89    1.58
   8  -2  16    3.14    1.73
  -8   2  14   17.27    1.38
   8  -2  14   17.66    2.57
   2  -8  14   13.63    2.41
   2  -8  12   36.60    3.29
   8  -2  12   38.86    3.28
  -8   2  12   38.55    1.74
   2  -8  10   33.93    2.96
  -8   2  10   29.89    1.25
   8  -2  10   31.46    2.85
   2  -8   8  123.78    5.25
   8  -2   8  124.44    5.16
   2  -8   6   30.27    2.49
   8  -2   6   30.32    2.37
  -2   8   6   28.42    2.43
   2  -8   4  215.88    6.36
  -2   8   4  218.57    6.15
   8   2  -4  211.40    5.23
  -8   2   4  200.94    3.70
   8  -2   4  213.76    5.92
   2  -8   2  141.18    4.72
  -8  -2  -2  136.94    3.11
   8   2  -2  138.31    3.64
  -8   2   2  139.91    4.46
  -8   2   2  141.55    3.36
  -8   2   0    0.58    0.63
   2  -8   0   -0.51    0.88
  -8   2   0    0.56    0.82
  -8   2  -2  134.48    4.22
   2   8   4  212.56    5.32
  -2  -8   4  216.98    6.55
  -2  -8   6   29.05    2.50
  -8  -2   6   27.42    1.74
  -2  -8   8  117.22    5.09
  -8  -2   8  122.51    3.95
  -8  -2  10   36.74    2.26
  -2  -8  10   39.72    3.17
  -8  -2  12   40.03    2.52
  -2  -8  12   38.25    3.28
  -8  -2  14   18.43    1.95
  -2  -8  14   17.73    2.50
  -8  -2  16    3.41    1.16
  -2  -8  16    2.22    1.50
  -2  -8  18   13.28    2.66
  -8  -2  18   13.08    1.97
  -2  -8  20    2.76    1.86
  -2  -8  22    3.41    2.08
  -2  -8  24    0.38    1.76
   8  -3  23   -2.65    2.09
   3  -8  23    0.28    1.97
   8  -3  21    4.21    2.04
   3  -8  21    1.30    1.80
   3  -8  19    4.65    2.22
   8  -3  19    2.14    1.58
   8  -3  17   14.35    2.68
   3  -8  17   16.92    2.86
   8  -3  15   13.07    2.36
   3  -8  15    9.05    2.15
   3  -8  13   28.21    3.19
   8  -3  13   28.58    3.09
   8  -3  11    8.92    1.90
   3  -8  11   10.25    2.01
   8  -3   9   29.41    2.68
   3  -8   9   24.37    2.47
   3  -8   7   65.90    3.73
   8  -3   7   72.46    3.79
  -3  -8  -7   64.90    2.80
  -3   8   5   69.17    3.53
   8  -3   5   70.02    3.45
   3  -8   5   69.35    3.62
  -8   3   3   23.56    0.96
  -8   3   3   24.27    2.04
  -8  -3  -3   19.93    0.88
  -3   8   3   25.52    2.18
   3  -8   3   25.90    2.18
   8  -3   3   25.06    1.92
   8   3  -3   25.42    1.50
  -8   3   1   58.61    2.92
  -8   3   1   58.99    2.15
   3  -8   1   55.08    2.82
   8  -3   1   57.06    2.46
   3  -8  -1   58.54    2.71
  -8   3  -1   61.96    2.57
   3   8   3   24.88    1.56
  -8   3  -3   27.31    1.98
  -3  -8   5   73.32    3.77
  -8  -3   7   67.51    2.98
  -3  -8   7   61.71    3.59
  -3  -8   9   27.72    2.72
  -8  -3   9   28.04    2.08
  -8  -3  11   11.07    1.55
  -3  -8  11   10.28    1.89
  -8  -3  13   26.23    2.30
  -3  -8  13   26.11    2.96
  -8  -3  15   13.37    1.88
  -3  -8  15    6.44    1.92
  -8  -3  17   16.65    2.28
  -3  -8  17   15.11    2.65
  -8  -3  19    2.53    1.15
  -3  -8  19    1.43    1.61
  -3  -8  21    5.86    2.16
  -3  -8  23   -1.63    1.95
  -3  -8  25    0.29    1.80
   4  -8  22    5.40    2.47
   8  -4  22    3.26    1.85
   8  -4  20   -1.84    1.91
   4  -8  20    3.28    1.63
   4  -8  18    8.72    2.41
   8  -4  18    9.41    2.48
   8  -4  16    0.98    1.56
   4  -8  16    1.23    1.56
   4  -8  14    6.71    2.04
   8  -4  14    3.88    1.58
   8  -4  12   43.80    3.61
   4  -8  12   49.65    3.97
   4  -8  10    4.16    1.59
   8  -4  10    5.58    1.68
  -4  -8  -8   20.74    1.66
   4  -8   8   19.00    2.26
   8  -4   8   23.29    2.33
  -4   8   6    5.07    1.42
   8  -4   6    2.75    1.14
   4  -8   6    0.90    1.08
  -8   4   4    3.44    1.15
   4  -8   4    5.39    1.32
  -4   8   4    3.48    1.31
   8  -4   4    4.16    1.16
   8   4  -2   46.53    1.77
  -8   4   2   45.62    1.62
   8  -4   2   45.13    2.41
  -8   4   2   45.14    2.76
   4  -8   2   48.26    2.72
   4  -8   0    1.79    0.86
   8  -4   0    3.69    0.78
  -8   4   0    3.44    0.73
   4  -8  -2   46.75    2.33
  -8   4  -2   47.80    2.40
   4   8   2   44.72    1.90
  -4  -8   4    4.60    1.40
  -4  -8   6    4.35    1.38
  -8  -4   6    1.94    0.92
  -4  -8   8   18.76    2.31
  -8  -4   8   18.32    1.91
   4  -8 -10    2.57    0.80
  -4  -8  10    6.45    1.75
  -8  -4  10    1.76    1.00
  -4  -8  12   44.01    3.52
  -8  -4  12   36.72    2.73
  -4  -8  14    2.89    1.62
  -8  -4  14    4.21    1.34
  -8  -4  16    3.02    1.18
  -4  -8  16    1.54    1.39
  -8  -4  18   13.66    2.27
  -4  -8  18   10.08    2.34
  -4  -8  20    3.37    2.11
  -8  -4  20    2.67    1.51
  -4  -8  22    2.91    1.85
  -4  -8  24    2.09    1.99
   5  -8  23    3.31    2.55
   5  -8  21   -0.10    1.81
   8  -5  21    0.32    1.75
   5  -8  19    2.32    1.66
   8  -5  19    3.30    1.93
   5  -8  17   16.49    2.85
   8  -5  17   21.43    3.19
   5  -8  15    1.68    1.68
   8  -5  15    1.63    1.43
   5  -8  13    8.35    2.01
   8  -5  13   14.06    2.31
   5  -8  11    6.87    1.90
   8  -5  11    5.62    1.68
   5  -8   9    3.69    1.52
   8  -5   9    3.44    1.46
   5  -8   7   50.60    3.32
   8  -5   7   51.75    3.40
  -5   8   7   50.64    3.44
   8  -5   5    3.96    1.19
  -8   5   5    2.32    1.18
  -5   8   5    5.50    1.56
   5  -8   5    3.85    1.10
   5  -8   3   38.34    2.50
  -8   5   3   39.72    2.73
  -5   8   3   43.07    2.82
   8  -5   3   40.72    2.42
  -8   5   1   42.20    2.74
   8   5  -1   37.27    1.32
   8  -5   1   42.07    2.22
  -8   5   1   42.15    1.80
   5  -8   1   41.66    2.39
  -5   8  -1   39.24    2.29
  -8   5  -1   41.76    2.15
   8  -5  -1   41.20    1.86
   5  -8  -1   46.08    2.31
   5  -8  -3   42.97    2.10
   5  -8  -5    3.83    0.78
  -5  -8   5    3.98    1.37
  -5  -8   7   46.47    3.28
  -8  -5   7   48.17    2.90
  -8  -5   9    3.70    1.22
  -5  -8   9    3.49    1.55
   5  -8 -11    7.66    1.04
  -8  -5  11    7.03    1.54
  -5  -8  11    8.77    1.91
  -8  -5  13    8.79    1.75
  -5  -8  13    9.90    2.11
  -5  -8  15   -1.35    1.55
  -8  -5  15   -2.00    1.23
  -8  -5  17   20.81    2.62
  -5  -8  17   18.14    2.77
  -5  -8  19    3.41    1.96
  -8  -5  19    0.12    1.42
  -5  -8  21    2.28    1.87
  -8  -5  21    1.61    1.38
  -5  -8  23    2.19    1.61
  -5  -8  25    4.33    2.36
   8  -6  22    6.79    2.55
   6  -8  22    8.49    2.82
   6  -8  20    3.76    2.27
   8  -6  20    3.16    2.07
   6  -8  18    3.83    2.08
   8  -6  18   10.59    2.65
   6  -8  16    5.23    1.99
   8  -6  16    2.10    1.91
   8  -6  14    5.75    1.91
   6  -8  14    5.44    1.84
   8  -6  12   38.95    3.59
   6  -8  12   39.92    3.51
   8  -6  10    8.22    1.85
   6  -8  10    9.63    1.98
  -6  -8  -8   34.47    1.81
   8  -6   8   38.24    3.04
   6  -8   8   35.96    3.10
   8  -6   6    7.39    1.51
  -8   6   6    5.59    1.49
   6  -8   6    8.18    1.69
  -6   8   6    4.48    1.51
   8  -6   4    3.57    1.11
  -8   6   4    2.19    1.18
   6  -8   4    1.43    0.96
  -6   8   4    3.36    1.40
   6  -8   2   82.94    3.54
  -8   6   2   86.67    4.11
  -8   6   2   87.31    2.56
   8  -6   2   84.88    3.45
  -6   8   2   92.28    4.26
  -8   6   0    0.54    0.61
   8  -6   0    0.63    0.69
   6  -8   0   -0.06    0.67
   6   8   2   81.99    2.08
   6  -8  -2   97.92    3.15
  -8   6  -2   89.89    3.47
   6  -8  -4    2.57    0.63
   8  -6  -4    1.70    0.32
  -6  -8   6    8.90    1.80
   6  -8  -6    6.90    0.83
  -8  -6   8   32.65    2.62
  -6  -8   8   33.74    2.94
   6  -8 -10    9.04    0.89
  -8  -6  10    8.59    1.67
  -6  -8  10    7.72    1.85
  -8  -6  12   42.17    3.20
  -6  -8  12   41.68    3.44
  -6  -8  14    4.33    1.55
  -8  -6  14    7.78    1.83
  -8  -6  16    5.30    1.67
  -6  -8  16    7.04    1.94
  -8  -6  18    5.34    1.89
  -6  -8  18    2.73    1.56
  -6  -8  20    0.70    1.50
  -8  -6  20   -0.29    1.41
  -6  -8  22    4.93    1.91
  -6  -8  24    3.65    1.81
   8  -7  21    5.27    2.33
   7  -8  21   -0.08    1.77
   7  -8  19   12.75    2.84
   8  -7  19   12.60    2.82
   7  -8  17   21.34    3.40
   8  -7  17   26.66    3.41
   8  -7  15    2.16    1.54
   7  -8  15    1.13    1.51
   8  -7  13   58.55    4.43
   7  -8  13   60.60    4.60
   7  -8  11  125.82    6.11
   8  -7  11  120.44    6.03
   8  -7   9    8.51    1.90
  -7  -8  -9    5.11    0.87
  -8  -7  -9    4.43    0.76
   7  -8   9    5.58    1.75
   8  -7   7  129.22    5.47
  -7   8   7  131.59    5.76
   7  -8   7  134.08    5.66
  -8   7   5  102.85    4.84
  -7   8   5  100.76    4.86
   8  -7   5   97.21    4.36
   7  -8   5  100.87    4.53
  -8   7   3   86.98    4.48
   8  -7   3   83.34    3.72
  -7   8   3   92.62    4.47
   7  -8   3   85.92    3.82
   7  -8   1  165.20    5.07
  -8   7   1  166.28    4.39
   8  -7   1  171.53    4.97
   7  -8  -1  169.85    4.61
   8  -7  -1  171.65    4.45
  -8   7  -1  171.34    4.86
   7  -8  -3   91.03    2.92
   8  -7  -3   85.74    2.58
   7  -8  -5   99.04    2.63
   8  -7  -5   73.50    1.86
  -7  -8   7  132.73    5.46
  -8  -7   7  136.02    5.34
   7  -8  -7  121.63    2.86
  -7  -8   9    6.50    1.70
   7  -8  -9    4.40    0.53
  -8  -7   9    5.73    1.58
   7  -8  -9    4.00    0.49
  -7  -8  11  114.22    5.59
  -8  -7  11  119.77    5.39
  -8  -7  13   52.70    3.77
  -7  -8  13   54.82    4.01
  -7  -8  15    2.10    1.39
  -8  -7  15    1.66    1.36
  -7  -8  17   23.48    3.12
  -8  -7  17   20.09    2.74
  -8  -7  19   13.53    2.63
  -7  -8  19   11.75    2.51
  -8  -7  21   -1.33    1.70
  -7  -8  21    4.30    1.99
  -7  -8  23    7.12    2.36
   8  -8  20    7.63    2.55
   8  -8  18    7.62    2.39
   8  -8  16    8.42    2.40
   8  -8  14   58.71    4.78
   8  -8  12   44.05    3.83
   8  -8  10  100.53    5.36
   8  -8   8  156.26    6.40
   8  -8   6    9.16    1.63
  -8   8   6    7.42    1.80
  -8   8   4  113.17    5.28
   8  -8   4  108.70    4.64
  -8   8   2  318.68    9.07
   8  -8   2  293.77    7.58
  -8   8   0   26.82    1.88
   8  -8   0   30.65    1.97
   8  -8  -2  295.74    6.42
   8  -8  -4  115.45    3.13
  -8  -8   6    8.32    1.71
   8  -8  -6    6.08    0.54
  -8  -8   8  156.71    6.12
  -8  -8  10   91.72    4.84
  -8  -8  12   42.53    3.56
  -8  -8  14   57.91    4.15
  -8  -8  16   12.09    2.45
  -8  -8  18    3.05    1.74
  -8  -8  20    7.74    2.23
  -8  -8  22    3.73    1.93
  -9   0   1   14.01    1.34
  -9   0  -1   13.78    1.28
   0  -9   1   15.54    1.79
  -9   0  -1   14.43    1.39
   9   0  -3   70.11    2.97
   0   9   3   80.43    3.39
   0  -9   3   81.92    3.86
   0   9   5   12.05    1.58
   0  -9   5   12.99    1.89
  -9   0   7   81.21    2.56
   0  -9   7   81.92    4.29
  -9   0   9   80.54    2.66
   0  -9   9   76.72    4.36
   0  -9  11    5.84    1.76
  -9   0  11    7.97    1.03
  -9   0  13    5.34    0.98
   0  -9  13    2.65    1.54
  -9   0  15   85.60    3.66
   0  -9  15   86.88    5.51
   0  -9  17    3.37    1.93
   0  -9  19    5.37    2.09
   0  -9  21    0.77    1.65
   0  -9  23    0.39    1.92
   1  -9  22    7.23    2.53
   1  -9  20   11.14    2.59
   1  -9  18    8.94    2.40
   1  -9  16   19.67    3.03
  -9   1  14   46.77    2.30
   1  -9  14   40.04    3.68
   1  -9  12   51.19    3.90
  -9   1  12   51.91    2.20
  -9   1  10  124.13    3.17
   1  -9  10  127.12    5.85
  -9   1   8   15.82    0.95
   1  -9   8   17.91    2.20
  -9   1   6   23.41    1.09
  -1   9   6   23.00    2.12
   1  -9   6   26.02    2.48
  -1   9   4  161.14    5.28
   1  -9   4  172.40    5.83
   9   1  -4  162.47    4.76
  -9  -1  -2   47.84    2.02
  -9   1   2   46.67    2.50
   1  -9   2   52.00    2.98
  -9   1   2   47.57    2.04
   1  -9   0   23.36    1.95
  -9  -1   0   24.38    1.53
  -9   1   0   22.70    1.64
  -9   1   0   24.18    1.75
  -1  -9   2   48.32    3.02
  -9   1  -2   50.91    2.66
  -1  -9   4  160.84    5.69
   1   9   4  163.27    4.91
  -1  -9   6   29.09    2.61
  -9  -1   6   24.66    1.58
  -9  -1   8   17.94    1.41
  -1  -9   8   19.81    2.32
  -9  -1  10  125.95    3.92
  -1  -9  10  125.80    5.75
  -9  -1  12   53.51    2.71
  -1  -9  12   55.76    3.99
  -1  -9  14   43.77    3.92
  -9  -1  14   48.55    2.81
  -9  -1  16   15.53    1.84
  -1  -9  16   19.01    2.84
  -1  -9  18   13.25    2.58
  -1  -9  20    8.99    2.51
  -1  -9  22    1.01    1.65
  -1  -9  24    5.05    2.43
   2  -9  23    2.63    2.25
   2  -9  21   -1.41    1.70
   9  -2  19    5.05    2.11
   2  -9  19    5.27    2.11
   9  -2  17    8.04    2.03
   2  -9  17    9.62    2.36
   9  -2  15   44.90    4.05
   2  -9  15   52.62    4.40
  -9   2  13   13.01    1.05
   2  -9  13   13.69    2.31
   9  -2  13   17.92    2.56
   9  -2  11   13.37    2.15
  -9   2  11    8.49    0.67
   2  -9  11   10.65    1.99
   2  -9   9   76.68    4.38
   9  -2   9   75.75    4.24
   2  -9   7  111.94    5.02
   9  -2   7  105.49    4.62
   9   2  -5  140.95    4.37
  -2   9   5  137.29    5.03
   2  -9   5  145.87    5.36
  -9   2   5  124.84    2.45
  -9   2   3   24.21    2.01
   9   2  -3   28.11    1.75
  -2   9   3   26.61    2.18
  -9   2   3   27.82    1.30
   2  -9   3   27.92    2.29
  -9  -2  -1  100.47    2.85
  -9   2   1  125.46    4.24
  -9   2   1  129.29    3.56
   2  -9   1  122.12    4.46
  -9   2  -1  127.45    4.02
   2  -9  -1  121.51    4.33
   2   9   3   26.31    1.84
  -2  -9   3   26.62    2.31
   2   9   5  144.41    4.52
  -2  -9   5  143.66    5.51
  -9  -2   7  103.16    3.60
  -2  -9   7  107.38    5.01
  -9  -2   9   71.95    3.07
  -2  -9   9   69.20    4.25
  -9  -2  11   14.46    1.61
  -2  -9  11   11.90    2.17
  -2  -9  13   16.81    2.50
  -9  -2  13   16.06    1.75
  -2  -9  15   47.75    4.12
  -9  -2  15   48.63    3.13
  -9  -2  17    9.18    1.66
  -2  -9  17    5.44    1.90
  -2  -9  19    5.52    2.18
  -2  -9  21    3.19    1.89
  -2  -9  23    0.44    1.91
   3  -9  22    2.66    2.27
   9  -3  22    2.08    1.76
   3  -9  20    3.37    2.00
   9  -3  20    0.30    1.77
   3  -9  18   10.78    2.55
   9  -3  18   13.15    2.77
   3  -9  16    0.52    1.66
   9  -3  16   -0.03    1.52
   3  -9  14    1.71    1.44
   9  -3  14    2.84    1.62
   9  -3  12   48.86    3.83
   3  -9  12   47.46    3.83
   3  -9  10   33.85    3.19
   9  -3  10   34.16    3.08
   3  -9   8    2.54    1.43
   9  -3   8    0.45    1.13
   3  -9   6   50.99    3.21
  -3   9   6   46.15    3.15
   9  -3   6   50.70    3.06
  -9   3   4   29.17    0.93
   9   3  -4   34.78    1.96
  -3   9   4   30.73    2.52
   9  -3   4   35.47    2.43
   3  -9   4   36.12    2.65
  -9   3   4   33.60    2.47
  -9   3   2    8.40    1.37
  -9   3   2    7.92    0.81
   9   3  -2    8.67    0.92
   3  -9   2    5.27    1.15
  -9   3   0   45.03    2.59
   3  -9   0   45.22    2.58
  -9   3   0   46.78    2.15
   3  -9  -2    7.93    1.26
  -9   3  -2    6.94    1.12
   3   9   4   31.12    1.87
  -3  -9   4   36.42    2.75
  -3  -9   6   51.73    3.36
  -9  -3   8    2.77    1.04
  -3  -9   8    2.60    1.36
  -3  -9  10   39.10    3.32
  -9  -3  10   34.49    2.37
  -9  -3  12   45.37    2.81
  -3  -9  12   42.51    3.64
  -3  -9  14   -1.87    1.73
  -9  -3  14    1.46    1.18
  -9  -3  16    2.73    1.15
  -3  -9  16    1.18    1.46
  -9  -3  18   14.28    2.09
  -3  -9  18   11.75    2.58
  -3  -9  20   -0.96    1.73
  -3  -9  22    1.44    1.62
  -3  -9  24    2.72    2.07
   4  -9  21    0.34    1.79
   9  -4  21    0.87    1.66
   4  -9  19    2.15    1.90
   9  -4  19    1.67    1.60
   9  -4  17    8.02    2.36
   4  -9  17    7.28    2.27
   4  -9  15    7.58    2.07
   9  -4  15    4.30    1.66
   4  -9  13   15.69    2.64
   9  -4  13   13.21    2.44
   4  -9  11   19.51    2.56
   9  -4  11   20.62    2.51
   4  -9   9   43.59    3.43
   9  -4   9   43.55    3.31
  -4   9   7   16.72    2.19
   9  -4   7   18.44    2.08
   4  -9   7   16.30    2.08
   4  -9   5   18.13    1.99
  -4   9   5   15.59    2.07
   9  -4   5   16.29    1.81
  -9   4   3    3.60    1.10
  -4   9   3    4.46    1.35
   9   4  -3    4.99    0.84
   4  -9   3    6.48    1.32
  -9   4   3    5.57    0.54
   9  -4   3    4.10    1.02
   4  -9   1   14.46    1.64
  -9   4   1   14.32    1.12
  -9   4   1   13.01    1.66
   9  -4   1   14.22    1.30
   4  -9  -1   11.77    1.37
  -9   4  -1   12.68    1.24
   4  -9  -3    7.67    1.17
   4   9   3    6.82    0.93
  -4  -9   5   15.74    2.03
  -9  -4   7   17.34    1.75
  -4  -9   7   20.38    2.32
  -4  -9   9   43.31    3.40
  -9  -4   9   38.86    2.61
  -9  -4  11   19.85    2.11
  -4  -9  11   20.89    2.59
  -9  -4  13   11.32    1.67
  -4  -9  13   12.97    2.17
  -4  -9  15    7.78    2.03
  -9  -4  15    9.39    1.72
  -9  -4  17    8.43    1.91
  -4  -9  17    7.84    2.15
  -9  -4  19    4.86    1.61
  -4  -9  19    8.76    2.33
  -4  -9  21    5.33    2.26
  -4  -9  23    0.28    1.79
   5  -9  22    1.86    2.02
   9  -5  22    3.25    2.28
   5  -9  20    2.14    1.77
   9  -5  20    0.00    1.71
   5  -9  18    5.60    2.03
   9  -5  18    8.06    2.53
   5  -9  16    7.09    2.17
   9  -5  16    5.31    1.83
   5  -9  14   10.35    2.21
   9  -5  14    2.33    1.43
   9  -5  12   58.97    4.30
   5  -9  12   59.44    4.40
   5  -9  10   11.80    2.18
   9  -5  10    8.35    1.82
   5  -9   8   14.90    2.09
   9  -5   8   21.03    2.36
   5  -9   6   59.03    3.57
  -5   9   6   54.21    3.51
   9  -5   6   58.80    3.47
  -9   5   4   26.47    2.46
   9  -5   4   27.19    2.21
   5  -9   4   30.58    2.42
  -5   9   4   30.73    2.63
  -9   5   2   37.06    2.70
   9   5  -2   37.79    1.56
   9  -5   2   37.61    2.28
  -9   5   2   34.87    1.53
   5  -9   2   38.02    2.49
  -9   5   0   93.76    3.14
   5  -9   0   90.32    3.63
   9  -5   0   97.90    3.23
  -9   5  -2   33.44    2.15
   5   9   2   39.19    1.75
   5  -9  -2   41.16    2.29
   5  -9  -4   27.89    1.80
  -5  -9   6   52.68    3.52
  -9  -5   8   20.38    2.11
  -5  -9   8   19.09    2.26
  -9  -5  10   11.46    1.74
  -5  -9  10   12.22    1.99
   5  -9 -10   10.67    1.21
  -9  -5  12   58.08    3.60
  -5  -9  12   56.91    4.10
  -9  -5  14    6.54    1.54
  -5  -9  14    9.46    2.04
  -9  -5  16    6.99    1.74
  -5  -9  16    6.04    2.16
  -9  -5  18    6.54    1.66
  -5  -9  18    1.30    1.86
  -5  -9  20   -0.91    1.93
  -5  -9  22    2.66    1.98
  -5  -9  24    1.10    1.84
   6  -9  21   -4.41    2.46
   9  -6  21    2.25    2.03
   6  -9  19    3.66    2.13
   9  -6  19   -0.70    1.81
   6  -9  17   11.58    2.56
   9  -6  17   13.12    2.72
   6  -9  15    2.19    1.83
   9  -6  15   -0.82    1.40
   6  -9  13   18.02    2.77
   9  -6  13   16.88    2.69
   6  -9  11    8.30    2.16
   9  -6  11   11.55    2.02
   9  -6   9   10.81    1.92
   6  -9   9   11.61    2.15
  -6   9   7   30.88    2.93
   6  -9   7   22.98    2.46
   9  -6   7   27.06    2.59
   9  -6   5    2.32    1.13
  -9   6   5    2.22    1.43
  -6   9   5    0.07    1.17
   6  -9   5    0.11    1.18
   9  -6   3    2.04    0.84
  -6   9   3    1.47    1.19
  -9   6   3    0.54    1.14
   6  -9   3    1.78    0.91
   9   6  -1   22.71    0.97
   9  -6   1   24.37    1.82
   6  -9   1   27.50    2.05
  -9   6   1   26.54    2.46
  -9   6   1   27.50    1.57
  -9   6  -1   28.91    1.93
   6  -9  -1   30.38    2.04
   9  -6  -1   28.36    1.67
   9  -6  -3    2.03    0.43
   6  -9  -3    1.45    0.69
  -6  -9   5    0.75    1.19
   6  -9  -5    3.06    0.82
  -6  -9   7   26.79    2.69
   6  -9  -7   27.50    1.57
  -9  -6   7   29.15    2.52
  -6  -9   9    9.88    1.87
  -9  -6   9    9.40    1.80
  -9  -6  11   10.60    1.80
  -6  -9  11    5.95    1.67
  -6  -9  13   16.67    2.47
  -9  -6  13   21.08    2.48
  -9  -6  15    1.21    1.21
  -6  -9  15    1.50    1.69
  -9  -6  17   12.66    2.18
  -6  -9  17    9.99    2.24
  -6  -9  19   -0.55    1.56
  -9  -6  19   -1.83    1.35
  -6  -9  21   -0.33    1.64
  -6  -9  23    0.10    1.77
   7  -9  20    1.13    1.97
   9  -7  20    0.81    1.75
   7  -9  18   -0.51    1.65
   9  -7  18   -1.73    1.89
   7  -9  16    2.33    1.83
   9  -7  16    8.30    2.36
   7  -9  14   31.61    3.67
   9  -7  14   22.34    3.09
   9  -7  12   31.84    3.39
   7  -9  12   37.39    3.55
   7  -9  10   35.62    3.33
   9  -7  10   37.25    3.36
  -9  -7  -8   35.11    1.34
   9  -7   8   47.07    3.54
   7  -9   8   44.44    3.43
  -9   7   6    9.70    1.86
   9  -7   6   11.45    1.77
   7  -9   6   16.48    2.10
  -7   9   6   13.61    2.16
  -7   9   4   24.79    2.61
   9  -7   4   23.35    2.19
   7  -9   4   23.33    2.17
  -9   7   4   20.87    2.46
   7  -9   2   93.18    3.96
  -7   9   2  101.24    4.75
   9  -7   2   93.48    3.83
  -9   7   2  101.65    4.68
   9  -7   0    9.59    1.19
  -9   7   0    8.63    1.16
   7  -9   0    7.95    1.23
   7  -9  -2   98.94    3.40
   9  -7  -2   73.62    2.64
   9  -7  -4   19.63    0.96
   7  -9  -4   25.12    1.58
  -7  -9   6   13.99    2.10
   7  -9  -6   13.66    1.05
   7  -9  -8   42.32    1.72
  -9  -7   8   47.08    3.35
  -7  -9   8   45.70    3.50
   7  -9 -10   28.45    1.42
  -7  -9  10   34.48    3.20
  -9  -7  10   35.29    2.94
  -7  -9  12   38.58    3.43
  -9  -7  12   38.10    3.22
  -7  -9  14   23.00    2.82
  -9  -7  14   24.39    2.72
  -9  -7  16    4.68    1.56
  -7  -9  16    2.42    1.55
  -9  -7  18   -1.50    1.58
  -7  -9  18    0.24    1.49
  -9  -7  20    5.55    1.96
  -7  -9  20    4.05    2.07
  -7  -9  22    2.31    1.75
  -7  -9  24    0.97    1.74
   9  -8  21   -0.51    1.89
   8  -9  21    5.24    2.40
   9  -8  19   -0.72    1.74
   8  -9  19    3.83    2.28
   8  -9  17    7.68    2.27
   9  -8  17   12.38    2.72
   9  -8  15   15.43    2.77
   8  -9  15   19.16    3.08
   9  -8  13   24.51    3.15
   8  -9  13   19.85    2.93
   9  -8  11   56.00    4.27
   8  -9  11   56.74    4.29
   8  -9   9   18.67    2.56
   9  -8   9   16.13    2.40
  -9   8   7   50.55    3.79
  -8   9   7   57.59    4.06
   9  -8   7   50.16    3.57
   8  -9   7   56.74    3.78
  -8   9   5   73.83    4.46
  -9   8   5   74.54    4.37
   9  -8   5   77.03    4.05
   8  -9   5   73.51    4.01
   8  -9   3    6.66    1.30
   9  -8   3    7.72    1.35
  -8   9   3    9.38    1.90
  -9   8   3    8.21    1.84
  -9   8   1   86.18    3.18
  -9   8   1   82.51    4.43
   9  -8   1   88.48    3.63
   8  -9   1   90.02    3.77
   9  -8  -1   85.01    3.18
   8  -9  -1   88.69    3.44
   9  -8  -3    7.71    0.89
   8  -9  -3    7.27    0.98
   8  -9  -5   71.59    2.34
   9  -8  -5   60.63    1.72
   8  -9  -7   43.85    1.55
  -8  -9   7   54.86    3.71
  -9  -8   7   55.51    3.63
  -9  -8   9   13.91    2.10
  -8  -9   9   16.36    2.43
  -8  -9  11   50.84    3.89
  -9  -8  11   55.43    3.94
  -8  -9  13   21.20    2.63
  -9  -8  13   22.92    2.80
  -8  -9  15   15.48    2.58
  -9  -8  15   19.71    2.58
  -9  -8  17    9.77    2.26
  -8  -9  17    9.60    2.40
  -8  -9  19   -1.37    1.70
  -9  -8  19    2.81    1.75
  -9  -8  21    1.18    1.70
  -8  -9  21    3.68    1.93
   9  -9  20    3.54    2.07
   9  -9  18    2.02    1.88
   9  -9  16    3.80    2.12
   9  -9  14   14.63    2.77
   9  -9  12   12.97    2.45
   9  -9  10   23.87    2.86
   9  -9   8   47.25    3.60
  -9   9   6    0.44    1.36
   9  -9   6    0.49    1.09
  -9   9   4   14.30    2.29
   9  -9   4   12.96    1.83
  -9   9   2   37.59    3.22
   9  -9   2   34.55    2.51
   9  -9   0   65.94    3.12
   9  -9  -2   38.57    2.16
   9  -9  -4   13.71    1.10
   9  -9  -6    1.40    0.33
  -9  -9   8   44.01    3.46
  -9  -9  10   24.48    2.87
  -9  -9  12   13.93    2.35
  -9  -9  14   15.46    2.50
  -9  -9  16    0.23    1.31
  -9  -9  18    6.06    1.99
  -9  -9  20    0.43    1.55
 -10   0   0   35.20    2.01
 -10   0   0   33.23    2.12
 -10   0  -2   12.79    1.26
   0 -10   2   14.82    1.87
   0  10   4  121.87    4.60
   0 -10   4  118.99    5.02
   0 -10   6   16.63    2.14
   0  10   6   17.86    1.89
 -10   0   6   17.12    1.21
 -10   0   8    6.45    0.85
   0 -10   8    9.92    2.00
 -10   0  10  167.97    4.22
   0 -10  10  169.17    6.87
   0 -10  12   22.59    2.78
 -10   0  12   26.07    1.75
   0 -10  14   39.45    3.81
 -10   0  14   40.74    2.30
   0 -10  16   15.00    2.85
   0 -10  18    7.33    2.28
   0 -10  20    5.03    2.21
   0 -10  22    0.56    1.88
   1 -10  23    2.78    2.15
   1 -10  21    3.03    2.16
   1 -10  19   -0.75    1.80
   1 -10  17    7.51    2.16
   1 -10  15   97.38    5.97
   1 -10  13    9.26    2.14
 -10   1  13    9.07    0.99
   1 -10  11   22.65    2.77
 -10   1  11   19.71    1.20
   1 -10   9   90.76    4.85
 -10   1   9   86.32    2.36
 -10   1   7   69.99    2.03
   1 -10   7   73.38    4.23
  -1  10   5   56.41    3.24
   1 -10   5   55.67    3.49
   1 -10   3   45.89    3.03
  -1  10   3   42.42    2.69
 -10   1   3   38.93    1.86
 -10   1   1   30.82    2.10
 -10  -1  -1   28.60    1.67
 -10   1   1   30.10    1.85
   1 -10   1   31.08    2.41
 -10   1  -1   29.32    2.03
 -10   1  -1   27.87    1.94
   1  10   3   44.16    2.59
  -1 -10   3   42.76    3.00
  -1 -10   5   55.15    3.52
   1  10   5   56.08    2.96
 -10  -1   7   75.27    2.82
  -1 -10   7   78.93    4.33
 -10  -1   9   91.97    3.23
  -1 -10   9   91.16    4.98
 -10  -1  11   19.98    1.56
  -1 -10  11   24.54    2.85
  -1 -10  13    8.53    2.10
 -10  -1  13    7.75    1.23
  -1 -10  15   92.48    5.72
 -10  -1  15   88.07    3.82
  -1 -10  17    3.23    2.04
  -1 -10  19    2.00    1.77
  -1 -10  21    2.40    1.94
  -1 -10  23   -1.34    1.92
   2 -10  22   -1.34    2.10
   2 -10  20    8.25    2.57
   2 -10  18    2.24    1.75
   2 -10  16    7.42    2.26
  10  -2  16    9.51    2.40
  10  -2  14    9.73    2.18
   2 -10  14   11.00    2.40
   2 -10  12   31.50    3.30
  10  -2  12   26.68    3.00
  10  -2  10   59.06    4.02
   2 -10  10   64.82    4.34
   2 -10   8    5.49    1.49
  -2  10   6   10.95    1.73
   2 -10   6   11.48    1.89
  -2  10   4   88.32    4.11
  10   2  -4   76.70    3.15
 -10   2   4   85.83    2.38
   2 -10   4   85.50    4.22
   2 -10   2   40.77    2.82
 -10   2   2   46.79    2.75
 -10  -2  -2   31.86    1.55
 -10   2   2   45.66    1.98
 -10   2   0    6.44    1.03
   2 -10   0    8.47    1.49
 -10   2   0    4.82    1.09
   2  10   4   80.87    3.44
  -2 -10   4   81.35    4.18
  -2 -10   6   11.74    2.00
  -2 -10   8    4.01    1.49
 -10  -2   8    5.17    1.06
 -10  -2  10   57.22    2.82
  -2 -10  10   58.13    4.00
 -10  -2  12   26.32    2.06
  -2 -10  12   23.19    2.74
  -2 -10  14   11.76    2.40
 -10  -2  14   10.00    1.49
 -10  -2  16   10.93    1.70
  -2 -10  16    4.46    2.13
  -2 -10  18    3.67    1.89
  -2 -10  20    4.98    2.37
  -2 -10  22    0.24    2.01
   3 -10  21    0.93    1.93
   3 -10  19    1.27    1.94
  10  -3  19   -0.08    1.62
   3 -10  17    1.17    1.92
  10  -3  17   -2.13    1.75
   3 -10  15   14.73    2.63
  10  -3  15   12.73    2.48
   3 -10  13   10.47    2.33
  10  -3  13   11.82    2.17
   3 -10  11    2.07    1.33
  10  -3  11    6.32    1.81
   3 -10   9   48.68    3.68
  10  -3   9   50.76    3.54
  10  -3   7   19.96    2.15
   3 -10   7   21.51    2.44
  -3  10   7   22.08    2.40
   3 -10   5   30.48    2.68
  10  -3   5   32.63    2.47
  -3  10   5   31.20    2.64
   3 -10   3   12.76    1.75
 -10   3   3   14.49    1.83
 -10   3   3   14.00    0.95
 -10  -3  -3   13.15    0.83
  -3  10   3   12.88    1.81
  10   3  -3   14.33    1.25
 -10   3   1    6.10    1.29
   3 -10   1    6.79    1.37
 -10   3   1    7.53    0.97
   3 -10  -1    7.60    1.40
 -10   3  -1    7.20    1.11
   3 -10  -3   14.02    1.56
   3  10   3   12.75    1.38
  -3 -10   3   14.54    2.04
   3  10   5   28.38    1.99
  -3 -10   5   28.13    2.61
  -3 -10   7   21.82    2.53
 -10  -3   7   26.76    2.03
  -3 -10   9   49.48    3.68
 -10  -3   9   54.71    2.91
 -10  -3  11    4.75    1.23
  -3 -10  11    5.87    1.78
 -10  -3  13    9.09    1.51
  -3 -10  13    7.14    1.99
  -3 -10  15   14.58    2.49
 -10  -3  15   15.65    1.95
  -3 -10  17    0.11    1.57
  -3 -10  19    0.28    1.55
  -3 -10  21    2.94    2.08
  -3 -10  23   -2.32    1.66
   4 -10  22   -2.33    1.95
  10  -4  22   -3.54    2.25
   4 -10  20    3.14    1.96
  10  -4  20    2.60    1.77
   4 -10  18    3.94    1.99
  10  -4  18   -0.13    1.67
   4 -10  16    3.14    1.98
  10  -4  16    2.53    1.63
   4 -10  14   29.57    3.52
  10  -4  14   26.15    3.20
   4 -10  12   16.95    2.51
  10  -4  12   15.54    2.37
   4 -10  10   32.05    3.20
  10  -4  10   36.81    3.26
   4 -10   8   66.73    4.20
  10  -4   8   64.45    3.98
  -4  10   6    5.55    1.57
   4 -10   6    3.49    1.15
  10  -4   6    6.47    1.53
 -10   4   4   68.34    3.71
  10   4  -4   67.33    2.75
  -4  10   4   68.41    3.99
  10  -4   4   71.95    3.52
   4 -10   4   72.16    3.83
 -10   4   2  125.96    3.28
  10   4  -2  125.54    3.34
 -10   4   2  122.07    4.87
  10  -4   2  125.38    4.28
   4 -10   2  124.72    4.80
   4 -10   0    6.35    1.22
 -10   4   0    5.37    1.32
 -10   4   0    6.85    0.96
   4  10   2  125.00    3.83
   4 -10  -2  125.49    4.39
   4 -10  -4   73.18    3.24
  -4 -10   4   75.57    4.18
   4  10   4   73.69    2.89
  -4 -10   6    4.65    1.56
  -4 -10   8   67.93    4.27
 -10  -4   8   66.27    3.36
  -4 -10  10   32.82    3.10
 -10  -4  10   33.95    2.56
  -4 -10  12   16.78    2.61
 -10  -4  12   13.72    1.84
 -10  -4  14   23.81    2.36
  -4 -10  14   21.35    2.96
 -10  -4  16    1.67    1.20
  -4 -10  16    3.64    1.70
  -4 -10  18    3.13    2.02
  -4 -10  20    3.81    2.17
  -4 -10  22   -2.87    2.04
   5 -10  21    1.25    2.00
  10  -5  21    0.69    1.92
   5 -10  19    4.05    2.20
  10  -5  19    2.99    2.05
   5 -10  17   11.03    2.52
  10  -5  17   12.33    2.70
   5 -10  15    2.31    1.74
  10  -5  15    1.49    1.67
   5 -10  13   33.52    3.56
  10  -5  13   31.74    3.40
  10  -5  11   45.18    3.71
   5 -10  11   39.18    3.64
   5 -10   9   36.08    3.37
  10  -5   9   42.44    3.38
   5 -10   7   51.82    3.61
  -5  10   7   55.90    3.76
  10  -5   7   54.17    3.49
   5 -10   5  116.37    5.01
 -10   5   5  117.84    5.33
  -5  10   5  114.87    5.31
  10  -5   5  117.35    4.89
 -10   5   3   15.15    0.89
 -10   5   3   15.91    1.99
  10   5  -3   16.03    1.22
   5 -10   3   17.43    1.93
  -5  10   3   18.15    2.17
  10  -5   3   16.15    1.74
 -10   5   1   94.30    3.03
 -10   5   1   93.80    4.32
   5 -10   1   93.92    4.01
  10  -5   1   96.39    3.55
 -10   5  -1   92.15    3.48
   5 -10  -1   93.96    3.86
   5  10   3   16.84    1.29
   5 -10  -3   17.49    1.56
   5 -10  -5  117.54    3.98
  -5 -10   5  119.04    5.39
 -10  -5   7   55.95    3.21
  -5 -10   7   53.52    3.71
  -5 -10   9   43.04    3.59
 -10  -5   9   40.54    2.86
  -5 -10  11   36.63    3.44
 -10  -5  11   36.41    2.84
 -10  -5  13   30.34    2.78
  -5 -10  13   26.40    3.13
  -5 -10  15    4.90    1.88
 -10  -5  15    2.61    1.25
  -5 -10  17   12.63    2.56
 -10  -5  17    9.33    1.87
  -5 -10  19    1.81    1.78
  -5 -10  21   -0.51    1.63
  -5 -10  23   -2.96    1.74
   6 -10  20    3.66    2.40
  10  -6  20    2.17    1.92
   6 -10  18    1.57    1.68
  10  -6  18    2.03    1.55
   6 -10  16    1.13    1.60
  10  -6  16    3.70    1.79
   6 -10  14    2.26    1.73
  10  -6  14    1.89    1.52
   6 -10  12   28.84    3.29
  10  -6  12   23.24    2.87
   6 -10  10   22.36    2.91
  10  -6  10   25.26    2.79
   6 -10   8    9.53    1.87
  10  -6   8   12.44    1.96
  -6  10   6   11.99    2.07
   6 -10   6    8.88    1.69
  10  -6   6   12.65    1.95
   6 -10   4   56.51    3.42
 -10   6   4   56.13    3.63
  -6  10   4   65.24    3.98
  10  -6   4   59.39    3.30
  10   6  -2   35.08    1.49
 -10   6   2   37.50    1.72
   6 -10   2   40.40    2.67
 -10   6   2   38.62    2.92
  -6  10   2   46.25    3.24
  10  -6   2   38.30    2.41
   6 -10   0   40.34    2.53
 -10   6   0   42.67    2.21
  10  -6   0   42.84    2.26
   6  10   2   43.43    1.83
   6 -10  -2   48.48    2.62
   6 -10  -4   65.93    2.85
   6 -10  -6    9.75    1.16
  -6 -10   6   10.53    1.99
 -10  -6   8   11.63    1.81
   6 -10  -8   14.52    1.32
  -6 -10   8   13.32    2.18
  -6 -10  10   28.52    3.04
 -10  -6  10   22.10    2.38
  -6 -10  12   26.21    3.10
 -10  -6  12   20.90    2.44
 -10  -6  14    4.59    1.52
  -6 -10  14    1.40    1.54
  -6 -10  16    3.34    1.83
 -10  -6  16    1.19    1.32
 -10  -6  18    0.77    1.29
  -6 -10  18    0.64    1.56
  -6 -10  20    0.51    1.62
  -6 -10  22   -1.87    1.93
   7 -10  19    0.96    1.82
  10  -7  19    2.72    1.99
   7 -10  17    5.89    2.23
  10  -7  17    4.81    2.03
   7 -10  15    2.65    1.75
  10  -7  15   -0.44    1.55
   7 -10  13   11.55    2.29
  10  -7  13   14.27    2.62
   7 -10  11    0.46    1.52
  10  -7  11   -0.22    1.45
   7 -10   9    6.22    1.81
  10  -7   9    7.25    1.60
  -7  10   7   24.06    2.75
   7 -10   7   19.63    2.35
  10  -7   7   23.66    2.68
  10  -7   5    9.67    1.66
 -10   7   5    6.90    1.73
  -7  10   5    9.54    2.02
   7 -10   5    7.70    1.60
  10  -7   3    0.15    0.89
  -7  10   3   -0.20    1.49
   7 -10   3    1.58    1.01
 -10   7   3   -0.28    1.23
   7 -10   1   -1.10    0.99
 -10   7   1   -0.88    1.26
 -10   7   1    1.69    0.76
  10  -7   1    1.26    0.77
   7  10   1    1.07    0.49
   7 -10  -1    0.44    0.82
  10  -7  -1    0.99    0.62
  10  -7  -3    0.55    0.38
   7 -10  -3    1.40    0.71
   7 -10  -5   10.18    1.12
 -10  -7   7   21.47    2.33
  -7 -10   7   20.06    2.55
   7 -10  -7   21.67    1.44
 -10  -7   9    8.17    1.93
   7 -10  -9    6.74    0.87
  -7 -10   9    9.88    2.08
  -7 -10  11    1.44    1.51
 -10  -7  11    1.48    1.26
  -7 -10  13   14.34    2.44
 -10  -7  13   12.91    2.15
 -10  -7  15   -0.54    1.39
  -7 -10  15    3.09    1.52
  -7 -10  17    4.57    1.84
 -10  -7  17    8.20    2.12
 -10  -7  19   -2.13    1.70
  -7 -10  19   -1.37    1.80
  -7 -10  21    0.13    1.82
  -7 -10  23    0.14    1.72
   8 -10  20    2.65    2.05
  10  -8  20   -1.04    1.81
   8 -10  18    6.55    2.46
  10  -8  18    0.83    1.80
   8 -10  16    0.25    1.64
  10  -8  16    2.33    1.81
   8 -10  14    2.71    1.85
  10  -8  14    1.85    1.76
  10  -8  12   17.45    2.70
   8 -10  12   17.94    2.65
  10  -8  10   25.91    2.94
   8 -10  10   27.05    3.06
  10  -8   8   22.02    2.57
   8 -10   8   27.18    3.01
  10  -8   6    5.88    1.72
 -10   8   6    2.31    1.58
  -8  10   6    4.04    1.80
   8 -10   6    3.82    1.44
  -8  10   4   15.64    2.47
  10  -8   4   13.94    1.80
 -10   8   4   15.93    2.36
   8 -10   4   12.42    1.88
  10  -8   2   15.79    1.72
 -10   8   2   17.82    2.33
  -8  10   2   13.27    2.11
   8 -10   2   15.97    1.83
  10  -8   0   13.10    1.48
 -10   8   0   14.93    1.50
   8 -10   0   13.88    1.56
   8 -10  -2   19.17    1.63
  10  -8  -2   17.17    1.35
   8 -10  -4   12.60    1.23
  10  -8  -4   10.61    0.78
   8 -10  -6    3.23    0.66
  -8 -10   6    2.25    1.57
  -8 -10   8   24.06    2.79
 -10  -8   8   25.64    2.66
  -8 -10  10   25.55    3.01
 -10  -8  10   24.41    2.61
  -8 -10  12   12.83    2.44
 -10  -8  12   17.32    2.35
 -10  -8  14    3.66    1.48
  -8 -10  14    4.36    1.95
 -10  -8  16    2.66    1.63
  -8 -10  16    1.83    1.56
 -10  -8  18    2.84    1.66
  -8 -10  18    0.05    1.46
  -8 -10  20   -3.53    2.20
  -8 -10  22    0.77    1.76
  10  -9  19    2.31    1.71
   9 -10  19    2.20    2.06
   9 -10  17    2.13    1.88
  10  -9  17   -1.00    1.79
   9 -10  15   11.64    2.65
  10  -9  15   16.98    2.80
  10  -9  13    3.22    1.52
   9 -10  13    1.44    1.67
  10  -9  11    9.13    2.15
   9 -10  11    8.32    2.13
  10  -9   9    1.43    1.47
   9 -10   9    2.07    1.51
 -10   9   7   22.37    2.75
  10  -9   7   29.37    2.90
  -9  10   7   25.53    3.09
   9 -10   7   27.93    2.74
 -10   9   5   55.60    4.07
  10  -9   5   49.52    3.38
   9 -10   5   46.55    3.42
  -9  10   5   47.60    3.84
  10  -9   3   13.33    1.77
  -9  10   3   16.97    2.49
   9 -10   3   14.64    1.90
 -10   9   3   14.40    2.21
 -10   9   1   53.78    3.78
  -9  10   1   53.98    3.85
  10  -9   1   52.50    2.95
   9 -10   1   53.61    3.03
  10  -9  -1   51.83    2.57
   9 -10  -1   45.85    2.65
   9 -10  -3   14.02    1.34
  10  -9  -3   13.92    1.19
   9 -10  -5   47.83    2.05
  -9 -10   7   24.71    2.79
 -10  -9   7   29.55    2.90
  -9 -10   9    2.82    1.52
 -10  -9   9    4.09    1.62
  -9 -10  11   14.35    2.45
 -10  -9  11    8.27    1.96
  -9 -10  13    5.13    1.86
 -10  -9  13    6.70    1.95
 -10  -9  15   15.54    2.63
  -9 -10  15   17.87    2.85
 -10  -9  17    1.44    1.54
  -9 -10  17    1.61    1.67
 -10  -9  19    2.31    1.60
  -9 -10  19    0.69    1.75
  -9 -10  21   -0.38    1.67
  10 -10  18   -0.56    1.95
  10 -10  16   13.62    3.00
  10 -10  14   11.76    2.53
  10 -10  12    2.04    1.16
  10 -10  10   43.17    3.83
  10 -10   8   50.43    3.84
 -10  10   6    8.74    2.16
  10 -10   6    7.59    1.68
 -10  10   4   49.31    3.90
  10 -10   4   45.63    3.21
  10 -10   2   76.55    3.80
 -10  10   2   84.41    4.97
  10 -10   0  133.83    4.77
  10 -10  -2   77.79    3.13
  10 -10  -4   45.66    2.05
 -10 -10   8   46.94    3.82
 -10 -10  10   52.97    4.07
 -10 -10  12   -0.33    1.42
 -10 -10  14   13.27    2.54
 -10 -10  16   11.09    2.34
 -10 -10  18    3.22    1.87
 -10 -10  20    3.33    1.77
 -11   0  -1   18.46    1.57
 -11   0   1   18.36    1.58
 -11   0   1   20.70    1.71
   0 -11   1   18.82    2.12
   0 -11   3    2.15    1.38
   0  11   3    0.76    1.05
   0  11   5   92.70    4.18
   0 -11   5   88.69    4.58
 -11   0   7   43.33    1.91
   0 -11   7   41.05    3.31
 -11   0   9   28.95    1.55
   0 -11   9   31.18    3.11
   0 -11  11   14.00    2.30
 -11   0  11   15.32    1.27
   0 -11  13    5.23    2.06
   0 -11  15   48.05    4.39
   0 -11  17    1.34    1.85
   0 -11  19    6.55    2.60
   0 -11  21   -1.84    1.87
   1 -11  22    7.13    2.70
   1 -11  20   12.04    2.91
   1 -11  18    3.73    2.10
   1 -11  16   12.22    2.60
   1 -11  14   17.31    2.70
   1 -11  12   10.18    2.11
   1 -11  10   83.31    4.87
 -11   1  10   71.62    2.12
 -11   1   8    9.17    0.73
   1 -11   8    9.02    1.91
 -11   1   6   10.13    0.83
  -1  11   6   11.06    1.75
   1 -11   6   10.05    1.84
  -1  11   4   63.57    3.52
 -11   1   4   56.38    2.21
   1 -11   4   54.26    3.50
 -11  -1  -2   29.53    1.73
   1 -11   2   30.91    2.62
 -11   1   2   29.69    2.24
 -11   1   2   31.20    1.87
 -11   1   0   76.90    3.33
 -11   1   0   73.58    3.19
   1 -11   0   82.68    3.95
 -11   1  -2   25.89    1.93
  -1 -11   2   31.80    2.71
   1  11   4   58.05    3.15
  -1 -11   4   61.83    3.77
   1  11   6   10.10    1.55
  -1 -11   6    5.48    1.72
 -11  -1   8   11.43    1.22
  -1 -11   8    7.38    1.70
 -11  -1  10   81.05    3.06
  -1 -11  10   76.62    4.83
 -11  -1  12    8.40    1.16
  -1 -11  12    6.18    1.78
  -1 -11  14   25.16    3.19
  -1 -11  16   15.89    2.79
  -1 -11  18   -1.77    1.97
  -1 -11  20   16.79    3.17
  -1 -11  22    0.37    1.85
   2 -11  21    1.04    1.71
   2 -11  19    4.12    2.22
   2 -11  17    4.53    2.27
   2 -11  15    6.56    2.07
   2 -11  13   -1.37    1.79
   2 -11  11   59.55    4.40
   2 -11   9    6.84    1.82
  -2  11   7    0.98    1.32
   2 -11   7    1.49    1.36
  -2  11   5  110.60    4.91
 -11   2   5  111.69    2.75
   2 -11   5  113.75    5.20
 -11   2   3   10.50    1.58
 -11  -2  -3    9.13    0.93
   2 -11   3   15.84    2.04
  -2  11   3   11.34    1.75
 -11   2   3   13.33    1.09
 -11   2   1   58.45    3.10
   2 -11   1   62.40    3.54
 -11   2   1   58.97    2.72
 -11   2  -1   56.00    2.93
   2 -11  -1   56.98    3.24
   2  11   3   12.11    1.59
  -2 -11   3   11.77    2.03
   2  11   5  120.44    4.46
  -2 -11   5  118.73    5.39
  -2 -11   7    1.62    1.30
 -11  -2   7    2.41    0.94
 -11  -2   9    4.99    1.01
  -2 -11   9    5.99    1.76
  -2 -11  11   60.02    4.37
 -11  -2  11   59.59    2.92
  -2 -11  13    0.51    1.59
 -11  -2  13    1.98    0.93
  -2 -11  15    6.32    1.90
  -2 -11  17   -0.57    1.78
  -2 -11  19   10.59    2.59
  -2 -11  21   -0.26    1.68
   3 -11  20    2.66    2.11
   3 -11  18    2.43    1.88
   3 -11  16    0.25    1.66
  11  -3  16    2.65    1.72
   3 -11  14    1.54    1.66
  11  -3  14    1.76    1.67
  11  -3  12    4.89    1.92
   3 -11  12    3.25    1.62
  11  -3  10   35.77    3.31
   3 -11  10   29.51    3.13
   3 -11   8   10.56    2.06
  11  -3   8    8.29    1.71
  -3  11   6   28.27    2.61
   3 -11   6   31.61    2.86
  11   3  -4   69.01    2.95
 -11  -3  -4   69.16    2.11
   3 -11   4   73.53    4.06
  -3  11   4   69.11    3.93
 -11   3   4   66.48    1.97
 -11   3   2   28.81    2.40
 -11   3   2   29.71    1.66
   3 -11   2   28.71    2.47
   3 -11   0   66.57    3.49
 -11   3   0   66.17    3.40
 -11   3   0   67.11    2.92
   3  11   2   31.22    2.07
   3 -11  -2   29.40    2.30
   3  11   4   71.85    3.19
  -3 -11   4   71.55    4.14
  -3 -11   6   33.06    3.09
 -11  -3   8    7.47    1.27
  -3 -11   8    6.73    1.82
  -3 -11  10   38.94    3.45
 -11  -3  10   31.60    2.35
 -11  -3  12    7.37    1.30
  -3 -11  12    7.65    1.98
  -3 -11  14   -0.49    1.44
 -11  -3  14    0.30    0.98
  -3 -11  16    4.57    2.08
  -3 -11  18    0.05    1.66
  -3 -11  20   -0.45    1.68
  -3 -11  22    2.87    1.98
   4 -11  21    0.93    1.85
  11  -4  21    0.37    1.75
   4 -11  19    1.69    1.91
  11  -4  19    1.26    1.71
   4 -11  17    2.16    1.85
  11  -4  17    2.35    1.82
   4 -11  15    0.48    1.62
  11  -4  15   -0.25    1.41
   4 -11  13   11.29    2.35
  11  -4  13    9.99    2.12
  11  -4  11   23.15    2.78
   4 -11  11   22.39    2.91
   4 -11   9    0.25    1.46
  11  -4   9    0.94    1.19
   4 -11   7   55.26    3.78
  -4  11   7   52.52    3.77
  11  -4   7   49.14    3.42
   4 -11   5  124.36    5.35
  -4  11   5  134.60    5.60
  11  -4   5  124.23    4.92
   4 -11   3   24.32    2.37
 -11   4   3   23.81    1.23
 -11   4   3   23.79    2.44
  11   4  -3   23.31    1.56
  -4  11   3   24.48    2.52
 -11   4   1  102.74    3.33
 -11   4   1   95.36    4.35
   4 -11   1   99.15    4.43
   4 -11  -1   98.31    4.13
 -11   4  -1   98.62    3.78
   4  11   3   24.16    1.81
   4 -11  -3   23.21    1.99
  -4 -11   5  132.93    5.81
 -11  -4   7   50.23    2.98
  -4 -11   7   53.44    3.86
  -4 -11   9    0.88    1.63
 -11  -4   9    2.47    1.09
 -11  -4  11   20.16    2.21
  -4 -11  11   23.39    3.07
 -11  -4  13   10.56    1.71
  -4 -11  13   10.71    2.22
  -4 -11  15    1.14    1.57
 -11  -4  15    0.37    1.12
  -4 -11  17    2.71    1.70
  -4 -11  19    0.83    1.60
  -4 -11  21    3.05    2.11
   5 -11  20    2.78    1.92
  11  -5  20    2.51    2.04
  11  -5  18    2.09    1.78
   5 -11  18    1.46    1.92
   5 -11  16    6.52    2.24
  11  -5  16    5.83    2.09
   5 -11  14   19.00    2.96
  11  -5  14   17.07    2.83
   5 -11  12    2.34    1.58
  11  -5  12    2.85    1.56
   5 -11  10   38.65    3.57
  11  -5  10   41.07    3.47
   5 -11   8   62.57    4.12
  -5  11   8   64.00    4.26
  11  -5   8   60.80    3.87
   5 -11   6    5.83    1.44
  -5  11   6    6.13    1.83
  11  -5   6    9.98    1.73
  11   5  -4  119.43    3.77
 -11   5   4  126.08    5.41
  -5  11   4  132.07    5.77
  11  -5   4  117.91    4.83
   5 -11   4  125.23    5.28
 -11   5   2  128.75    5.33
 -11   5   2  125.25    3.38
  -5  11   2  140.54    5.71
  11  -5   2  123.98    4.44
   5 -11   2  125.40    5.01
 -11   5   0    6.60    1.03
 -11   5   0    4.39    1.34
   5 -11   0    3.41    1.06
   5  11   2  128.69    3.93
   5 -11  -2  130.49    4.82
   5  11   4  127.57    3.96
  -5 -11   4  129.36    5.74
   5 -11  -4  134.77    4.57
  -5 -11   6    6.42    1.76
   5 -11  -6    5.61    1.10
  -5 -11   8   65.68    4.37
 -11  -5   8   64.15    3.61
  -5 -11  10   39.15    3.58
 -11  -5  10   40.21    2.90
  -5 -11  12    7.08    1.92
 -11  -5  12    3.88    1.26
 -11  -5  14   16.33    2.17
  -5 -11  14   17.03    2.70
  -5 -11  16    8.42    2.19
 -11  -5  16    6.94    1.73
  -5 -11  18   -0.60    1.77
  -5 -11  20    5.75    2.60
  -5 -11  22   -0.80    1.99
   6 -11  19    2.06    2.24
  11  -6  19    4.03    2.00
  11  -6  17    8.95    2.50
   6 -11  17    4.25    1.84
   6 -11  15    1.63    1.76
  11  -6  15    2.26    1.84
   6 -11  13   16.82    2.78
  11  -6  13   12.69    2.46
   6 -11  11   24.83    3.19
  11  -6  11   24.92    2.89
   6 -11   9    8.19    1.86
  11  -6   9    4.13    1.45
   6 -11   7   49.07    3.73
  -6  11   7   49.24    3.78
  11  -6   7   48.22    3.47
   6 -11   5   46.79    3.40
 -11   6   5   46.11    3.51
  -6  11   5   45.28    3.66
  11  -6   5   40.98    2.99
   6 -11   3    3.64    1.11
 -11   6   3    4.88    1.53
  11   6  -3    3.44    0.69
  -6  11   3    4.38    1.58
  11  -6   3    5.20    1.19
 -11   6   3    3.80    0.59
 -11   6   1   45.44    3.30
  11  -6   1   47.68    2.60
   6 -11   1   43.79    2.84
 -11   6   1   44.67    2.14
   6 -11  -1   44.77    2.74
   6 -11  -3    4.62    1.10
   6  11   3    4.95    0.84
  -6 -11   5   49.58    3.63
   6 -11  -5   46.41    2.51
  -6 -11   7   51.46    3.85
 -11  -6   7   48.95    3.23
   6 -11  -7   45.11    2.41
  -6 -11   9    5.99    1.71
 -11  -6   9    6.47    1.49
  -6 -11  11   20.84    2.71
 -11  -6  11   24.00    2.49
 -11  -6  13   14.46    2.10
  -6 -11  13   17.87    2.71
 -11  -6  15    1.30    1.20
  -6 -11  15   -2.76    1.81
  -6 -11  17    2.34    1.67
 -11  -6  17    7.69    2.06
  -6 -11  19    1.89    1.92
  -6 -11  21    1.86    1.87
   7 -11  20    1.38    1.94
  11  -7  20    2.89    2.06
   7 -11  18   -0.81    1.65
  11  -7  18    6.63    2.38
   7 -11  16    0.44    1.81
  11  -7  16    1.52    1.83
   7 -11  14    2.05    1.53
  11  -7  14    2.27    1.53
   7 -11  12    9.21    2.27
  11  -7  12    9.76    2.20
   7 -11  10   13.78    2.34
  11  -7  10   15.12    2.28
   7 -11   8    3.81    1.56
  -7  11   8    8.23    2.13
  11  -7   8    7.27    1.76
  -7  11   6    0.52    1.60
 -11   7   6    2.32    1.53
   7 -11   6    3.65    1.44
  11  -7   6    0.06    1.11
 -11   7   4    7.67    1.84
  -7  11   4    7.07    1.80
   7 -11   4    6.25    1.51
  11  -7   4    6.15    1.37
   7 -11   2    6.15    1.35
  -7  11   2    6.20    1.68
 -11   7   2    7.68    0.98
 -11   7   2    7.41    1.72
  11   7  -2    6.68    0.65
  11  -7   2    7.49    1.32
   7 -11   0   16.67    1.77
 -11   7   0   18.65    2.29
  11  -7   0   17.93    1.57
 -11   7   0   19.24    1.66
   7 -11  -2   12.10    1.51
   7  11   2    9.23    0.89
   7 -11  -4    9.11    1.28
   7 -11  -6   -0.05    0.74
  -7 -11   6    0.56    1.40
 -11  -7   8    6.84    1.64
  -7 -11   8    7.45    1.97
   7 -11  -8    5.33    0.86
  -7 -11  10    8.71    2.08
 -11  -7  10   10.66    1.97
 -11  -7  12   11.08    2.00
  -7 -11  12    7.83    1.92
 -11  -7  14    4.36    1.57
  -7 -11  14    3.86    1.76
 -11  -7  16    0.21    1.24
  -7 -11  16   -1.30    1.79
  -7 -11  18   -0.15    1.50
  -7 -11  20   -0.31    2.15
  -7 -11  22   -0.23    1.77
   8 -11  19    1.71    2.14
  11  -8  19    4.56    2.26
   8 -11  17    4.33    2.17
  11  -8  17    2.35    1.70
   8 -11  15   10.04    2.47
  11  -8  15   14.10    2.81
   8 -11  13   -0.10    1.45
  11  -8  13   -0.33    1.24
   8 -11  11    8.98    2.15
  11  -8  11    5.03    1.61
   8 -11   9    3.24    1.62
  11  -8   9    0.73    1.40
  -8  11   7   15.66    2.62
   8 -11   7   12.73    2.10
  11  -8   7   14.99    2.27
 -11   8   5   25.31    2.85
  -8  11   5   27.99    3.08
   8 -11   5   22.58    2.50
  11  -8   5   22.01    2.28
  -8  11   3   38.57    3.43
  11  -8   3   27.51    2.39
   8 -11   3   22.00    2.25
 -11   8   3   34.15    3.14
 -11   8   1   17.59    2.39
 -11   8   1   15.36    1.39
   8 -11   1   16.57    1.84
  11  -8   1   16.61    1.69
   8  11   1   17.69    1.01
  11  -8  -1   16.69    1.48
   8 -11  -1   18.18    1.76
   8 -11  -3   35.15    2.19
  11  -8  -3   25.73    1.38
   8 -11  -5   22.40    1.65
 -11  -8   7   10.73    1.92
  -8 -11   7   14.86    2.31
 -11  -8   9    0.02    1.23
  -8 -11   9    2.21    1.72
  -8 -11  11    5.36    2.02
 -11  -8  11    7.49    1.80
  -8 -11  13   -1.00    1.40
 -11  -8  13    1.80    1.48
  -8 -11  15   12.65    2.58
 -11  -8  15    9.48    2.02
 -11  -8  17    2.69    1.54
  -8 -11  17    4.66    2.07
  -8 -11  19    1.65    1.82
  -8 -11  21    3.15    1.95
   9 -11  18   -1.87    2.03
  11  -9  18   -1.75    2.01
   9 -11  16    4.73    1.96
  11  -9  16    5.57    2.32
   9 -11  14    5.20    2.13
  11  -9  14    7.28    1.98
   9 -11  12    0.77    1.35
  11  -9  12    1.44    1.36
  11  -9  10   13.15    2.27
   9 -11  10   14.70    2.39
  11  -9   8   29.15    3.00
  -9  11   8   26.12    3.08
   9 -11   8   32.87    3.18
   9 -11   6   23.07    2.69
  11  -9   6   25.83    2.68
 -11   9   6   24.06    3.04
  -9  11   6   22.76    3.12
  11  -9   4    2.61    1.18
 -11   9   4    0.27    1.48
  -9  11   4    2.29    1.43
   9 -11   4    0.54    0.98
  -9  11   2   37.15    3.43
  11  -9   2   34.98    2.56
   9 -11   2   34.80    2.73
 -11   9   2   36.18    3.27
  11  -9   0  133.13    4.54
   9  11   0  113.51    2.65
 -11   9   0  136.19    6.09
   9 -11   0  132.67    4.83
  11  -9  -2   33.17    1.93
   9 -11  -2   32.37    2.18
   9 -11  -4    0.78    0.65
  -9 -11   6   23.26    2.80
  -9 -11   8   28.71    3.00
 -11  -9   8   30.90    3.07
  -9 -11  10   17.23    2.56
 -11  -9  10   20.36    2.58
  -9 -11  12    1.76    1.62
 -11  -9  12   -0.43    1.38
  -9 -11  14    7.29    2.28
 -11  -9  14    8.36    2.09
 -11  -9  16    3.90    1.71
  -9 -11  16    3.67    1.95
  -9 -11  18    1.54    1.57
 -11  -9  18    2.01    1.64
  -9 -11  20    8.76    2.46
  -9 -11  22    1.44    2.12
  10 -11  17    6.15    2.25
  11 -10  17    4.34    2.00
  10 -11  15   27.35    3.62
  11 -10  15   19.83    3.09
  11 -10  13    7.76    1.99
  10 -11  13    7.87    2.26
  11 -10  11   43.63    4.06
  10 -11  11   40.64    3.92
  11 -10   9    1.60    1.35
  10 -11   9   -0.34    1.33
 -11  10   7   35.38    3.57
 -10  11   7   44.38    3.99
  11 -10   7   34.92    3.26
  10 -11   7   37.61    3.40
 -11  10   5  147.84    6.97
 -10  11   5  156.86    7.18
  11 -10   5  138.49    5.94
  10 -11   5  129.50    5.86
  11 -10   3   25.13    2.33
 -11  10   3   23.85    2.89
 -10  11   3   26.30    3.25
  10 -11   3   26.14    2.49
  11 -10   1  104.54    4.37
  10 -11   1  101.80    4.50
 -11  10   1  103.14    5.57
 -10  11   1  106.00    5.66
  11 -10  -1  101.62    3.94
  10 -11  -1  106.70    4.22
  10 -11  -3   25.17    1.87
 -11 -10   7   35.69    3.37
 -10 -11   7   39.57    3.69
 -10 -11   9    2.20    1.58
 -11 -10   9    2.37    1.63
 -10 -11  11   41.96    3.91
 -11 -10  11   44.61    3.84
 -11 -10  13    6.43    1.95
 -10 -11  13    4.93    1.91
 -11 -10  15   21.04    3.03
 -10 -11  15   28.28    3.59
 -11 -10  17    7.04    2.08
 -10 -11  17    5.44    2.01
 -11 -10  19   10.65    2.52
 -10 -11  19   11.27    2.55
 -10 -11  21   -1.01    1.71
  11 -11  18    4.73    2.20
  11 -11  16    3.07    1.98
  11 -11  14   37.82    4.20
  11 -11  12    2.81    1.53
  11 -11  10   33.53    3.54
  11 -11   8   50.98    4.05
 -11  11   6   16.89    2.70
  11 -11   6   18.27    2.34
 -11  11   4   63.00    4.70
  11 -11   4   64.30    3.95
 -11  11   2   80.83    5.08
  11 -11   2   72.46    3.86
 -11  11   0   97.03    5.41
  11 -11   0   89.45    3.92
 -11 -11   8   53.65    4.23
 -11 -11  10   34.45    3.62
 -11 -11  12    1.83    1.42
 -11 -11  14   35.35    3.78
 -11 -11  16    3.61    1.90
 -11 -11  18    4.77    1.98
   0 -12   0  266.26    8.12
 -12   0   0  272.87    6.75
 -12   0  -2    0.22    0.78
   0 -12   2    1.33    1.38
 -12   0   2    0.05    0.71
   0  12   4   21.45    2.20
   0 -12   4   19.79    2.42
   0  12   6  111.42    4.91
   0 -12   6  109.84    5.43
 -12   0   8    1.51    0.65
   0 -12   8    3.04    1.83
 -12   0  10   29.46    1.59
   0 -12  10   32.43    3.27
   0 -12  12    7.18    2.02
   0 -12  14    8.15    2.26
   0 -12  16    3.81    1.82
   0 -12  18    2.50    2.18
   0 -12  20    5.39    2.51
   1 -12  21   -0.87    1.90
   1 -12  19    9.80    2.65
   1 -12  17    5.00    2.12
   1 -12  15   20.57    3.01
   1 -12  13    3.92    1.88
   1 -12  11   33.08    3.52
 -12   1   9   10.35    0.74
   1 -12   9   13.51    2.23
  -1  12   7   18.86    2.20
 -12   1   7   13.80    0.97
   1 -12   7   20.16    2.66
 -12   1   7   15.43    1.00
  -1  12   5  123.70    5.14
 -12   1   5  112.27    3.31
   1 -12   5  115.42    5.46
   1 -12   3   35.70    3.02
  -1  12   3   34.40    2.71
 -12   1   3   30.29    1.86
 -12  -1  -3   33.05    1.94
 -12  -1  -1   85.42    3.21
 -12   1   1   85.05    3.75
   1 -12   1   85.84    4.41
 -12   1   1   82.57    3.43
   1 -12  -1   83.93    4.22
  -1 -12   1   92.12    4.59
 -12   1  -1   86.63    3.66
   1  12   3   32.78    2.44
  -1 -12   3   29.45    2.83
   1  12   5  110.70    4.62
  -1 -12   5  125.93    5.71
  -1 -12   7   14.31    2.15
 -12  -1   7   18.53    1.49
 -12  -1   9   12.45    1.28
  -1 -12   9   13.77    2.43
 -12  -1  11   32.47    1.98
  -1 -12  11   31.15    3.41
  -1 -12  13    9.91    2.39
  -1 -12  15   16.50    2.72
  -1 -12  17    2.92    2.01
  -1 -12  19   11.32    2.72
  -1 -12  21    7.84    2.63
   2 -12  20   12.49    3.00
   2 -12  18    5.14    2.18
   2 -12  16    6.85    2.35
   2 -12  14   13.86    2.60
   2 -12  12   13.58    2.51
   2 -12  10   27.89    3.13
   2 -12   8   20.07    2.63
  -2  12   6  112.71    5.16
   2 -12   6  124.68    5.71
 -12   2   6  101.66    2.45
 -12   2   4    0.78    0.52
   2 -12   4    0.61    1.26
 -12  -2  -4   -0.96    0.68
  -2  12   4    0.61    1.17
   2 -12   2   41.72    3.07
 -12  -2  -2   43.66    2.01
 -12   2   2   36.77    2.62
 -12   2   2   42.12    2.19
 -12   2   0  263.34    7.19
   2 -12   0  271.43    7.89
 -12   2   0  265.79    6.77
   2 -12  -2   42.81    2.99
  -2 -12   2   46.13    3.39
 -12   2  -2   39.49    2.61
   2  12   4   -0.25    1.00
  -2 -12   4   -0.84    1.42
  -2 -12   6  115.41    5.68
   2  12   6  116.06    4.68
 -12  -2   8   21.77    1.78
  -2 -12   8   18.94    2.53
  -2 -12  10   29.48    3.26
 -12  -2  10   26.00    1.97
 -12  -2  12   19.31    1.76
  -2 -12  12   13.96    2.43
  -2 -12  14   14.33    2.54
  -2 -12  16   -0.09    1.61
  -2 -12  18    5.72    2.25
  -2 -12  20    6.79    2.32
   3 -12  19    7.28    2.30
   3 -12  17    0.93    1.87
   3 -12  15    2.72    1.73
   3 -12  13    5.88    2.08
   3 -12  11   27.40    3.10
   3 -12   9   10.55    2.10
   3 -12   7   13.53    2.24
  -3  12   7   11.18    2.11
  -3  12   5   86.68    4.50
   3 -12   5   83.80    4.54
 -12  -3  -5   77.19    2.38
 -12   3   3  139.55    5.42
  -3  12   3  135.18    5.66
   3 -12   3  130.86    5.57
 -12   3   3  134.54    3.62
   3 -12   1   46.96    3.22
 -12   3   1   50.07    3.11
 -12   3   1   50.41    2.45
 -12   3  -1   46.10    2.97
   3 -12  -1   45.51    3.01
  -3 -12   3  132.89    5.86
   3  12   3  135.20    4.64
   3 -12  -3  131.22    5.05
  -3 -12   5   86.57    4.81
   3  12   5   83.86    3.72
  -3 -12   7   11.75    2.22
 -12  -3   7   11.83    1.53
  -3 -12   9    5.90    1.94
 -12  -3   9   11.45    1.58
 -12  -3  11   25.52    2.15
  -3 -12  11   22.66    2.91
 -12  -3  13    3.65    1.08
  -3 -12  13    3.66    1.86
  -3 -12  15   -0.62    1.66
  -3 -12  17   -2.44    2.04
  -3 -12  19    8.64    2.41
  -3 -12  21    8.18    2.72
   4 -12  20    4.11    2.20
   4 -12  18    3.23    2.12
  12  -4  18   -0.44    1.91
  12  -4  16    6.30    2.45
   4 -12  16    4.19    2.05
   4 -12  14    3.81    1.79
  12  -4  14    5.17    1.75
  12  -4  12    1.35    1.45
   4 -12  12   -1.46    1.40
  12  -4  10   -0.97    1.45
   4 -12  10    1.59    1.34
   4 -12   8   30.96    3.15
  -4  12   8   35.74    3.33
  12  -4   8   37.54    3.17
  -4  12   6   72.95    4.39
   4 -12   6   74.51    4.37
 -12  -4  -6   60.74    1.82
 -12   4   4   44.23    3.25
  -4  12   4   39.93    3.21
  12   4  -4   37.72    2.22
 -12   4   4   33.31    1.24
   4 -12   4   43.26    3.35
 -12   4   2   60.39    2.39
 -12   4   2   59.09    3.57
   4 -12   2   52.12    3.37
 -12   4   0  146.06    5.59
 -12   4   0  153.16    4.68
   4 -12   0  151.94    5.64
   4  12   2   60.90    2.95
   4 -12  -2   61.14    3.38
   4  12   4   41.10    2.43
   4 -12  -4   38.87    2.72
  -4 -12   4   41.14    3.42
  -4 -12   6   68.41    4.47
  -4 -12   8   41.00    3.63
 -12  -4   8   34.89    2.57
  -4 -12  10    0.86    1.49
 -12  -4  10   -1.18    0.99
 -12  -4  12    2.54    1.16
  -4 -12  12   -0.25    1.57
 -12  -4  14    2.71    1.20
  -4 -12  14    6.25    2.11
  -4 -12  16    6.58    2.22
  -4 -12  18    3.01    2.08
  -4 -12  20    2.54    1.80
   5 -12  19   -1.06    1.73
  12  -5  19    1.28    1.70
  12  -5  17    9.48    2.55
   5 -12  17    6.19    2.26
   5 -12  15    1.68    1.90
  12  -5  15    2.56    1.55
   5 -12  13    4.05    1.87
  12  -5  13   10.01    2.21
   5 -12  11   17.32    2.69
  12  -5  11   15.57    2.37
  12  -5   9    2.87    1.42
   5 -12   9    1.57    1.41
   5 -12   7   25.26    2.76
  -5  12   7   22.92    2.87
  12  -5   7   18.66    2.25
  -5  12   5   70.15    4.32
   5 -12   5   61.13    3.93
  12  -5   5   45.78    3.12
  12   5  -3   11.29    1.14
 -12   5   3   10.55    2.00
  -5  12   3   13.08    2.17
   5 -12   3   12.88    1.93
 -12   5   3   12.17    0.92
 -12   5   1   46.26    2.23
 -12   5   1   45.83    3.23
   5 -12   1   47.06    3.16
   5 -12  -1   45.96    2.95
 -12   5  -1   45.27    3.13
   5  12   3   13.88    1.37
   5 -12  -3   14.12    1.72
   5 -12  -5   61.31    3.19
  -5 -12   5   64.36    4.24
   5 -12  -7   24.10    2.00
  -5 -12   7   23.41    2.88
 -12  -5   9    1.69    1.05
  -5 -12   9    1.15    1.65
  -5 -12  11   15.36    2.51
 -12  -5  11   19.85    2.21
 -12  -5  13    2.95    1.27
  -5 -12  13    4.52    1.70
 -12  -5  15    0.06    1.15
  -5 -12  15   -0.31    1.45
  -5 -12  17   11.66    2.60
  -5 -12  19    4.43    2.13
  -5 -12  21    1.32    1.78
  12  -6  20    6.87    2.56
   6 -12  18    0.42    1.81
  12  -6  18    4.47    2.24
   6 -12  16   -0.96    1.58
  12  -6  16    1.77    1.64
   6 -12  14   15.34    2.93
  12  -6  14   10.65    2.34
   6 -12  12   13.16    2.53
  12  -6  12   12.11    2.25
   6 -12  10   21.13    2.89
  12  -6  10   15.93    2.42
  -6  12   8   12.72    2.25
   6 -12   8   13.29    2.25
  12  -6   8   12.50    2.14
  -6  12   6    5.66    1.76
  12  -6   6    6.23    1.57
   6 -12   6    9.49    1.89
   6 -12   4   19.01    2.14
 -12   6   4   20.72    2.50
  -6  12   4   21.10    2.83
  12  -6   4   24.02    2.27
   6 -12   2   19.07    2.14
 -12   6   2   20.97    2.54
  -6  12   2   21.05    2.51
  12  -6   2   18.58    1.77
 -12   6   2   18.30    1.33
 -12   6   0    4.65    1.43
 -12   6   0    4.34    0.96
   6 -12   0    3.72    1.14
   6  12   2   22.54    1.65
   6 -12  -2   16.67    1.80
   6 -12  -4   21.29    1.95
  -6 -12   6    6.45    1.90
   6 -12  -6    7.19    1.24
 -12  -6   8   16.45    2.17
   6 -12  -8   14.52    1.56
  -6 -12   8   15.60    2.45
  -6 -12  10   19.23    2.87
 -12  -6  10   16.57    2.17
 -12  -6  12   17.03    2.20
  -6 -12  12   15.14    2.81
 -12  -6  14   17.37    2.23
  -6 -12  14   13.70    2.82
  -6 -12  16    2.01    1.73
  -6 -12  18    2.53    1.64
  -6 -12  20    3.57    2.17
   7 -12  19    3.74    2.25
  12  -7  19    4.44    2.19
   7 -12  17    3.36    1.85
  12  -7  17    4.11    1.98
   7 -12  15    7.43    2.24
  12  -7  15    8.78    2.45
   7 -12  13    4.76    1.99
  12  -7  13    2.27    1.56
   7 -12  11    5.62    1.97
  12  -7  11    4.50    1.58
   7 -12   9   10.39    2.24
  12  -7   9    8.08    1.95
  -7  12   7   25.60    3.12
   7 -12   7   26.82    2.91
  12  -7   7   25.77    2.76
  -7  12   5    9.79    2.07
 -12   7   5    8.08    1.90
  12  -7   5    7.68    1.48
   7 -12   5    7.07    1.59
 -12   7   3    6.08    1.69
  -7  12   3    7.38    2.15
  12  -7   3    5.33    1.31
   7 -12   3    5.70    1.45
   7 -12   1    7.86    1.49
 -12   7   1    6.92    1.90
  12  -7   1    6.59    1.27
   7 -12  -1    7.14    1.37
   7  12   1    8.33    1.02
   7 -12  -3    7.20    1.29
   7 -12  -5    8.11    1.22
  -7 -12   5   11.57    2.34
  -7 -12   7   26.46    3.03
   7 -12  -7   23.13    1.76
 -12  -7   9    7.39    1.78
  -7 -12   9    7.12    2.11
  -7 -12  11    2.44    1.74
 -12  -7  11    4.40    1.46
  -7 -12  13    3.14    1.88
 -12  -7  13    1.17    1.30
  -7 -12  15    9.78    2.38
 -12  -7  15    2.52    1.53
  -7 -12  17   -0.13    1.70
  -7 -12  19   -0.12    1.62
  -7 -12  21   -1.10    1.96
   8 -12  18    3.16    2.00
  12  -8  18    4.46    2.09
   8 -12  16   -0.08    1.59
  12  -8  16    0.41    1.72
   8 -12  14    5.51    2.00
  12  -8  14    4.06    1.93
   8 -12  12    5.50    1.85
  12  -8  12    4.34    1.75
   8 -12  10    6.35    1.74
  12  -8  10   10.74    2.10
  -8  12   8    8.10    2.16
   8 -12   8    4.53    1.57
  12  -8   8    5.92    1.70
  -8  12   6    1.66    1.64
 -12   8   6   -0.74    1.41
   8 -12   6    0.16    1.27
  12  -8   6    2.43    1.33
   8 -12   4   33.84    2.96
 -12   8   4   28.85    3.09
  -8  12   4   36.80    3.42
  12  -8   4   31.77    2.66
 -12   8   2   12.20    2.08
  -8  12   2   11.53    2.19
   8 -12   2   11.43    1.82
  12  -8   2   11.84    1.59
 -12   8   0   18.98    2.60
  12  -8   0   14.87    1.56
   8 -12   0   18.77    1.97
   8 -12  -2   10.89    1.56
   8 -12  -4   38.06    2.34
   8 -12  -6    2.22    0.79
  -8 -12   6    4.09    1.72
 -12  -8   8    7.84    1.72
  -8 -12   8    8.60    2.24
  -8 -12  10   10.95    2.37
 -12  -8  10   11.66    1.97
  -8 -12  12    5.01    1.96
 -12  -8  12    3.93    1.63
 -12  -8  14    6.77    1.84
  -8 -12  14    6.39    2.19
 -12  -8  16    4.34    1.71
  -8 -12  16    2.78    1.75
  -8 -12  18    0.86    1.54
  -8 -12  20    3.30    2.03
   9 -12  17    1.70    1.78
  12  -9  17    1.80    1.94
   9 -12  15   19.51    3.49
  12  -9  15   11.11    2.66
   9 -12  13    0.29    1.55
  12  -9  13    1.88    1.63
   9 -12  11    9.90    2.38
  12  -9  11   13.25    2.47
   9 -12   9    2.37    1.29
  12  -9   9    6.59    1.76
  -9  12   7   10.79    2.24
   9 -12   7    5.91    1.63
  12  -9   7    7.58    1.68
 -12   9   5   48.39    3.99
  -9  12   5   49.37    4.07
  12  -9   5   46.37    3.37
   9 -12   5   47.16    3.55
 -12   9   3   13.99    2.34
  -9  12   3   14.74    2.46
   9 -12   3   16.30    2.09
  12  -9   3   15.85    1.94
 -12   9   1   11.00    2.16
   9 -12   1   13.54    1.72
  -9  12   1   14.54    2.45
  12  -9   1   13.11    1.64
   9 -12  -1   11.33    1.53
  12  -9  -1   10.68    1.30
   9 -12  -3   15.14    1.53
  -9 -12   7   10.34    2.25
 -12  -9   7    5.73    1.65
  -9 -12   9    5.35    1.93
 -12  -9   9    8.96    1.91
  -9 -12  11   14.41    2.51
 -12  -9  11   12.58    2.21
 -12  -9  13   -1.35    1.51
  -9 -12  13   -2.36    1.81
 -12  -9  15   12.21    2.34
  -9 -12  15   11.98    2.58
 -12  -9  17    1.33    1.45
  -9 -12  17    1.22    1.87
  -9 -12  19    5.85    2.16
  -9 -12  21    3.63    2.12
  12 -10  18    2.78    1.85
  10 -12  16    5.91    2.42
  12 -10  16    6.85    2.47
  10 -12  14    9.26    2.26
  12 -10  14   11.42    2.64
  10 -12  12    0.14    1.55
  12 -10  12    3.24    1.67
  12 -10  10   35.50    3.61
  10 -12  10   37.86    3.82
  12 -10   8   19.63    2.69
  10 -12   8   17.75    2.63
 -10  12   8   19.19    2.97
  12 -10   6   10.81    1.95
 -12  10   6   12.99    2.38
  10 -12   6   13.58    2.16
 -10  12   6   10.08    2.30
 -10  12   4   51.85    4.26
 -12  10   4   56.41    4.34
  12 -10   4   45.43    3.33
  10 -12   4   42.24    3.34
 -12  10   2   29.57    3.19
 -10  12   2   32.08    3.38
  12 -10   2   28.25    2.42
  10 -12   2   35.07    2.87
 -12  10   0   41.46    3.60
  12 -10   0   37.34    2.48
  10 -12   0   40.83    2.82
  10 -12  -2   29.79    2.20
 -10 -12   6   15.34    2.68
 -12 -10   8   20.18    2.71
 -10 -12   8   20.11    2.83
 -10 -12  10   36.09    3.58
 -12 -10  10   34.96    3.50
 -10 -12  12   -0.81    1.66
 -12 -10  12    0.18    1.36
 -10 -12  14   16.88    2.91
 -12 -10  14   10.08    2.33
 -12 -10  16    3.96    1.88
 -10 -12  16    7.30    2.39
 -10 -12  18   -0.51    1.75
 -10 -12  20    5.07    2.29
  12 -11  17    9.97    2.87
  11 -12  17    5.76    2.37
  11 -12  15   21.18    3.49
  12 -11  15   19.50    3.23
  11 -12  13    1.16    1.65
  12 -11  13   -0.06    1.66
  12 -11  11   10.59    2.28
  11 -12  11    9.76    2.24
  12 -11   9   26.67    3.21
  11 -12   9   26.36    3.17
  12 -11   7   21.83    2.71
  11 -12   7   23.45    2.81
 -11  12   7   23.89    3.29
 -12  11   7   27.72    3.41
 -12  11   5   77.19    5.29
 -11  12   5   77.92    5.38
  12 -11   5   76.90    4.50
  11 -12   5   65.99    4.23
  12 -11   3    2.14    1.14
 -11  12   3    4.26    1.71
 -12  11   3    3.95    1.63
  11 -12   3    6.04    1.54
 -12  11   1   52.22    4.27
 -11  12   1   59.04    4.45
  12 -11   1   51.93    3.18
  11 -12   1   53.51    3.29
 -12 -11   7   24.58    2.99
 -11 -12   7   23.73    3.07
 -11 -12   9   24.93    3.25
 -12 -11   9   29.62    3.28
 -11 -12  11    8.49    2.29
 -12 -11  11    8.90    2.12
 -11 -12  13    3.70    1.89
 -12 -11  13    1.34    1.46
 -12 -11  15   22.09    3.22
 -11 -12  15   20.72    3.27
 -12 -11  17    5.05    2.11
 -11 -12  17    9.07    2.38
 -11 -12  19    5.96    2.29
  12 -12  16    5.38    2.43
  12 -12  14   17.22    3.15
  12 -12  12    9.96    2.48
  12 -12  10   70.79    5.22
  12 -12   8    7.68    2.24
  12 -12   6   -0.07    1.32
 -12  12   6    1.35    1.73
 -12  12   4  102.64    6.22
  12 -12   4   87.91    4.86
 -12  12   2   23.12    3.06
  12 -12   2   23.18    2.42
 -12  12   0    3.82    1.72
 -12 -12   8    9.26    2.28
 -12 -12  10   70.98    5.17
 -12 -12  12   11.26    2.69
 -12 -12  14   13.77    2.85
 -12 -12  16    5.77    2.19
 -12 -12  18    1.69    1.67
   0 -13   1   13.30    2.15
 -13   0  -1   11.50    1.44
   0 -13   3   12.56    2.03
 -13   0  -3   13.66    1.51
   0  13   3   13.18    1.79
 -13   0   3   12.52    1.38
   0  13   5   43.04    3.20
   0 -13   5   45.93    3.66
   0  13   7    0.31    1.21
   0 -13   7   -0.96    1.49
 -13   0   7    1.04    0.68
   0 -13   9    9.75    2.12
   0 -13  11   11.35    2.34
   0 -13  13    7.43    2.39
   0 -13  15    9.32    2.49
   0 -13  17    1.47    1.78
   0 -13  19   18.32    3.50
   1 -13  20   11.73    3.14
   1 -13  18    9.90    2.69
   1 -13  16    4.17    1.98
   1 -13  14   24.97    3.28
   1 -13  12    8.92    2.25
   1 -13  10   22.84    2.99
   1 -13   8   28.96    3.11
   1 -13   6   52.69    3.90
  -1  13   6   53.11    3.61
  -1  13   4   14.42    2.03
 -13  -1  -4   16.22    1.50
   1 -13   4   18.50    2.56
 -13   1   4   13.77    1.30
   1 -13   2   17.16    2.19
 -13  -1  -2   17.45    1.53
 -13   1   2   15.22    1.48
 -13   1   0   94.97    3.99
   1 -13   0   94.72    4.68
  -1 -13   2   20.54    2.49
 -13   1  -2   19.25    1.88
  -1 -13   4   18.38    2.54
   1  13   4   13.48    1.82
   1  13   6   58.75    3.59
  -1 -13   6   56.31    4.14
  -1 -13   8   27.36    3.14
 -13  -1   8   29.45    1.89
  -1 -13  10   21.40    2.89
  -1 -13  12    4.22    1.80
  -1 -13  14   28.65    3.56
  -1 -13  16    4.34    2.17
  -1 -13  18    0.87    1.63
  -1 -13  20   10.82    2.98
   2 -13  19   25.03    3.81
   2 -13  17    0.53    1.75
   2 -13  15    2.12    2.03
   2 -13  13   11.37    2.21
   2 -13  11   26.76    3.22
   2 -13   9    4.28    1.69
  -2  13   7   27.85    2.90
   2 -13   7   26.88    2.95
  -2  13   5   93.25    4.82
 -13  -2  -5   93.42    3.14
   2 -13   5   91.63    4.93
 -13  -2  -3   72.48    2.71
  -2  13   3   70.45    4.05
 -13   2   3   67.96    2.77
   2 -13   3   66.73    4.14
 -13   2   1   72.97    3.71
   2 -13   1   76.67    4.26
 -13   2   1   72.61    3.26
 -13   2  -1   73.53    3.65
   2 -13  -1   76.03    4.14
   2  13   3   68.38    3.54
   2 -13  -3   70.45    3.91
  -2 -13   3   65.06    4.30
   2  13   5  100.20    4.42
  -2 -13   5  100.70    5.37
 -13  -2   7   25.52    1.99
  -2 -13   7   26.60    3.10
  -2 -13   9    0.81    1.54
 -13  -2   9    3.35    1.02
  -2 -13  11   28.70    3.24
  -2 -13  13    6.58    2.02
  -2 -13  15    1.85    1.84
  -2 -13  17    3.60    1.90
  -2 -13  19   18.84    3.29
   3 -13  18    0.44    1.69
   3 -13  16    2.77    1.92
   3 -13  14    4.52    1.92
   3 -13  12   13.47    2.54
   3 -13  10    9.71    2.18
  -3  13   8   31.68    3.16
   3 -13   8   31.29    3.22
  -3  13   6  145.52    6.26
 -13  -3  -6  145.30    3.72
   3 -13   6  156.35    6.60
 -13  -3  -4    8.72    0.85
  -3  13   4    7.05    1.64
   3 -13   4   10.00    1.87
 -13   3   2   43.22    3.05
 -13   3   2   39.91    2.16
   3 -13   2   43.44    3.26
   3 -13   0  333.66    9.12
 -13   3   0  297.63    8.40
 -13   3  -2   28.22    2.37
   3  13   2   40.70    2.68
   3 -13  -2   43.70    3.08
  -3 -13   2   47.60    3.60
   3  13   4    7.43    1.33
   3 -13  -4    6.91    1.44
  -3 -13   4    8.50    1.85
  -3 -13   6  148.88    6.69
  -3 -13   8   27.12    3.11
 -13  -3   8   30.70    2.29
 -13  -3  10    7.42    1.37
  -3 -13  10    6.53    2.06
  -3 -13  12   10.28    2.28
  -3 -13  14    4.29    1.88
  -3 -13  16    6.99    2.33
  -3 -13  18    4.02    1.95
  -3 -13  20    6.02    2.51
   4 -13  19    7.13    2.56
   4 -13  17    2.46    1.91
   4 -13  15    3.34    2.03
   4 -13  13    2.12    1.53
   4 -13  11    3.23    1.83
   4 -13   9   23.52    2.99
   4 -13   7    4.73    1.59
  -4  13   7    3.44    1.78
  -4  13   5   53.12    3.95
   4 -13   5   56.53    3.91
 -13   4   3  138.74    5.77
  -4  13   3  146.76    6.19
   4 -13   3  137.22    5.89
 -13   4   1   44.37    3.23
   4 -13   1   41.82    3.10
 -13   4   1   44.79    2.45
   4 -13  -1   41.38    2.98
 -13   4  -1   44.13    3.08
  -4 -13   3  140.61    6.32
   4  13   3  144.05    4.87
   4 -13  -3  134.36    5.25
   4  13   5   56.47    3.07
  -4 -13   5   56.07    4.08
   4 -13  -5   53.48    3.24
  -4 -13   7    3.95    1.73
  -4 -13   9   25.00    3.09
 -13  -4   9   23.38    2.20
 -13  -4  11    1.51    1.03
  -4 -13  11    2.24    1.63
  -4 -13  13    3.58    1.91
  -4 -13  15    2.37    1.86
  -4 -13  17    2.07    1.90
  -4 -13  19    8.03    2.44
   5 -13  18    0.89    1.84
  13  -5  18    0.24    1.68
   5 -13  16    1.82    1.89
  13  -5  16   -1.21    1.67
   5 -13  14   10.21    2.63
  13  -5  14    7.13    2.12
   5 -13  12    0.30    1.58
  13  -5  12    4.29    1.58
  13  -5  10    6.25    1.73
   5 -13  10    7.87    2.02
   5 -13   8   32.26    3.43
  -5  13   8   29.88    3.27
  13  -5   8   28.17    2.86
   5 -13   6   10.05    2.08
  -5  13   6    6.09    1.91
 -13   5   4    4.37    1.69
   5 -13   4    4.52    1.53
  -5  13   4   -0.16    1.38
 -13   5   2   45.93    3.37
   5 -13   2   49.72    3.46
  -5  13   2   47.68    3.61
 -13   5   0   65.97    3.93
   5 -13   0   58.05    3.53
   5  13   2   51.36    2.66
   5 -13  -2   43.21    2.96
   5 -13  -4    3.24    1.27
   5  13   4    1.56    0.83
  -5 -13   4    1.11    1.54
  -5 -13   6   11.07    2.33
   5 -13  -6    9.67    1.47
  -5 -13   8   31.97    3.37
 -13  -5   8   28.79    2.51
  -5 -13  10    3.05    1.80
 -13  -5  10    5.14    1.47
  -5 -13  12    5.53    2.21
 -13  -5  12    3.96    1.41
  -5 -13  14    9.80    2.36
  -5 -13  16   -1.72    1.54
  -5 -13  18    4.23    2.01
  -5 -13  20    4.71    2.24
  13  -6  19    1.72    2.00
   6 -13  17    5.46    2.35
  13  -6  17    2.87    1.86
   6 -13  15   14.10    2.97
  13  -6  15    9.87    2.38
   6 -13  13   11.02    2.59
  13  -6  13    3.63    1.77
   6 -13  11    4.04    1.89
  13  -6  11    0.82    1.17
  13  -6   9   -0.05    1.22
   6 -13   9    2.58    1.37
  -6  13   7   25.12    2.98
  13  -6   7   24.09    2.77
   6 -13   7   22.96    2.79
   6 -13   5   14.40    2.19
 -13   6   5    8.68    2.00
  -6  13   5   11.95    2.16
  13  -6   5    8.09    1.53
   6 -13   3   21.89    2.41
 -13   6   3   20.28    2.61
  -6  13   3   23.01    2.72
 -13   6   1    5.58    1.64
   6 -13   1    5.02    1.55
   6  13   1    5.68    1.10
 -13   6  -1    4.23    1.57
   6 -13  -1    6.82    1.48
   6 -13  -3   22.70    2.12
   6  13   3   21.27    1.65
   6 -13  -5   12.87    1.63
  -6 -13   5   11.34    2.23
  -6 -13   7   25.74    3.03
   6 -13  -7   21.91    1.98
 -13  -6   9    0.67    1.29
  -6 -13   9    1.11    1.55
  -6 -13  11    1.07    1.55
 -13  -6  11    2.21    1.26
  -6 -13  13    7.32    2.26
 -13  -6  13    7.19    1.74
  -6 -13  15   10.45    2.52
  -6 -13  17    4.44    2.12
  -6 -13  19   -3.49    2.23
   7 -13  18    0.96    1.95
  13  -7  18    3.80    2.04
  13  -7  16    3.35    1.85
   7 -13  16    5.15    2.31
   7 -13  14    5.38    2.22
  13  -7  14    3.02    1.79
   7 -13  12    8.30    2.12
  13  -7  12   10.58    2.28
   7 -13  10   13.36    2.51
  13  -7  10   13.94    2.39
  -7  13   8   17.89    2.86
   7 -13   8   10.18    2.05
  13  -7   8   16.00    2.33
  -7  13   6    5.36    1.85
  13  -7   6    4.82    1.41
   7 -13   6    5.51    1.59
   7 -13   4   79.58    4.54
 -13   7   4   80.78    4.91
  -7  13   4  104.62    5.60
  13  -7   4   79.04    4.14
  -7  13   2   38.93    3.52
  13  -7   2   35.17    2.54
 -13   7   2   33.96    3.13
   7 -13   2   36.89    2.99
 -13   7   0   34.76    3.15
   7 -13   0   31.50    2.62
   7  13   2   39.09    2.02
   7 -13  -2   36.90    2.71
   7 -13  -4   81.92    3.78
  -7 -13   6    6.21    1.96
   7 -13  -6    4.10    1.05
  -7 -13   8   18.95    2.77
 -13  -7   8   16.48    2.22
  -7 -13  10   12.53    2.55
 -13  -7  10   15.53    2.25
  -7 -13  12    5.67    2.06
 -13  -7  12    7.40    1.75
 -13  -7  14    2.47    1.45
  -7 -13  14    5.33    2.25
  -7 -13  16    4.97    1.97
  -7 -13  18    1.05    1.82
  -7 -13  20    4.49    2.19
   8 -13  17    2.54    2.06
  13  -8  17    3.95    1.94
   8 -13  15    5.88    2.31
  13  -8  15   -0.18    1.65
   8 -13  13    4.33    1.82
  13  -8  13    7.00    2.04
   8 -13  11    1.41    1.33
  13  -8  11    4.34    1.95
   8 -13   9   -0.24    1.09
  13  -8   9    2.50    1.35
  -8  13   7   26.83    3.33
  13  -8   7   34.67    3.11
   8 -13   7   34.91    3.30
   8 -13   5   69.91    4.44
 -13   8   5   69.06    4.81
  -8  13   5   77.57    5.04
  13  -8   5   63.53    3.88
 -13   8   3   17.05    2.53
  -8  13   3   23.34    3.06
  13  -8   3   19.90    2.13
   8 -13   3   16.25    2.16
 -13   8   1   59.55    4.19
   8 -13   1   56.12    3.52
  -8  13   1   68.66    4.59
  13  -8   1   54.49    3.00
 -13   8  -1   62.12    4.21
   8 -13  -1   59.80    3.49
   8 -13  -3   19.58    1.87
  -8 -13   5   73.22    4.90
   8 -13  -5   71.34    3.30
  -8 -13   7   31.23    3.41
 -13  -8   9    2.28    1.56
  -8 -13   9    0.42    1.50
 -13  -8  11    2.30    1.60
  -8 -13  11    3.06    1.82
  -8 -13  13   10.07    2.61
 -13  -8  13    8.44    1.95
 -13  -8  15    0.95    1.23
  -8 -13  15    1.52    1.71
  -8 -13  17    6.42    2.29
  -8 -13  19    3.26    2.31
   9 -13  16    4.66    2.35
  13  -9  16   -0.42    1.66
   9 -13  14    2.29    1.71
  13  -9  14    0.15    1.59
   9 -13  12    2.82    1.66
  13  -9  12    0.90    1.39
  13  -9  10   10.25    2.14
   9 -13  10    8.66    2.15
   9 -13   8    8.25    2.06
  -9  13   8    9.40    2.43
  13  -9   8    6.42    1.87
 -13   9   6   40.10    3.87
  -9  13   6   45.95    4.10
  13  -9   6   36.70    3.19
   9 -13   6   45.08    3.72
 -13   9   4   12.75    2.33
  -9  13   4   12.01    2.17
   9 -13   4   10.31    2.03
  13  -9   4   10.89    1.74
 -13   9   2   20.68    2.74
  -9  13   2   22.02    3.02
   9 -13   2   19.60    2.27
  13  -9   2   17.67    1.98
   9 -13   0   64.72    3.64
  13  -9   0   62.28    3.11
 -13   9   0   71.03    4.63
   9 -13  -2   19.09    1.95
  -9 -13   6   38.88    3.77
  -9 -13   8    9.84    2.36
 -13  -9   8    7.94    1.87
 -13  -9  10   12.24    2.35
  -9 -13  10    8.57    2.24
  -9 -13  12    0.39    1.59
 -13  -9  12    1.05    1.58
  -9 -13  14    4.59    2.01
 -13  -9  14    0.97    1.47
  -9 -13  16    0.88    1.79
  -9 -13  18   -3.16    1.87
  10 -13  17   -0.50    1.73
  13 -10  17    2.05    1.92
  10 -13  15    2.65    1.87
  13 -10  15    7.12    2.32
  10 -13  13    1.55    1.70
  13 -10  13   -1.69    1.83
  10 -13  11    3.02    1.62
  13 -10  11    2.17    1.71
  10 -13   9    2.78    1.52
  13 -10   9    4.70    1.85
 -10  13   7    5.67    2.20
  10 -13   7    0.45    1.25
  13 -10   7    3.27    1.51
 -13  10   5   26.36    3.35
 -10  13   5   31.50    3.65
  10 -13   5   26.14    2.86
  13 -10   5   28.50    2.78
 -13  10   3    6.15    1.96
 -10  13   3   10.77    2.58
  10 -13   3    6.62    1.48
  13 -10   3   10.30    1.65
 -10  13   1   13.96    2.35
  10 -13   1   14.87    1.98
 -13  10   1   13.83    2.37
  13 -10   1   10.17    1.44
 -13  10  -1   12.10    2.19
  10 -13  -1   13.91    1.79
 -10 -13   7   -1.13    1.69
 -13 -10   7    0.51    1.33
 -10 -13   9    2.59    1.98
 -13 -10   9    1.27    1.53
 -10 -13  11    1.58    1.66
 -13 -10  11    1.50    1.43
 -10 -13  13   -0.35    1.76
 -13 -10  13    0.32    1.58
 -13 -10  15    0.39    1.62
 -10 -13  15    3.52    1.97
 -10 -13  17   -1.14    1.60
 -10 -13  19    6.91    2.34
  11 -13  16   -3.43    2.31
  13 -11  16   -0.48    1.73
  11 -13  14   10.71    2.68
  13 -11  14   10.21    2.50
  11 -13  12    2.73    1.88
  13 -11  12   -2.21    1.69
  11 -13  10   18.63    3.00
  13 -11  10   17.64    2.82
 -11  13   8    9.64    2.60
  11 -13   8    6.84    1.95
  13 -11   8    4.56    1.36
  11 -13   6    8.08    1.93
 -11  13   6    4.75    1.81
 -13  11   6    7.60    2.20
  13 -11   6    3.20    1.37
  11 -13   4   20.00    2.50
 -13  11   4   23.44    3.23
 -11  13   4   26.18    3.38
  13 -11   4   21.36    2.44
  11 -13   2    0.96    1.05
 -13  11   2    2.95    1.77
 -11  13   2    1.19    1.63
  13 -11   2    1.97    1.09
 -13  11   0   14.06    2.62
 -11  13   0   12.74    2.44
 -11 -13   6    9.46    2.22
 -13 -11   8    2.06    1.36
 -11 -13   8    8.04    2.19
 -13 -11  10   17.72    2.84
 -11 -13  10   20.00    3.02
 -11 -13  12   -3.18    2.12
 -13 -11  12    2.13    1.71
 -11 -13  14   12.98    2.80
 -13 -11  14    9.24    2.41
 -13 -11  16    3.30    1.88
 -11 -13  16   -0.45    1.73
 -11 -13  18    4.81    2.13
  12 -13  15   16.32    3.25
  13 -12  15   16.01    3.07
  12 -13  13    3.22    1.86
  13 -12  13    4.66    2.19
  12 -13  11    5.16    2.02
  13 -12  11    5.81    2.06
  13 -12   9   37.90    3.78
  12 -13   9   51.71    4.60
  13 -12   7    5.08    1.67
  12 -13   7    3.38    1.47
 -13  12   7    4.54    2.10
 -12  13   7    4.31    2.07
  13 -12   5    6.08    1.64
  12 -13   5    3.83    1.49
 -12  13   5    5.23    2.23
 -13  12   5    4.54    2.04
 -13  12   3   40.76    4.09
 -12  13   3   33.65    3.77
  13 -12   3   33.27    2.96
  12 -13   3   29.98    2.79
 -13  12   1   -0.26    1.72
 -12  13   1    0.24    1.56
 -13  12  -1    1.32    1.48
 -12  13  -1    1.25    1.44
 -13 -12   7    1.29    1.50
 -12 -13   7    3.31    1.87
 -12 -13   9   43.10    4.20
 -13 -12   9   48.18    4.31
 -12 -13  11    5.45    2.06
 -13 -12  11    5.12    1.99
 -12 -13  13    0.60    1.77
 -13 -12  13    1.20    1.74
 -12 -13  15   19.55    3.39
 -13 -12  15   17.50    3.02
 -12 -13  17    0.28    1.68
  13 -13  14   12.51    2.81
  13 -13  12    3.79    2.10
  13 -13  10   40.33    4.15
  13 -13   8   13.15    2.41
  13 -13   6    8.78    2.05
 -13  13   6   10.85    2.49
 -13  13   4   39.05    4.29
 -13  13   2   15.63    2.65
 -13  13   0   -0.01    1.58
 -13 -13   6    7.29    2.35
 -13 -13   8   13.82    2.61
 -13 -13  10   43.11    4.31
 -13 -13  12   12.61    2.67
 -13 -13  14   11.38    2.66
 -13 -13  16    2.95    1.95
   0 -14   0    1.61    1.34
   0 -14   2    1.50    1.49
 -14   0  -2    2.44    0.92
   0  14   2    2.70    1.32
   0 -14   4   39.38    3.49
   0  14   4   44.32    3.24
 -14   0  -4   43.19    2.57
   0 -14   6   -1.18    1.62
   0  14   6    1.12    1.32
   0 -14   8   11.88    2.33
   0 -14  10   34.74    3.70
   0 -14  12    6.27    2.03
   0 -14  14    4.59    1.92
   0 -14  16    0.29    1.82
   0 -14  18   -1.37    1.88
   1 -14  19    7.66    2.82
   1 -14  17   -2.09    2.12
   1 -14  15   12.66    2.65
   1 -14  13   -0.70    1.62
   1 -14  11   18.14    2.88
   1 -14   9   38.47    3.66
  -1  14   7    6.88    1.62
   1 -14   7    9.76    2.32
   1 -14   5   25.94    2.96
 -14  -1  -5   26.43    1.94
  -1  14   5   22.67    2.56
 -14  -1  -3   20.05    1.65
  -1  14   3   15.36    2.21
   1 -14   3   21.29    2.61
   1 -14   1   20.61    2.49
 -14   1  -1   25.72    2.24
   1 -14  -1   22.18    2.50
  -1 -14   1   22.21    2.65
  -1 -14   3   19.95    2.54
 -14   1  -3   17.49    1.91
   1  14   3   16.61    2.13
   1  14   5   24.54    2.44
  -1 -14   5   24.20    2.92
  -1 -14   7    8.40    2.19
 -14  -1   7    9.65    1.27
  -1 -14   9   42.32    3.93
  -1 -14  11   22.86    3.12
  -1 -14  13    2.70    1.95
  -1 -14  15    9.94    2.61
  -1 -14  17    2.00    1.76
  -1 -14  19    3.08    2.23
   2 -14  18   -1.47    1.91
   2 -14  16    1.80    1.72
   2 -14  14   15.24    2.97
   2 -14  12    2.26    1.49
   2 -14  10   17.64    2.83
  -2  14   8   23.08    2.67
   2 -14   8   25.64    3.04
 -14  -2  -6   28.27    1.79
  -2  14   6   27.05    2.93
   2 -14   6   33.67    3.28
  -2  14   4    1.73    1.45
   2 -14   4    2.90    1.53
 -14  -2  -4    1.47    0.73
   2 -14   2   33.93    3.10
  -2  14   2   31.33    2.89
 -14   2   0   56.24    3.39
   2 -14   0   51.79    3.64
 -14   2  -2   36.09    2.65
   2  14   2   35.74    2.73
   2 -14  -2   37.29    3.06
  -2 -14   2   34.36    3.26
  -2 -14   4    0.36    1.48
   2  14   4    1.69    1.14
  -2 -14   6   31.73    3.36
   2  14   6   28.95    2.60
  -2 -14   8   22.76    2.96
 -14  -2   8   23.30    1.90
  -2 -14  10   15.95    2.77
  -2 -14  12    4.19    1.91
  -2 -14  14   16.43    2.94
  -2 -14  16    3.38    1.98
  -2 -14  18   -1.52    1.97
   3 -14  17    4.16    1.81
   3 -14  15    4.02    2.09
   3 -14  13   -2.58    1.88
   3 -14  11   18.41    2.82
   3 -14   9    3.69    1.65
  -3  14   7    2.65    1.52
   3 -14   7    1.37    1.49
  -3  14   5   65.44    4.22
   3 -14   5   59.15    4.30
  -3  14   3   64.36    4.20
   3 -14   3   59.51    4.03
 -14   3   1   26.45    2.49
   3 -14   1   26.77    2.82
 -14   3  -1   27.89    2.53
   3 -14  -1   28.46    2.70
   3  14   3   63.16    3.46
 -14   3  -3   60.67    3.51
   3 -14  -3   56.37    3.72
  -3 -14   3   64.40    4.39
   3  14   5   65.95    3.59
  -3 -14   5   66.06    4.61
   3 -14  -5   61.27    3.67
  -3 -14   7    2.62    1.59
  -3 -14   9    3.40    1.57
 -14  -3   9    3.04    1.14
  -3 -14  11   23.17    3.14
  -3 -14  13    3.30    1.80
  -3 -14  15    2.95    1.73
  -3 -14  17    0.86    1.75
  -3 -14  19   10.08    2.97
   4 -14  18    4.16    2.27
   4 -14  16   -1.43    1.88
   4 -14  14    8.19    2.27
   4 -14  12    4.12    2.01
   4 -14  10    1.02    1.51
   4 -14   8   21.63    2.85
  -4  14   8   23.55    3.01
  -4  14   6    5.67    1.80
   4 -14   6    5.99    1.63
  -4  14   4    0.37    1.40
   4 -14   4   -0.48    1.28
   4 -14   2   15.69    2.16
 -14   4   2   19.75    2.35
  -4  14   2   19.63    2.42
 -14   4   0   72.00    4.08
   4 -14   0   72.62    4.19
   4  14   2   20.06    1.99
 -14   4  -2   19.58    2.17
   4 -14  -2   18.38    2.24
  -4 -14   4   -0.64    1.46
   4  14   4    0.17    0.91
   4 -14  -4    2.66    1.39
   4 -14  -6    8.24    1.56
  -4 -14   6    7.30    2.12
  -4 -14   8   22.86    3.23
 -14  -4   8   26.55    2.39
  -4 -14  10    2.70    1.69
 -14  -4  10    5.50    1.39
  -4 -14  12    3.85    1.73
  -4 -14  14    5.61    2.16
  -4 -14  16    0.89    1.76
  -4 -14  18    2.71    2.01
   5 -14  17   18.47    3.50
   5 -14  15   13.96    2.96
   5 -14  13    4.76    2.23
   5 -14  11    2.44    1.51
   5 -14   9    2.61    1.76
   5 -14   7   36.18    3.45
  -5  14   7   41.89    3.72
   5 -14   5   17.35    2.47
  -5  14   5   16.11    2.49
 -14   5   3    9.60    1.94
  -5  14   3   11.65    2.17
   5 -14   3   11.25    2.06
 -14   5   1    7.69    1.75
   5 -14   1    8.49    1.75
   5 -14  -1   10.01    1.79
 -14   5  -1    5.88    1.57
   5  14   3    9.17    1.41
   5 -14  -3    9.24    1.66
  -5 -14   3    6.07    1.75
   5 -14  -5   17.47    1.99
  -5 -14   5   13.80    2.37
  -5 -14   7   46.27    4.11
   5 -14  -7   39.61    2.84
 -14  -5   9    1.81    1.18
  -5 -14   9    3.22    1.88
  -5 -14  11    1.00    1.82
 -14  -5  11    0.82    1.06
  -5 -14  13    3.45    1.90
  -5 -14  15   13.05    2.79
  -5 -14  17   16.40    3.02
  -5 -14  19    5.51    2.17
   6 -14  18    8.97    2.73
   6 -14  16    4.18    2.01
  14  -6  16    2.48    1.73
   6 -14  14   15.24    2.87
  14  -6  14    8.04    2.31
  14  -6  12   27.94    3.32
   6 -14  12   34.89    3.92
  14  -6  10   16.20    2.53
   6 -14  10   10.64    2.16
  14  -6   8   16.65    2.52
  -6  14   8   10.52    2.32
   6 -14   8    9.71    2.06
   6 -14   6   14.04    2.28
  -6  14   6   20.07    2.85
 -14   6   4   46.24    3.67
   6 -14   4   46.98    3.67
  -6  14   4   44.16    3.74
   6 -14   2   25.86    2.73
 -14   6   2   24.15    2.73
  -6  14   2   26.52    2.93
 -14   6   0   -2.52    1.41
   6 -14   0    0.61    1.08
   6 -14  -2   24.84    2.35
   6  14   2   27.36    1.97
 -14   6  -2   26.70    2.78
  -6 -14   4   40.57    3.70
   6 -14  -4   41.47    2.91
   6 -14  -6   21.64    2.08
  -6 -14   6   22.32    2.96
 -14  -6   8   14.82    2.02
  -6 -14   8   16.67    2.87
  -6 -14  10   18.42    2.84
 -14  -6  10   20.85    2.47
 -14  -6  12   26.21    2.70
  -6 -14  12   29.98    3.66
  -6 -14  14    9.80    2.39
  -6 -14  16    5.15    2.42
  -6 -14  18    9.44    2.56
   7 -14  17    9.44    2.76
  14  -7  17    7.79    2.48
   7 -14  15   14.53    3.05
  14  -7  15   16.92    3.02
   7 -14  13   19.35    3.22
  14  -7  13   14.94    2.83
   7 -14  11   14.91    2.77
  14  -7  11   15.92    2.57
   7 -14   9    9.03    2.13
  14  -7   9    6.63    1.96
   7 -14   7   50.73    4.06
  -7  14   7   78.13    5.18
  14  -7   7   68.83    4.33
   7 -14   5   57.98    4.02
 -14   7   5   62.85    4.46
  -7  14   5   60.26    4.78
  14  -7   5   54.28    3.59
   7 -14   3   -0.18    1.22
 -14   7   3    2.08    1.75
  -7  14   3    1.20    1.51
 -14   7   1   77.49    4.71
   7 -14   1   79.12    4.34
   7  14   1   85.41    3.27
 -14   7  -1   69.58    4.49
   7 -14  -1   75.16    4.03
   7 -14  -3    1.42    1.01
   7 -14  -5   59.29    3.31
  -7 -14   5   56.92    4.42
  -7 -14   7   73.93    5.11
 -14  -7   9   10.50    2.09
  -7 -14   9   12.27    2.54
  -7 -14  11   11.82    2.57
 -14  -7  11   12.43    2.07
  -7 -14  13   19.86    3.18
 -14  -7  13   17.84    2.51
  -7 -14  15   10.72    2.67
  -7 -14  17    8.75    2.60
  -7 -14  19    0.78    1.99
   8 -14  16    1.20    1.76
  14  -8  16    1.15    1.59
   8 -14  14    8.47    2.49
  14  -8  14   13.55    2.84
   8 -14  12    7.90    2.51
  14  -8  12    4.96    1.94
   8 -14  10   22.72    3.03
  14  -8  10   20.46    2.77
  -8  14   8   48.71    4.37
  14  -8   8   47.43    3.83
   8 -14   8   49.21    4.15
  -8  14   6    2.30    1.75
   8 -14   6    0.66    1.38
  14  -8   6   -0.52    1.10
   8 -14   4   86.06    4.87
 -14   8   4   86.23    5.26
  -8  14   4  103.33    5.85
  14  -8   4   82.40    4.35
   8 -14   2   94.75    4.87
 -14   8   2  100.67    5.56
  -8  14   2  106.52    5.95
   8 -14   0    5.44    1.42
 -14   8   0    2.03    1.33
   8 -14  -2   90.77    4.28
 -14   8  -2   69.04    4.49
   8 -14  -4   96.41    4.17
  -8 -14   6    1.67    1.84
  -8 -14   8   48.56    4.30
 -14  -8   8   48.76    3.71
 -14  -8  10   29.37    3.03
  -8 -14  10   28.85    3.72
  -8 -14  12    7.59    2.13
 -14  -8  12    6.97    1.85
  -8 -14  14   14.14    2.95
  -8 -14  16    3.99    2.25
  -8 -14  18    1.88    2.14
  14  -9  17    2.23    2.03
   9 -14  15    0.42    1.59
  14  -9  15    5.93    2.36
   9 -14  13   -0.17    1.52
  14  -9  13    1.60    1.68
  14  -9  11    8.65    2.07
   9 -14  11   11.01    2.62
   9 -14   9    1.43    1.44
  14  -9   9    1.72    1.39
  -9  14   7   27.98    3.58
   9 -14   7   28.35    3.19
  14  -9   7   27.56    2.92
  -9  14   5   58.65    4.68
 -14   9   5   49.70    4.27
  14  -9   5   45.23    3.44
   9 -14   5   46.70    3.80
   9 -14   3   26.58    2.77
 -14   9   3   24.90    3.04
  -9  14   3   26.09    3.24
  14  -9   3   24.43    2.46
   9 -14   1   61.67    3.82
 -14   9   1   63.99    4.64
  -9  14   1   60.17    4.58
   9 -14  -1   61.50    3.58
 -14   9  -1   48.79    4.01
  -9 -14   5   49.68    4.29
  -9 -14   7   26.17    3.33
 -14  -9   9    0.42    1.33
  -9 -14   9    3.17    1.72
  -9 -14  11   12.03    2.70
 -14  -9  11   11.84    2.26
 -14  -9  13    2.24    1.43
  -9 -14  13    3.39    2.04
  -9 -14  15   -0.21    1.61
  -9 -14  17   -0.95    1.68
  10 -14  16    5.91    2.57
  14 -10  16    7.34    2.42
  10 -14  14    2.51    2.01
  14 -10  14    1.73    1.80
  10 -14  12   -0.86    1.63
  14 -10  12    0.50    1.55
  10 -14  10   12.86    2.64
  14 -10  10    7.83    1.99
 -10  14   8    5.64    2.24
  10 -14   8    9.12    2.18
  14 -10   8    4.73    1.68
 -10  14   6   26.13    3.44
 -14  10   6   27.20    3.48
  10 -14   6   25.02    3.01
  14 -10   6   22.74    2.72
 -14  10   4   10.63    2.43
 -10  14   4   14.17    2.77
  10 -14   4   11.93    2.11
  14 -10   4   10.25    1.76
 -14  10   2   14.33    2.44
 -10  14   2   15.24    2.68
  10 -14   2   17.20    2.33
 -14  10   0   28.69    3.32
 -10  14   0   37.42    3.74
  10 -14   0   37.77    2.96
 -14  10  -2   10.05    1.98
 -10 -14   6   22.20    3.14
 -10 -14   8    6.00    2.19
 -14 -10   8    7.13    1.98
 -14 -10  10    9.08    2.19
 -10 -14  10    6.20    1.94
 -10 -14  12    3.40    1.86
 -14 -10  12    5.46    2.12
 -10 -14  14    3.87    2.23
 -14 -10  14    4.98    1.92
 -10 -14  16    0.28    1.72
 -10 -14  18    2.96    2.08
  11 -14  15    7.42    2.33
  14 -11  15    2.24    2.01
  11 -14  13    0.75    2.14
  14 -11  13    5.11    2.10
  11 -14  11    5.73    2.18
  14 -11  11    3.36    1.59
  11 -14   9   12.25    2.52
  14 -11   9   14.49    2.35
  11 -14   7    4.58    1.68
 -11  14   7    6.00    2.39
  14 -11   7    3.46    1.45
 -14  11   5    8.50    2.33
  11 -14   5   11.01    2.11
 -11  14   5   12.04    2.54
  14 -11   5   10.45    1.91
 -14  11   3    2.14    1.70
  11 -14   3    0.00    1.13
 -11  14   3    0.52    1.64
 -14  11   1    5.18    1.92
 -11  14   1    2.22    1.75
 -14  11  -1    4.39    1.65
 -11 -14   7    1.51    1.58
 -14 -11   7    3.64    1.82
 -11 -14   9   13.09    2.63
 -14 -11   9   13.67    2.54
 -11 -14  11    6.57    2.25
 -14 -11  11    3.66    1.87
 -11 -14  13   -0.63    1.85
 -14 -11  13    0.71    1.55
 -11 -14  15    0.74    1.74
 -11 -14  17   -0.15    1.77
  12 -14  14    6.81    2.36
  14 -12  14    8.49    2.49
  12 -14  12    6.77    2.29
  14 -12  12    3.74    1.65
  12 -14  10   31.35    3.79
  14 -12  10   32.38    3.63
 -12  14   8    3.14    1.93
  12 -14   8    7.98    2.20
  14 -12   8    6.03    1.88
  12 -14   6   -2.53    1.44
 -14  12   6    0.50    1.71
 -12  14   6   -0.66    1.64
  14 -12   6    2.26    1.35
  12 -14   4   15.11    2.30
 -14  12   4   16.70    3.01
 -12  14   4   22.86    3.42
 -14  12   2    6.34    2.43
 -12  14   2    2.57    1.79
 -14  12   0   -0.57    1.81
 -12  14   0   -0.29    1.57
 -14  12  -2    6.29    2.09
 -12 -14   6   -2.26    1.66
 -14 -12   8   -0.15    1.52
 -12 -14   8    5.19    2.28
 -14 -12  10   34.68    3.79
 -12 -14  10   35.93    4.07
 -12 -14  12    4.57    2.06
 -14 -12  12    4.00    2.11
 -12 -14  14    7.40    2.28
 -14 -12  14   13.41    2.82
 -12 -14  16    2.46    2.01
  13 -14  13    9.76    2.50
  14 -13  13   10.92    2.72
  13 -14  11    9.62    2.56
  14 -13  11   14.06    2.64
  13 -14   9   23.18    3.19
  14 -13   9   24.35    3.22
  13 -14   7   20.18    2.86
 -13  14   7   19.23    3.28
 -14  13   7   25.24    3.68
  14 -13   7   17.98    2.71
 -14  13   5   23.86    3.34
 -13  14   5   26.05    3.62
 -14  13   3    4.52    1.98
 -13  14   3    6.14    2.29
 -14  13   1   11.03    2.45
 -13  14   1   12.98    2.82
 -14  13  -1   11.14    2.55
 -13  14  -1   14.02    2.85
 -13 -14   7   22.36    3.26
 -14 -13   7   20.81    3.21
 -13 -14   9   26.88    3.49
 -14 -13   9   25.34    3.44
 -13 -14  11    7.41    2.36
 -14 -13  11   13.99    2.87
 -13 -14  13    4.84    2.20
 -14 -13  13    7.20    2.38
 -13 -14  15   20.88    3.55
 -14 -13  15   19.04    3.29
  14 -14  12    4.28    2.07
  14 -14  10   26.18    3.46
  14 -14   8   16.44    2.75
 -14  14   6    2.46    2.06
 -14  14   4   26.06    3.74
 -14  14   2   13.40    2.86
 -14  14   0   23.53    3.41
 -14  14  -2   11.07    2.44
 -14 -14   6    5.06    2.04
 -14 -14   8   21.32    3.18
 -14 -14  10   26.63    3.56
 -14 -14  12    4.70    2.36
 -14 -14  14    5.49    2.39
 -15   0  -1   22.71    2.04
   0 -15  -1   22.80    2.70
   0 -15   1   20.12    2.53
   0 -15   3   80.42    4.98
 -15   0  -3   84.16    3.74
   0  15   3   90.91    4.66
   0  15   5    3.58    1.47
   0 -15   5    2.91    1.72
 -15   0  -5    1.18    0.85
   0 -15   7    6.06    2.08
   0  15   7    5.51    1.60
   0 -15   9   98.90    6.01
   0 -15  11    3.21    1.78
   0 -15  13    4.10    2.05
   0 -15  15   23.91    3.56
   0 -15  17    1.31    1.68
   1 -15  18   -2.02    1.85
   1 -15  16    0.46    1.98
   1 -15  14   12.39    2.76
   1 -15  12   35.37    3.96
   1 -15  10   42.97    4.23
   1 -15   8   31.65    3.52
   1 -15   6   29.08    3.17
  -1  15   6   35.75    3.19
 -15  -1  -4   48.91    2.61
  -1  15   4   45.58    3.49
   1 -15   4   49.35    4.01
 -15  -1  -2   28.93    2.06
   1 -15   2   30.49    3.12
  -1  15   2   29.24    2.81
  -1 -15   0   55.84    4.09
 -15   1   0   50.86    3.12
   1 -15   0   45.72    3.62
   1 -15  -2   24.89    2.85
 -15   1  -2   28.71    2.36
   1  15   2   31.38    2.80
  -1 -15   2   30.33    3.13
  -1 -15   4   45.00    3.88
   1  15   4   45.49    3.29
 -15   1  -4   44.40    2.88
   1  15   6   30.86    2.86
  -1 -15   6   29.69    3.23
  -1 -15   8   24.96    3.21
  -1 -15  10   37.94    3.90
  -1 -15  12   40.22    4.19
  -1 -15  14   19.01    3.12
  -1 -15  16   -0.28    1.88
  -1 -15  18    2.14    2.28
   2 -15  17    3.05    2.13
   2 -15  15    5.66    2.42
   2 -15  13    0.80    1.66
   2 -15  11    2.15    1.71
   2 -15   9   14.19    2.56
  -2  15   7    5.88    1.80
   2 -15   7    2.96    1.63
  -2  15   5   13.74    2.20
   2 -15   5   12.86    2.29
   2 -15   3    2.06    1.32
  -2  15   3    1.44    1.37
 -15   2   1    6.54    1.57
   2 -15   1    6.17    1.82
  -2 -15   1   10.74    2.12
 -15   2  -1    7.85    1.57
   2 -15  -1    6.82    1.78
   2  15   3    0.37    1.12
 -15   2  -3   -0.79    0.99
  -2 -15   3    0.63    1.51
   2 -15  -3    1.49    1.36
   2  15   5   15.37    2.11
  -2 -15   5   18.52    2.83
  -2 -15   7    4.18    1.68
  -2 -15   9   10.08    2.33
  -2 -15  11    7.01    2.27
  -2 -15  13    3.95    2.01
  -2 -15  15   10.40    2.74
  -2 -15  17    4.00    1.96
   3 -15  16    0.42    1.85
   3 -15  14   -1.65    1.82
   3 -15  12    6.59    2.10
   3 -15  10    6.61    1.97
  -3  15   8   11.45    2.18
   3 -15   8    7.42    2.14
  -3  15   6   -0.60    1.49
   3 -15   6    3.89    1.86
  -3  15   4   13.72    2.27
   3 -15   4   13.25    2.16
 -15   3   2   14.72    2.04
   3 -15   2   13.69    2.28
  -3  15   2   13.95    2.27
 -15   3   0   28.51    2.57
   3 -15   0   26.66    2.73
   3 -15  -2   11.84    2.05
 -15   3  -2   11.77    1.82
   3  15   2   13.32    1.81
  -3 -15   2   15.74    2.45
   3 -15  -4   14.81    2.05
   3  15   4   13.86    1.81
  -3 -15   4   11.96    2.43
 -15   3  -4   10.53    1.77
   3  15   6    3.01    1.36
  -3 -15   6    3.70    1.77
  -3 -15   8    9.53    2.36
 -15  -3   8   10.65    1.57
  -3 -15  10    3.91    1.89
  -3 -15  12   13.15    2.77
  -3 -15  14    3.13    1.97
  -3 -15  16    3.26    1.91
  -3 -15  18    6.72    2.46
   4 -15  17   10.48    3.01
   4 -15  15   18.53    3.25
   4 -15  13    2.68    1.87
   4 -15  11    0.90    1.69
   4 -15   9    2.03    1.63
  -4  15   7   31.49    3.31
   4 -15   7   29.07    3.23
  -4  15   5   16.37    2.50
   4 -15   5    8.22    1.92
 -15   4   3   15.70    2.33
  -4  15   3   11.02    2.22
   4 -15   3   11.54    2.23
   4 -15   1    3.84    1.61
 -15   4   1    5.62    1.47
 -15   4  -1    3.35    1.22
   4 -15  -1    3.65    1.41
   4 -15  -3   12.07    1.89
   4  15   3   13.57    1.73
 -15   4  -3   10.31    1.76
  -4 -15   3   11.91    2.27
   4  15   5   14.57    1.86
  -4 -15   5   13.50    2.44
   4 -15  -5   15.23    2.12
   4 -15  -7   29.55    2.70
  -4 -15   7   33.06    3.46
 -15  -4   9    4.44    1.38
  -4 -15   9    0.08    1.69
  -4 -15  11    3.33    2.00
  -4 -15  13    2.74    1.85
  -4 -15  15   14.80    3.04
  -4 -15  17   11.50    2.82
   5 -15  16    1.21    1.87
   5 -15  14   12.23    2.77
   5 -15  12   33.04    4.02
   5 -15  10   11.07    2.35
   5 -15   8    8.66    1.98
  -5  15   8   13.90    2.51
   5 -15   6   16.53    2.37
  -5  15   6   19.88    2.80
  -5  15   4    1.68    1.42
   5 -15   4    4.37    1.73
 -15   5   2    6.74    1.57
  -5  15   2    4.09    1.60
   5 -15   2    7.78    1.71
   5 -15   0   -1.54    1.48
 -15   5   0   -0.61    1.21
   5 -15  -2    8.59    1.75
   5  15   2    8.24    1.42
 -15   5  -2    7.57    1.68
  -5 -15   4    2.43    1.60
   5  15   4    4.51    1.18
   5 -15  -4    5.26    1.50
  -5 -15   6   26.15    3.31
   5 -15  -6   21.99    2.26
   5 -15  -8   12.94    1.79
 -15  -5   8   16.09    2.07
  -5 -15   8   11.27    2.51
  -5 -15  10   17.32    2.90
  -5 -15  12   36.93    4.02
  -5 -15  14   10.66    2.85
  -5 -15  16    1.73    1.87
  -5 -15  18   16.86    3.27
   6 -15  15   33.13    4.17
   6 -15  13   18.02    3.17
   6 -15  11    3.95    1.80
   6 -15   9   26.49    3.36
   6 -15   7   78.68    5.14
  -6  15   7   99.52    5.89
   6 -15   5    3.31    1.42
  -6  15   5    3.90    1.86
   6 -15   3    6.30    1.73
 -15   6   3    3.19    1.63
  -6  15   3    6.94    1.88
 -15   6   1   23.28    2.80
   6 -15   1   21.72    2.49
   6  15   1   27.25    2.18
 -15   6  -1   22.57    2.67
   6 -15  -1   23.85    2.49
  -6 -15   3    6.08    1.93
   6  15   3    5.40    1.16
   6 -15  -3    4.91    1.39
 -15   6  -3    4.74    1.57
   6 -15  -5    3.55    1.28
  -6 -15   5    4.77    2.14
  -6 -15   7   90.82    5.85
  -6 -15   9   27.85    3.55
 -15  -6   9   33.08    2.95
  -6 -15  11    3.34    1.90
  -6 -15  13   25.23    3.57
  -6 -15  15   35.51    4.19
  -6 -15  17    7.56    2.68
   7 -15  16   -0.30    1.81
  15  -7  16   -0.35    1.75
   7 -15  14   10.09    2.65
  15  -7  14    9.24    2.42
  15  -7  12   40.51    3.94
   7 -15  12   44.33    4.48
  15  -7  10   17.77    2.65
   7 -15  10   22.86    3.16
  -7  15   8   23.98    3.23
   7 -15   8   24.18    3.06
  -7  15   6   33.94    3.63
   7 -15   6   24.97    2.93
   7 -15   4   17.92    2.45
 -15   7   4   15.81    2.38
  -7  15   4   21.21    2.97
   7 -15   2   27.60    2.72
 -15   7   2   22.65    2.74
  -7  15   2   28.56    3.33
   7 -15   0    8.43    1.75
 -15   7   0    7.73    1.78
 -15   7  -2   30.19    3.11
   7 -15  -2   28.19    2.63
  -7 -15   4   24.39    3.01
   7 -15  -4   25.24    2.43
  -7 -15   6   29.44    3.45
 -15  -7   8   21.83    2.53
  -7 -15   8   24.26    3.28
 -15  -7  10   19.42    2.49
  -7 -15  10   17.96    2.93
  -7 -15  12   48.79    4.61
  -7 -15  14    6.57    2.33
  -7 -15  16   -1.39    1.70
   8 -15  15    3.33    2.20
  15  -8  15    0.97    1.80
   8 -15  13    9.05    2.64
  15  -8  13    5.89    1.97
   8 -15  11   16.05    2.95
  15  -8  11   18.83    2.80
   8 -15   9    2.36    1.70
  15  -8   9    3.17    1.68
  -8  15   7   12.86    2.60
  15  -8   7   16.94    2.46
   8 -15   7    9.98    2.20
 -15   8   5   17.00    2.55
  -8  15   5   30.28    3.50
   8 -15   5   28.07    3.00
 -15   8   3    3.25    1.46
  -8  15   3   -1.30    1.66
   8 -15   3    0.99    1.17
   8 -15   1   21.04    2.41
 -15   8   1   19.81    2.70
  -8  15   1   23.80    3.02
   8 -15  -1   25.18    2.44
 -15   8  -1   15.97    2.37
   8 -15  -3    4.90    1.26
  -8 -15   5   28.80    3.36
  -8 -15   7   14.30    2.62
 -15  -8   9    4.19    1.60
  -8 -15   9    2.56    1.87
  -8 -15  11   14.14    2.75
 -15  -8  11   21.11    2.73
  -8 -15  13   10.88    2.77
  -8 -15  15    2.63    2.12
  -8 -15  17    6.84    2.51
  15  -9  16    2.17    2.01
   9 -15  14    3.85    2.10
  15  -9  14    3.07    2.12
   9 -15  12    5.34    2.07
  15  -9  12    3.39    1.74
   9 -15  10    3.22    1.84
  15  -9  10    2.82    1.46
  -9  15   8   10.50    2.56
   9 -15   8   10.64    2.26
  15  -9   8    9.67    2.09
  -9  15   6   23.39    3.49
   9 -15   6   22.62    2.92
  15  -9   6   17.79    2.35
 -15   9   4    2.46    1.44
  -9  15   4    4.43    2.01
  15  -9   4    3.82    1.32
   9 -15   4    4.55    1.59
 -15   9   2   18.34    2.64
  -9  15   2   30.94    3.53
   9 -15   2   21.60    2.53
   9 -15   0   28.02    2.63
 -15   9   0   21.52    2.83
 -15   9  -2   21.61    2.83
  -9 -15   6   21.99    3.30
  -9 -15   8   15.56    2.95
 -15  -9   8    7.78    1.87
 -15  -9  10    5.62    1.95
  -9 -15  10    2.47    1.55
  -9 -15  12    5.32    2.21
 -15  -9  12    5.93    1.95
  -9 -15  14    5.24    2.28
  -9 -15  16    3.11    2.05
  10 -15  15   -0.42    2.13
  15 -10  15   -2.10    1.80
  10 -15  13    4.55    2.09
  15 -10  13    1.32    1.72
  10 -15  11    8.07    2.32
  15 -10  11    7.34    2.11
  10 -15   9    3.23    1.85
  15 -10   9    0.96    1.36
 -10  15   7    4.54    2.02
  10 -15   7    4.65    1.90
  15 -10   7    3.49    1.53
 -15  10   5   16.38    2.82
 -10  15   5   23.58    3.16
  10 -15   5   16.21    2.56
  15 -10   5   17.46    2.37
 -15  10   3   13.99    2.59
 -10  15   3   21.70    3.17
  10 -15   3   15.45    2.27
 -15  10   1    3.85    1.59
 -10  15   1    5.41    2.07
  10 -15   1    4.87    1.41
 -15  10  -1    6.86    2.05
 -10 -15   5   14.18    2.64
 -10 -15   7    3.15    1.89
 -15 -10   7    1.68    1.50
 -15 -10   9    0.24    1.45
 -10 -15   9    4.20    1.99
 -10 -15  11    2.79    1.90
 -15 -10  11    3.04    1.59
 -10 -15  13   -0.98    2.04
 -10 -15  15    3.69    1.96
  11 -15  14    0.31    1.64
  15 -11  14    2.09    1.93
  11 -15  12    1.00    1.77
  15 -11  12    3.27    1.93
  11 -15  10    6.60    2.23
  15 -11  10    2.10    1.54
 -11  15   8    1.74    1.80
  11 -15   8    2.47    1.72
  15 -11   8   -3.00    1.48
 -15  11   6    5.37    2.37
 -11  15   6    1.74    1.80
  11 -15   6    4.44    1.87
 -15  11   4    6.76    2.09
 -11  15   4    1.09    1.80
  11 -15   4    5.95    1.76
 -15  11   2    5.62    2.03
 -11  15   2    3.99    2.02
 -15  11   0    5.28    2.01
 -11  15   0    6.21    2.04
 -15  11  -2    4.85    1.82
 -11 -15   6    7.49    2.23
 -15 -11   8    0.91    1.59
 -11 -15   8    0.82    1.54
 -15 -11  10    4.47    1.81
 -11 -15  10    1.20    1.77
 -11 -15  12   -4.26    2.17
 -15 -11  12    0.35    1.79
 -11 -15  14    2.79    2.15
  12 -15  13   -0.09    1.72
  15 -12  13    2.18    1.96
  12 -15  11   -0.52    1.60
  15 -12  11    0.06    1.51
  12 -15   9   11.23    2.47
  15 -12   9   10.92    2.29
  12 -15   7    7.11    2.23
 -12  15   7    6.16    2.33
  12 -15   5   11.12    2.17
 -15  12   5   12.13    2.68
 -12  15   5   15.62    3.05
 -15  12   3    1.90    1.84
 -12  15   3    2.37    1.92
 -15  12   1    3.02    1.92
 -12  15   1    2.72    1.82
 -15  12  -1    2.07    1.90
 -12  15  -1    2.63    1.77
 -12 -15   5   12.12    2.64
 -12 -15   7    9.48    2.52
 -15 -12   7    6.16    2.14
 -12 -15   9   10.88    2.68
 -15 -12   9   10.00    2.31
 -12 -15  11    3.66    2.02
 -15 -12  11    4.10    2.20
 -12 -15  13   -0.73    2.06
 -15 -12  13    1.50    1.78
  13 -15  12   -2.52    2.00
  15 -13  12    4.31    2.08
  13 -15  10   17.84    3.00
  15 -13  10   13.76    2.62
  13 -15   8    7.16    2.08
 -15  13   6    0.06    1.90
 -13  15   6    2.44    2.08
 -15  13   4   14.80    2.92
 -13  15   4   17.75    3.30
 -15  13   2    6.92    2.19
 -13  15   2    5.88    2.61
 -15  13   0   12.60    2.76
 -13  15   0   11.36    2.69
 -15  13  -2    4.93    1.84
 -13  15  -2    7.27    2.29
 -13 -15   6    0.43    1.82
 -15 -13   6    0.41    1.62
 -13 -15   8    9.78    2.58
 -15 -13   8    9.69    2.50
 -15 -13  10   16.44    2.86
 -13 -15  10   16.64    3.07
 -13 -15  12   -5.40    2.18
 -15 -13  12    1.78    1.95
 -15 -13  14    0.68    1.70
  15 -14  11    7.96    2.34
  14 -15  11    8.07    2.33
 -15  14   7    2.68    2.05
 -14  15   7    4.42    2.19
 -14  15   5   45.24    4.71
 -15  14   5   42.86    4.57
 -15  14   3   21.55    3.59
 -14  15   3   17.30    3.26
 -15  14   1   22.80    3.53
 -14  15   1   16.07    3.01
 -15  14  -1   19.19    3.18
 -14  15  -1   17.22    3.02
 -15  14  -3   17.94    3.19
 -14 -15   7    8.03    2.44
 -15 -14   7    7.07    2.40
 -14 -15   9    4.20    2.36
 -15 -14   9   -1.08    1.70
 -14 -15  11   12.93    2.91
 -15 -14  11   13.00    2.76
 -15 -14  13    3.12    2.10
 -15  15   4    4.24    2.16
 -15  15   2   38.09    4.44
 -15  15   0  112.85    7.24
 -15  15  -2   42.03    4.64
 -15 -15   6   32.20    4.00
 -15 -15   8   30.80    4.01
 -15 -15  10    4.52    2.30
   0 -16   0   78.44    4.90
   0 -16   2   15.72    2.57
 -16   0  -2   15.00    1.74
   0  16   2   13.66    2.25
   0 -16  -2   10.07    1.84
   0 -16   4   49.92    4.08
 -16   0  -4   50.26    2.93
   0  16   4   48.85    3.71
   0  16   6   59.29    4.07
   0 -16   6   58.02    4.65
   0 -16   8    8.14    2.34
   0 -16  10   40.53    4.10
   0 -16  12   43.17    4.47
   0 -16  14    5.35    2.35
   0 -16  16    5.83    2.39
   1 -16  15   16.83    3.12
   1 -16  13   11.79    2.55
   1 -16  11   -1.14    1.84
   1 -16   9   78.73    5.52
  -1  16   7   30.06    3.08
   1 -16   7   28.24    3.41
   1 -16   5    6.29    1.91
  -1  16   5    7.74    1.89
   1 -16   3   77.47    4.99
  -1  16   3   72.97    4.52
  -1 -16  -1   34.55    3.31
   1 -16   1   25.94    3.06
 -16   1  -1   32.98    2.52
   1 -16  -1   22.85    2.82
  -1 -16   1   32.16    3.26
   1 -16  -3   70.28    4.57
 -16   1  -3   77.45    3.82
   1  16   3   80.71    4.48
  -1 -16   3   80.39    5.17
   1  16   5    8.74    1.83
 -16   1  -5    4.15    1.21
  -1 -16   5    8.33    2.17
   1  16   7   29.38    3.01
  -1 -16   7   32.22    3.61
  -1 -16   9   63.53    5.01
  -1 -16  11    4.07    2.03
  -1 -16  13   15.52    3.23
  -1 -16  15   15.87    3.16
  -1 -16  17    4.62    2.14
   2 -16  16   -0.53    1.77
   2 -16  14   -4.34    2.10
   2 -16  12   13.53    2.66
   2 -16  10   10.48    2.34
  -2  16   8    1.31    1.43
   2 -16   8    5.29    1.97
  -2  16   6    7.74    1.87
   2 -16   6    8.38    2.16
   2 -16   4    8.89    1.97
  -2  16   4    8.04    2.10
  -2  16   2    3.51    1.54
   2 -16   2    1.12    1.10
 -16   2   0    0.73    1.12
  -2 -16   0    2.04    1.67
   2 -16   0    2.15    1.40
 -16   2  -2    2.63    1.07
   2  16   2    6.13    1.67
   2 -16  -2    4.74    1.61
  -2 -16   2    6.13    2.08
  -2 -16   4   10.18    2.35
   2  16   4   11.29    1.84
 -16   2  -4    9.51    1.66
   2 -16  -4   13.10    2.18
   2  16   6    4.75    1.56
  -2 -16   6    3.29    1.87
  -2 -16   8    0.91    1.72
  -2 -16  10   20.07    3.23
  -2 -16  12   11.81    2.84
  -2 -16  14   -1.81    1.73
  -2 -16  16    3.20    2.15
   3 -16  15    3.83    2.01
   3 -16  13    3.45    2.07
   3 -16  11    7.81    2.34
   3 -16   9    4.16    1.80
  -3  16   7   21.47    3.03
   3 -16   7   12.86    2.27
  -3  16   5    9.28    2.03
   3 -16   5    6.82    1.85
   3 -16   3    8.02    1.63
  -3  16   3   23.06    2.93
 -16   3   1    5.27    1.48
   3 -16   1    1.59    1.42
 -16   3  -1    0.96    1.06
  -3 -16   1    2.78    1.69
   3 -16  -1    2.64    1.34
   3  16   3   18.63    2.05
   3 -16  -3   16.33    2.29
 -16   3  -3   18.19    2.19
  -3 -16   3   20.21    2.86
  -3 -16   5   11.00    2.47
   3  16   5    7.86    1.56
   3 -16  -5   12.42    2.11
 -16   3  -5    8.66    1.54
  -3 -16   7   19.14    2.89
  -3 -16   9   -0.25    1.72
  -3 -16  11    6.38    2.25
  -3 -16  13    2.37    1.95
  -3 -16  15    3.89    2.01
   4 -16  16    0.73    1.77
   4 -16  14   -1.91    2.04
   4 -16  12   18.08    3.01
   4 -16  10   13.91    2.84
   4 -16   8   19.09    2.83
  -4  16   8   24.66    3.23
  -4  16   6    4.22    1.79
   4 -16   6    2.66    1.43
  -4  16   4    4.47    1.69
   4 -16   4    1.84    1.27
 -16   4   2   24.01    2.63
  -4  16   2   27.49    3.15
   4 -16   2   23.57    2.86
   4 -16   0    6.66    1.75
 -16   4   0    8.01    1.74
  -4 -16   2   27.22    3.18
 -16   4  -2   27.57    2.81
   4  16   2   21.74    2.18
   4 -16  -2   21.19    2.62
   4 -16  -4    0.06    1.07
   4  16   4    0.89    0.97
 -16   4  -4    2.12    1.38
  -4 -16   4   -0.43    1.53
   4 -16  -6    4.70    1.51
  -4 -16   6    3.92    1.94
   4 -16  -8   22.29    2.54
  -4 -16   8   26.61    3.57
  -4 -16  10    9.12    2.25
  -4 -16  12   18.43    3.26
  -4 -16  14    4.14    2.28
  -4 -16  16   -0.32    1.81
   5 -16  15    7.77    2.57
   5 -16  13   26.95    3.75
   5 -16  11    6.82    2.18
   5 -16   9   10.58    2.56
   5 -16   7   68.05    4.94
  -5  16   7   71.26    5.05
   5 -16   5   12.33    2.48
  -5  16   5   13.86    2.62
 -16   5   3   -0.57    1.25
  -5  16   3    2.83    1.70
   5 -16   3    2.13    1.49
 -16   5   1   16.37    2.36
  -5  16   1   12.80    2.33
   5 -16   1   14.75    2.34
   5 -16  -1   16.37    2.27
 -16   5  -1   16.10    2.31
   5  16   1   17.78    2.03
   5  16   3    0.58    1.03
 -16   5  -3    0.39    1.25
   5 -16  -3    0.01    1.13
  -5 -16   3    0.46    1.50
  -5 -16   5   11.61    2.45
   5 -16  -5   13.05    1.92
  -5 -16   7   72.47    5.33
   5 -16  -7   65.27    3.91
  -5 -16   9    5.07    2.11
  -5 -16  11    8.73    2.48
  -5 -16  13   26.77    3.83
  -5 -16  15   17.51    3.30
   6 -16  14    0.94    1.72
   6 -16  12   69.24    5.66
   6 -16  10   24.21    3.33
  -6  16   8   17.06    2.76
   6 -16   8   18.77    2.85
   6 -16   6   60.14    4.59
  -6  16   6   62.17    4.80
   6 -16   4   16.27    2.53
  -6  16   4   18.65    2.73
 -16   6   2   14.12    2.45
   6 -16   2   18.01    2.43
  -6  16   2   15.51    2.67
 -16   6   0   22.99    2.80
   6 -16   0   20.89    2.55
 -16   6  -2   15.54    2.35
   6 -16  -2   13.62    2.03
   6 -16  -4   17.12    2.18
  -6 -16   4   16.89    2.95
 -16   6  -4   12.48    2.10
  -6 -16   6   62.41    4.96
 -16  -6   8   19.18    2.34
  -6 -16   8   16.60    2.95
  -6 -16  10   22.68    3.42
  -6 -16  12   73.05    5.81
  -6 -16  14   -0.85    1.83
  -6 -16  16    2.22    2.21
   7 -16  15    8.94    2.86
   7 -16  13   27.58    3.78
   7 -16  11    1.82    2.21
   7 -16   9    9.55    2.17
   7 -16   7   44.42    4.05
  -7  16   7   50.28    4.52
  -7  16   5   -0.98    1.59
   7 -16   5    0.45    1.33
   7 -16   3    2.77    1.49
 -16   7   3    0.43    1.66
  -7  16   3   -0.19    1.50
   7 -16   1    9.14    1.86
 -16   7   1    8.87    2.04
  -7  16   1   13.13    2.55
 -16   7  -1    6.53    1.85
   7 -16  -1    7.56    1.63
 -16   7  -3    1.22    1.44
   7 -16  -3    1.01    1.11
  -7 -16   3    0.49    1.55
  -7 -16   5   -0.19    1.74
  -7 -16   7   43.95    4.24
  -7 -16   9    8.14    2.40
 -16  -7   9    9.90    1.89
  -7 -16  11    2.83    2.06
  -7 -16  13   25.37    3.76
  -7 -16  15    7.57    2.59
   8 -16  14    1.93    1.99
   8 -16  12   14.94    3.01
  16  -8  12    8.93    2.17
   8 -16  10    7.89    2.32
  -8  16   8    6.97    2.34
   8 -16   8    6.21    1.84
  -8  16   6    1.63    1.72
   8 -16   6    2.30    1.62
 -16   8   4    9.41    2.14
  -8  16   4   12.72    2.60
   8 -16   4    6.92    1.75
   8 -16   2   25.57    2.79
 -16   8   2   23.22    3.01
  -8  16   2   24.25    3.18
   8 -16   0    2.39    1.20
 -16   8   0    0.59    1.36
 -16   8  -2   30.73    3.48
   8 -16  -2   23.46    2.46
  -8 -16   4    5.82    2.03
  -8 -16   6    0.25    1.73
 -16  -8   8    7.37    1.82
  -8 -16   8   10.32    2.65
 -16  -8  10    4.46    1.67
  -8 -16  10    5.85    2.16
  -8 -16  12   10.88    2.72
  -8 -16  14    4.02    2.24
  16  -9  15    0.97    1.92
   9 -16  13    3.90    2.00
  16  -9  13    1.32    1.69
   9 -16  11    2.25    1.75
  16  -9  11   -0.96    1.56
   9 -16   9    4.82    1.86
  16  -9   9    7.34    2.04
  -9  16   7    2.89    1.70
  16  -9   7    2.24    1.34
   9 -16   7    1.84    1.41
 -16   9   5   24.82    3.29
  -9  16   5   18.77    3.03
   9 -16   5   20.53    2.74
   9 -16   3   47.90    3.87
 -16   9   3   50.69    4.45
  -9  16   3   50.30    4.72
 -16   9   1    7.25    1.96
  -9  16   1   11.42    2.69
   9 -16   1    9.26    1.86
 -16   9  -1    7.29    1.99
 -16   9  -3   46.46    4.16
  -9 -16   5   19.74    3.07
  -9 -16   7    5.88    1.99
 -16  -9   9    4.38    1.56
  -9 -16   9    7.91    2.30
  -9 -16  11   -0.94    1.92
  -9 -16  13    3.83    2.26
  16 -10  14    1.27    1.77
  10 -16  12   -0.92    1.55
  16 -10  12    1.71    1.44
  10 -16  10    6.78    2.23
  16 -10  10    6.06    1.82
 -10  16   8    1.42    2.12
  10 -16   8    4.16    1.80
  16 -10   8    0.12    1.32
 -10  16   6   16.90    3.15
  10 -16   6   14.41    2.64
 -16  10   4   15.99    2.97
 -10  16   4   11.21    2.57
  10 -16   4   13.85    2.22
 -16  10   2   21.16    3.15
 -10  16   2   17.09    2.94
  10 -16   2   13.34    2.30
 -16  10   0   31.84    3.52
 -10  16   0   26.20    3.29
 -16  10  -2   18.49    2.84
 -10 -16   4    9.10    2.43
 -10 -16   6   19.12    3.21
 -10 -16   8    4.52    2.28
 -16 -10   8    5.71    1.97
 -16 -10  10    5.97    2.09
 -10 -16  10    5.83    2.13
 -10 -16  12   -0.24    1.93
 -10 -16  14    0.67    1.78
  11 -16  13    6.41    2.37
  16 -11  13    2.69    1.96
  11 -16  11    4.40    1.94
  16 -11  11    0.70    1.46
  11 -16   9   -0.32    1.59
  16 -11   9    0.75    1.36
 -11  16   7    0.31    1.93
  11 -16   7    4.46    1.91
 -16  11   5    9.25    2.34
 -11  16   5   12.14    2.64
  11 -16   5    9.39    2.08
 -16  11   3    7.85    2.40
 -11  16   3    5.45    2.14
 -16  11   1    5.90    2.04
 -11  16   1   10.74    2.59
 -16  11  -1    6.18    2.31
 -11  16  -1    6.08    2.39
 -16  11  -3    2.46    1.56
 -11 -16   5    8.08    2.40
 -11 -16   7    7.61    2.45
 -16 -11   7    4.69    1.86
 -16 -11   9   -0.44    1.51
 -11 -16   9   -0.22    1.80
 -11 -16  11    1.66    2.05
 -16 -11  11    4.42    1.82
 -11 -16  13    2.13    1.82
  12 -16  12    2.29    1.91
  16 -12  12    2.44    1.80
  12 -16  10    7.74    2.34
 -12  16   8    3.04    2.08
  12 -16   8    5.31    2.03
 -16  12   6    1.77    1.95
 -12  16   6   -1.55    1.97
 -16  12   4    0.90    1.95
 -12  16   4    1.26    1.83
 -16  12   2    2.34    1.89
 -12  16   2    4.44    2.27
 -16  12   0    2.32    1.65
 -12  16   0    5.53    2.28
 -16  12  -2    3.65    1.91
 -12 -16   6   -1.68    1.89
 -16 -12   8    4.04    1.97
 -12 -16   8    4.69    2.20
 -16 -12  10    3.18    1.78
 -12 -16  10    7.84    2.49
 -12 -16  12    5.18    2.33
  13 -16  11   -1.85    1.85
  13 -16   9    2.69    1.99
 -13  16   7    9.57    2.83
 -16  13   5    6.30    2.26
 -13  16   5    5.65    2.32
 -16  13   3    0.52    1.77
 -13  16   3   -0.15    1.76
 -16  13   1    1.86    1.69
 -13  16   1    2.07    1.96
 -16  13  -1    4.13    2.22
 -13  16  -1    5.18    2.13
 -16  13  -3    3.78    2.05
 -13 -16   5    2.60    1.99
 -13 -16   7    5.72    2.24
 -16 -13   7   11.67    2.73
 -13 -16   9    3.60    2.07
 -16 -13   9    3.53    1.95
 -16 -13  11    1.68    1.96
 -16  14   4    1.23    1.84
 -16  14   2   10.21    2.63
 -14  16   2   15.41    3.16
 -16  14   0   34.96    4.22
 -14  16   0   36.87    4.39
 -16  14  -2   11.07    2.63
 -14  16  -2   13.65    2.87
 -16  14  -4    2.31    2.19
 -14 -16   6    4.99    2.20
 -16 -14   6    1.97    1.89
 -14 -16   8   13.19    2.98
 -16 -14   8   15.87    3.15
 -16 -14  10    6.74    2.42
 -16 -14  12   -0.23    1.84
 -16 -15   7   -0.30    1.78
   0 -17  -1    1.80    1.17
   0 -17   1    0.86    1.34
   0 -17  -3   10.45    2.11
   0  17   3    8.90    1.98
   0 -17   3    3.93    1.53
   0 -17   5    3.00    1.63
   0  17   5    2.58    1.53
   0  17   7   14.97    2.36
   0 -17   7    9.98    2.37
   0 -17   9   22.63    3.27
   0 -17  11   -1.02    1.77
   0 -17  13    9.76    2.54
   0 -17  15   12.86    2.78
   1 -17  14   -0.18    1.86
   1 -17  12   12.73    2.88
   1 -17  10   20.10    3.23
   1 -17   8    2.66    1.98
  -1  17   6    6.97    1.81
   1 -17   6    4.29    1.79
   1 -17   4   12.36    2.35
  -1  17   4   14.57    2.49
  -1  17   2    1.63    1.62
  -1 -17  -2    0.05    1.22
   1 -17   2   -0.16    1.11
  -1 -17   0    1.78    1.44
   1 -17   0    1.00    1.19
  -1 -17   2    0.14    1.44
 -17   1  -2   -0.89    1.06
   1  17   2    2.26    1.62
   1 -17  -2    0.49    1.28
   1  17   4   15.68    2.25
   1 -17  -4   16.40    2.44
  -1 -17   4   14.83    2.65
   1  17   6    8.23    1.86
  -1 -17   6    6.55    2.22
  -1 -17   8    1.54    1.59
  -1 -17  10   25.43    3.48
  -1 -17  12   11.44    2.59
  -1 -17  14    3.05    2.07
   2 -17  15    0.75    1.99
   2 -17  13    2.81    1.78
   2 -17  11    8.97    2.50
   2 -17   9    2.60    1.85
  -2  17   7    9.95    2.24
   2 -17   7    7.55    1.98
  -2  17   5   11.61    2.25
   2 -17   5    8.43    2.04
   2 -17   3   22.82    2.99
  -2  17   3   25.45    2.86
  -2 -17  -1    1.34    1.55
   2 -17   1    2.13    1.62
  -2 -17   1    2.06    1.59
   2 -17  -1    4.29    1.72
 -17   2  -1    2.47    1.18
   2  17   1    2.03    1.32
 -17   2  -3   31.23    2.72
  -2 -17   3   29.36    3.42
   2  17   3   32.88    2.97
   2 -17  -3   28.92    3.10
   2 -17  -5   11.76    2.29
   2  17   5   10.12    1.85
 -17   2  -5   12.18    1.90
  -2 -17   5   12.62    2.62
  -2 -17   7    4.76    1.61
  -2 -17   9   -1.59    1.96
  -2 -17  11    9.00    2.42
  -2 -17  13    7.91    2.46
  -2 -17  15   -2.34    2.03
   3 -17  14    6.51    2.36
   3 -17  12    3.02    1.94
   3 -17  10    3.26    1.91
  -3  17   8   36.90    3.77
   3 -17   8   31.57    3.67
  -3  17   6    7.87    2.36
   3 -17   6    7.18    2.12
  -3  17   4    8.64    2.13
   3 -17   4    9.53    2.21
  -3  17   2   51.99    4.20
   3 -17   2   46.96    4.00
  -3 -17   0   51.09    4.33
 -17   3   0   46.73    3.42
   3 -17   0   47.63    3.91
 -17   3  -2   46.69    3.43
   3  17   2   49.14    3.47
   3 -17  -2   46.30    3.78
  -3 -17   2   41.67    4.06
  -3 -17   4    4.18    1.78
   3  17   4    7.19    1.67
 -17   3  -4    6.40    1.60
   3 -17  -4    6.77    1.81
   3  17   6   10.96    2.00
 -17   3  -6    9.45    1.83
   3 -17  -6    9.83    1.98
  -3 -17   6   12.94    2.62
  -3 -17   8   34.77    3.95
  -3 -17  10    2.67    1.62
  -3 -17  12    5.12    2.32
  -3 -17  14    3.84    2.03
   4 -17  15   -0.75    1.95
   4 -17  13   14.55    3.07
   4 -17  11    9.20    2.42
   4 -17   9    5.34    2.09
   4 -17   7   19.85    2.87
  -4  17   7   18.34    2.94
  -4  17   5   15.29    2.51
   4 -17   5   11.99    2.40
  -4  17   3   49.93    4.20
   4 -17   3   54.09    4.32
   4 -17   1    6.18    1.66
 -17   4   1    7.66    1.79
  -4  17   1    4.66    1.70
 -17   4  -1    8.33    1.83
   4 -17  -1    4.90    1.77
   4  17   1    7.84    1.69
  -4 -17   1    7.07    2.09
   4 -17  -3   48.54    3.80
   4  17   3   57.35    3.53
 -17   4  -3   52.77    3.76
  -4 -17   3   58.03    4.72
  -4 -17   5   17.77    2.96
   4 -17  -5   14.35    2.22
   4  17   5   16.50    2.01
 -17   4  -5   15.44    2.21
  -4 -17   7   22.22    3.30
   4 -17  -7   19.51    2.51
  -4 -17   9    4.82    2.00
  -4 -17  11    8.02    2.46
  -4 -17  13    8.62    2.68
  -4 -17  15    1.33    1.87
   5 -17  14    1.32    1.82
   5 -17  12   21.17    3.55
   5 -17  10   17.62    3.02
   5 -17   8   27.93    3.51
  -5  17   8   27.96    3.53
   5 -17   6    7.51    2.04
  -5  17   6   10.88    2.41
  -5  17   4   11.41    2.38
   5 -17   4   10.12    2.08
 -17   5   2   34.01    3.30
  -5  17   2   32.57    3.51
   5 -17   2   40.43    3.72
 -17   5   0    0.15    1.35
   5 -17   0   -0.10    1.26
  -5 -17   2   33.85    3.61
 -17   5  -2   31.99    3.18
   5 -17  -2   30.17    3.05
 -17   5  -4   11.37    2.05
   5 -17  -4   13.40    2.14
  -5 -17   4   12.28    2.67
  -5 -17   6    6.39    2.02
   5 -17  -6    9.93    1.81
  -5 -17   8   25.02    3.38
  -5 -17  10    8.40    2.36
  -5 -17  12   34.44    4.27
  -5 -17  14    4.02    2.22
   6 -17  13   26.86    3.83
   6 -17  11    7.81    2.33
   6 -17   9    0.54    1.56
   6 -17   7   61.94    4.88
  -6  17   7   70.15    5.20
   6 -17   5   21.41    2.88
  -6  17   5   21.84    3.21
 -17   6   3    1.91    1.41
   6 -17   3    2.50    1.34
  -6  17   3    0.91    1.57
 -17   6   1   42.77    3.74
   6 -17   1   36.37    3.41
  -6  17   1   36.75    3.65
 -17   6  -1   39.29    3.51
   6 -17  -1   37.20    3.30
   6 -17  -3   -0.28    1.19
 -17   6  -3    0.07    1.39
  -6 -17   3    2.62    1.60
 -17   6  -5   19.97    2.66
  -6 -17   5   20.99    3.29
  -6 -17   7   63.86    5.27
  -6 -17   9    4.21    1.93
  -6 -17  11    5.61    2.17
  -6 -17  13   30.74    4.25
   7 -17  14    2.04    2.06
   7 -17  12   29.51    3.87
   7 -17  10    9.24    2.26
  -7  17   8   12.95    2.73
   7 -17   8   16.06    2.80
  -7  17   6   13.14    2.83
   7 -17   6   15.58    2.55
   7 -17   4   29.02    3.32
  -7  17   4   27.18    3.62
   7 -17   2   24.32    2.89
 -17   7   2   26.77    3.12
  -7  17   2   25.04    3.22
 -17   7   0    9.53    2.18
   7 -17   0    7.26    1.82
 -17   7  -2   23.51    2.93
   7 -17  -2   21.91    2.61
  -7 -17   4   23.67    3.29
 -17   7  -4   25.77    3.04
  -7 -17   6   19.13    3.12
  -7 -17   8   18.25    3.29
  -7 -17  10   11.30    2.78
  -7 -17  12   34.02    4.26
   8 -17  13    5.94    2.38
   8 -17  11    1.62    1.87
   8 -17   9    3.59    1.91
  -8  17   7   22.15    3.34
   8 -17   7   22.06    3.04
  -8  17   5   18.30    3.07
   8 -17   5   17.50    2.76
 -17   8   3   27.90    3.47
  -8  17   3   24.77    3.46
   8 -17   3   17.71    2.51
   8 -17   1   22.64    2.72
 -17   8   1   25.67    3.16
  -8  17   1   20.81    3.00
 -17   8  -1   24.73    3.19
  -8 -17   3   19.67    3.18
 -17   8  -3   22.31    3.03
  -8 -17   5   18.47    3.22
  -8 -17   7   25.84    3.63
  -8 -17   9   -0.03    1.72
  -8 -17  11   -0.17    1.76
  -8 -17  13   13.92    3.13
   9 -17  12    1.17    1.68
   9 -17  10    5.93    2.30
  -9  17   8   25.06    3.72
   9 -17   8   15.88    2.88
  -9  17   6   17.84    2.99
   9 -17   6   16.41    2.60
  -9  17   4   40.28    4.24
 -17   9   4   34.33    3.79
   9 -17   4   28.03    3.28
   9 -17   2   47.51    3.80
 -17   9   2   51.19    4.51
  -9  17   2   56.81    4.93
 -17   9   0   31.15    3.54
  -9  17   0   28.38    3.60
 -17   9  -2   54.00    4.52
  -9 -17   4   30.59    3.82
 -17   9  -4   36.43    3.74
  -9 -17   6   19.02    3.20
 -17  -9   8   27.83    3.29
  -9 -17   8   27.58    3.65
  -9 -17  10    9.06    2.79
  -9 -17  12   -1.24    2.48
  17 -10  13    0.51    1.72
  10 -17  11    5.68    2.29
  17 -10  11    6.85    1.85
  10 -17   9    2.64    1.78
 -10  17   7    7.06    2.47
  10 -17   7    3.44    1.64
 -17  10   5   21.83    3.12
 -10  17   5   26.25    3.56
  10 -17   5   24.15    3.11
 -17  10   3   37.58    3.99
 -10  17   3   33.33    4.02
 -17  10   1   19.88    3.00
 -10  17   1   21.45    3.31
 -17  10  -1   21.54    3.21
 -10  17  -1   18.02    3.03
 -17  10  -3   36.18    3.88
 -10 -17   5   25.78    3.69
 -17 -10   7    1.92    1.50
 -10 -17   7   10.44    2.66
 -17 -10   9    4.85    2.09
 -10 -17   9    1.50    1.77
 -10 -17  11    1.30    1.74
  11 -17  12    1.61    1.76
  17 -11  12   -3.35    1.97
  11 -17  10    8.17    2.22
 -11  17   8   14.40    3.12
  11 -17   8   13.39    2.68
 -11  17   6    2.50    2.08
  11 -17   6    0.83    1.46
 -17  11   4    3.45    1.91
 -11  17   4    7.36    2.41
 -17  11   2   21.19    3.23
 -11  17   2   22.23    3.52
 -17  11   0    9.99    2.48
 -11  17   0    7.06    2.28
 -17  11  -2   20.48    3.04
 -11 -17   4    6.79    2.41
 -17  11  -4    4.66    1.99
 -11 -17   6    3.55    2.22
 -11 -17   8   12.92    2.98
 -17 -11   8   11.01    2.61
 -11 -17  10    5.70    2.47
  12 -17  11   10.47    2.66
  12 -17   9    7.08    2.09
 -17  12   5    9.89    2.61
 -12  17   5   11.58    2.94
 -17  12   3    3.58    2.18
 -12  17   3    2.58    1.97
 -17  12   1    0.89    1.61
 -12  17   1    4.14    2.22
 -17  12  -1    3.50    2.06
 -12  17  -1    6.91    2.51
 -17  12  -3    2.42    1.93
 -12 -17   5    5.55    2.37
 -17 -12   7    9.61    2.43
 -12 -17   7    8.63    2.60
 -17 -12   9   10.79    2.59
 -17  13   4    6.75    2.74
 -17  13   2    9.99    2.60
 -13  17   2    4.66    2.49
 -17  13   0    1.59    1.98
 -13  17   0    1.41    1.89
 -17  13  -2   11.61    2.81
 -13  17  -2    6.18    2.35
 -17  13  -4    5.02    2.29
 -13 -17   4    6.73    2.50
 -17 -13   6    1.85    1.70
 -17 -13   8    9.59    2.63
 -17 -13  10    7.67    2.52
 -17 -14   7   12.23    2.88
 -17 -14   9    0.92    2.09
   0 -18   0    7.89    2.21
   0 -18  -2    2.36    1.51
   0  18   2    5.43    1.69
   0 -18   2    3.88    1.71
   0  18   4    3.49    1.62
   0 -18  -4    0.05    1.36
   0 -18   4    0.21    1.29
   0 -18   6   -0.44    1.90
   0  18   6    2.18    1.35
   0 -18   8    7.47    2.38
   0 -18  10    5.91    2.29
   0 -18  12    5.74    2.26
   1 -18  13    2.12    1.79
   1 -18  11    0.42    1.69
   1 -18   9    1.10    1.61
  -1  18   7   13.81    2.41
   1 -18   7   13.88    2.74
   1 -18   5   14.02    2.67
  -1  18   5   12.24    2.29
  -1 -18  -3   18.73    2.73
   1 -18   3   16.11    2.80
  -1  18   3   12.53    2.31
  -1 -18  -1    1.21    1.61
  -1  18   1    2.49    1.46
   1 -18   1    2.52    1.74
   1 -18  -1    2.14    1.62
  -1 -18   1    1.77    1.32
   1  18   1    2.33    1.54
   1 -18  -3   14.45    2.45
   1  18   3   17.66    2.44
  -1 -18   3    5.97    1.97
   1  18   5   15.83    2.45
  -1 -18   5   12.77    2.63
   1 -18  -5   14.29    2.45
  -1 -18   7    6.82    2.16
  -1 -18   9    2.92    2.03
  -1 -18  11    5.54    2.18
  -1 -18  13    3.48    2.27
   2 -18  12    1.55    1.85
   2 -18  10    2.41    1.89
   2 -18   8   28.12    3.64
  -2  18   6   29.59    3.50
   2 -18   6   27.70    3.47
   2 -18   4    6.80    2.11
  -2  18   4    2.98    1.52
  -2  18   2   42.82    3.90
  -2 -18  -2   37.47    3.81
   2 -18   2   36.06    3.73
   2 -18   0   77.95    5.08
  -2 -18   0   55.42    4.62
   2  18   2   42.68    3.40
   2 -18  -2   38.21    3.55
  -2 -18   2   38.02    3.90
   2  18   4    5.16    1.58
   2 -18  -4    5.63    1.85
  -2 -18   4   10.35    2.45
   2  18   6   24.16    2.80
  -2 -18   6   24.82    3.48
   2 -18  -6   30.79    3.22
  -2 -18   8   27.98    3.78
  -2 -18  10    2.38    1.87
  -2 -18  12    0.48    1.84
   3 -18  13    2.04    1.65
   3 -18  11    4.98    2.13
   3 -18   9   42.31    4.39
  -3  18   7    0.64    1.56
   3 -18   7    3.11    1.91
  -3  18   5   21.41    3.06
   3 -18   5   19.23    2.88
  -3  18   3  122.70    6.51
   3 -18   3  107.96    6.27
  -3 -18  -1    5.86    1.95
   3 -18   1    8.74    2.22
  -3  18   1    6.10    1.88
  -3 -18   1   10.10    2.42
 -18   3  -1   10.23    1.79
   3  18   1   12.99    2.14
   3 -18  -1   10.07    2.24
 -18   3  -3  112.96    5.42
   3  18   3  119.69    5.55
   3 -18  -3  111.02    5.89
  -3 -18   3  127.65    7.03
   3  18   5   25.70    2.79
   3 -18  -5   17.78    2.49
  -3 -18   5   23.53    3.26
  -3 -18   7   -0.14    1.77
   3 -18  -7    0.89    1.40
  -3 -18   9   27.52    3.68
  -3 -18  11    5.92    2.24
  -3 -18  13    0.85    1.75
   4 -18  12    1.73    1.78
   4 -18  10    1.93    1.84
  -4  18   8   27.22    3.43
   4 -18   8   25.10    3.39
  -4  18   6   12.51    2.54
   4 -18   6   18.32    2.87
  -4  18   4   16.85    2.95
   4 -18   4   14.05    2.64
  -4  18   2   54.29    4.56
   4 -18   2   52.43    4.39
 -18   4   0   34.90    3.24
  -4 -18   0   33.51    3.77
   4  18   0   32.16    2.81
   4 -18   0   34.68    3.51
 -18   4  -2   51.49    3.85
  -4 -18   2   56.49    4.80
   4 -18  -2   51.81    4.09
  -4 -18   4   17.65    2.98
 -18   4  -4   13.10    2.05
   4 -18  -4   16.79    2.47
   4 -18  -6   14.76    2.26
 -18   4  -6   13.09    2.16
  -4 -18   6   14.00    2.80
  -4 -18   8   27.18    3.81
  -4 -18  10   -1.68    1.91
  -4 -18  12    3.89    2.23
   5 -18  13    6.19    2.42
   5 -18  11    4.48    2.05
   5 -18   9    8.89    2.46
   5 -18   7   12.41    2.62
  -5  18   7   10.83    2.50
   5 -18   5    5.19    1.95
  -5  18   5    3.72    1.89
  -5  18   3   31.52    3.58
   5 -18   3   29.72    3.39
 -18   5   1    7.53    1.94
  -5  18   1    3.19    1.73
   5 -18   1    6.56    1.94
   5 -18  -1    1.95    1.32
 -18   5  -1    1.00    1.53
  -5 -18   1    4.36    2.21
 -18   5  -3   30.74    3.13
   5 -18  -3   32.83    3.40
  -5 -18   3   32.69    3.80
  -5 -18   5    6.80    2.22
 -18   5  -5    4.45    1.57
   5 -18  -5    5.99    1.60
  -5 -18   7   11.47    2.74
  -5 -18   9   -1.41    1.71
  -5 -18  11    0.85    2.00
   6 -18  12   21.67    3.56
   6 -18  10    1.51    1.98
  -6  18   8   11.71    2.63
   6 -18   8   11.78    2.48
   6 -18   6   12.49    2.63
  -6  18   6   12.28    2.71
   6 -18   4   10.47    2.41
  -6  18   4    6.70    1.95
 -18   6   2   21.26    2.85
   6 -18   2   19.80    2.79
  -6  18   2   18.57    3.12
 -18   6   0    6.37    1.85
  -6  18   0    8.27    2.09
   6 -18   0    6.08    1.79
  -6 -18   2   23.62    3.39
 -18   6  -2   22.55    2.87
   6 -18  -2   19.44    2.64
 -18   6  -4    6.33    1.91
  -6 -18   4    7.96    2.31
  -6 -18   6   11.89    2.79
 -18   6  -6   12.55    2.35
  -6 -18   8   12.59    2.91
  -6 -18  10    2.75    1.80
  -6 -18  12   20.28    3.82
   7 -18  11    4.70    2.37
   7 -18   9    0.97    1.55
  -7  18   7   25.67    3.69
   7 -18   7   24.39    3.31
   7 -18   5    6.71    2.13
  -7  18   5    4.97    2.18
   7 -18   3    5.02    1.83
 -18   7   3    7.95    2.16
  -7  18   3    4.47    2.28
   7 -18   1   18.95    2.59
 -18   7   1   16.32    2.63
  -7  18   1   19.44    3.22
 -18   7  -1   18.72    2.72
   7 -18  -1   17.54    2.45
 -18   7  -3    8.48    2.07
  -7 -18   3    5.91    2.26
 -18   7  -5    5.66    1.94
  -7 -18   5    5.38    2.18
  -7 -18   7   23.41    3.38
  -7 -18   9    1.89    2.14
  -7 -18  11    0.30    2.02
   8 -18  12    8.79    2.70
   8 -18  10    3.59    2.05
  -8  18   8   15.05    3.06
   8 -18   8   14.36    2.75
  -8  18   6    0.11    1.63
   8 -18   6   -0.13    1.59
  -8  18   4   17.50    3.21
   8 -18   4   16.91    2.67
   8 -18   2   28.51    3.24
 -18   8   2   29.61    3.52
  -8  18   2   29.84    3.77
 -18   8   0    4.99    1.86
  -8  18   0    7.30    2.46
 -18   8  -2   29.15    3.36
  -8 -18   2   25.88    3.58
  -8 -18   4   16.61    2.88
 -18   8  -4   16.60    2.71
  -8 -18   6    1.53    1.95
  -8 -18   8   15.67    3.06
  -8 -18  10    4.17    2.36
   9 -18  11    6.70    2.29
   9 -18   9    6.27    2.28
  -9  18   7    2.90    1.92
   9 -18   7    6.95    2.15
  -9  18   5   18.11    3.19
   9 -18   5   16.99    2.70
   9 -18   3   53.86    4.25
 -18   9   3   53.92    4.67
  -9  18   3   59.47    5.16
 -18   9   1   17.97    2.88
  -9  18   1   16.35    2.87
 -18   9  -1   18.76    2.99
  -9  18  -1   16.93    3.12
  -9 -18   3   53.21    4.94
 -18   9  -3   58.58    4.79
 -18   9  -5   15.14    2.72
  -9 -18   5   18.03    3.24
  -9 -18   7    2.71    2.10
  -9 -18   9    8.42    2.48
  10 -18  10    1.43    1.78
 -10  18   8   14.60    3.00
  10 -18   8   12.08    2.60
 -10  18   6    6.20    2.50
  10 -18   6    4.27    1.94
 -18  10   4    2.23    1.88
 -10  18   4    0.43    1.68
 -18  10   2   16.84    3.08
 -10  18   2   18.99    3.12
 -18  10   0   21.70    3.16
 -10  18   0   30.18    4.08
 -18  10  -2   20.12    3.10
 -18  10  -4    5.54    2.25
 -10 -18   4    5.80    2.47
 -10 -18   6    5.13    2.39
 -10 -18   8   13.52    3.02
  11 -18   9    3.46    1.99
  11 -18   7   11.68    2.46
 -11  18   5    4.20    2.10
 -18  11   3    2.61    2.02
 -11  18   3    1.73    2.17
 -18  11   1    2.99    1.94
 -11  18   1    2.06    1.96
 -18  11  -1    4.09    2.00
 -11  18  -1    3.18    2.31
 -11 -18   3    0.12    1.86
 -18  11  -3   -0.74    1.67
 -11 -18   5    2.80    1.92
 -18  11  -5    2.63    1.87
 -18 -11   7    9.60    2.32
  12 -18  10    7.08    2.38
 -18  12   4   11.52    2.98
 -18  12   2    1.92    1.95
 -18  12   0    2.89    1.82
 -18  12  -2    2.59    2.07
 -18  12  -4    6.90    2.25
 -18 -12   8    0.99    1.79
 -18 -13   7   17.53    3.21
   0 -19  -1    2.37    1.70
   0  19   1    6.45    1.99
   0 -19   1    6.02    2.16
   0 -19  -3   10.05    2.20
   0  19   3   10.61    2.21
   0 -19   3    7.85    2.17
   0 -19   5    6.59    2.14
   0  19   5    8.35    2.12
   0 -19  -5   13.91    2.45
   0  19   7   10.59    2.38
   0 -19   7   10.83    2.46
   0 -19   9    2.71    1.89
   0 -19  11    2.65    2.15
   1 -19  12    6.89    2.30
   1 -19  10   12.52    2.98
   1 -19   8   15.03    2.87
  -1  19   6   -0.13    1.44
   1 -19   6    4.35    2.07
   1 -19   4    2.28    1.66
  -1 -19  -4    0.75    1.46
  -1  19   4   -1.35    1.69
  -1 -19  -2   15.83    2.75
  -1  19   2   14.64    2.53
   1 -19   2   10.86    2.47
   1 -19   0   38.10    3.89
  -1 -19   0   41.35    4.08
   1 -19  -2   12.55    2.46
   1  19   2   10.43    2.19
  -1 -19   2   14.19    2.66
   1 -19  -4    1.18    1.52
   1  19   4    1.73    1.45
  -1 -19   4    3.43    2.04
  -1 -19   6    4.83    2.07
   1  19   6    5.40    1.78
   1 -19  -6    6.54    2.15
  -1 -19   8   11.96    2.71
  -1 -19  10    6.63    2.43
   2 -19  11    4.82    2.15
   2 -19   9   14.61    2.95
  -2  19   7   -1.88    1.81
   2 -19   7    1.28    1.74
  -2  19   5   17.89    2.82
   2 -19   5   21.24    3.14
  -2 -19  -3   88.39    5.92
  -2  19   3   89.15    5.67
   2 -19   3   79.94    5.67
  -2 -19  -1    9.71    2.51
   2 -19   1    7.32    2.10
  -2  19   1   13.05    2.46
   2  19   1    8.31    1.94
  -2 -19   1    9.82    2.54
   2 -19  -1   11.37    2.31
  -2 -19   3   74.44    5.48
   2  19   3   79.75    4.87
   2 -19  -3   78.42    5.21
   2  19   5   21.48    2.74
  -2 -19   5   16.53    3.04
   2 -19  -5   16.99    2.59
   2 -19  -7   -1.12    1.71
  -2 -19   7    0.56    1.70
  -2 -19   9   14.69    3.13
  -2 -19  11    2.84    2.30
   3 -19  10    1.20    1.80
  -3  19   8   16.71    2.82
   3 -19   8   13.52    2.90
  -3  19   6   33.12    3.69
   3 -19   6   36.14    4.06
  -3  19   4   18.47    2.99
   3 -19   4   21.70    3.16
   3 -19   2   34.98    3.76
  -3  19   2   38.09    3.88
  -3 -19  -2   46.36    4.39
   3  19   0   67.92    4.40
  -3 -19   0   74.00    5.51
   3 -19   0   69.76    5.12
   3 -19  -2   39.31    3.78
  -3 -19   2   38.11    4.16
   3 -19  -4   21.86    2.91
  -3 -19   4   19.63    3.19
  -3 -19   6   39.73    4.37
   3 -19  -6   32.40    3.35
  -3 -19   8   16.09    3.10
  -3 -19  10   11.61    3.08
   4 -19  11   -1.37    1.75
   4 -19   9   18.30    3.24
   4 -19   7   -1.90    1.76
  -4  19   7    2.54    2.03
  -4  19   5    8.45    2.21
   4 -19   5    7.33    1.98
  -4  19   3   69.52    5.25
   4 -19   3   65.03    4.92
  -4  19   1    4.05    1.51
  -4 -19  -1    5.44    2.17
   4 -19   1    3.99    1.86
  -4 -19   1    7.11    2.37
   4 -19  -1    7.07    1.86
 -19   4  -1    8.41    1.85
  -4 -19   3   72.73    5.68
   4 -19  -3   74.58    5.00
  -4 -19   5   11.28    2.81
   4 -19  -5   12.31    2.43
  -4 -19   7    0.20    1.69
  -4 -19   9   12.42    3.09
   5 -19  10    2.75    1.85
   5 -19   8    3.73    1.94
  -5  19   8    3.36    1.95
   5 -19   6   -0.58    1.55
  -5  19   6    1.83    1.87
  -5  19   4    6.70    2.23
   5 -19   4    6.33    1.98
  -5  19   2   20.73    3.19
   5 -19   2   12.42    2.45
  -5 -19   0    1.52    1.74
 -19   5   0    2.00    1.47
  -5  19   0   -0.16    1.82
   5 -19   0    1.31    1.38
  -5 -19   2   15.21    3.08
   5 -19  -2   11.08    2.27
 -19   5  -2   14.86    2.44
  -5 -19   4    5.01    2.11
 -19   5  -4    4.65    1.80
  -5 -19   6    0.53    1.92
  -5 -19   8    0.84    1.90
  -5 -19  10    5.63    2.17
   6 -19  11    7.78    2.57
   6 -19   9   -1.47    1.78
   6 -19   7    9.70    2.58
  -6  19   7   13.47    2.72
   6 -19   5    2.19    1.62
  -6  19   5    0.93    1.77
   6 -19   3    4.28    1.68
  -6  19   3    0.80    1.58
 -19   6   1   12.07    2.38
  -6  19   1   13.86    2.78
   6 -19   1    8.87    2.10
 -19   6  -1   10.24    2.09
  -6 -19   1   13.34    2.75
   6 -19  -1    9.69    2.03
 -19   6  -3   -1.26    1.31
  -6 -19   3    3.79    2.14
  -6 -19   5    0.84    1.78
 -19   6  -5    1.04    1.38
  -6 -19   7   20.61    3.43
  -6 -19   9    3.84    2.40
   7 -19  10    3.16    2.25
  -7  19   8    8.10    2.72
   7 -19   8    4.82    2.25
  -7  19   6    6.97    2.49
   7 -19   6    6.35    2.05
   7 -19   4    1.36    1.51
  -7  19   4    2.15    1.77
 -19   7   2   11.14    2.42
   7 -19   2   12.49    2.34
  -7  19   2    8.19    2.30
 -19   7   0    5.24    1.80
   7 -19   0    5.83    1.96
  -7  19   0    3.36    2.03
  -7 -19   2   11.66    2.78
 -19   7  -2   10.82    2.39
 -19   7  -4    1.82    1.59
  -7 -19   4   -3.33    2.15
  -7 -19   6    5.80    2.27
 -19   7  -6    6.39    1.87
  -7 -19   8    3.01    2.20
   8 -19   9   -2.96    1.90
  -8  19   7   16.30    3.23
   8 -19   7   14.20    2.65
  -8  19   5    4.38    2.19
   8 -19   5    2.17    1.57
 -19   8   3   17.71    2.90
  -8  19   3   27.48    3.75
   8 -19   3   17.42    2.67
 -19   8   1    2.22    1.78
  -8  19   1   -3.34    2.00
 -19   8  -1    1.33    1.42
  -8 -19   1    1.60    1.89
  -8  19  -1    0.97    1.86
 -19   8  -3   19.68    2.90
  -8 -19   3   22.34    3.58
 -19   8  -5    5.06    1.89
  -8 -19   5    6.66    2.65
 -19   8  -7   10.68    2.23
  -8 -19   7    8.58    2.70
   9 -19  10    3.71    1.93
   9 -19   8   11.42    2.44
  -9  19   6    2.18    1.80
   9 -19   6    1.03    1.49
  -9  19   4    4.65    2.26
   9 -19   4   -0.11    1.49
 -19   9   2   24.24    3.37
  -9  19   2   24.37    3.59
 -19   9   0   34.12    3.83
  -9  19   0   44.23    4.56
  -9 -19   2   21.35    3.50
 -19   9  -2   24.86    3.37
  -9 -19   4    2.50    1.95
 -19   9  -4    1.20    1.60
 -19   9  -6    5.48    1.97
  10 -19   9   -0.73    1.85
  10 -19   7    0.99    1.61
 -19  10   3   19.38    3.19
 -10  19   3   24.58    3.73
 -19  10   1    8.10    2.34
 -10  19   1    3.33    1.81
 -19  10  -1    8.60    2.45
 -10  19  -1    5.96    2.22
 -19  10  -3   19.62    3.06
 -19  10  -5    6.20    2.20
 -19  11   4    9.26    2.58
 -19  11   2    0.91    1.64
 -19  11   0    3.81    2.30
 -19  11  -2    5.27    2.14
 -19  11  -4    8.19    2.30
 -19  11  -6    0.26    1.59
 -19 -13   6   14.28    3.04
   0 -20   0   10.80    2.71
   0  20   0    3.11    1.67
   0  20   2    1.25    1.68
   0 -20  -2    3.45    1.73
   0 -20   2    0.41    1.73
   0 -20  -4    2.73    1.71
   0 -20   4    1.54    1.69
   0  20   4    3.60    1.74
   0  20   6    0.39    1.59
   0 -20  -6    1.87    1.61
   0 -20   6   -1.03    1.98
   0 -20   8    4.60    2.28
   1 -20   9    4.00    2.19
  -1  20   7   11.59    2.40
   1 -20   7   11.08    2.81
  -1  20   5    8.29    2.11
  -1 -20  -5   11.40    2.51
   1 -20   5   12.17    2.68
   1 -20   3    4.68    2.00
  -1  20   3    6.44    2.22
  -1 -20  -3    3.74    1.91
  -1  20   1    2.91    1.70
  -1 -20  -1    2.71    1.90
   1 -20   1    2.45    1.96
  -1 -20   1    1.56    1.86
   1  20   1    4.09    1.77
   1 -20  -1    4.37    1.83
   1 -20  -3    4.79    1.89
   1  20   3    5.69    1.82
  -1 -20   3    4.78    1.97
   1 -20  -5    9.99    2.35
  -1 -20   5   10.51    2.52
   1  20   5   10.48    2.30
   1 -20  -7   12.73    2.52
  -1 -20   7    8.01    2.16
  -1 -20   9    6.05    2.66
   2 -20   8    6.82    2.17
  -2  20   6   13.60    2.66
   2 -20   6    9.04    2.57
  -2 -20  -4   -0.07    1.65
  -2  20   4    1.77    1.89
   2 -20   4    2.24    1.90
   2 -20   2    8.93    2.36
  -2  20   2    7.54    1.99
  -2 -20  -2   11.22    2.72
   2  20   0   45.14    3.78
  -2  20   0   44.12    4.11
  -2 -20   0   40.41    4.24
   2 -20   0   42.89    4.19
  -2 -20   2    7.02    2.43
   2 -20  -2   14.75    2.78
   2 -20  -4    2.59    1.81
  -2 -20   4    1.72    1.81
  -2 -20   6   10.69    2.58
   2 -20  -6   11.72    2.39
  -2 -20   8    8.23    2.53
   3 -20   9    3.75    2.05
  -3  20   7    2.38    1.92
   3 -20   7    1.65    1.87
  -3  20   5   11.08    2.29
   3 -20   5    8.22    2.43
  -3  20   3   40.74    4.10
  -3 -20  -3   38.56    4.00
   3 -20   3   47.05    4.47
   3 -20   1   11.60    2.45
  -3  20   1    8.46    2.24
  -3 -20  -1   15.16    2.95
   3 -20  -1   12.64    2.60
  -3 -20   1    8.75    2.50
  -3 -20   3   35.51    4.13
   3 -20  -3   36.14    3.72
   3 -20  -5    9.35    2.15
  -3 -20   5   10.40    2.76
  -3 -20   7    1.72    2.16
   4 -20   8    8.69    2.53
  -4  20   8    7.95    2.47
  -4  20   6    6.60    2.23
   4 -20   6    6.04    2.04
  -4  20   4   13.29    3.01
   4 -20   4   10.99    2.54
  -4  20   2   26.67    3.57
   4 -20   2   32.39    3.69
  -4 -20  -2   25.76    3.54
   4 -20   0   12.22    2.57
  -4 -20   0   14.90    2.79
  -4  20   0   13.95    2.95
   4 -20  -2   27.10    3.29
  -4 -20   2   29.09    4.07
   4 -20  -4   11.95    2.27
  -4 -20   4   19.60    3.40
  -4 -20   6    8.05    2.55
   5 -20   9   -1.16    1.79
   5 -20   7   13.85    2.81
  -5  20   7   13.91    2.92
   5 -20   5   11.93    2.60
  -5  20   5   11.53    2.80
  -5  20   3    8.51    2.66
   5 -20   3    3.58    1.86
  -5 -20  -1   18.38    3.24
  -5  20   1   19.53    3.28
   5 -20   1   21.88    3.06
  -5 -20   1   21.61    3.45
   5 -20  -1   20.41    2.92
  -5 -20   3    6.16    2.46
  -5 -20   5    7.83    2.51
  -5 -20   7    8.99    2.59
  -6  20   8    5.59    2.56
   6 -20   8    4.89    2.28
   6 -20   6   10.71    2.46
  -6  20   6    4.04    2.22
   6 -20   4    2.63    1.59
  -6  20   4    5.57    2.44
   6 -20   2   13.04    2.53
  -6  20   2   12.01    2.56
 -20   6   0    8.14    2.07
  -6  20   0    7.06    2.27
  -6 -20   0    6.60    2.46
   6 -20   0    7.27    2.09
  -6 -20   2   15.42    2.86
  -6 -20   4    5.04    2.20
   7 -20   9    0.39    1.82
  -7  20   7   22.70    3.67
   7 -20   7   18.41    3.08
  -7  20   5    9.33    2.80
   7 -20   5    5.07    2.03
   7 -20   3    3.11    1.74
  -7  20   3   -0.47    1.85
 -20   7   1    7.41    2.16
  -7  20   1    9.79    2.84
  -7 -20   1   12.69    3.20
 -20   7  -1    9.98    2.47
  -7  20  -1    8.15    2.38
 -20   7  -3    2.92    2.00
  -7 -20   3    1.19    1.85
   8 -20   8   16.18    3.10
   8 -20   6   -0.71    1.84
  -8  20   4    6.85    2.68
   8 -20   4    3.90    1.87
 -20   8   2   13.91    2.76
  -8  20   2   11.56    2.61
 -20   8   0   13.95    2.70
  -8  20   0    9.62    2.33
 -20   8  -2    7.84    2.20
 -20   8  -4    3.83    1.83
 -20   8  -6    1.70    1.63
   9 -20   7    3.55    1.96
 -20   9   1   14.09    2.78
 -20   9  -1   14.98    3.09
 -20   9  -3   40.54    4.17
 -20   9  -5   21.96    3.35
 -20   9  -7    5.72    2.35
 -20  10   2   22.44    3.57
 -20  10   0   36.65    4.19
 -20  10  -2   23.36    3.46
 -20  10  -4   10.47    2.68
 -20  10  -6    5.59    2.25
 -20  10  -8   11.35    2.60
   0 -21  -1    3.65    2.00
   0  21   1   -0.93    1.45
   0 -21   1    1.58    1.70
   0 -21   3   10.57    2.64
   0  21   3   14.46    2.61
   0 -21  -3   16.57    2.88
   0 -21   5    2.83    1.77
   0 -21  -5    3.25    1.90
   0  21   5    4.53    2.09
   0 -21  -7   20.39    3.22
  -1 -21  -6    5.84    2.15
  -1  21   6    4.01    1.87
   1 -21   6    5.01    2.16
   1 -21   4   19.52    3.41
  -1 -21  -4   18.57    3.02
  -1  21   4   18.32    2.91
   1 -21   2    4.27    2.27
  -1  21   2    0.87    2.02
  -1 -21  -2    2.94    1.99
  -1 -21   0    3.46    2.13
   1  21   0   -0.43    1.46
  -1  21   0    0.62    1.93
   1 -21   0    1.63    1.91
  -1 -21   2    4.71    2.28
   1 -21  -2    4.96    2.03
  -1 -21   4   15.57    3.10
   1 -21  -4   13.81    2.80
  -1 -21   6    6.02    2.41
   1 -21  -6    5.23    2.11
  -2  21   7    6.49    2.25
   2 -21   7    2.95    2.07
  -2  21   5    6.51    2.24
  -2 -21  -5    4.26    1.91
   2 -21   5    8.90    2.59
   2 -21   3   -3.66    2.09
  -2  21   3   -0.85    1.52
  -2 -21  -3    2.13    1.92
   2 -21   1    3.00    1.88
  -2  21   1    2.62    2.02
  -2 -21  -1   -1.01    1.61
  -2 -21   1    4.73    2.16
  -2  21  -1    3.56    1.82
   2 -21  -1   -0.01    1.63
  -2 -21   3    3.27    2.30
   2 -21  -3    2.39    1.86
   2 -21  -5    7.35    2.25
  -2 -21   5    5.39    2.35
  -3  21   6    0.31    1.68
   3 -21   6    2.68    2.03
  -3  21   4   -0.25    1.74
  -3 -21  -4   -0.27    1.58
   3 -21   4    1.01    1.72
  -3  21   2    5.84    2.12
  -3 -21  -2    3.93    2.07
   3 -21   2    8.94    2.43
   3 -21   0    1.47    1.75
  -3  21   0    1.94    1.62
  -3 -21   2    6.26    2.53
   3 -21  -2    2.97    1.97
  -3 -21   4    2.18    2.15
   3 -21  -4    0.43    1.51
   4 -21   7    4.19    2.19
  -4  21   7    8.31    2.55
  -4  21   5    7.67    2.25
   4 -21   5   10.40    2.64
  -4  21   3   -1.65    2.09
  -4 -21  -3    3.03    1.70
   4 -21   3    0.57    1.63
  -4 -21  -1    9.48    2.82
  -4  21   1   10.71    2.80
   4 -21   1   12.73    2.61
   4 -21  -1    9.78    2.41
  -4  21  -1    9.57    2.61
  -4 -21   1   12.85    3.21
  -4 -21   3   -1.21    1.73
   5 -21   6   11.25    2.74
  -5  21   6    7.71    2.44
   5 -21   4   11.74    2.56
  -5  21   4   15.94    3.26
  -5 -21  -2   21.88    3.60
  -5  21   2   19.05    3.23
   5 -21   2   13.67    2.79
  -5 -21   0    8.99    2.65
  -5  21   0    7.68    2.49
   5 -21   0    7.44    2.20
   6 -21   7   14.42    2.97
   6 -21   5    8.06    2.26
  -6  21   5   12.67    2.98
   6 -21   3    3.00    1.69
  -6  21   3    4.53    2.23
   6 -21   1   11.91    2.54
  -6  21   1   15.86    3.01
  -6  21  -1   13.06    3.12
   7 -21   6   10.51    2.52
   7 -21   4    7.24    2.37
 -21   8   1    0.94    1.58
 -21   9   0   33.65    4.01
 -21   9  -2   11.33    2.77
   0  22   0    5.49    1.90
   0 -22   0    7.79    2.55
   0 -22  -2   -0.51    1.58
   0 -22   2    8.63    2.74
   0 -22  -4   23.47    3.43
   0 -22  -6   13.75    2.78
   0 -22  -8    5.42    2.14
  -1 -22  -7   12.52    2.77
  -1 -22  -5    8.85    2.62
  -1  22   5    9.27    2.70
   1 -22   3   15.69    3.17
  -1  22   3   18.93    3.18
  -1 -22  -3   10.75    2.63
  -1 -22  -1    5.40    2.27
   1 -22   1    9.01    2.51
  -1  22   1    3.65    1.90
  -1  22  -1    6.15    2.31
   1 -22  -1    5.45    2.25
  -1 -22   1    2.90    1.76
   1 -22  -3   12.67    2.71
   1 -22  -5    9.82    2.45
  -2  22   6    3.89    2.16
  -2 -22  -6    1.86    1.86
  -2 -22  -4   17.65    3.29
  -2  22   4   17.86    3.02
   2 -22   4   22.44    3.56
   2 -22   2    0.09    1.99
  -2 -22  -2    1.49    1.80
  -2 -22   0    0.10    1.87
   2 -22   0    3.11    2.10
  -2  22   0   -1.15    1.71
   2 -22  -2    1.90    1.59
   2 -22  -4   18.93    3.13
  -3  22   7    4.65    2.28
  -3  22   5    1.60    2.15
  -3  22   3    1.62    1.87
   3 -22   3    0.48    1.64
  -3  22   1    1.39    1.86
   3 -22   1   -0.04    1.88
   3 -22  -1    2.34    1.80
  -3  22  -1   -0.23    1.86
   3 -22  -3   -1.09    1.74
  -4  22   6    4.63    2.26
  -4  22   4    2.26    2.20
   4 -22   4    0.74    1.67
  -4  22   2   -0.32    1.94
   4 -22   2    6.00    2.11
  -4  22   0    2.84    2.08
   4 -22   0    5.91    2.20
   5 -22   3    3.62    2.02
  -5  22   3    2.25    1.84
  -5  22   1    4.55    2.21
   5 -22   1    3.67    1.96
   6 -22   4    6.13    2.29
  -1  23   0   -0.17    1.67
  -1  23  -2    8.97    2.48
   1 -23  -4   26.37    3.69
  -2  23   3   -0.47    1.77
  -2  23   1   16.69    3.05
   2 -23  -1    8.13    2.49
  -2  23  -1   13.65    3.13
   2 -23  -3    2.32    2.22
  -3  23   2   11.64    2.91
   3 -23   0    5.39    2.26
  -3  23   0    9.58    2.48
   0   0   0    0.00    0.00
;
_shelx_hkl_checksum              3906
loop_
_space_group_symop_operation_xyz
'x, y, z'
'y, -x, -z'
'-x, -y, z'
'-y, x, -z'
'x, -y, -z'
'-x, y, -z'
'-y, -x, z'
'y, x, z'
'x+1/2, y+1/2, z+1/2'
'y+1/2, -x+1/2, -z+1/2'
'-x+1/2, -y+1/2, z+1/2'
'-y+1/2, x+1/2, -z+1/2'
'x+1/2, -y+1/2, -z+1/2'
'-x+1/2, y+1/2, -z+1/2'
'-y+1/2, -x+1/2, z+1/2'
'y+1/2, x+1/2, z+1/2'
loop_
_atom_site_label
_atom_site_type_symbol
_atom_site_fract_x
_atom_site_fract_y
_atom_site_fract_z
_atom_site_U_iso_or_equiv
_atom_site_adp_type
_atom_site_occupancy
_atom_site_site_symmetry_order
_atom_site_calc_flag
_atom_site_refinement_flags_posn
_atom_site_refinement_flags_adp
_atom_site_refinement_flags_occupancy
_atom_site_disorder_assembly
_atom_site_disorder_group
Ag1 Ag 0.5000 0.5000 0.20310(8) 0.0199(3) Uani 1 4 d S T P . .
Ag2 Ag 0.4724(5) 0.6567(5) 0.1541(3) 0.0261(11) Uani 0.5 1 d . . . A 1
Ag2B Ag 0.4710(5) 0.6636(5) 0.1743(3) 0.0269(12) Uani 0.5 1 d . . . A 2
Ag3 Ag 0.41622(11) 0.5000 0.0000 0.0241(5) Uani 0.5 2 d S T P A .
S1 S 0.40027(14) 0.40027(14) 0.1985(2) 0.0225(8) Uani 1 2 d S T P A .
C1 C 0.3750(6) 0.3750(6) 0.2846(8) 0.033(4) Uani 1 2 d DS T P . .
C2 C 0.2887(6) 0.3878(10) 0.2916(9) 0.063(5) Uani 1 1 d D U . . .
H2A H 0.2764 0.4424 0.2823 0.094 Uiso 1 1 calc GR . . . .
H2B H 0.2726 0.3751 0.3364 0.094 Uiso 1 1 calc GR . . . .
H2C H 0.2609 0.3542 0.2606 0.094 Uiso 1 1 calc GR . . . .
C3 C 0.4221(8) 0.4221(8) 0.3334(10) 0.057(6) Uani 1 2 d DS TU P A .
H3A H 0.3939 0.4250 0.3750 0.085 Uiso 0.5 1 calc GR . . B -1
H3B H 0.4301 0.4747 0.3162 0.085 Uiso 0.5 1 calc GR . . B -1
H3C H 0.4726 0.3970 0.3404 0.085 Uiso 0.5 1 calc GR . . B -1
S2 S 0.39854(17) 0.60146(17) 0.0703(2) 0.0399(11) Uani 1 2 d S T P . .
C4 C 0.3303(7) 0.6697(7) 0.0310(8) 0.036(4) Uani 1 2 d S TU P A .
C5 C 0.3757(9) 0.7286(10) -0.0095(11) 0.080(6) Uani 1 1 d . U . . .
H5A H 0.4150 0.7537 0.0182 0.121 Uiso 1 1 calc GR . . A .
H5B H 0.3399 0.7681 -0.0266 0.121 Uiso 1 1 calc GR . . . .
H5C H 0.4014 0.7020 -0.0460 0.121 Uiso 1 1 calc GR . . . .
C6 C 0.2851(7) 0.7149(7) 0.0834(11) 0.062(6) Uani 1 2 d S TU P . .
H6A H 0.2827 0.6840 0.1237 0.093 Uiso 0.5 1 calc GR . . A -1
H6B H 0.2323 0.7253 0.0677 0.093 Uiso 0.5 1 calc GR . . A -1
H6C H 0.3116 0.7642 0.0923 0.093 Uiso 0.5 1 calc GR . . A -1
O1 O 0.3574(13) 0.6655(13) 0.2480(7) 0.066(7) Uani 0.5 1 d D U . A -1
O2 O 0.4172(12) 0.7266(19) 0.3210(13) 0.079(9) Uani 0.5 1 d D U . A -1
C7 C 0.3610(12) 0.6894(15) 0.3029(9) 0.057(8) Uani 0.5 1 d D U . A -1
C8 C 0.2916(8) 0.6816(9) 0.3503(7) 0.033(6) Uani 0.5 1 d D U . A -1
F1 F 0.2437(18) 0.7367(18) 0.3359(10) 0.104(10) Uani 0.5 1 d D U . A -1
F2 F 0.323(2) 0.6907(16) 0.4071(8) 0.104(8) Uani 0.5 1 d D U . A -1
F3 F 0.2586(17) 0.6146(14) 0.3442(15) 0.135(13) Uani 0.5 1 d D U . A -1
N1 N 0.4838(5) 0.7939(5) 0.1683(6) 0.037(2) Uani 1 1 d . . . . .
C9 C 0.5504(7) 0.8296(7) 0.1494(7) 0.040(3) Uani 1 1 d . . . . .
H9 H 0.5934 0.7982 0.1370 0.048 Uiso 1 1 calc R . . . .
C10 C 0.5588(7) 0.9088(7) 0.1474(8) 0.043(4) Uani 1 1 d . . . . .
H10 H 0.6073 0.9308 0.1348 0.052 Uiso 1 1 calc R . . . .
C11 C 0.4969(7) 0.9575(5) 0.1639(6) 0.036(3) Uani 1 1 d . . . . .
C12 C 0.4273(7) 0.9215(7) 0.1817(7) 0.045(4) Uani 1 1 d . . . . .
H12 H 0.3826 0.9519 0.1916 0.054 Uiso 1 1 calc R . . . .
C13 C 0.4241(7) 0.8416(7) 0.1849(6) 0.038(3) Uani 1 1 d . . . . .
H13 H 0.3771 0.8183 0.1997 0.046 Uiso 1 1 calc R . . . .
Cl1 Cl 0.8422(8) 0.999(4) -0.001(2) 0.137(4) Uani 0.5 1 d D U . C -1
Cl2 Cl 0.7104(15) 1.0830(10) 0.0296(10) 0.113(4) Uani 0.5 1 d D . . C -1
Cl3 Cl 0.6849(15) 0.9329(11) -0.0262(10) 0.113(4) Uani 0.5 1 d D . . C -1
C14 C 0.7457(11) 0.9832(17) 0.0322(17) 0.075(11) Uani 0.5 1 d D U . C -1
H14 H 0.7453 0.9596 0.0770 0.090 Uiso 0.5 1 calc R . . C -1
loop_
_atom_site_aniso_label
_atom_site_aniso_U_11
_atom_site_aniso_U_22
_atom_site_aniso_U_33
_atom_site_aniso_U_23
_atom_site_aniso_U_13
_atom_site_aniso_U_12
Ag1 0.0129(4) 0.0129(4) 0.0340(9) 0.000 0.000 0.0001(6)
Ag2 0.0247(13) 0.0167(19) 0.037(3) 0.001(2) 0.001(2) 0.0019(12)
Ag2B 0.0228(13) 0.0148(14) 0.043(3) -0.004(2) -0.005(2) 0.0050(10)
Ag3 0.0180(9) 0.0218(10) 0.0326(12) -0.0080(12) 0.000 0.000
S1 0.0162(10) 0.0162(10) 0.035(2) 0.0029(12) 0.0029(12) -0.0014(13)
C1 0.035(6) 0.035(6) 0.028(10) 0.006(5) 0.006(5) -0.006(7)
C2 0.029(7) 0.101(12) 0.059(10) 0.005(9) 0.011(7) -0.008(8)
C3 0.067(8) 0.067(8) 0.036(11) -0.005(8) -0.005(8) -0.019(10)
S2 0.0474(17) 0.0474(17) 0.025(2) -0.0017(13) 0.0017(13) 0.027(2)
C4 0.039(5) 0.039(5) 0.029(8) 0.004(5) -0.004(5) 0.016(7)
C5 0.061(9) 0.084(11) 0.096(14) 0.045(11) 0.022(10) 0.031(8)
C6 0.064(8) 0.064(8) 0.059(13) 0.003(6) -0.003(6) 0.045(10)
O1 0.068(9) 0.064(9) 0.068(8) -0.004(6) 0.004(6) 0.013(6)
O2 0.075(13) 0.091(14) 0.071(13) 0.011(11) 0.009(10) -0.003(10)
C7 0.056(12) 0.056(12) 0.061(13) 0.019(11) -0.017(11) 0.009(10)
C8 0.040(11) 0.031(10) 0.028(9) -0.006(8) -0.010(8) 0.006(9)
F1 0.080(16) 0.13(2) 0.107(12) 0.005(16) 0.015(15) 0.054(15)
F2 0.14(2) 0.098(17) 0.069(10) -0.032(13) -0.048(14) -0.018(13)
F3 0.101(17) 0.15(2) 0.15(2) 0.039(19) 0.036(17) -0.057(17)
N1 0.028(5) 0.025(4) 0.058(7) 0.004(5) 0.002(5) 0.011(4)
C9 0.037(7) 0.027(6) 0.055(9) -0.009(7) 0.004(6) 0.011(5)
C10 0.030(6) 0.026(6) 0.074(11) 0.007(7) 0.017(7) 0.004(5)
C11 0.028(5) 0.024(5) 0.056(7) 0.002(6) 0.000(8) 0.006(5)
C12 0.027(6) 0.025(6) 0.085(13) 0.002(7) -0.003(7) 0.009(5)
C13 0.026(6) 0.028(6) 0.061(9) -0.006(6) -0.008(6) 0.008(5)
Cl1 0.122(8) 0.186(10) 0.103(7) 0.014(8) 0.043(15) -0.049(16)
Cl2 0.133(15) 0.072(7) 0.133(6) -0.040(5) -0.026(8) 0.011(5)
Cl3 0.133(15) 0.072(7) 0.133(6) -0.040(5) -0.026(8) 0.011(5)
C14 0.081(15) 0.068(15) 0.076(14) -0.002(11) 0.008(11) -0.008(11)
loop_
_atom_type_symbol
_atom_type_description
_atom_type_scat_dispersion_real
_atom_type_scat_dispersion_imag
_atom_type_scat_source
C C 0.0033 0.0016 'International Tables Vol C Tables 4.2.6.8 and 6.1.1.4'
H H 0.0000 0.0000 'International Tables Vol C Tables 4.2.6.8 and 6.1.1.4'
Ag Ag -0.8971 1.1015 'International Tables Vol C Tables 4.2.6.8 and 6.1.1.4'
Cl Cl 0.1484 0.1585 'International Tables Vol C Tables 4.2.6.8 and 6.1.1.4'
F F 0.0171 0.0103 'International Tables Vol C Tables 4.2.6.8 and 6.1.1.4'
N N 0.0061 0.0033 'International Tables Vol C Tables 4.2.6.8 and 6.1.1.4'
O O 0.0106 0.0060 'International Tables Vol C Tables 4.2.6.8 and 6.1.1.4'
S S 0.1246 0.1234 'International Tables Vol C Tables 4.2.6.8 and 6.1.1.4'
loop_
_geom_angle_atom_site_label_1
_geom_angle_atom_site_label_2
_geom_angle_atom_site_label_3
_geom_angle
_geom_angle_site_symmetry_1
_geom_angle_site_symmetry_3
Ag2 Ag1 Ag2 65.2(3) . 7_665
Ag2 Ag1 Ag2 100.6(3) . 8
Ag2 Ag1 Ag2 139.8(2) 7_665 8
Ag2 Ag1 Ag2 100.6(3) 7_665 3_665
Ag2 Ag1 Ag2 139.8(2) . 3_665
Ag2 Ag1 Ag2 65.2(3) 3_665 8
Ag2B Ag1 Ag2B 68.3(3) 3_665 8
Ag2B Ag1 Ag2B 106.8(3) 7_665 3_665
Ag2B Ag1 Ag2B 106.8(3) 8 .
Ag2B Ag1 Ag2B 68.3(3) 7_665 .
Ag2B Ag1 Ag2B 156.7(2) 7_665 8
Ag2B Ag1 Ag2B 156.7(2) 3_665 .
S1 Ag1 Ag2 56.54(18) . 7_665
S1 Ag1 Ag2 121.65(18) . 8
S1 Ag1 Ag2 56.54(18) 3_665 .
S1 Ag1 Ag2 56.54(18) 3_665 8
S1 Ag1 Ag2 121.66(18) 3_665 3_665
S1 Ag1 Ag2 56.54(18) . 3_665
S1 Ag1 Ag2 121.65(18) . .
S1 Ag1 Ag2 121.66(18) 3_665 7_665
S1 Ag1 Ag2B 55.34(17) . 3_665
S1 Ag1 Ag2B 55.34(18) . 7_665
S1 Ag1 Ag2B 123.58(17) . 8
S1 Ag1 Ag2B 123.58(17) 3_665 7_665
S1 Ag1 Ag2B 55.34(18) 3_665 8
S1 Ag1 Ag2B 55.34(17) 3_665 .
S1 Ag1 Ag2B 123.58(17) 3_665 3_665
S1 Ag1 Ag2B 123.58(17) . .
S1 Ag1 S1 175.6(2) . 3_665
Ag1 Ag2 Ag2 57.42(17) . 7_665
S1 Ag2 Ag1 52.13(17) 3_665 .
S1 Ag2 Ag2 109.5(2) 3_665 7_665
S1 Ag2 O1 112.7(5) 3_665 .
S2 Ag2 Ag1 88.0(3) . .
S2 Ag2 Ag2 47.8(2) . 7_665
S2 Ag2 S1 124.7(3) . 3_665
S2 Ag2 O1 98.2(6) . .
S2 Ag2 N1 122.4(4) . .
O1 Ag2 Ag1 85.9(5) . .
O1 Ag2 Ag2 62.1(5) . 7_665
N1 Ag2 Ag1 149.3(4) . .
N1 Ag2 Ag2 139.3(3) . 7_665
N1 Ag2 S1 105.3(4) . 3_665
N1 Ag2 O1 85.4(6) . .
Ag1 Ag2B Ag2B 55.85(17) . 7_665
S1 Ag2B Ag1 52.40(17) 3_665 .
S1 Ag2B Ag2B 108.2(2) 3_665 7_665
S1 Ag2B S2 112.9(3) 3_665 .
S2 Ag2B Ag1 81.7(2) . .
S2 Ag2B Ag2B 52.42(19) . 7_665
O1 Ag2B Ag1 91.4(6) . .
O1 Ag2B S1 125.5(5) . 3_665
O1 Ag2B S2 96.9(6) . .
N1 Ag2B Ag1 162.3(4) . .
N1 Ag2B Ag2B 140.5(3) . 7_665
N1 Ag2B S1 111.0(4) . 3_665
N1 Ag2B S2 113.5(4) . .
N1 Ag2B O1 95.6(6) . .
Ag3 Ag3 Ag3 45.0 2_565 3_665
Ag3 Ag3 Ag3 90.0 2_565 4_655
Ag3 Ag3 Ag3 45.0 4_655 3_665
Ag3 Ag3 S2 63.46(6) 2_565 .
Ag3 Ag3 S2 129.45(11) 2_565 4_655
Ag3 Ag3 S2 129.45(11) 4_655 .
Ag3 Ag3 S2 63.46(6) 4_655 4_655
S2 Ag3 Ag3 97.66(8) . 3_665
S2 Ag3 Ag3 97.66(8) 4_655 3_665
S2 Ag3 S2 164.68(17) . 4_655
Ag1 S1 Ag2 71.3(2) . 7_665
Ag1 S1 Ag2 71.3(2) . 3_665
Ag1 S1 Ag2B 72.3(2) . 3_665
Ag1 S1 Ag2B 72.3(2) . 7_665
Ag2 S1 Ag2 121.8(3) 7_665 3_665
Ag2B S1 Ag2B 136.7(4) 3_665 7_665
C1 S1 Ag1 107.1(5) . .
C1 S1 Ag2 116.37(17) . 3_665
C1 S1 Ag2 116.37(17) . 7_665
C1 S1 Ag2B 106.78(18) . 7_665
C1 S1 Ag2B 106.78(18) . 3_665
C2 C1 S1 106.6(10) 8 .
C2 C1 S1 106.6(10) . .
C2 C1 C2 106.2(16) 8 .
C2 C1 C3 112.7(11) 8 .
C2 C1 C3 112.7(11) . .
C3 C1 S1 111.7(12) . .
C1 C2 H2A 109.5 . .
C1 C2 H2B 109.5 . .
C1 C2 H2C 109.5 . .
H2A C2 H2B 109.5 . .
H2A C2 H2C 109.5 . .
H2B C2 H2C 109.5 . .
C1 C3 H3A 109.5 . .
C1 C3 H3B 109.5 . .
C1 C3 H3C 109.5 . .
H3A C3 H3B 109.5 . .
H3A C3 H3C 109.5 . .
H3B C3 H3C 109.5 . .
Ag2 S2 Ag2 84.5(4) . 7_665
Ag2B S2 Ag2B 75.2(4) . 7_665
Ag3 S2 Ag2 95.7(2) . 7_665
Ag3 S2 Ag2 134.5(3) . .
Ag3 S2 Ag2 95.7(2) 2_565 .
Ag3 S2 Ag2 134.5(3) 2_565 7_665
Ag3 S2 Ag2B 137.8(2) . .
Ag3 S2 Ag2B 137.8(2) 2_565 7_665
Ag3 S2 Ag2B 101.30(19) . 7_665
Ag3 S2 Ag2B 101.30(19) 2_565 .
Ag3 S2 Ag3 53.09(13) . 2_565
C4 S2 Ag2 114.0(4) . .
C4 S2 Ag2 114.0(4) . 7_665
C4 S2 Ag2B 112.7(5) . .
C4 S2 Ag2B 112.7(5) . 7_665
C4 S2 Ag3 107.3(5) . .
C4 S2 Ag3 107.3(5) . 2_565
C5 C4 S2 109.5(9) . .
C5 C4 S2 109.5(9) 7_665 .
C5 C4 C5 113(2) 7_665 .
C5 C4 C6 107.5(11) . .
C5 C4 C6 107.5(11) 7_665 .
C6 C4 S2 109.9(12) . .
C4 C5 H5A 109.5 . .
C4 C5 H5B 109.5 . .
C4 C5 H5C 109.5 . .
H5A C5 H5B 109.5 . .
H5A C5 H5C 109.5 . .
H5B C5 H5C 109.5 . .
C4 C6 H6A 109.5 . .
C4 C6 H6B 109.5 . .
C4 C6 H6C 109.5 . .
H6A C6 H6B 109.5 . .
H6A C6 H6C 109.5 . .
H6B C6 H6C 109.5 . .
C7 O1 Ag2 129.4(17) . .
O1 C7 O2 120(2) . .
O1 C7 C8 121.3(15) . .
O2 C7 C8 118.0(14) . .
F1 C8 C7 107(2) . .
F1 C8 F2 112.7(13) . .
F1 C8 F3 110.7(17) . .
F2 C8 C7 103.1(18) . .
F3 C8 C7 110.9(17) . .
F3 C8 F2 112.4(17) . .
C9 N1 Ag2 118.9(7) . .
C9 N1 Ag2B 123.2(7) . .
C9 N1 C13 115.9(10) . .
C13 N1 Ag2 124.4(8) . .
C13 N1 Ag2B 120.8(8) . .
N1 C9 H9 118.4 . .
N1 C9 C10 123.3(11) . .
C10 C9 H9 118.4 . .
C9 C10 H10 119.7 . .
C9 C10 C11 120.5(11) . .
C11 C10 H10 119.7 . .
C10 C11 C11 122.8(13) . 3_675
C12 C11 C10 116.9(10) . .
C12 C11 C11 120.3(13) . 3_675
C11 C12 H12 120.4 . .
C13 C12 C11 119.3(11) . .
C13 C12 H12 120.4 . .
N1 C13 C12 124.0(12) . .
N1 C13 H13 118.0 . .
C12 C13 H13 118.0 . .
Cl1 C14 Cl2 99(3) . .
Cl1 C14 H14 114.0 . .
Cl2 C14 H14 114.0 . .
Cl3 C14 Cl1 110(3) . .
Cl3 C14 Cl2 103.8(15) . .
Cl3 C14 H14 114.0 . .
loop_
_geom_bond_atom_site_label_1
_geom_bond_atom_site_label_2
_geom_bond_distance
_geom_bond_site_symmetry_2
Ag1 Ag2 2.912(9) .
Ag1 Ag2 2.912(9) 3_665
Ag1 Ag2 2.912(9) 7_665
Ag1 Ag2 2.912(9) 8
Ag1 Ag2B 2.917(9) 3_665
Ag1 Ag2B 2.917(9) 7_665
Ag1 Ag2B 2.917(9) 8
Ag1 Ag2B 2.917(9) .
Ag1 S1 2.426(3) 3_665
Ag1 S1 2.426(3) .
Ag2 Ag2 3.136(18) 7_665
Ag2 S1 2.564(8) 3_665
Ag2 S2 2.332(7) .
Ag2 O1 2.758(18) .
Ag2 N1 2.385(12) .
Ag2B Ag2B 3.274(18) 7_665
Ag2B S1 2.519(8) 3_665
Ag2B S2 2.685(7) .
Ag2B O1 2.47(2) .
Ag2B N1 2.253(12) .
Ag3 Ag3 2.880(4) 3_665
Ag3 Ag3 2.037(3) 2_565
Ag3 Ag3 2.037(3) 4_655
Ag3 S2 2.279(4) .
Ag3 S2 2.279(4) 4_655
S1 Ag2 2.564(9) 3_665
S1 Ag2 2.564(8) 7_665
S1 Ag2B 2.519(8) 7_665
S1 Ag2B 2.519(8) 3_665
S1 C1 1.863(16) .
C1 C2 1.507(10) .
C1 C2 1.507(10) 8
C1 C3 1.517(12) .
C2 H2A 0.9800 .
C2 H2B 0.9800 .
C2 H2C 0.9800 .
C3 H3A 0.9800 .
C3 H3B 0.9800 .
C3 H3C 0.9800 .
S2 Ag2 2.332(7) 7_665
S2 Ag2B 2.685(7) 7_665
S2 Ag3 2.279(4) 2_565
S2 C4 1.842(16) .
C4 C5 1.522(18) .
C4 C5 1.522(18) 7_665
C4 C6 1.53(2) .
C5 H5A 0.9800 .
C5 H5B 0.9800 .
C5 H5C 0.9800 .
C6 H6A 0.9800 .
C6 H6B 0.9800 .
C6 H6C 0.9800 .
O1 C7 1.194(12) .
O2 C7 1.217(13) .
C7 C8 1.542(12) .
C8 F1 1.289(13) .
C8 F2 1.293(14) .
C8 F3 1.290(13) .
N1 C9 1.355(15) .
N1 C13 1.357(14) .
C9 H9 0.9500 .
C9 C10 1.369(16) .
C10 H10 0.9500 .
C10 C11 1.395(16) .
C11 C11 1.467(19) 3_675
C11 C12 1.394(17) .
C12 H12 0.9500 .
C12 C13 1.377(17) .
C13 H13 0.9500 .
Cl1 C14 1.81(2) .
Cl2 C14 1.82(2) .
Cl3 C14 1.81(2) .
C14 H14 1.0000 .
loop_
_geom_torsion_atom_site_label_1
_geom_torsion_atom_site_label_2
_geom_torsion_atom_site_label_3
_geom_torsion_atom_site_label_4
_geom_torsion
_geom_torsion_site_symmetry_1
_geom_torsion_site_symmetry_2
_geom_torsion_site_symmetry_3
_geom_torsion_site_symmetry_4
Ag1 S1 C1 C2 -123.5(9) . . . 8
Ag1 S1 C1 C2 123.5(9) . . . .
Ag1 S1 C1 C3 0.000(2) . . . .
Ag2 S1 C1 C2 159.3(8) 7_665 . . 8
Ag2 S1 C1 C2 -159.3(8) 3_665 . . .
Ag2 S1 C1 C2 -46.3(11) 3_665 . . 8
Ag2 S1 C1 C2 46.3(11) 7_665 . . .
Ag2 S1 C1 C3 77.2(3) 3_665 . . .
Ag2 S1 C1 C3 -77.2(3) 7_665 . . .
Ag2 S2 C4 C5 165.3(11) 7_665 . . .
Ag2 S2 C4 C5 -165.3(11) . . . 7_665
Ag2 S2 C4 C5 -70.5(14) 7_665 . . 7_665
Ag2 S2 C4 C5 70.5(14) . . . .
Ag2 S2 C4 C6 47.4(3) 7_665 . . .
Ag2 S2 C4 C6 -47.4(3) . . . .
Ag2 O1 C7 O2 13(5) . . . .
Ag2 O1 C7 C8 -173.7(14) . . . .
Ag2 N1 C9 C10 171.1(12) . . . .
Ag2 N1 C13 C12 -167.9(11) . . . .
Ag2B S1 C1 C2 -160.4(9) 3_665 . . .
Ag2B S1 C1 C2 160.4(9) 7_665 . . 8
Ag2B S1 C1 C2 -47.4(10) 3_665 . . 8
Ag2B S1 C1 C2 47.4(10) 7_665 . . .
Ag2B S1 C1 C3 76.1(3) 3_665 . . .
Ag2B S1 C1 C3 -76.1(3) 7_665 . . .
Ag2B S2 C4 C5 159.3(11) 7_665 . . .
Ag2B S2 C4 C5 -76.5(13) 7_665 . . 7_665
Ag2B S2 C4 C5 -159.3(11) . . . 7_665
Ag2B S2 C4 C5 76.5(13) . . . .
Ag2B S2 C4 C6 -41.4(3) . . . .
Ag2B S2 C4 C6 41.4(3) 7_665 . . .
Ag2B O1 C7 O2 13(4) . . . .
Ag2B O1 C7 C8 -173.2(15) . . . .
Ag2B N1 C9 C10 -178.2(12) . . . .
Ag2B N1 C13 C12 -179.2(11) . . . .
Ag3 S2 C4 C5 -90.0(12) . . . .
Ag3 S2 C4 C5 34.2(13) . . . 7_665
Ag3 S2 C4 C5 -34.2(13) 2_565 . . .
Ag3 S2 C4 C5 90.0(12) 2_565 . . 7_665
Ag3 S2 C4 C6 -152.09(12) 2_565 . . .
Ag3 S2 C4 C6 152.09(12) . . . .
O1 C7 C8 F1 -80(3) . . . .
O1 C7 C8 F2 161(3) . . . .
O1 C7 C8 F3 41(3) . . . .
O2 C7 C8 F1 94(3) . . . .
O2 C7 C8 F2 -25(3) . . . .
O2 C7 C8 F3 -146(3) . . . .
N1 C9 C10 C11 -1(3) . . . .
C9 N1 C13 C12 2(2) . . . .
C9 C10 C11 C11 178.7(11) . . . 3_675
C9 C10 C11 C12 0(2) . . . .
C10 C11 C12 C13 3(2) . . . .
C11 C11 C12 C13 -176.4(10) 3_675 . . .
C11 C12 C13 N1 -4(2) . . . .
C13 N1 C9 C10 1(2) . . . .
