#------------------------------------------------------------------------------
#$Date: 2019-11-14 09:28:08 +0200 (Thu, 14 Nov 2019) $
#$Revision: 227760 $
#$URL: file:///home/coder/svn-repositories/cod/cif/1/55/28/1552894.cif $
#------------------------------------------------------------------------------
#
# This file is available in the Crystallography Open Database (COD),
# http://www.crystallography.net/
#
# All data on this site have been placed in the public domain by the
# contributors.
#
data_1552894
loop_
_publ_author_name
'Asgari, Mehrdad'
'Jawahery, Sudi'
'Bloch, Eric D.'
'Hudson, Matthew R.'
'Flacau, Roxana'
'Vlaisavljevich, Bess'
'Long, Jeffrey R.'
'Brown, Craig M.'
'Queen, Wendy L.'
_publ_section_title
;
 An experimental and computational study of CO<sub>2</sub> adsorption in
 the sodalite-type M-BTT (M = Cr, Mn, Fe, Cu) metal-organic frameworks
 featuring open metal sites.
;
_journal_issue                   20
_journal_name_full               'Chemical science'
_journal_page_first              4579
_journal_page_last               4588
_journal_paper_doi               10.1039/c8sc00971f
_journal_volume                  9
_journal_year                    2018
_chemical_formula_sum            'C24 H8 Cl Cr4 N32 O0.94'
_chemical_formula_weight         1003.05
_space_group_IT_number           221
_space_group_name_Hall           '-P 4 2 3'
_space_group_name_H-M_alt        'P m -3 m'
_symmetry_cell_setting           cubic
_symmetry_space_group_name_Hall  '-P 4 2 3'
_symmetry_space_group_name_H-M   'P m -3 m'
_audit_creation_date             2016-02-13T17:24
_audit_creation_method           'from EXP file using GSAS2CIF'
_audit_update_record
;
2017-10-25 deposited with the CCDC.
2018-04-23 downloaded from the CCDC.
;
_cell_angle_alpha                90.0
_cell_angle_beta                 90.0
_cell_angle_gamma                90.0
_cell_formula_units_Z            3
_cell_length_a                   18.6689(4)
_cell_length_b                   18.6689
_cell_length_c                   18.6689
_cell_measurement_reflns_used    632
_cell_measurement_temperature    10
_cell_measurement_theta_max      155
_cell_measurement_theta_min      3.5
_cell_volume                     6506.63(14)
_computing_structure_refinement  GSAS
_diffrn_ambient_temperature      10
_diffrn_measurement_device_type  BT1
_diffrn_radiation_probe          neutron
_diffrn_radiation_wavelength     2.078
_exptl_absorpt_correction_T_max  1.00000
_exptl_absorpt_correction_T_min  1.00000
_exptl_absorpt_process_details
;   GSAS Absorption/surface roughness correction: function number 0
 No correction is applied.
;
_pd_block_id                     2016-02-13T17:24|BARE_OXO||bt1
_pd_calc_method                  'Rietveld Refinement'
_pd_instr_location               ' ?'
_pd_meas_2theta_range_inc        0.05
_pd_meas_2theta_range_max        166.25
_pd_meas_2theta_range_min        1.5
_pd_meas_number_of_points        3296
_pd_phase_name
'from F:/Gas Storage Research/Jeff Long/Fe-BTT with Kenji/0p5 wt %/'
_pd_proc_2theta_range_inc        0.05
_pd_proc_2theta_range_max        166.2978
_pd_proc_2theta_range_min        1.5478
_pd_proc_info_datetime           2016-02-13T17:24:48
_pd_proc_info_excluded_regions   ' ?'
_pd_proc_ls_background_function
;   GSAS Background function number 1 with 12 terms.
 Shifted Chebyshev function of 1st kind
      1:    1093.52     2:   -403.647     3:    269.341     4:   -109.609    
      5:    124.893     6:   -62.4409     7:    65.0456     8:   -33.7647    
      9:    36.8115    10:   -12.4660    11:    12.0154    12:   -2.86529    
;
_pd_proc_ls_peak_cutoff          0.00050
_pd_proc_ls_profile_function
;
 CW Profile function number 3 with  19 terms
 Pseudovoigt profile coefficients as parameterized in
 P. Thompson, D.E. Cox & J.B. Hastings (1987). J. Appl. Cryst.,20,79-83.
 Asymmetry correction of L.W. Finger, D.E. Cox & A. P. Jephcoat (1994).
 J. Appl. Cryst.,27,892-900.
 #1(GU)   =  337.218 #2(GV)   = -174.464 #3(GW)   =   89.748
 #4(GP)   =   12.844 #5(LX)   =    1.214 #6(LY)   =   24.953
 #7(S/L)  =   0.0443 #8(H/L)  =   0.0341
 #9(trns) =     0.00 #10(shft)=   0.0000
 #11(stec)=     0.00 #12(ptec)=     0.00 #13(sfec)=     0.00
 #14(L11) =    0.000 #15(L22) =    0.000 #16(L33) =    0.000
 #17(L12) =    0.000 #18(L13) =    0.000 #19(L23) =    0.000
 Peak tails are ignored  where the intensity is below 0.0005 times the peak
   Aniso. broadening axis   0.0   0.0   1.0
;
_pd_proc_ls_prof_R_factor        0.0255
_pd_proc_ls_prof_wR_expected     0.0290
_pd_proc_ls_prof_wR_factor       0.0296
_pd_proc_number_of_points        3296
_pd_spec_mounting                ' ?'
_refine_ls_goodness_of_fit_all   1.03
_refine_ls_matrix_type           full
_refine_ls_number_parameters     36
_refine_ls_number_restraints     7
_refine_ls_R_Fsqd_factor         0.03682
_refine_ls_shift/su_max          0.03
_refine_ls_shift/su_mean         0.01
_reflns_d_resolution_high        1.065
_reflns_d_resolution_low         18.669
_reflns_limit_h_max              17
_reflns_limit_h_min              1
_reflns_limit_k_max              12
_reflns_limit_k_min              0
_reflns_limit_l_max              10
_reflns_limit_l_min              0
_reflns_number_total             632
_cod_data_source_file            c8sc00971f3.cif
_cod_data_source_block           BARE_OXO_publ
_cod_depositor_comments
;
The following automatic conversions were performed:

'_geom_bond_publ_flag' value 'N' changed to 'n' according to
/home/data/users/saulius/crontab/automatic-downloads/current/RSC/lib/dictionaries/cif_core.dic
dictionary named 'cif_core.dic' version 2.4.2 from 2011-04-26 (29
times).

'_geom_angle_publ_flag' value 'N' changed to 'n' according to
/home/data/users/saulius/crontab/automatic-downloads/current/RSC/lib/dictionaries/cif_core.dic
dictionary named 'cif_core.dic' version 2.4.2 from 2011-04-26 (34
times).

Automatic conversion script
Id: cif_fix_values 5376 2017-05-30 11:51:03Z andrius 
;
_cod_original_cell_volume        6506.6(4)
_cod_database_code               1552894
_gsas_exptl_extinct_corr_t_min   1.00000
_gsas_exptl_extinct_corr_t_max   1.00000
loop_
_symmetry_equiv_pos_site_id
_symmetry_equiv_pos_as_xyz
1 +x,+y,+z
2 +z,+x,+y
3 +y,+z,+x
4 +x,+y,-z
5 -z,+x,+y
6 +y,-z,+x
7 -z,+x,-y
8 -y,-z,+x
9 +y,-z,-x
10 -x,+y,-z
11 -z,-x,+y
12 +x,-y,-z
13 +y,+x,+z
14 +z,+y,+x
15 +x,+z,+y
16 +y,+x,-z
17 -z,+y,+x
18 +x,-z,+y
19 -z,+y,-x
20 -x,-z,+y
21 +x,-z,-y
22 -y,+x,-z
23 -z,-y,+x
24 +y,-x,-z
-1 -x,-y,-z
-2 -z,-x,-y
-3 -y,-z,-x
-4 -x,-y,+z
-5 +z,-x,-y
-6 -y,+z,-x
-7 +z,-x,+y
-8 +y,+z,-x
-9 -y,+z,+x
-10 +x,-y,+z
-11 +z,+x,-y
-12 -x,+y,+z
-13 -y,-x,-z
-14 -z,-y,-x
-15 -x,-z,-y
-16 -y,-x,+z
-17 +z,-y,-x
-18 -x,+z,-y
-19 +z,-y,+x
-20 +x,+z,-y
-21 -x,+z,+y
-22 +y,-x,+z
-23 +z,+y,-x
-24 -y,+x,+z
loop_
_atom_site_type_symbol
_atom_site_label
_atom_site_fract_x
_atom_site_fract_y
_atom_site_fract_z
_atom_site_occupancy
_atom_site_thermal_displace_type
_atom_site_U_iso_or_equiv
_atom_site_symmetry_multiplicity
Cr Cr1 0.1357(11) 0.5 0.0 1.0 Uiso 0.00605 12
C C1 0.14944(28) 0.3365(4) -0.14944(28) 1.0 Uiso 0.0094(10) 24
C C2 0.18167(26) 0.2737(4) -0.18167(26) 1.0 Uiso 0.0094(10) 24
C C3 0.24345(29) 0.24345(29) -0.1507(4) 1.0 Uiso 0.0094(10) 24
Cl Cl1 0.0 0.5 0.0 1.0 Uiso 0.032(5) 3
N N1 0.13112(19) 0.42339(20) -0.08009(19) 1.0 Uiso 0.0119(6) 48
N N2 0.17499(22) 0.36941(20) -0.09090(19) 1.0 Uiso 0.0119(6) 48
H H1 0.2675(5) 0.2675(5) -0.1062(7) 1.0 Uiso 0.016(4) 24
O Os 0.2330(23) 0.5 0.0 0.235(17) Uiso 0.00351 12
loop_
_atom_type_symbol
_atom_type_number_in_cell
_atom_type_scat_length_neutron
_atom_type_scat_source
Cr 12.0 0.3635 International_Tables_Vol_C
C 72.0 0.6646 International_Tables_Vol_C
Cl 3.0 0.9577 International_Tables_Vol_C
N 96.0 0.9360 International_Tables_Vol_C
H 24.0 -0.3739 International_Tables_Vol_C
O 2.824 0.5803 International_Tables_Vol_C
loop_
_geom_angle_atom_site_label_1
_geom_angle_atom_site_label_2
_geom_angle_atom_site_label_3
_geom_angle
_geom_angle_site_symmetry_1
_geom_angle_site_symmetry_3
_geom_angle_publ_flag
Cl1 Cr1 N1 87.7(6) 1_555 1_555 n
Cl1 Cr1 N1 87.7(6) 1_555 4_555 n
Cl1 Cr1 N1 87.7(6) 1_555 12_565 n
Cl1 Cr1 N1 87.7(6) 1_555 -10_565 n
Cl1 Cr1 Os 180.0 1_555 1_555 n
N1 Cr1 N1 92.45(22) 1_555 4_555 n
N1 Cr1 N1 175.3(11) 1_555 12_565 n
N1 Cr1 N1 87.36(23) 1_555 -10_565 n
N1 Cr1 Os 92.3(6) 1_555 1_555 n
N1 Cr1 N1 87.36(23) 4_555 12_565 n
N1 Cr1 N1 175.3(11) 4_555 -10_565 n
N1 Cr1 Os 92.3(6) 4_555 1_555 n
N1 Cr1 N1 92.45(22) 12_565 -10_565 n
N1 Cr1 Os 92.3(6) 12_565 1_555 n
N1 Cr1 Os 92.3(6) -10_565 1_555 n
C2 C1 N2 124.15(34) 1_555 1_555 n
C2 C1 N2 124.15(34) 1_555 19_555 n
N2 C1 N2 111.7(7) 1_555 19_555 n
C1 C2 C3 119.7(4) 1_555 1_555 n
C1 C2 C3 119.7(4) 1_555 7_555 n
C3 C2 C3 120.7(7) 1_555 7_555 n
C2 C3 C2 119.3(7) 1_555 9_555 n
C2 C3 H1 120.3(4) 1_555 1_555 n
C2 C3 H1 120.3(4) 9_555 1_555 n
Cr1 Cl1 Cr1 180.0 1_555 10_555 n
Cr1 Cl1 Cr1 90.0 1_555 14_555 n
Cr1 Cl1 Cr1 90.0 1_555 19_555 n
Cr1 Cl1 Cr1 90.0 10_555 14_555 n
Cr1 Cl1 Cr1 90.0 10_555 19_555 n
Cr1 Cl1 Cr1 180.0 14_555 19_555 n
Cr1 N1 N1 122.7(5) 1_555 19_555 n
Cr1 N1 N2 127.9(5) 1_555 1_555 n
N1 N1 N2 109.40(24) 19_555 1_555 n
C1 N2 N1 104.8(4) 1_555 1_555 n
loop_
_geom_bond_atom_site_label_1
_geom_bond_atom_site_label_2
_geom_bond_distance
_geom_bond_site_symmetry_2
_geom_bond_publ_flag
Cr1 Cl1 2.533(20) 1_555 n
Cr1 N1 2.0708(33) 1_555 n
Cr1 N1 2.0708(33) 4_555 n
Cr1 N1 2.0708(33) 12_565 n
Cr1 N1 2.0708(33) -10_565 n
Cr1 Os 1.82(5) 1_555 n
C1 C2 1.448(10) 1_555 n
C1 N1 2.103(7) 1_555 n
C1 N1 2.103(7) 19_555 n
C1 N2 1.341(5) 1_555 n
C1 N2 1.341(5) 19_555 n
C2 C1 1.448(10) 1_555 n
C2 C3 1.408(5) 1_555 n
C2 C3 1.408(5) 7_555 n
C3 C2 1.408(5) 1_555 n
C3 C2 1.408(5) 9_555 n
C3 H1 1.046(17) 1_555 n
Cl1 Cr1 2.533(20) 1_555 n
Cl1 Cr1 2.533(20) 10_555 n
Cl1 Cr1 2.533(20) 14_555 n
Cl1 Cr1 2.533(20) 19_555 n
N1 Cr1 2.0708(33) 1_555 n
N1 C1 2.103(7) 1_555 n
N1 N1 1.347(8) 19_555 n
N1 N2 1.314(5) 1_555 n
N2 C1 1.341(5) 1_555 n
N2 N1 1.314(5) 1_555 n
H1 C3 1.046(17) 1_555 n
Os Cr1 1.82(5) 1_555 n
loop_
_pd_meas_intensity_total
_pd_proc_ls_weight
_pd_proc_intensity_bkg_calc
_pd_calc_intensity_total
7730(190) 0.0 2717. .
7030(180) 0.0 2703. .
5810(160) 0.0 2689. .
5330(150) 0.0 2675. .
4720(150) 0.0 2661. .
4260(140) 0.0 2647. .
3810(130) 0.0 2633. .
3370(120) 0.0 2620. .
3030(120) 0.0 2607. .
2890(110) 0.0 2593. .
3030(120) 0.0 2580. .
2550(110) 0.0 2567. .
2560(110) 0.0 2554. .
2430(100) 0.0 2541. .
2380(100) 0.0 2529. .
2450(100) 0.0 2516. .
2280(100) 0.0 2504. .
2247(99) 0.0 2491. .
2280(100) 0.0 2479. .
2310(100) 0.0 2467. .
2280(100) 0.0 2455. .
2229(99) 0.0 2443. .
2175(98) 0.0 2431. .
2161(97) 0.0 2420. .
2490(110) 0.0 2408. .
2480(100) 0.0 2397. .
2500(110) 0.0 2385. .
2430(100) 0.0 2374. .
2610(110) 0.0 2363. .
2320(100) 0.0 2352. .
2570(110) 0.0 2341. .
2310(100) 0.0 2330. .
2570(110) 0.0 2319. .
2620(110) 0.0 2308. .
2215(98) 0.0 2298. .
2450(100) 0.0 2287. .
2134(97) 0.0 2277. .
2330(100) 0.0 2267. .
2152(97) 0.0 2256. .
2188(98) 0.0 2246. .
2380(100) 0.0 2236. .
2175(98) 0.0001041 2226. 2232.
2252(99) 0.0001020 2217. 2222.
2188(98) 0.0001041 2207. 2213.
2166(97) 0.0001063 2197. 2204.
2129(96) 0.0001085 2188. 2194.
2166(97) 0.0001063 2178. 2185.
2066(95) 0.0001108 2169. 2176.
2184(98) 0.0001041 2160. 2168.
2030(94) 0.0001132 2150. 2159.
2229(99) 0.0001020 2141. 2150.
2350(100) 0.0000961 2132. 2142.
2070(95) 0.0001108 2123. 2134.
2129(96) 0.0001085 2114. 2125.
2243(99) 0.0001020 2106. 2118.
2107(96) 0.0001085 2097. 2110.
2116(96) 0.0001085 2088. 2104.
2310(100) 0.0000980 2080. 2099.
2129(96) 0.0001085 2071. 2099.
2360(100) 0.0000961 2063. 2104.
2152(97) 0.0001063 2055. 2117.
2129(96) 0.0001085 2046. 2137.
2270(100) 0.0001000 2038. 2166.
2270(100) 0.0001000 2030. 2199.
2420(100) 0.0000943 2022. 2237.
2360(100) 0.0000961 2014. 2278.
2270(100) 0.0001000 2007. 2322.
2400(100) 0.0000943 1999. 2369.
2570(110) 0.0000890 1991. 2420.
2570(110) 0.0000890 1983. 2474.
2720(110) 0.0000842 1976. 2531.
2610(110) 0.0000873 1968. 2593.
2600(110) 0.0000873 1961. 2660.
2640(110) 0.0000857 1954. 2732.
2590(110) 0.0000873 1946. 2809.
2830(110) 0.0000797 1939. 2892.
2900(110) 0.0000783 1932. 2983.
3000(120) 0.0000756 1925. 3082.
3030(120) 0.0000743 1918. 3189.
3370(120) 0.0000672 1911. 3307.
3290(120) 0.0000683 1904. 3436.
3470(120) 0.0000650 1898. 3580.
3790(130) 0.0000592 1891. 3740.
3910(130) 0.0000574 1884. 3919.
3990(130) 0.0000565 1878. 4121.
4410(140) 0.0000510 1871. 4352.
4610(140) 0.0000489 1865. 4620.
4720(150) 0.0000476 1858. 4934.
5150(150) 0.0000433 1852. 5314.
5720(160) 0.0000391 1846. 5782.
6630(170) 0.0000338 1839. 6388.
7840(190) 0.0000283 1833. 7209.
9220(200) 0.0000240 1827. 8333.
10310(220) 0.0000216 1821. 9769.
12740(240) 0.0000174 1815. 11274.
13220(240) 0.0000168 1809. 12259.
12540(240) 0.0000177 1803. 12014.
11380(230) 0.0000196 1798. 10278.
8630(200) 0.0000258 1792. 7660.
5900(160) 0.0000381 1786. 5171.
3672(88) 0.0001291 1781. 3434.
2649(74) 0.0001826 1775. 2496.
2053(65) 0.0002367 1769. 2090.
1791(60) 0.0002778 1764. 1937.
1729(59) 0.0002873 1759. 1879.
1834(61) 0.0002687 1753. 1849.
1795(60) 0.0002778 1748. 1828.
1852(61) 0.0002687 1743. 1812.
1791(60) 0.0002778 1737. 1798.
1813(61) 0.0002687 1732. 1787.
1692(59) 0.0002873 1727. 1776.
1693(59) 0.0002873 1722. 1767.
1624(57) 0.0003078 1717. 1758.
1666(58) 0.0002973 1712. 1751.
1644(58) 0.0002973 1707. 1743.
1669(58) 0.0002973 1702. 1737.
1654(58) 0.0002973 1698. 1731.
1742(59) 0.0002873 1693. 1725.
1679(58) 0.0002973 1688. 1720.
1687(58) 0.0002973 1684. 1715.
1614(57) 0.0003078 1679. 1710.
1694(59) 0.0002873 1674. 1707.
1745(60) 0.0002778 1670. 1704.
1758(60) 0.0002778 1665. 1704.
1713(59) 0.0002873 1661. 1709.
1748(60) 0.0002778 1657. 1722.
1773(60) 0.0002778 1652. 1745.
1795(60) 0.0002778 1648. 1781.
1898(62) 0.0002601 1644. 1830.
1862(62) 0.0002601 1639. 1893.
1893(62) 0.0002601 1635. 1960.
1990(64) 0.0002441 1631. 2035.
2083(65) 0.0002367 1627. 2117.
2202(67) 0.0002228 1623. 2208.
2220(68) 0.0002163 1619. 2309.
2384(70) 0.0002041 1615. 2421.
2434(71) 0.0001984 1611. 2547.
2552(73) 0.0001877 1607. 2688.
2712(75) 0.0001778 1603. 2850.
3003(79) 0.0001602 1600. 3038.
3196(82) 0.0001487 1596. 3257.
3425(85) 0.0001384 1592. 3516.
3704(88) 0.0001291 1588. 3842.
4027(92) 0.0001181 1585. 4265.
4760(100) 0.0001000 1581. 4836.
5510(110) 0.0000857 1578. 5617.
6610(120) 0.0000706 1574. 6615.
7750(130) 0.0000601 1571. 7665.
8260(130) 0.0000565 1567. 8366.
8120(130) 0.0000574 1564. 8233.
7030(120) 0.0000672 1560. 7091.
5680(110) 0.0000826 1557. 5371.
3668(88) 0.0001291 1554. 3752.
2592(73) 0.0001877 1550. 2636.
2011(64) 0.0002441 1547. 2039.
1678(58) 0.0002973 1544. 1781.
1568(56) 0.0003189 1541. 1683.
1480(55) 0.0003306 1537. 1644.
1542(56) 0.0003189 1534. 1624.
1530(55) 0.0003306 1531. 1611.
1511(55) 0.0003306 1528. 1601.
1620(57) 0.0003078 1525. 1593.
1646(58) 0.0002973 1522. 1587.
1694(59) 0.0002873 1519. 1582.
1596(57) 0.0003078 1516. 1579.
1625(57) 0.0003078 1513. 1577.
1649(58) 0.0002973 1510. 1576.
1740(59) 0.0002873 1508. 1578.
1795(60) 0.0002778 1505. 1584.
1873(62) 0.0002601 1502. 1599.
1901(62) 0.0002601 1499. 1631.
1947(63) 0.0002520 1496. 1689.
1897(62) 0.0002601 1494. 1782.
2018(64) 0.0002441 1491. 1912.
2266(68) 0.0002163 1488. 2077.
2450(71) 0.0001984 1486. 2275.
2502(72) 0.0001929 1483. 2502.
2684(75) 0.0001778 1481. 2759.
2984(79) 0.0001602 1478. 3052.
3347(84) 0.0001417 1476. 3386.
3658(88) 0.0001291 1473. 3774.
3970(91) 0.0001208 1471. 4231.
4359(96) 0.0001085 1468. 4782.
5170(110) 0.0000907 1466. 5471.
6110(110) 0.0000769 1463. 6371.
7560(130) 0.0000620 1461. 7596.
9430(140) 0.0000496 1459. 9252.
11240(160) 0.0000416 1456. 11286.
13300(170) 0.0000350 1454. 13253.
14070(170) 0.0000330 1452. 14285.
13410(170) 0.0000346 1450. 13525.
10880(150) 0.0000427 1447. 10949.
7640(130) 0.0000610 1445. 7654.
4990(100) 0.0000961 1443. 4853.
3002(79) 0.0001602 1441. 3069.
2101(66) 0.0002296 1439. 2176.
1644(79) 0.0001602 1437. 1806.
1449(74) 0.0001826 1434. 1665.
1389(72) 0.0001929 1432. 1604.
1486(75) 0.0001778 1430. 1569.
1512(55) 0.0003306 1428. 1545.
1515(55) 0.0003306 1426. 1526.
1530(55) 0.0003306 1424. 1510.
1506(55) 0.0003306 1422. 1497.
1470(54) 0.0003429 1420. 1487.
1555(56) 0.0003189 1418. 1478.
1455(54) 0.0003429 1417. 1470.
1479(54) 0.0003429 1415. 1464.
1514(55) 0.0003306 1413. 1458.
1404(53) 0.000356 1411. 1454.
1406(53) 0.000356 1409. 1452.
1483(54) 0.0003429 1407. 1450.
1355(52) 0.000370 1406. 1450.
1469(54) 0.0003429 1404. 1451.
1490(55) 0.0003306 1402. 1452.
1423(53) 0.000356 1400. 1455.
1464(54) 0.0003429 1399. 1460.
1427(53) 0.000356 1397. 1466.
1526(55) 0.0003306 1395. 1475.
1466(54) 0.0003429 1394. 1488.
1553(56) 0.0003189 1392. 1508.
1592(57) 0.0003078 1390. 1534.
1630(57) 0.0003078 1389. 1562.
1641(57) 0.0003078 1387. 1582.
1611(57) 0.0003078 1385. 1580.
1564(56) 0.0003189 1384. 1550.
1521(55) 0.0003306 1382. 1502.
1508(55) 0.0003306 1381. 1455.
1459(54) 0.0003429 1379. 1422.
1394(53) 0.000356 1378. 1403.
1370(52) 0.000370 1376. 1394.
1366(52) 0.000370 1375. 1389.
1432(53) 0.000356 1373. 1386.
1466(54) 0.0003429 1372. 1383.
1456(54) 0.0003429 1370. 1381.
1438(53) 0.000356 1369. 1379.
1408(53) 0.000356 1368. 1377.
1425(53) 0.000356 1366. 1375.
1416(53) 0.000356 1365. 1373.
1473(54) 0.0003429 1363. 1372.
1467(54) 0.0003429 1362. 1370.
1310(51) 0.000384 1361. 1368.
1459(54) 0.0003429 1359. 1367.
1278(50) 0.000400 1358. 1365.
1285(50) 0.000400 1357. 1364.
1390(52) 0.000370 1356. 1362.
1387(52) 0.000370 1354. 1361.
1432(53) 0.000356 1353. 1359.
1398(53) 0.000356 1352. 1358.
1321(51) 0.000384 1351. 1356.
1316(51) 0.000384 1349. 1355.
1346(52) 0.000370 1348. 1354.
1437(53) 0.000356 1347. 1353.
1360(52) 0.000370 1346. 1351.
1375(52) 0.000370 1344. 1350.
1386(52) 0.000370 1343. 1349.
1376(52) 0.000370 1342. 1347.
1333(51) 0.000384 1341. 1346.
1363(52) 0.000370 1340. 1344.
1293(50) 0.000400 1339. 1343.
1391(53) 0.000356 1338. 1342.
1435(53) 0.000356 1337. 1341.
1315(51) 0.000384 1335. 1340.
1301(51) 0.000384 1334. 1338.
1285(50) 0.000400 1333. 1337.
1299(51) 0.000384 1332. 1336.
1334(51) 0.000384 1331. 1335.
1328(51) 0.000384 1330. 1334.
1292(50) 0.000400 1329. 1334.
1277(50) 0.000400 1328. 1333.
1272(50) 0.000400 1327. 1334.
1283(50) 0.000400 1326. 1334.
1258(50) 0.000400 1325. 1335.
1386(52) 0.000370 1324. 1337.
1402(53) 0.000356 1323. 1339.
1295(50) 0.000400 1322. 1342.
1381(52) 0.000370 1321. 1346.
1399(53) 0.000356 1320. 1352.
1386(52) 0.000370 1319. 1361.
1390(52) 0.000370 1318. 1371.
1440(54) 0.0003429 1317. 1383.
1451(54) 0.0003429 1316. 1390.
1439(54) 0.0003429 1315. 1387.
1410(53) 0.000356 1315. 1374.
1371(52) 0.000370 1314. 1355.
1352(52) 0.000370 1313. 1338.
1359(52) 0.000370 1312. 1326.
1379(52) 0.000370 1311. 1320.
1389(52) 0.000370 1310. 1317.
1386(52) 0.000370 1309. 1315.
1358(52) 0.000370 1308. 1314.
1424(53) 0.000356 1308. 1313.
1278(50) 0.000400 1307. 1313.
1303(51) 0.000384 1306. 1312.
1386(52) 0.000370 1305. 1312.
1393(53) 0.000356 1304. 1311.
1432(78) 0.0001644 1303. 1310.
1341(51) 0.000384 1303. 1310.
1283(50) 0.000400 1302. 1309.
1359(51) 0.000384 1301. 1308.
1367(51) 0.000384 1300. 1308.
1276(49) 0.000416 1299. 1307.
1329(51) 0.000384 1299. 1307.
1332(51) 0.000384 1298. 1307.
1347(51) 0.000384 1297. 1306.
1345(51) 0.000384 1296. 1306.
1272(49) 0.000416 1296. 1306.
1265(49) 0.000416 1295. 1306.
1314(50) 0.000400 1294. 1306.
1380(52) 0.000370 1293. 1306.
1363(51) 0.000384 1293. 1306.
1339(51) 0.000384 1292. 1306.
1356(51) 0.000384 1291. 1307.
1357(51) 0.000384 1290. 1308.
1378(52) 0.000370 1290. 1309.
1264(49) 0.000416 1289. 1310.
1332(51) 0.000384 1288. 1313.
1376(52) 0.000370 1288. 1318.
1326(51) 0.000384 1287. 1326.
1340(51) 0.000384 1286. 1342.
1394(52) 0.000370 1285. 1370.
1445(53) 0.000356 1285. 1414.
1542(55) 0.0003306 1284. 1477.
1599(56) 0.0003189 1283. 1562.
1689(57) 0.0003078 1283. 1674.
1839(60) 0.0002778 1282. 1823.
2043(64) 0.0002441 1281. 2026.
2260(67) 0.0002228 1281. 2299.
2711(74) 0.0001826 1280. 2636.
3066(79) 0.0001602 1279. 2972.
3148(80) 0.0001562 1279. 3175.
3175(80) 0.0001562 1278. 3103.
2687(73) 0.0001877 1278. 2741.
2163(65) 0.0002367 1277. 2259.
1678(57) 0.0003078 1276. 1842.
1588(56) 0.0003189 1276. 1572.
1352(51) 0.000384 1275. 1435.
1297(50) 0.000400 1274. 1378.
1343(51) 0.000384 1274. 1358.
1317(50) 0.000400 1273. 1353.
1376(52) 0.000370 1273. 1359.
1406(52) 0.000370 1272. 1376.
1389(52) 0.000370 1271. 1413.
1445(53) 0.000356 1271. 1478.
1519(54) 0.0003429 1270. 1584.
1782(59) 0.0002873 1269. 1736.
1950(62) 0.0002601 1269. 1946.
2127(65) 0.0002367 1268. 2231.
2469(70) 0.0002041 1268. 2621.
3095(79) 0.0001602 1267. 3149.
3795(88) 0.0001291 1267. 3815.
4463(95) 0.0001108 1266. 4510.
4857(99) 0.0001020 1265. 4989.
4764(98) 0.0001041 1265. 4958.
4010(90) 0.0001235 1264. 4321.
3074(79) 0.0001602 1264. 3365.
2344(68) 0.0002163 1263. 2490.
1700(58) 0.0002973 1263. 1895.
1563(55) 0.0003306 1262. 1575.
1233(49) 0.000416 1261. 1432.
1236(49) 0.000416 1261. 1372.
1176(47) 0.000453 1260. 1346.
1225(48) 0.000434 1260. 1331.
1202(48) 0.000434 1259. 1321.
1316(50) 0.000400 1259. 1314.
1191(48) 0.000434 1258. 1309.
1253(49) 0.000416 1258. 1307.
1320(50) 0.000400 1257. 1306.
1296(50) 0.000400 1256. 1308.
1276(49) 0.000416 1256. 1313.
1297(50) 0.000400 1255. 1320.
1342(51) 0.000384 1255. 1330.
1310(50) 0.000400 1254. 1342.
1282(50) 0.000400 1254. 1350.
1341(51) 0.000384 1253. 1349.
1263(49) 0.000416 1253. 1339.
1251(49) 0.000416 1252. 1323.
1283(50) 0.000400 1252. 1310.
1274(49) 0.000416 1251. 1302.
1251(49) 0.000416 1251. 1299.
1274(49) 0.000416 1250. 1301.
1274(49) 0.000416 1250. 1308.
1300(50) 0.000400 1249. 1320.
1432(53) 0.000356 1249. 1344.
1401(52) 0.000370 1248. 1388.
1529(55) 0.0003306 1248. 1464.
1744(58) 0.0002973 1247. 1587.
1862(61) 0.0002687 1247. 1770.
2076(64) 0.0002441 1246. 2031.
2486(70) 0.0002041 1245. 2397.
3098(79) 0.0001602 1245. 2899.
3755(87) 0.0001321 1244. 3532.
4215(92) 0.0001181 1244. 4199.
4718(98) 0.0001041 1243. 4674.
4498(96) 0.0001085 1243. 4678.
3972(90) 0.0001235 1242. 4112.
3225(76) 0.0001731 1242. 3234.
2352(65) 0.0002367 1241. 2418.
1765(56) 0.0003189 1241. 1856.
1564(52) 0.000370 1240. 1550.
1342(48) 0.000434 1240. 1410.
1316(48) 0.000434 1239. 1351.
1284(47) 0.000453 1239. 1326.
1291(47) 0.000453 1239. 1314.
1334(48) 0.000434 1238. 1309.
1335(48) 0.000434 1238. 1312.
1360(49) 0.000416 1237. 1323.
1374(49) 0.000416 1237. 1344.
1398(49) 0.000416 1236. 1376.
1460(50) 0.000400 1236. 1424.
1471(51) 0.000384 1235. 1487.
1617(53) 0.000356 1235. 1557.
1677(54) 0.0003429 1234. 1611.
1701(55) 0.0003306 1234. 1620.
1632(54) 0.0003429 1233. 1568.
1516(51) 0.000384 1233. 1476.
1358(49) 0.000416 1232. 1385.
1304(47) 0.000453 1232. 1320.
1343(48) 0.000434 1231. 1282.
1221(46) 0.000473 1231. 1264.
1324(48) 0.000434 1230. 1256.
1324(48) 0.000434 1230. 1253.
1299(47) 0.000453 1229. 1251.
1272(47) 0.000453 1229. 1251.
1223(46) 0.000473 1228. 1253.
1246(46) 0.000473 1228. 1258.
1215(46) 0.000473 1227. 1266.
1235(46) 0.000473 1227. 1278.
1326(48) 0.000434 1226. 1294.
1338(48) 0.000434 1226. 1313.
1344(48) 0.000434 1225. 1332.
1386(49) 0.000416 1225. 1341.
1424(50) 0.000400 1224. 1333.
1334(48) 0.000434 1224. 1310.
1282(47) 0.000453 1224. 1283.
1240(46) 0.000473 1223. 1261.
1251(46) 0.000473 1223. 1247.
1262(47) 0.000453 1222. 1239.
1254(46) 0.000473 1222. 1236.
1248(46) 0.000473 1221. 1235.
1290(47) 0.000453 1221. 1234.
1237(46) 0.000473 1220. 1234.
1239(46) 0.000473 1220. 1235.
1272(47) 0.000453 1219. 1237.
1252(46) 0.000473 1219. 1240.
1196(45) 0.000494 1218. 1245.
1230(46) 0.000473 1218. 1252.
1246(46) 0.000473 1217. 1259.
1250(46) 0.000473 1217. 1266.
1271(47) 0.000453 1216. 1268.
1250(46) 0.000473 1216. 1263.
1267(47) 0.000453 1216. 1254.
1198(45) 0.000494 1215. 1244.
1278(47) 0.000453 1215. 1237.
1241(46) 0.000473 1214. 1233.
1260(47) 0.000453 1214. 1231.
1237(46) 0.000473 1213. 1230.
1351(48) 0.000434 1213. 1230.
1231(46) 0.000473 1212. 1230.
1255(46) 0.000473 1212. 1230.
1267(47) 0.000453 1211. 1231.
1289(47) 0.000453 1211. 1233.
1263(47) 0.000453 1210. 1234.
1257(47) 0.000453 1210. 1235.
1236(46) 0.000473 1209. 1237.
1180(45) 0.000494 1209. 1239.
1209(46) 0.000473 1208. 1241.
1231(46) 0.000473 1208. 1244.
1277(47) 0.000453 1208. 1248.
1280(47) 0.000453 1207. 1253.
1305(47) 0.000453 1207. 1260.
1340(48) 0.000434 1206. 1269.
1326(48) 0.000434 1206. 1283.
1349(48) 0.000434 1205. 1306.
1359(49) 0.000416 1205. 1350.
1412(50) 0.000400 1204. 1428.
1594(53) 0.000356 1204. 1566.
1719(55) 0.0003306 1203. 1791.
2069(61) 0.0002687 1203. 2136.
2604(68) 0.0002163 1202. 2632.
3258(77) 0.0001687 1202. 3269.
4029(86) 0.0001352 1201. 3949.
4597(92) 0.0001181 1201. 4456.
4581(91) 0.0001208 1201. 4518.
4022(86) 0.0001352 1200. 4021.
3361(78) 0.0001644 1200. 3204.
2428(66) 0.0002296 1199. 2424.
1806(56) 0.0003189 1199. 1875.
1502(51) 0.000384 1198. 1567.
1381(49) 0.000416 1198. 1428.
1314(48) 0.000434 1197. 1379.
1379(49) 0.000416 1197. 1381.
1346(48) 0.000434 1196. 1420.
1525(52) 0.000370 1196. 1504.
1616(53) 0.000356 1195. 1647.
1833(57) 0.0003078 1195. 1862.
2176(62) 0.0002601 1194. 2147.
2471(66) 0.0002296 1194. 2463.
2711(70) 0.0002041 1194. 2713.
2803(71) 0.0001984 1193. 2772.
2577(68) 0.0002163 1193. 2570.
2177(62) 0.0002601 1192. 2200.
1834(57) 0.0003078 1192. 1832.
1514(51) 0.000384 1191. 1564.
1437(50) 0.000400 1191. 1411.
1318(48) 0.000434 1190. 1343.
1304(48) 0.000434 1190. 1327.
1249(46) 0.000473 1189. 1345.
1407(49) 0.000416 1189. 1397.
1454(50) 0.000400 1188. 1494.
1597(53) 0.000356 1188. 1652.
1821(57) 0.0003078 1187. 1881.
2116(61) 0.0002687 1187. 2170.
2448(66) 0.0002296 1187. 2466.
2754(70) 0.0002041 1186. 2663.
2750(70) 0.0002041 1186. 2645.
2505(67) 0.0002228 1185. 2390.
2109(61) 0.0002687 1185. 2028.
1734(55) 0.0003306 1184. 1705.
1513(51) 0.000384 1184. 1489.
1388(49) 0.000416 1183. 1376.
1320(48) 0.000434 1183. 1336.
1296(47) 0.000453 1182. 1344.
1410(50) 0.000400 1182. 1394.
1506(51) 0.000384 1181. 1497.
1714(55) 0.0003306 1181. 1671.
1957(59) 0.0002873 1180. 1935.
2255(63) 0.0002520 1180. 2286.
2741(70) 0.0002041 1180. 2671.
3064(74) 0.0001826 1179. 2973.
3169(76) 0.0001731 1179. 3038.
2903(72) 0.0001929 1178. 2790.
2415(66) 0.0002296 1178. 2345.
1970(59) 0.0002873 1177. 1905.
1606(53) 0.000356 1177. 1584.
1371(49) 0.000416 1176. 1396.
1226(46) 0.000473 1176. 1303.
1227(46) 0.000473 1175. 1262.
1257(47) 0.000453 1175. 1244.
1200(45) 0.000494 1174. 1237.
1175(45) 0.000494 1174. 1237.
1190(45) 0.000494 1173. 1242.
1190(45) 0.000494 1173. 1253.
1317(48) 0.000434 1173. 1265.
1310(48) 0.000434 1172. 1274.
1303(48) 0.000434 1172. 1272.
1280(47) 0.000453 1171. 1258.
1235(46) 0.000473 1171. 1237.
1251(46) 0.000473 1170. 1217.
1160(45) 0.000494 1170. 1202.
1189(45) 0.000494 1169. 1193.
1180(45) 0.000494 1169. 1188.
1199(45) 0.000494 1168. 1185.
1203(46) 0.000473 1168. 1183.
1223(46) 0.000473 1167. 1182.
1143(44) 0.000517 1167. 1181.
1205(46) 0.000473 1166. 1180.
1154(45) 0.000494 1166. 1179.
1137(44) 0.000517 1166. 1178.
1181(45) 0.000494 1165. 1177.
1123(44) 0.000517 1165. 1177.
1125(44) 0.000517 1164. 1176.
1147(44) 0.000517 1164. 1175.
1155(45) 0.000494 1163. 1175.
1209(46) 0.000473 1163. 1175.
1131(44) 0.000517 1162. 1176.
1195(45) 0.000494 1162. 1179.
1202(45) 0.000494 1161. 1184.
1220(46) 0.000473 1161. 1193.
1260(47) 0.000453 1160. 1209.
1245(46) 0.000473 1160. 1233.
1238(46) 0.000473 1160. 1263.
1283(47) 0.000453 1159. 1294.
1375(49) 0.000416 1159. 1315.
1310(48) 0.000434 1158. 1313.
1242(46) 0.000473 1158. 1286.
1245(46) 0.000473 1157. 1248.
1212(46) 0.000473 1157. 1214.
1177(45) 0.000494 1156. 1190.
1162(45) 0.000494 1156. 1177.
1150(44) 0.000517 1155. 1170.
1160(45) 0.000494 1155. 1167.
1181(45) 0.000494 1154. 1165.
1186(45) 0.000494 1154. 1163.
1164(45) 0.000494 1154. 1162.
1191(45) 0.000494 1153. 1162.
1130(44) 0.000517 1153. 1161.
1122(44) 0.000517 1152. 1160.
1203(46) 0.000473 1152. 1160.
1219(46) 0.000473 1151. 1159.
1211(46) 0.000473 1151. 1159.
1172(45) 0.000494 1150. 1158.
1210(46) 0.000473 1150. 1158.
1141(44) 0.000517 1149. 1158.
1094(43) 0.000541 1149. 1158.
1127(44) 0.000517 1148. 1158.
1229(44) 0.000517 1148. 1159.
1187(44) 0.000517 1148. 1160.
1183(44) 0.000517 1147. 1162.
1142(43) 0.000541 1147. 1165.
1165(43) 0.000541 1146. 1167.
1156(43) 0.000541 1146. 1168.
1179(44) 0.000517 1145. 1167.
1193(44) 0.000517 1145. 1165.
1167(43) 0.000541 1144. 1163.
1177(43) 0.000541 1144. 1162.
1179(44) 0.000517 1143. 1162.
1178(44) 0.000517 1143. 1165.
1246(45) 0.000494 1143. 1172.
1280(46) 0.000473 1142. 1184.
1285(46) 0.000473 1142. 1206.
1280(45) 0.000494 1141. 1238.
1277(45) 0.000494 1141. 1279.
1334(47) 0.000453 1140. 1322.
1347(47) 0.000453 1140. 1351.
1406(48) 0.000434 1139. 1351.
1364(47) 0.000453 1139. 1320.
1262(45) 0.000494 1138. 1275.
1203(44) 0.000517 1138. 1236.
1207(44) 0.000517 1138. 1213.
1188(44) 0.000517 1137. 1208.
1197(44) 0.000517 1137. 1223.
1295(46) 0.000473 1136. 1263.
1358(47) 0.000453 1136. 1337.
1405(48) 0.000434 1135. 1454.
1585(51) 0.000384 1135. 1610.
1727(53) 0.000356 1134. 1778.
1762(54) 0.0003429 1134. 1904.
1849(55) 0.0003306 1134. 1925.
1777(54) 0.0003429 1133. 1817.
1566(51) 0.000384 1133. 1638.
1474(49) 0.000416 1132. 1468.
1318(46) 0.000473 1132. 1351.
1224(44) 0.000517 1131. 1296.
1211(44) 0.000517 1131. 1296.
1328(46) 0.000473 1130. 1352.
1428(48) 0.000434 1130. 1471.
1701(53) 0.000356 1130. 1663.
1994(58) 0.0002973 1129. 1921.
2245(61) 0.0002687 1129. 2196.
2441(64) 0.0002441 1128. 2394.
2430(64) 0.0002441 1128. 2412.
2244(61) 0.0002687 1127. 2216.
1935(57) 0.0003078 1127. 1909.
1551(50) 0.000400 1126. 1618.
1390(48) 0.000434 1126. 1410.
1268(45) 0.000494 1126. 1286.
1193(44) 0.000517 1125. 1224.
1168(43) 0.000541 1125. 1194.
1147(43) 0.000541 1124. 1179.
1149(43) 0.000541 1124. 1171.
1155(43) 0.000541 1123. 1165.
1155(43) 0.000541 1123. 1161.
1113(42) 0.000567 1123. 1159.
1127(42) 0.000567 1122. 1157.
1096(42) 0.000567 1122. 1157.
1131(43) 0.000541 1121. 1158.
1125(42) 0.000567 1121. 1161.
1180(44) 0.000517 1120. 1167.
1185(44) 0.000517 1120. 1181.
1182(44) 0.000517 1120. 1209.
1193(44) 0.000517 1119. 1260.
1320(46) 0.000473 1119. 1341.
1490(49) 0.000416 1118. 1453.
1619(52) 0.000370 1118. 1579.
1725(53) 0.000356 1117. 1681.
1733(53) 0.000356 1117. 1711.
1694(53) 0.000356 1117. 1644.
1581(51) 0.000384 1116. 1514.
1411(48) 0.000434 1116. 1381.
1321(46) 0.000473 1115. 1283.
1215(44) 0.000517 1115. 1227.
1154(43) 0.000541 1114. 1208.
1206(44) 0.000517 1114. 1218.
1237(45) 0.000494 1114. 1253.
1307(46) 0.000473 1113. 1312.
1379(47) 0.000453 1113. 1386.
1432(48) 0.000434 1112. 1455.
1439(48) 0.000434 1112. 1489.
1381(47) 0.000453 1111. 1466.
1336(47) 0.000453 1111. 1394.
1262(45) 0.000494 1111. 1308.
1202(44) 0.000517 1110. 1238.
1145(43) 0.000541 1110. 1192.
1157(43) 0.000541 1109. 1166.
1158(43) 0.000541 1109. 1154.
1155(43) 0.000541 1109. 1149.
1139(43) 0.000541 1108. 1148.
1141(43) 0.000541 1108. 1148.
1122(42) 0.000567 1107. 1150.
1132(43) 0.000541 1107. 1153.
1124(42) 0.000567 1106. 1157.
1102(42) 0.000567 1106. 1164.
1161(43) 0.000541 1106. 1174.
1250(45) 0.000494 1105. 1192.
1193(44) 0.000517 1105. 1226.
1271(36) 0.000772 1104. 1292.
1486(45) 0.000494 1104. 1413.
1679(48) 0.000434 1104. 1620.
2044(54) 0.0003429 1103. 1927.
2456(59) 0.0002873 1103. 2309.
2885(64) 0.0002441 1102. 2677.
2981(65) 0.0002367 1102. 2888.
2829(64) 0.0002441 1102. 2815.
2432(59) 0.0002873 1101. 2480.
2052(54) 0.0003429 1101. 2057.
1696(49) 0.000416 1100. 1694.
1463(45) 0.000494 1100. 1449.
1291(42) 0.000567 1100. 1315.
1274(42) 0.000567 1099. 1258.
1273(42) 0.000567 1099. 1247.
1224(41) 0.000595 1098. 1264.
1260(42) 0.000567 1098. 1295.
1354(43) 0.000541 1098. 1326.
1330(43) 0.000541 1097. 1339.
1360(43) 0.000541 1097. 1323.
1283(42) 0.000567 1096. 1284.
1190(40) 0.000625 1096. 1242.
1164(40) 0.000625 1096. 1213.
1215(41) 0.000595 1095. 1206.
1211(41) 0.000595 1095. 1227.
1276(42) 0.000567 1094. 1283.
1425(44) 0.000517 1094. 1380.
1552(47) 0.000453 1094. 1513.
1635(48) 0.000434 1093. 1657.
1798(50) 0.000400 1093. 1767.
1805(50) 0.000400 1092. 1786.
1689(49) 0.000416 1092. 1695.
1501(46) 0.000473 1092. 1543.
1332(43) 0.000541 1091. 1398.
1289(42) 0.000567 1091. 1295.
1215(41) 0.000595 1091. 1246.
1204(41) 0.000595 1090. 1247.
1304(42) 0.000567 1090. 1292.
1293(42) 0.000567 1089. 1376.
1522(46) 0.000473 1089. 1484.
1617(48) 0.000434 1089. 1586.
1631(48) 0.000434 1088. 1639.
1621(48) 0.000434 1088. 1606.
1475(45) 0.000494 1087. 1501.
1405(44) 0.000517 1087. 1374.
1306(42) 0.000567 1087. 1268.
1209(41) 0.000595 1086. 1196.
1202(41) 0.000595 1086. 1154.
1142(40) 0.000625 1086. 1134.
1129(39) 0.000657 1085. 1124.
1146(40) 0.000625 1085. 1121.
1117(39) 0.000657 1084. 1119.
1152(40) 0.000625 1084. 1118.
1123(39) 0.000657 1084. 1115.
1099(39) 0.000657 1083. 1111.
1120(39) 0.000657 1083. 1107.
1144(40) 0.000625 1083. 1103.
1116(39) 0.000657 1082. 1100.
1123(39) 0.000657 1082. 1098.
1111(39) 0.000657 1081. 1097.
1049(38) 0.000693 1081. 1096.
1071(38) 0.000693 1081. 1096.
1096(39) 0.000657 1080. 1097.
1127(39) 0.000657 1080. 1097.
1098(39) 0.000657 1080. 1097.
1085(38) 0.000693 1079. 1097.
1137(39) 0.000657 1079. 1097.
1149(40) 0.000625 1079. 1098.
1152(40) 0.000625 1078. 1102.
1135(39) 0.000657 1078. 1111.
1099(39) 0.000657 1077. 1127.
1175(40) 0.000625 1077. 1153.
1263(42) 0.000567 1077. 1190.
1319(43) 0.000541 1076. 1232.
1290(42) 0.000567 1076. 1266.
1310(43) 0.000541 1076. 1276.
1299(42) 0.000567 1075. 1254.
1168(40) 0.000625 1075. 1212.
1135(39) 0.000657 1075. 1169.
1169(40) 0.000625 1074. 1134.
1192(40) 0.000625 1074. 1112.
1153(40) 0.000625 1074. 1099.
1138(39) 0.000657 1073. 1093.
1127(39) 0.000657 1073. 1090.
1124(39) 0.000657 1072. 1088.
1151(40) 0.000625 1072. 1087.
1113(39) 0.000657 1072. 1086.
1156(40) 0.000625 1071. 1086.
1095(39) 0.000657 1071. 1086.
1083(38) 0.000693 1071. 1087.
1121(39) 0.000657 1070. 1088.
1095(39) 0.000657 1070. 1091.
1121(39) 0.000657 1070. 1096.
1121(39) 0.000657 1069. 1103.
1143(40) 0.000625 1069. 1114.
1164(40) 0.000625 1069. 1125.
1114(39) 0.000657 1068. 1134.
1152(40) 0.000625 1068. 1138.
1122(39) 0.000657 1068. 1136.
1141(39) 0.000657 1067. 1133.
1170(38) 0.000693 1067. 1136.
1188(38) 0.000693 1067. 1152.
1249(39) 0.000657 1066. 1191.
1267(40) 0.000625 1066. 1264.
1424(42) 0.000567 1066. 1376.
1537(44) 0.000517 1065. 1518.
1653(46) 0.000473 1065. 1660.
1717(47) 0.000453 1065. 1748.
1760(47) 0.000453 1064. 1734.
1581(45) 0.000494 1064. 1621.
1435(42) 0.000567 1064. 1469.
1322(41) 0.000595 1063. 1335.
1219(39) 0.000657 1063. 1245.
1176(38) 0.000693 1063. 1204.
1145(38) 0.000693 1062. 1204.
1249(39) 0.000657 1062. 1234.
1298(40) 0.000625 1062. 1279.
1350(41) 0.000595 1061. 1321.
1352(41) 0.000595 1061. 1337.
1377(41) 0.000595 1061. 1313.
1262(40) 0.000625 1060. 1259.
1213(39) 0.000657 1060. 1201.
1128(37) 0.000730 1060. 1153.
1100(37) 0.000730 1059. 1120.
1066(36) 0.000772 1059. 1101.
1080(36) 0.000772 1059. 1091.
1065(36) 0.000772 1058. 1086.
1078(36) 0.000772 1058. 1084.
1066(36) 0.000772 1058. 1083.
1060(36) 0.000772 1057. 1082.
1101(37) 0.000730 1057. 1082.
1092(37) 0.000730 1057. 1082.
1112(37) 0.000730 1057. 1085.
1154(38) 0.000693 1056. 1091.
1138(37) 0.000730 1056. 1103.
1109(37) 0.000730 1056. 1123.
1152(38) 0.000693 1055. 1150.
1224(39) 0.000657 1055. 1182.
1218(39) 0.000657 1055. 1209.
1220(39) 0.000657 1054. 1220.
1197(39) 0.000657 1054. 1210.
1191(38) 0.000693 1054. 1187.
1157(38) 0.000693 1053. 1167.
1195(38) 0.000693 1053. 1164.
1260(40) 0.000625 1053. 1187.
1229(39) 0.000657 1052. 1244.
1328(41) 0.000595 1052. 1333.
1480(43) 0.000541 1052. 1442.
1619(45) 0.000494 1052. 1540.
1669(46) 0.000473 1051. 1586.
1536(44) 0.000517 1051. 1552.
1517(44) 0.000517 1051. 1451.
1327(41) 0.000595 1050. 1332.
1219(39) 0.000657 1050. 1232.
1156(38) 0.000693 1050. 1162.
1076(36) 0.000772 1049. 1120.
1083(37) 0.000730 1049. 1098.
1077(36) 0.000772 1049. 1087.
1059(36) 0.000772 1049. 1081.
1123(37) 0.000730 1048. 1078.
1062(36) 0.000772 1048. 1075.
1062(36) 0.000772 1048. 1072.
1084(37) 0.000730 1047. 1070.
1078(36) 0.000772 1047. 1069.
1106(37) 0.000730 1047. 1068.
1109(37) 0.000730 1047. 1067.
1079(36) 0.000772 1046. 1067.
1068(36) 0.000772 1046. 1067.
1065(36) 0.000772 1046. 1068.
1123(37) 0.000730 1045. 1069.
1131(37) 0.000730 1045. 1072.
1110(37) 0.000730 1045. 1075.
1047(36) 0.000772 1044. 1082.
1041(36) 0.000772 1044. 1094.
1096(37) 0.000730 1044. 1117.
1125(37) 0.000730 1044. 1154.
1192(38) 0.000693 1043. 1211.
1285(40) 0.000625 1043. 1282.
1326(41) 0.000595 1043. 1354.
1363(41) 0.000595 1042. 1402.
1332(41) 0.000595 1042. 1402.
1342(41) 0.000595 1042. 1353.
1285(40) 0.000625 1042. 1283.
1209(39) 0.000657 1041. 1222.
1145(38) 0.000693 1041. 1186.
1160(38) 0.000693 1041. 1180.
1179(38) 0.000693 1040. 1201.
1246(39) 0.000657 1040. 1242.
1290(40) 0.000625 1040. 1287.
1313(40) 0.000625 1040. 1319.
1317(41) 0.000595 1039. 1321.
1308(40) 0.000625 1039. 1295.
1253(39) 0.000657 1039. 1265.
1244(39) 0.000657 1039. 1257.
1276(40) 0.000625 1038. 1292.
1272(40) 0.000625 1038. 1385.
1483(43) 0.000541 1038. 1540.
1742(47) 0.000453 1037. 1737.
1969(50) 0.000400 1037. 1925.
2009(51) 0.000384 1037. 2033.
1921(46) 0.000473 1037. 1999.
1717(44) 0.000517 1036. 1837.
1552(42) 0.000567 1036. 1631.
1453(40) 0.000625 1036. 1455.
1330(38) 0.000693 1036. 1343.
1280(38) 0.000693 1035. 1299.
1194(36) 0.000772 1035. 1312.
1252(37) 0.000730 1035. 1359.
1353(39) 0.000657 1034. 1409.
1372(39) 0.000657 1034. 1430.
1333(38) 0.000693 1034. 1404.
1294(38) 0.000693 1034. 1342.
1259(37) 0.000730 1033. 1275.
1204(36) 0.000772 1033. 1229.
1257(37) 0.000730 1033. 1218.
1314(38) 0.000693 1033. 1243.
1304(38) 0.000693 1032. 1300.
1428(40) 0.000625 1032. 1369.
1530(41) 0.000595 1032. 1424.
1522(41) 0.000595 1032. 1436.
1425(40) 0.000625 1031. 1392.
1366(39) 0.000657 1031. 1314.
1297(38) 0.000693 1031. 1236.
1241(37) 0.000730 1031. 1175.
1181(36) 0.000772 1030. 1140.
1096(35) 0.000816 1030.0 1126.2
1104(35) 0.000816 1029.7 1128.0
1135(35) 0.000816 1029.5 1136.4
1121(35) 0.000816 1029.2 1142.2
1112(35) 0.000816 1029.0 1139.0
1091(35) 0.000816 1028.7 1126.6
1125(35) 0.000816 1028.5 1112.4
1127(35) 0.000816 1028.2 1104.1
1061(34) 0.000865 1027.9 1107.1
1105(35) 0.000816 1027.7 1124.0
1181(36) 0.000772 1027. 1154.
1206(36) 0.000772 1027. 1191.
1234(37) 0.000730 1027. 1222.
1281(38) 0.000693 1027. 1233.
1272(37) 0.000730 1026. 1215.
1200(36) 0.000772 1026. 1178.
1107(35) 0.000816 1025.9 1135.8
1075(34) 0.000865 1025.7 1100.6
1075(34) 0.000865 1025.4 1075.9
1064(34) 0.000865 1025.2 1060.4
1049(34) 0.000865 1024.9 1051.7
1004(33) 0.000918 1024.7 1046.9
1023(33) 0.000918 1024.4 1044.3
1051(34) 0.000865 1024.2 1042.7
1008(33) 0.000918 1023.9 1041.9
1023(33) 0.000918 1023.7 1041.8
1018(33) 0.000918 1023.4 1042.4
1057(34) 0.000865 1023.2 1044.3
1056(34) 0.000865 1023.0 1047.3
1070(34) 0.000865 1022.7 1051.5
1085(34) 0.000865 1022.5 1056.5
1018(33) 0.000918 1022.2 1061.1
1017(33) 0.000918 1022.0 1064.2
1112(35) 0.000816 1021.7 1065.8
1077(34) 0.000865 1021.5 1068.5
1081(34) 0.000865 1021.3 1076.6
1147(35) 0.000816 1021.0 1094.8
1116(35) 0.000816 1020.8 1127.2
1194(36) 0.000772 1021. 1174.
1256(37) 0.000730 1020. 1231.
1257(37) 0.000730 1020. 1284.
1262(37) 0.000730 1020. 1311.
1291(38) 0.000693 1020. 1299.
1211(36) 0.000772 1019. 1253.
1183(36) 0.000772 1019. 1196.
1194(36) 0.000772 1019. 1146.
1157(36) 0.000772 1019. 1113.
1073(34) 0.000865 1018.4 1097.4
1085(34) 0.000865 1018.1 1094.8
1088(35) 0.000816 1017.9 1099.2
1094(35) 0.000816 1017.7 1103.8
1095(35) 0.000816 1017.4 1103.5
1027(33) 0.000918 1017.2 1097.9
1069(34) 0.000865 1017.0 1092.6
1085(34) 0.000865 1016.7 1094.2
1073(34) 0.000865 1016.5 1107.9
1118(35) 0.000816 1016.3 1136.3
1158(36) 0.000772 1016. 1177.
1189(36) 0.000772 1016. 1223.
1254(37) 0.000730 1016. 1257.
1228(37) 0.000730 1015. 1264.
1265(37) 0.000730 1015. 1237.
1179(36) 0.000772 1015. 1190.
1131(35) 0.000816 1014.6 1142.0
1103(35) 0.000816 1014.4 1102.9
1059(34) 0.000865 1014.2 1076.1
1046(34) 0.000865 1014.0 1060.2
1036(34) 0.000865 1013.7 1052.2
991(33) 0.000918 1013.5 1049.4
978(33) 0.000918 1013.3 1050.1
1042(34) 0.000865 1013.0 1054.6
1095(35) 0.000816 1012.8 1064.8
1139(35) 0.000816 1012.6 1084.3
1128(35) 0.000816 1012.4 1118.3
1172(36) 0.000772 1012. 1171.
1254(35) 0.000816 1011.9 1241.4
1337(37) 0.000730 1012. 1321.
1417(38) 0.000693 1011. 1388.
1477(39) 0.000657 1011. 1414.
1437(38) 0.000693 1011. 1386.
1375(37) 0.000730 1011. 1319.
1281(36) 0.000772 1011. 1244.
1123(33) 0.000918 1010.3 1183.1
1148(34) 0.000865 1010.1 1146.6
1107(33) 0.000918 1009.9 1133.7
1153(34) 0.000865 1009.7 1137.0
1172(34) 0.000865 1009.4 1145.9
1175(34) 0.000865 1009.2 1148.0
1145(34) 0.000865 1009.0 1136.6
1127(34) 0.000865 1008.8 1114.5
1118(33) 0.000918 1008.6 1089.8
1088(33) 0.000918 1008.3 1068.2
1043(32) 0.000977 1008.1 1052.3
996(31) 0.001041 1007.9 1042.0
1025(32) 0.000977 1007.7 1035.9
1017(32) 0.000977 1007.5 1032.5
1018(32) 0.000977 1007.2 1030.8
1004(32) 0.000977 1007.0 1030.0
987(31) 0.001041 1006.8 1029.8
1009(32) 0.000977 1006.6 1030.1
1054(32) 0.000977 1006.4 1030.9
1047(32) 0.000977 1006.1 1032.2
985(31) 0.001041 1005.9 1034.1
997(32) 0.000977 1005.7 1036.8
1051(32) 0.000977 1005.5 1040.8
1080(33) 0.000918 1005.3 1047.0
1096(33) 0.000918 1005.1 1057.7
1081(33) 0.000918 1004.8 1076.7
1064(33) 0.000918 1004.6 1109.6
1175(34) 0.000865 1004.4 1162.1
1211(35) 0.000816 1004.2 1236.7
1311(36) 0.000772 1004. 1328.
1396(37) 0.000730 1004. 1419.
1440(38) 0.000693 1004. 1477.
1410(38) 0.000693 1003. 1473.
1419(38) 0.000693 1003. 1418.
1335(37) 0.000730 1003. 1351.
1304(36) 0.000772 1003. 1306.
1265(36) 0.000772 1002. 1303.
1233(35) 0.000816 1002.3 1347.0
1380(37) 0.000730 1002. 1424.
1432(38) 0.000693 1002. 1507.
1440(38) 0.000693 1002. 1549.
1487(39) 0.000657 1001. 1520.
1424(38) 0.000693 1001. 1433.
1347(37) 0.000730 1001. 1326.
1279(36) 0.000772 1001. 1231.
1196(35) 0.000816 1000.6 1160.8
1094(33) 0.000918 1000.4 1116.2
1042(32) 0.000977 1000.1 1092.0
1093(33) 0.000918 999.9 1080.4
1052(32) 0.000977 999.7 1074.4
1054(32) 0.000977 999.5 1070.2
1087(33) 0.000918 999.3 1068.4
1061(33) 0.000918 999.1 1072.0
1067(33) 0.000918 998.9 1084.0
1049(32) 0.000977 998.7 1106.5
1101(33) 0.000918 998.5 1138.2
1168(34) 0.000865 998.3 1173.8
1210(35) 0.000816 998.0 1202.3
1177(34) 0.000865 997.8 1210.2
1240(35) 0.000816 997.6 1194.7
1180(34) 0.000865 997.4 1168.6
1126(34) 0.000865 997.2 1148.0
1179(34) 0.000865 997.0 1143.3
1163(34) 0.000865 996.8 1157.9
1206(35) 0.000816 996.6 1188.7
1209(35) 0.000816 996.4 1224.9
1243(35) 0.000816 996.2 1248.8
1221(35) 0.000816 996.0 1243.5
1234(35) 0.000816 995.8 1209.7
1206(35) 0.000816 995.6 1163.7
1182(34) 0.000865 995.4 1120.1
1080(33) 0.000918 995.2 1086.7
1070(33) 0.000918 994.9 1065.2
1047(32) 0.000977 994.7 1053.7
1048(32) 0.000977 994.5 1048.4
1081(33) 0.000918 994.3 1044.9
1076(33) 0.000918 994.1 1040.5
1032(32) 0.000977 993.9 1034.8
1049(32) 0.000977 993.7 1029.1
1021(32) 0.000977 993.5 1024.3
1043(32) 0.000977 993.3 1020.7
1018(32) 0.000977 993.1 1018.5
1040(32) 0.000977 992.9 1017.4
1029(32) 0.000977 992.7 1017.0
1040(32) 0.000977 992.5 1017.4
1076(33) 0.000918 992.3 1018.3
1037(32) 0.000977 992.1 1019.8
1038(32) 0.000977 991.9 1022.1
1077(33) 0.000918 991.7 1025.3
1038(32) 0.000977 991.5 1029.7
1034(32) 0.000977 991.3 1035.2
1026(32) 0.000977 991.1 1041.9
1042(32) 0.000977 990.9 1050.6
1072(32) 0.000977 990.7 1062.5
1111(32) 0.000977 990.5 1081.7
1071(32) 0.000977 990.3 1114.5
1138(33) 0.000918 990.1 1167.6
1176(33) 0.000918 989.9 1244.9
1259(34) 0.000865 989.7 1343.8
1426(37) 0.000730 989. 1451.
1438(37) 0.000730 989. 1537.
1549(38) 0.000693 989. 1569.
1520(38) 0.000693 989. 1538.
1491(38) 0.000693 989. 1478.
1401(36) 0.000772 988. 1434.
1407(36) 0.000772 988. 1434.
1415(37) 0.000730 988. 1487.
1531(38) 0.000693 988. 1582.
1656(40) 0.000625 988. 1684.
1677(40) 0.000625 987. 1740.
1658(40) 0.000625 987. 1709.
1558(38) 0.000693 987. 1603.
1553(38) 0.000693 987. 1469.
1361(36) 0.000772 987. 1348.
1340(36) 0.000772 986. 1259.
1178(33) 0.000918 986.3 1205.8
1218(34) 0.000865 986.1 1180.1
1223(34) 0.000865 985.9 1168.0
1191(33) 0.000918 985.7 1155.4
1165(33) 0.000918 985.5 1135.5
1167(33) 0.000918 985.3 1111.7
1123(32) 0.000977 985.1 1089.8
1116(32) 0.000977 984.9 1073.8
1142(33) 0.000918 984.7 1064.8
1115(32) 0.000977 984.5 1062.2
1060(31) 0.001041 984.3 1063.1
1109(32) 0.000977 984.1 1064.9
1159(33) 0.000918 983.9 1066.4
1108(32) 0.000977 983.7 1069.9
1142(33) 0.000918 983.5 1080.1
1130(33) 0.000918 983.3 1100.7
1192(33) 0.000918 983.1 1133.2
1237(34) 0.000865 982.9 1174.8
1214(34) 0.000865 982.7 1216.7
1225(34) 0.000865 982.5 1244.1
1229(34) 0.000865 982.3 1242.9
1178(33) 0.000918 982.1 1214.2
1213(34) 0.000865 981.9 1173.5
1162(33) 0.000918 981.8 1135.7
1107(32) 0.000977 981.6 1108.9
1123(32) 0.000977 981.4 1095.2
1103(32) 0.000977 981.2 1091.6
1106(32) 0.000977 981.0 1091.8
1170(33) 0.000918 980.8 1088.4
1132(33) 0.000918 980.6 1078.0
1069(32) 0.000977 980.4 1063.1
1061(31) 0.001041 980.2 1047.8
1087(32) 0.000977 980.0 1035.0
1079(32) 0.000977 979.8 1025.7
1031(31) 0.001041 979.6 1020.2
1020(31) 0.001041 979.4 1017.9
997(30) 0.001111 979.2 1018.7
1087(32) 0.000977 979.0 1022.7
1046(31) 0.001041 978.8 1031.0
1046(31) 0.001041 978.6 1044.9
1028(31) 0.001041 978.4 1065.8
1078(32) 0.000977 978.3 1093.7
1122(32) 0.000977 978.1 1126.7
1173(33) 0.000918 977.9 1159.5
1204(34) 0.000865 977.7 1184.0
1215(34) 0.000865 977.5 1195.1
1188(33) 0.000918 977.3 1199.1
1214(34) 0.000865 977.1 1211.2
1248(34) 0.000865 976.9 1244.6
1296(35) 0.000816 976.7 1305.0
1420(37) 0.000730 977. 1388.
1526(38) 0.000693 976. 1475.
1519(38) 0.000693 976. 1534.
1533(38) 0.000693 976. 1533.
1505(38) 0.000693 976. 1469.
1435(37) 0.000730 976. 1371.
1256(34) 0.000865 975.4 1271.6
1202(34) 0.000865 975.2 1187.7
1074(32) 0.000977 975.0 1126.3
1108(32) 0.000977 974.8 1086.1
1092(32) 0.000977 974.6 1061.5
1045(31) 0.001041 974.4 1046.2
1035(31) 0.001041 974.2 1035.7
1017(31) 0.001041 974.0 1027.7
1063(32) 0.000977 973.8 1021.9
1021(31) 0.001041 973.6 1017.7
1046(31) 0.001041 973.4 1015.3
1025(31) 0.001041 973.2 1014.6
1035(31) 0.001041 973.1 1015.6
1023(31) 0.001041 972.9 1018.6
1016(31) 0.001041 972.7 1024.7
1029(31) 0.001041 972.5 1035.3
1046(31) 0.001041 972.3 1052.5
1100(32) 0.000977 972.1 1077.2
1105(32) 0.000977 971.9 1108.8
1168(33) 0.000918 971.7 1143.4
1234(34) 0.000865 971.5 1173.6
1167(33) 0.000918 971.3 1188.9
1189(32) 0.000977 971.2 1185.0
1160(32) 0.000977 971.0 1169.2
1197(32) 0.000977 970.8 1154.2
1121(31) 0.001041 970.6 1149.0
1163(32) 0.000977 970.4 1157.0
1186(32) 0.000977 970.2 1175.9
1191(32) 0.000977 970.0 1198.3
1205(32) 0.000977 969.8 1213.3
1219(32) 0.000977 969.6 1215.9
1199(32) 0.000977 969.4 1213.3
1203(32) 0.000977 969.3 1219.2
1245(33) 0.000918 969.1 1243.7
1303(34) 0.000865 968.9 1289.3
1352(34) 0.000865 968.7 1348.8
1430(35) 0.000816 968.5 1404.3
1356(34) 0.000865 968.3 1429.4
1430(35) 0.000816 968.1 1406.1
1333(34) 0.000865 967.9 1343.1
1286(33) 0.000918 967.7 1264.5
1220(32) 0.000977 967.6 1189.8
1151(31) 0.001041 967.4 1129.1
1078(30) 0.001111 967.2 1085.5
1012(29) 0.001189 967.0 1058.0
1049(30) 0.001111 966.8 1043.2
1049(30) 0.001111 966.6 1038.5
1024(30) 0.001111 966.4 1042.0
1027(30) 0.001111 966.2 1053.4
1073(30) 0.001111 966.0 1072.3
1106(31) 0.001041 965.9 1097.7
1126(31) 0.001041 965.7 1127.0
1179(32) 0.000977 965.5 1154.3
1204(32) 0.000977 965.3 1172.0
1183(32) 0.000977 965.1 1175.7
1167(32) 0.000977 964.9 1170.8
1152(31) 0.001041 964.7 1168.1
1129(31) 0.001041 964.5 1176.0
1179(32) 0.000977 964.4 1197.8
1246(33) 0.000918 964.2 1230.6
1275(33) 0.000918 964.0 1265.5
1211(32) 0.000977 963.8 1290.1
1317(34) 0.000865 963.6 1297.7
1273(33) 0.000918 963.4 1297.4
1265(33) 0.000918 963.2 1306.5
1337(34) 0.000865 963.0 1337.9
1352(34) 0.000865 962.9 1394.6
1500(36) 0.000772 963. 1467.
1550(37) 0.000730 962. 1533.
1534(37) 0.000730 962. 1561.
1519(36) 0.000772 962. 1531.
1510(36) 0.000772 962. 1456.
1450(35) 0.000816 961.7 1366.5
1279(33) 0.000918 961.5 1285.5
1228(33) 0.000918 961.4 1224.6
1177(32) 0.000977 961.2 1185.2
1154(31) 0.001041 961.0 1161.1
1109(31) 0.001041 960.8 1141.9
1140(31) 0.001041 960.6 1119.9
1110(31) 0.001041 960.4 1094.4
1096(31) 0.001041 960.2 1068.8
1063(30) 0.001111 960.1 1046.3
1042(30) 0.001111 959.9 1028.2
1016(29) 0.001189 959.7 1015.1
1025(30) 0.001111 959.5 1006.3
1026(30) 0.001111 959.3 1001.3
984(29) 0.001189 959.1 999.2
975(29) 0.001189 958.9 999.7
989(29) 0.001189 958.8 1002.5
954(28) 0.001276 958.6 1007.4
1041(30) 0.001111 958.4 1014.1
1048(30) 0.001111 958.2 1021.8
1003(29) 0.001189 958.0 1029.5
997(29) 0.001189 957.8 1036.3
1019(30) 0.001111 957.6 1042.9
1044(30) 0.001111 957.5 1052.4
1065(30) 0.001111 957.3 1067.8
1034(30) 0.001111 957.1 1090.2
1099(31) 0.001041 956.9 1118.1
1162(32) 0.000977 956.7 1146.0
1124(31) 0.001041 956.5 1164.7
1086(31) 0.001041 956.4 1165.1
1122(31) 0.001041 956.2 1146.0
1091(31) 0.001041 956.0 1115.3
1116(31) 0.001041 955.8 1082.4
1054(30) 0.001111 955.6 1053.4
1003(29) 0.001189 955.4 1031.0
980(29) 0.001189 955.3 1016.0
1011(29) 0.001189 955.1 1007.7
954(28) 0.001276 954.9 1005.3
1000(29) 0.001189 954.7 1008.0
968(29) 0.001189 954.5 1015.4
1009(29) 0.001189 954.3 1027.2
1039(30) 0.001111 954.2 1043.1
1074(30) 0.001111 954.0 1061.9
1111(31) 0.001041 953.8 1081.5
1119(31) 0.001041 953.6 1099.6
1094(31) 0.001041 953.4 1116.0
1119(31) 0.001041 953.2 1135.4
1224(33) 0.000918 953.1 1164.5
1214(32) 0.000977 952.9 1207.6
1283(33) 0.000918 952.7 1263.7
1251(45) 0.000494 953. 1325.
1326(33) 0.000918 952.3 1374.6
1384(33) 0.000918 952.1 1393.0
1341(33) 0.000918 952.0 1370.4
1306(33) 0.000918 951.8 1318.2
1251(32) 0.000977 951.6 1256.8
1225(31) 0.001041 951.4 1201.4
1145(30) 0.001111 951.2 1159.5
1116(30) 0.001111 951.0 1131.3
1082(30) 0.001111 950.9 1112.6
1081(30) 0.001111 950.7 1096.7
1051(29) 0.001189 950.5 1080.0
1089(30) 0.001111 950.3 1063.3
1096(30) 0.001111 950.1 1048.8
1051(29) 0.001189 950.0 1038.3
1017(29) 0.001189 949.8 1031.9
1048(29) 0.001189 949.6 1028.8
1056(29) 0.001189 949.4 1027.0
1034(29) 0.001189 949.2 1024.8
1059(29) 0.001189 949.0 1022.0
1051(29) 0.001189 948.9 1020.2
1018(29) 0.001189 948.7 1020.6
1032(29) 0.001189 948.5 1024.2
1021(29) 0.001189 948.3 1030.6
1048(29) 0.001189 948.1 1039.0
1063(29) 0.001189 948.0 1048.0
1030(29) 0.001189 947.8 1057.6
1029(29) 0.001189 947.6 1070.3
1070(29) 0.001189 947.4 1089.5
1077(29) 0.001189 947.2 1116.9
1130(30) 0.001111 947.1 1151.0
1176(31) 0.001041 946.9 1186.0
1194(31) 0.001041 946.7 1211.7
1219(31) 0.001041 946.5 1216.5
1218(31) 0.001041 946.3 1196.5
1148(30) 0.001111 946.2 1159.5
1108(30) 0.001111 946.0 1116.8
1103(30) 0.001111 945.8 1076.9
1083(30) 0.001111 945.6 1044.1
1053(29) 0.001189 945.4 1019.5
1026(29) 0.001189 945.3 1002.4
1000(28) 0.001276 945.1 991.0
949(28) 0.001276 944.9 983.6
943(28) 0.001276 944.7 978.8
929(27) 0.001372 944.6 976.1
975(28) 0.001276 944.4 974.4
990(28) 0.001276 944.2 974.0
971(28) 0.001276 944.0 974.9
931(27) 0.001372 943.8 977.5
968(28) 0.001276 943.7 982.5
1013(29) 0.001189 943.5 990.3
1011(29) 0.001189 943.3 1001.5
1022(29) 0.001189 943.1 1015.8
1047(29) 0.001189 942.9 1032.5
1049(29) 0.001189 942.8 1049.6
1064(29) 0.001189 942.6 1064.3
1072(29) 0.001189 942.4 1073.6
1070(29) 0.001189 942.2 1077.8
1097(30) 0.001111 942.1 1080.8
1092(30) 0.001111 941.9 1087.1
1097(30) 0.001111 941.7 1098.7
1125(30) 0.001111 941.5 1114.5
1118(30) 0.001111 941.4 1130.2
1170(31) 0.001041 941.2 1139.0
1172(31) 0.001041 941.0 1135.4
1134(30) 0.001111 940.8 1120.9
1121(30) 0.001111 940.6 1101.9
1068(29) 0.001189 940.5 1084.6
1079(29) 0.001189 940.3 1072.5
1085(30) 0.001111 940.1 1066.7
1084(30) 0.001111 939.9 1066.4
1091(30) 0.001111 939.8 1069.9
1100(30) 0.001111 939.6 1076.9
1105(30) 0.001111 939.4 1089.3
1152(30) 0.001111 939.2 1109.1
1189(31) 0.001041 939.1 1136.9
1193(31) 0.001041 938.9 1170.0
1199(31) 0.001041 938.7 1202.0
1235(32) 0.000977 938.5 1223.2
1230(32) 0.000977 938.4 1225.9
1226(31) 0.001041 938.2 1211.2
1183(31) 0.001041 938.0 1188.5
1201(31) 0.001041 937.8 1167.5
1188(31) 0.001041 937.7 1153.2
1138(30) 0.001111 937.5 1145.8
1169(31) 0.001041 937.3 1141.1
1157(31) 0.001041 937.1 1132.5
1095(30) 0.001111 937.0 1115.7
1081(30) 0.001111 936.8 1092.5
1099(30) 0.001111 936.6 1067.6
1030(29) 0.001189 936.4 1044.9
1057(29) 0.001189 936.3 1026.7
1039(29) 0.001189 936.1 1013.6
1012(29) 0.001189 935.9 1005.0
981(28) 0.001276 935.7 1000.3
970(28) 0.001276 935.6 998.7
974(28) 0.001276 935.4 1000.3
1023(29) 0.001189 935.2 1005.0
1054(29) 0.001189 935.1 1012.1
1025(29) 0.001189 934.9 1020.2
984(28) 0.001276 934.7 1026.5
1009(29) 0.001189 934.5 1028.0
986(28) 0.001276 934.4 1023.1
1008(29) 0.001189 934.2 1013.1
1042(29) 0.001189 934.0 1000.8
975(28) 0.001276 933.8 988.9
984(28) 0.001276 933.7 978.5
1013(29) 0.001189 933.5 970.3
973(28) 0.001276 933.3 964.5
968(28) 0.001276 933.2 960.8
942(28) 0.001276 933.0 958.7
945(28) 0.001276 932.8 957.9
962(28) 0.001276 932.6 958.2
973(28) 0.001276 932.5 959.7
983(28) 0.001276 932.3 962.7
967(28) 0.001276 932.1 967.7
971(28) 0.001276 932.0 975.8
983(28) 0.001276 931.8 987.8
1008(29) 0.001189 931.6 1004.6
1031(29) 0.001189 931.4 1026.5
1042(29) 0.001189 931.3 1052.9
1069(30) 0.001111 931.1 1081.5
1047(29) 0.001189 930.9 1108.2
1148(31) 0.001041 930.8 1127.5
1155(31) 0.001041 930.6 1134.9
1113(30) 0.001111 930.4 1131.7
1105(30) 0.001111 930.3 1123.9
1091(30) 0.001111 930.1 1117.4
1090(30) 0.001111 929.9 1115.1
1148(31) 0.001041 929.7 1116.2
1119(30) 0.001111 929.6 1116.6
1078(30) 0.001111 929.4 1110.7
1051(29) 0.001189 929.2 1095.8
1091(30) 0.001111 929.1 1074.1
1017(29) 0.001189 928.9 1050.2
1043(29) 0.001189 928.7 1027.9
1033(29) 0.001189 928.6 1009.1
1037(29) 0.001189 928.4 994.5
1026(29) 0.001189 928.2 983.9
952(28) 0.001276 928.1 976.3
959(28) 0.001276 927.9 971.2
945(28) 0.001276 927.7 968.0
946(28) 0.001276 927.6 966.4
974(28) 0.001276 927.4 966.1
977(28) 0.001276 927.2 966.4
962(28) 0.001276 927.1 966.8
939(28) 0.001276 926.9 966.6
966(28) 0.001276 926.7 965.6
958(28) 0.001276 926.6 964.4
969(28) 0.001276 926.4 963.5
966(28) 0.001276 926.2 963.4
981(28) 0.001276 926.1 964.6
946(28) 0.001276 925.9 967.3
984(28) 0.001276 925.7 971.8
997(29) 0.001189 925.6 978.4
1025(29) 0.001189 925.4 987.7
1018(29) 0.001189 925.2 999.7
1043(29) 0.001189 925.1 1014.2
1060(29) 0.001189 924.9 1029.8
1049(29) 0.001189 924.7 1043.9
1006(29) 0.001189 924.6 1052.8
1037(29) 0.001189 924.4 1053.2
1021(29) 0.001189 924.2 1045.2
1016(29) 0.001189 924.1 1031.8
1013(29) 0.001189 923.9 1016.9
950(28) 0.001276 923.7 1003.1
976(28) 0.001276 923.6 992.1
927(28) 0.001276 923.4 984.7
966(28) 0.001276 923.2 980.8
943(28) 0.001276 923.1 980.5
945(28) 0.001276 922.9 983.6
951(28) 0.001276 922.7 990.3
976(28) 0.001276 922.6 1001.2
985(28) 0.001276 922.4 1017.8
991(29) 0.001189 922.3 1042.0
1038(29) 0.001189 922.1 1076.7
1071(30) 0.001111 921.9 1125.0
1195(31) 0.001041 921.8 1189.7
1272(32) 0.000977 921.6 1271.7
1369(34) 0.000865 921.4 1368.6
1494(35) 0.000816 921.3 1472.3
1587(36) 0.000772 921. 1568.
1576(36) 0.000772 921. 1633.
1629(37) 0.000730 921. 1651.
1608(36) 0.000772 921. 1619.
1539(36) 0.000772 920. 1554.
1518(35) 0.000816 920.3 1480.8
1374(34) 0.000865 920.1 1413.1
1332(33) 0.000918 920.0 1357.6
1276(32) 0.000977 919.8 1312.9
1251(32) 0.000977 919.7 1273.1
1214(32) 0.000977 919.5 1233.5
1226(32) 0.000977 919.3 1194.4
1145(31) 0.001041 919.2 1158.9
1104(30) 0.001111 919.0 1129.4
1125(30) 0.001111 918.9 1106.4
1097(30) 0.001111 918.7 1088.4
1087(30) 0.001111 918.5 1072.5
1050(29) 0.001189 918.4 1056.3
1066(30) 0.001111 918.2 1039.3
997(23) 0.001890 918.1 1022.8
979(28) 0.001276 917.9 1008.1
1009(29) 0.001189 917.7 996.6
1014(29) 0.001189 917.6 988.9
1010(29) 0.001189 917.4 985.8
1005(28) 0.001276 917.3 987.7
1002(28) 0.001276 917.1 994.5
1012(29) 0.001189 916.9 1006.2
993(28) 0.001276 916.8 1021.8
1015(29) 0.001189 916.6 1039.6
1034(29) 0.001189 916.5 1056.9
1028(29) 0.001189 916.3 1069.8
1132(30) 0.001111 916.1 1074.3
1058(29) 0.001189 916.0 1068.9
1058(29) 0.001189 915.8 1056.2
1053(29) 0.001189 915.7 1040.1
1072(29) 0.001189 915.5 1024.1
977(28) 0.001276 915.3 1010.1
943(28) 0.001276 915.2 998.3
965(28) 0.001276 915.0 988.3
984(28) 0.001276 914.9 979.2
958(28) 0.001276 914.7 970.8
978(28) 0.001276 914.6 963.4
963(28) 0.001276 914.4 957.1
941(28) 0.001276 914.2 952.2
970(28) 0.001276 914.1 948.8
928(27) 0.001372 913.9 946.9
962(28) 0.001276 913.8 946.5
984(28) 0.001276 913.6 947.5
999(28) 0.001276 913.5 950.0
967(28) 0.001276 913.3 953.7
954(28) 0.001276 913.1 958.4
986(28) 0.001276 913.0 963.9
947(28) 0.001276 912.8 969.5
960(28) 0.001276 912.7 974.9
975(28) 0.001276 912.5 980.4
1021(29) 0.001189 912.4 986.4
1001(28) 0.001276 912.2 993.8
994(28) 0.001276 912.1 1002.6
1038(29) 0.001189 911.9 1012.1
985(28) 0.001276 911.7 1021.1
1026(29) 0.001189 911.6 1027.8
1041(29) 0.001189 911.4 1031.8
1034(29) 0.001189 911.3 1034.1
1056(29) 0.001189 911.1 1036.9
1066(29) 0.001189 911.0 1041.7
1034(29) 0.001189 910.8 1048.7
1035(29) 0.001189 910.7 1057.2
1067(29) 0.001189 910.5 1065.5
1153(31) 0.001041 910.4 1072.5
1135(30) 0.001111 910.2 1079.2
1125(30) 0.001111 910.0 1087.4
1134(30) 0.001111 909.9 1098.3
1120(30) 0.001111 909.7 1111.3
1133(30) 0.001111 909.6 1123.8
1150(30) 0.001111 909.4 1131.5
1142(30) 0.001111 909.3 1130.8
1123(30) 0.001111 909.1 1122.0
1086(30) 0.001111 909.0 1108.4
1077(29) 0.001189 908.8 1094.1
1109(30) 0.001111 908.7 1081.6
1115(30) 0.001111 908.5 1071.2
1076(29) 0.001189 908.4 1061.3
1111(30) 0.001111 908.2 1050.0
1088(30) 0.001111 908.1 1036.3
1017(29) 0.001189 907.9 1021.3
1036(29) 0.001189 907.8 1006.6
994(28) 0.001276 907.6 993.6
1041(29) 0.001189 907.5 982.9
979(28) 0.001276 907.3 974.6
965(28) 0.001276 907.1 968.3
967(28) 0.001276 907.0 963.7
942(28) 0.001276 906.8 960.6
947(28) 0.001276 906.7 959.0
957(28) 0.001276 906.5 958.5
960(28) 0.001276 906.4 958.8
942(28) 0.001276 906.2 959.0
941(28) 0.001276 906.1 958.6
970(28) 0.001276 905.9 957.0
927(27) 0.001372 905.8 954.3
939(27) 0.001372 905.6 951.4
983(28) 0.001276 905.5 948.8
921(27) 0.001372 905.3 947.2
885(27) 0.001372 905.2 947.0
901(27) 0.001372 905.0 948.7
911(27) 0.001372 904.9 952.4
931(27) 0.001372 904.7 958.3
988(28) 0.001276 904.6 966.7
956(28) 0.001276 904.4 977.1
977(28) 0.001276 904.3 989.4
980(28) 0.001276 904.1 1003.0
982(28) 0.001276 904.0 1017.2
993(28) 0.001276 903.8 1031.3
1033(29) 0.001189 903.7 1046.0
1056(29) 0.001189 903.5 1062.5
1028(29) 0.001189 903.4 1082.0
1041(29) 0.001189 903.2 1104.5
1075(29) 0.001189 903.1 1128.7
1140(30) 0.001111 902.9 1151.9
1179(31) 0.001041 902.8 1171.4
1216(43) 0.000541 903. 1187.
1245(31) 0.001041 902.5 1200.8
1254(31) 0.001041 902.4 1215.8
1274(31) 0.001041 902.2 1232.6
1299(32) 0.000977 902.1 1248.4
1279(31) 0.001041 901.9 1257.2
1281(31) 0.001041 901.8 1252.3
1262(31) 0.001041 901.6 1230.7
1258(31) 0.001041 901.5 1195.4
1238(31) 0.001041 901.3 1153.3
1131(29) 0.001189 901.2 1110.5
1041(28) 0.001276 901.0 1071.3
1021(28) 0.001276 900.9 1037.7
1041(28) 0.001276 900.7 1010.5
1023(28) 0.001276 900.6 989.2
953(27) 0.001372 900.4 973.3
974(27) 0.001372 900.3 961.7
965(27) 0.001372 900.1 953.5
926(27) 0.001372 900.0 947.9
930(27) 0.001372 899.8 944.5
963(27) 0.001372 899.7 942.7
963(27) 0.001372 899.6 942.4
952(27) 0.001372 899.4 943.4
959(27) 0.001372 899.3 945.9
954(27) 0.001372 899.1 949.8
928(27) 0.001372 899.0 955.4
976(27) 0.001372 898.8 962.9
944(27) 0.001372 898.7 972.2
978(27) 0.001372 898.5 983.6
1011(28) 0.001276 898.4 997.3
1020(28) 0.001276 898.2 1013.2
1042(28) 0.001276 898.1 1030.8
1040(28) 0.001276 897.9 1048.8
1063(28) 0.001276 897.8 1064.5
1057(28) 0.001276 897.7 1074.7
1057(28) 0.001276 897.5 1076.7
1076(29) 0.001189 897.4 1070.4
1050(28) 0.001276 897.2 1058.5
993(28) 0.001276 897.1 1045.0
996(28) 0.001276 896.9 1033.6
1020(28) 0.001276 896.8 1027.3
1077(29) 0.001189 896.6 1028.0
1036(28) 0.001276 896.5 1037.1
1039(28) 0.001276 896.4 1054.9
1117(29) 0.001189 896.2 1080.9
1129(29) 0.001189 896.1 1113.2
1147(30) 0.001111 895.9 1148.7
1173(30) 0.001111 895.8 1182.4
1220(31) 0.001041 895.6 1208.0
1192(30) 0.001111 895.5 1219.2
1177(30) 0.001111 895.3 1213.9
1180(30) 0.001111 895.2 1195.2
1202(30) 0.001111 895.1 1169.8
1170(30) 0.001111 894.9 1143.8
1114(29) 0.001189 894.8 1121.9
1077(29) 0.001189 894.6 1106.5
1093(29) 0.001189 894.5 1098.8
1105(29) 0.001189 894.3 1099.3
1145(30) 0.001111 894.2 1107.7
1148(30) 0.001111 894.0 1123.6
1114(29) 0.001189 893.9 1145.6
1126(29) 0.001189 893.8 1170.9
1174(30) 0.001111 893.6 1195.2
1201(30) 0.001111 893.5 1214.0
1201(30) 0.001111 893.3 1224.4
1249(31) 0.001041 893.2 1227.5
1228(31) 0.001041 893.0 1226.8
1194(30) 0.001111 892.9 1225.4
1219(31) 0.001041 892.8 1224.2
1163(30) 0.001111 892.6 1221.5
1167(30) 0.001111 892.5 1213.7
1193(30) 0.001111 892.3 1198.0
1197(30) 0.001111 892.2 1174.9
1139(29) 0.001189 892.0 1147.7
1076(29) 0.001189 891.9 1120.2
1110(29) 0.001189 891.7 1095.4
1058(28) 0.001276 891.6 1074.5
1055(28) 0.001276 891.5 1057.7
1040(28) 0.001276 891.3 1044.6
995(28) 0.001276 891.2 1034.9
1022(28) 0.001276 891.0 1028.4
1055(28) 0.001276 890.9 1025.1
1074(29) 0.001189 890.8 1024.1
1072(29) 0.001189 890.6 1024.0
1066(29) 0.001189 890.5 1023.2
1029(28) 0.001276 890.3 1020.0
1009(28) 0.001276 890.2 1014.1
1028(28) 0.001276 890.0 1006.3
1058(28) 0.001276 889.9 997.8
1031(28) 0.001276 889.8 989.6
1002(28) 0.001276 889.6 982.1
975(27) 0.001372 889.5 975.2
988(27) 0.001372 889.3 968.6
980(27) 0.001372 889.2 962.1
989(27) 0.001372 889.0 956.0
953(27) 0.001372 888.9 950.7
995(28) 0.001276 888.8 946.5
941(27) 0.001372 888.6 943.8
964(27) 0.001372 888.5 942.7
949(27) 0.001372 888.3 943.6
906(26) 0.001479 888.2 946.3
921(27) 0.001372 888.0 951.2
978(28) 0.001276 887.9 958.2
967(27) 0.001372 887.8 967.5
943(27) 0.001372 887.6 979.1
1009(28) 0.001276 887.5 992.7
1045(28) 0.001276 887.3 1008.5
1010(28) 0.001276 887.2 1026.4
1087(29) 0.001189 887.1 1046.8
1075(29) 0.001189 886.9 1070.4
1121(29) 0.001189 886.8 1096.4
1195(30) 0.001111 886.6 1123.8
1157(30) 0.001111 886.5 1150.3
1258(31) 0.001041 886.3 1173.3
1222(31) 0.001041 886.2 1191.5
1213(31) 0.001041 886.1 1205.9
1279(31) 0.001041 885.9 1218.8
1277(31) 0.001041 885.8 1231.4
1227(31) 0.001041 885.6 1243.3
1186(30) 0.001111 885.5 1251.5
1266(31) 0.001041 885.4 1252.1
1284(32) 0.000977 885.2 1242.5
1272(31) 0.001041 885.1 1223.6
1251(31) 0.001041 884.9 1199.2
1182(30) 0.001111 884.8 1173.2
1141(30) 0.001111 884.6 1148.1
1150(30) 0.001111 884.5 1124.5
1111(29) 0.001189 884.4 1101.8
1061(29) 0.001189 884.2 1079.3
1042(28) 0.001276 884.1 1057.1
1020(28) 0.001276 883.9 1036.3
984(28) 0.001276 883.8 1018.3
977(27) 0.001372 883.7 1004.1
983(28) 0.001276 883.5 994.5
977(28) 0.001276 883.4 989.7
958(27) 0.001372 883.2 989.8
1033(28) 0.001276 883.1 994.4
994(28) 0.001276 883.0 1002.9
1022(28) 0.001276 882.8 1014.0
1013(28) 0.001276 882.7 1026.0
1000(28) 0.001276 882.5 1036.7
1064(29) 0.001189 882.4 1043.5
1023(28) 0.001276 882.2 1044.4
1019(28) 0.001276 882.1 1039.1
1038(28) 0.001276 882.0 1029.2
1039(28) 0.001276 881.8 1016.9
1029(28) 0.001276 881.7 1003.9
1027(28) 0.001276 881.5 991.6
989(28) 0.001276 881.4 980.6
947(27) 0.001372 881.3 971.1
938(27) 0.001372 881.1 963.3
934(27) 0.001372 881.0 957.5
1005(28) 0.001276 880.8 954.3
981(28) 0.001276 880.7 953.8
948(27) 0.001372 880.5 956.4
993(28) 0.001276 880.4 962.4
1040(28) 0.001276 880.3 971.9
974(27) 0.001372 880.1 984.9
1031(28) 0.001276 880.0 1001.0
1009(28) 0.001276 879.8 1019.5
1032(28) 0.001276 879.7 1039.2
1036(28) 0.001276 879.6 1058.3
1052(29) 0.001189 879.4 1074.4
1063(29) 0.001189 879.3 1085.6
1112(29) 0.001189 879.1 1091.2
1080(29) 0.001189 879.0 1092.7
1099(29) 0.001189 878.8 1092.6
1115(29) 0.001189 878.7 1093.2
1111(29) 0.001189 878.6 1096.1
1094(29) 0.001189 878.4 1101.8
1152(30) 0.001111 878.3 1110.2
1124(30) 0.001111 878.1 1121.0
1123(30) 0.001111 878.0 1134.2
1150(30) 0.001111 877.9 1149.7
1150(30) 0.001111 877.7 1166.4
1170(30) 0.001111 877.6 1181.8
1146(30) 0.001111 877.4 1192.2
1182(30) 0.001111 877.3 1193.8
1191(30) 0.001111 877.1 1184.9
1167(30) 0.001111 877.0 1167.0
1105(29) 0.001189 876.9 1144.2
1066(29) 0.001189 876.7 1121.3
1034(28) 0.001276 876.6 1102.0
1096(29) 0.001189 876.4 1089.3
1109(29) 0.001189 876.3 1084.7
1147(30) 0.001111 876.2 1089.0
1122(29) 0.001189 876.0 1101.8
1155(30) 0.001111 875.9 1121.6
1105(29) 0.001189 875.7 1145.8
1144(30) 0.001111 875.6 1170.5
1180(30) 0.001111 875.4 1190.8
1252(31) 0.001041 875.3 1201.7
1199(30) 0.001111 875.2 1200.0
1177(30) 0.001111 875.0 1186.2
1182(30) 0.001111 874.9 1163.5
1127(30) 0.001111 874.7 1136.5
1124(30) 0.001111 874.6 1108.8
1086(29) 0.001189 874.4 1082.9
1116(29) 0.001189 874.3 1060.1
1094(29) 0.001189 874.2 1040.8
986(28) 0.001276 874.0 1025.2
1005(29) 0.001189 873.9 1013.4
1023(29) 0.001189 873.7 1004.9
974(28) 0.001276 873.6 999.0
1012(29) 0.001189 873.4 994.5
979(28) 0.001276 873.3 990.2
974(28) 0.001276 873.2 985.3
993(29) 0.001189 873.0 979.3
1022(29) 0.001189 872.9 972.9
972(28) 0.001276 872.7 967.0
923(27) 0.001372 872.6 962.3
1038(29) 0.001189 872.4 959.6
1020(29) 0.001189 872.3 959.4
952(28) 0.001276 872.2 961.9
1004(29) 0.001189 872.0 967.1
1012(29) 0.001189 871.9 974.6
964(28) 0.001276 871.7 983.8
973(28) 0.001276 871.6 993.8
972(28) 0.001276 871.4 1003.2
1069(30) 0.001111 871.3 1010.5
1070(30) 0.001111 871.2 1014.4
1072(30) 0.001111 871.0 1014.8
1053(29) 0.001189 870.9 1012.5
993(29) 0.001189 870.7 1009.0
1043(29) 0.001189 870.6 1006.0
1036(29) 0.001189 870.4 1004.7
969(28) 0.001276 870.3 1005.8
1030(29) 0.001189 870.2 1010.1
1026(29) 0.001189 870.0 1017.8
1073(30) 0.001111 869.9 1029.5
1020(29) 0.001189 869.7 1045.4
1045(29) 0.001189 869.6 1065.3
1095(30) 0.001111 869.4 1088.8
1128(30) 0.001111 869.3 1114.7
1177(31) 0.001041 869.1 1141.7
1172(31) 0.001041 869.0 1169.0
1242(32) 0.000977 868.9 1196.4
1241(32) 0.000977 868.7 1223.5
1271(32) 0.000977 868.6 1249.4
1243(32) 0.000977 868.4 1271.4
1282(32) 0.000977 868.3 1285.3
1202(31) 0.001041 868.1 1287.1
1323(33) 0.000918 868.0 1275.0
1224(32) 0.000977 867.8 1250.4
1202(31) 0.001041 867.7 1217.8
1224(32) 0.000977 867.6 1182.1
1184(31) 0.001041 867.4 1147.5
1142(31) 0.001041 867.3 1116.9
1111(30) 0.001111 867.1 1091.7
1059(29) 0.001189 867.0 1072.7
1096(30) 0.001111 866.8 1059.9
1104(30) 0.001111 866.7 1052.7
1044(29) 0.001189 866.5 1050.1
1025(29) 0.001189 866.4 1050.3
1043(29) 0.001189 866.3 1051.3
1061(30) 0.001111 866.1 1050.6
978(28) 0.001276 866.0 1046.9
1016(29) 0.001189 865.8 1039.7
1069(30) 0.001111 865.7 1029.9
1009(29) 0.001189 865.5 1018.7
1034(29) 0.001189 865.4 1007.1
1023(29) 0.001189 865.2 995.7
997(29) 0.001189 865.1 984.8
1006(29) 0.001189 864.9 974.4
1005(29) 0.001189 864.8 964.7
927(28) 0.001276 864.7 956.2
925(28) 0.001276 864.5 949.3
956(28) 0.001276 864.4 944.3
934(28) 0.001276 864.2 941.5
991(29) 0.001189 864.1 940.9
930(28) 0.001276 863.9 942.7
968(28) 0.001276 863.8 946.7
918(27) 0.001372 863.6 952.8
943(28) 0.001276 863.5 960.6
962(28) 0.001276 863.3 969.7
939(28) 0.001276 863.2 979.4
958(28) 0.001276 863.1 988.9
957(28) 0.001276 862.9 997.5
1010(29) 0.001189 862.8 1004.9
991(29) 0.001189 862.6 1011.5
1003(29) 0.001189 862.5 1017.6
1051(29) 0.001189 862.3 1023.5
1036(29) 0.001189 862.2 1028.9
999(29) 0.001189 862.0 1033.4
1022(29) 0.001189 861.9 1036.4
1098(30) 0.001111 861.7 1037.9
1018(29) 0.001189 861.6 1038.6
1051(29) 0.001189 861.4 1039.6
1012(29) 0.001189 861.3 1042.1
1060(29) 0.001189 861.1 1046.7
1100(30) 0.001111 861.0 1053.6
1104(30) 0.001111 860.9 1062.6
1092(30) 0.001111 860.7 1073.4
1090(30) 0.001111 860.6 1085.9
1148(31) 0.001041 860.4 1099.7
1125(30) 0.001111 860.3 1114.0
1096(30) 0.001111 860.1 1127.1
1150(31) 0.001041 860.0 1136.9
1155(31) 0.001041 859.8 1141.3
1115(30) 0.001111 859.7 1139.1
1147(31) 0.001041 859.5 1130.9
1083(30) 0.001111 859.4 1118.9
1155(31) 0.001041 859.2 1105.7
1061(30) 0.001111 859.1 1093.2
1064(30) 0.001111 858.9 1083.1
1049(30) 0.001111 858.8 1075.9
1062(30) 0.001111 858.6 1072.1
1094(30) 0.001111 858.5 1071.6
1051(30) 0.001111 858.3 1074.3
1042(30) 0.001111 858.2 1079.7
1108(30) 0.001111 858.0 1086.6
1077(30) 0.001111 857.9 1093.3
1083(30) 0.001111 857.8 1097.7
1068(30) 0.001111 857.6 1098.4
1069(30) 0.001111 857.5 1095.1
1099(30) 0.001111 857.3 1088.4
1070(30) 0.001111 857.2 1079.5
1041(30) 0.001111 857.0 1069.1
1025(29) 0.001189 856.9 1057.7
1067(30) 0.001111 856.7 1045.0
1023(29) 0.001189 856.6 1030.8
1009(29) 0.001189 856.4 1015.2
987(29) 0.001189 856.3 998.7
953(28) 0.001276 856.1 982.3
934(28) 0.001276 856.0 966.8
926(28) 0.001276 855.8 952.8
966(28) 0.001276 855.7 940.7
905(28) 0.001276 855.5 930.5
911(28) 0.001276 855.4 922.5
873(27) 0.001372 855.2 916.5
878(27) 0.001372 855.1 912.4
891(27) 0.001372 854.9 910.1
827(26) 0.001479 854.8 909.6
887(27) 0.001372 854.6 910.7
859(27) 0.001372 854.5 913.3
899(27) 0.001372 854.3 917.6
876(27) 0.001372 854.2 923.2
953(28) 0.001276 854.0 930.3
973(29) 0.001189 853.9 938.8
931(28) 0.001276 853.7 948.3
932(28) 0.001276 853.6 958.7
976(29) 0.001189 853.4 969.6
991(29) 0.001189 853.3 980.8
975(29) 0.001189 853.1 992.3
965(28) 0.001276 853.0 1004.0
980(29) 0.001189 852.8 1015.6
1006(29) 0.001189 852.7 1026.7
929(28) 0.001276 852.5 1036.4
1013(29) 0.001189 852.4 1043.7
1060(30) 0.001111 852.2 1047.8
1057(30) 0.001111 852.1 1048.9
1067(30) 0.001111 851.9 1047.4
1051(30) 0.001111 851.8 1044.2
1028(29) 0.001189 851.7 1039.9
993(29) 0.001189 851.5 1034.3
972(29) 0.001189 851.4 1027.5
949(28) 0.001276 851.2 1019.1
938(28) 0.001276 851.1 1009.5
980(29) 0.001189 850.9 999.6
957(28) 0.001276 850.8 990.2
999(29) 0.001189 850.6 982.5
955(28) 0.001276 850.5 977.1
980(29) 0.001189 850.3 974.7
974(29) 0.001189 850.2 975.2
999(29) 0.001189 850.0 978.7
963(28) 0.001276 849.9 984.8
1000(29) 0.001189 849.7 992.7
1043(30) 0.001111 849.6 1001.5
1020(29) 0.001189 849.4 1010.0
982(29) 0.001189 849.3 1016.5
1015(29) 0.001189 849.1 1020.0
982(29) 0.001189 849.0 1019.8
1045(30) 0.001111 848.8 1016.2
1000(29) 0.001189 848.7 1010.0
943(28) 0.001276 848.5 1002.3
992(29) 0.001189 848.4 993.9
947(28) 0.001276 848.2 985.4
957(28) 0.001276 848.1 977.3
932(28) 0.001276 847.9 969.9
907(28) 0.001276 847.8 963.5
943(28) 0.001276 847.6 958.8
955(28) 0.001276 847.5 956.2
933(28) 0.001276 847.3 956.2
946(28) 0.001276 847.2 959.2
981(29) 0.001189 847.0 965.4
919(28) 0.001276 846.9 975.1
939(28) 0.001276 846.7 988.3
970(29) 0.001189 846.6 1005.2
991(29) 0.001189 846.4 1025.4
1054(30) 0.001111 846.3 1048.8
1054(30) 0.001111 846.1 1074.4
1120(31) 0.001041 846.0 1101.7
1118(31) 0.001041 845.8 1129.7
1159(31) 0.001041 845.7 1157.9
1161(31) 0.001041 845.5 1186.1
1176(31) 0.001041 845.4 1213.9
1226(32) 0.000977 845.2 1240.2
1254(32) 0.000977 845.1 1263.1
1251(32) 0.000977 844.9 1280.4
1246(32) 0.000977 844.8 1290.2
1264(33) 0.000918 844.6 1291.7
1278(32) 0.000977 844.5 1285.8
1282(32) 0.000977 844.3 1274.5
1269(32) 0.000977 844.2 1259.9
1212(31) 0.001041 844.0 1243.3
1269(32) 0.000977 843.9 1225.2
1205(31) 0.001041 843.7 1205.8
1186(30) 0.001111 843.6 1185.1
1118(30) 0.001111 843.4 1163.7
1115(30) 0.001111 843.3 1142.8
1115(30) 0.001111 843.1 1123.4
1098(29) 0.001189 843.0 1106.0
1100(29) 0.001189 842.8 1090.9
1094(29) 0.001189 842.7 1077.9
1024(28) 0.001276 842.5 1066.8
1064(29) 0.001189 842.4 1057.4
1038(28) 0.001276 842.2 1049.7
991(28) 0.001276 842.1 1043.8
1002(28) 0.001276 841.9 1039.6
1035(28) 0.001276 841.8 1036.7
1039(28) 0.001276 841.6 1034.4
1084(29) 0.001189 841.5 1032.2
1029(28) 0.001276 841.3 1030.0
1026(28) 0.001276 841.2 1027.7
1010(28) 0.001276 841.0 1025.5
1062(29) 0.001189 840.9 1023.4
981(28) 0.001276 840.8 1021.3
1040(29) 0.001189 840.6 1018.9
1009(28) 0.001276 840.5 1015.7
979(28) 0.001276 840.3 1011.6
1045(29) 0.001189 840.2 1006.5
990(28) 0.001276 840.0 1000.9
951(27) 0.001372 839.9 995.0
968(27) 0.001372 839.7 989.2
992(28) 0.001276 839.6 983.2
998(28) 0.001276 839.4 977.1
946(27) 0.001372 839.3 970.9
1000(28) 0.001276 839.1 964.7
964(27) 0.001372 839.0 959.1
974(28) 0.001276 838.8 954.5
950(27) 0.001372 838.7 951.4
993(28) 0.001276 838.5 950.2
1021(28) 0.001276 838.4 951.1
985(28) 0.001276 838.2 954.2
984(28) 0.001276 838.1 959.3
994(28) 0.001276 838.0 966.2
976(28) 0.001276 837.8 974.4
1011(28) 0.001276 837.7 983.4
1016(28) 0.001276 837.5 992.4
1001(28) 0.001276 837.4 1000.7
1023(28) 0.001276 837.2 1007.5
1019(28) 0.001276 837.1 1012.8
1013(28) 0.001276 836.9 1016.6
1013(28) 0.001276 836.8 1019.8
1060(29) 0.001189 836.6 1022.9
1099(29) 0.001189 836.5 1026.4
1055(29) 0.001189 836.3 1030.6
1097(29) 0.001189 836.2 1035.6
1092(29) 0.001189 836.1 1041.3
1101(29) 0.001189 835.9 1047.9
1108(29) 0.001189 835.8 1055.3
1114(30) 0.001111 835.6 1063.3
1062(29) 0.001189 835.5 1071.5
1101(29) 0.001189 835.3 1079.1
1127(30) 0.001111 835.2 1085.2
1103(29) 0.001189 835.0 1089.1
1115(30) 0.001111 834.9 1090.7
1110(29) 0.001189 834.8 1090.4
1133(30) 0.001111 834.6 1088.6
1093(29) 0.001189 834.5 1086.0
1126(30) 0.001111 834.3 1082.6
1112(29) 0.001189 834.2 1078.5
1113(30) 0.001111 834.0 1073.5
1057(29) 0.001189 833.9 1067.6
1096(29) 0.001189 833.7 1061.4
1075(29) 0.001189 833.6 1055.3
1019(28) 0.001276 833.5 1049.9
1053(29) 0.001189 833.3 1045.5
1048(29) 0.001189 833.2 1042.1
1086(29) 0.001189 833.0 1039.8
1067(29) 0.001189 832.9 1038.3
1019(28) 0.001276 832.7 1037.8
1014(28) 0.001276 832.6 1038.3
1020(28) 0.001276 832.5 1039.8
1073(29) 0.001189 832.3 1042.1
1110(29) 0.001189 832.2 1045.0
1071(29) 0.001189 832.0 1047.7
1094(29) 0.001189 831.9 1050.0
1102(29) 0.001189 831.8 1051.5
1048(29) 0.001189 831.6 1052.4
1096(29) 0.001189 831.5 1052.8
1089(29) 0.001189 831.3 1052.8
1106(29) 0.001189 831.2 1052.1
1017(28) 0.001276 831.0 1050.8
1014(28) 0.001276 830.9 1048.6
1080(29) 0.001189 830.8 1045.7
1014(28) 0.001276 830.6 1042.7
1030(28) 0.001276 830.5 1040.5
1041(29) 0.001189 830.4 1040.2
1061(29) 0.001189 830.2 1042.8
1056(40) 0.000625 830. 1049.
1064(29) 0.001189 829.9 1059.3
1087(29) 0.001189 829.8 1073.9
1064(29) 0.001189 829.7 1092.6
1094(29) 0.001189 829.5 1114.8
1142(30) 0.001111 829.4 1139.7
1139(30) 0.001111 829.2 1165.9
1153(30) 0.001111 829.1 1191.7
1181(30) 0.001111 829.0 1215.2
1213(31) 0.001041 828.8 1234.9
1257(31) 0.001041 828.7 1250.0
1267(32) 0.000977 828.6 1260.4
1271(32) 0.000977 828.4 1267.0
1293(32) 0.000977 828.3 1270.1
1308(32) 0.000977 828.1 1270.0
1292(32) 0.000977 828.0 1266.4
1275(32) 0.000977 827.9 1259.0
1299(32) 0.000977 827.7 1247.5
1217(31) 0.001041 827.6 1232.3
1242(31) 0.001041 827.5 1214.4
1201(31) 0.001041 827.3 1194.9
1162(30) 0.001111 827.2 1174.8
1125(30) 0.001111 827.1 1154.5
1135(30) 0.001111 826.9 1134.3
1086(29) 0.001189 826.8 1114.1
1089(29) 0.001189 826.7 1094.0
1095(29) 0.001189 826.5 1074.6
1088(29) 0.001189 826.4 1056.1
1073(29) 0.001189 826.3 1039.2
1035(28) 0.001276 826.1 1024.1
1020(28) 0.001276 826.0 1010.9
1023(28) 0.001276 825.9 999.4
999(28) 0.001276 825.7 989.7
981(28) 0.001276 825.6 981.5
980(28) 0.001276 825.5 974.6
954(27) 0.001372 825.3 968.7
950(27) 0.001372 825.2 963.7
950(27) 0.001372 825.1 959.0
964(28) 0.001276 824.9 954.3
965(28) 0.001276 824.8 949.3
959(27) 0.001372 824.7 943.9
947(27) 0.001372 824.6 938.1
951(27) 0.001372 824.4 932.1
924(27) 0.001372 824.3 926.1
941(27) 0.001372 824.2 920.5
921(27) 0.001372 824.0 915.4
922(27) 0.001372 823.9 910.9
911(27) 0.001372 823.8 906.9
899(27) 0.001372 823.7 903.6
939(27) 0.001372 823.5 901.0
939(27) 0.001372 823.4 898.8
892(26) 0.001479 823.3 897.1
928(27) 0.001372 823.2 895.8
916(27) 0.001372 823.0 894.6
901(27) 0.001372 822.9 893.6
919(27) 0.001372 822.8 892.6
881(26) 0.001479 822.6 891.9
905(27) 0.001372 822.5 891.4
892(26) 0.001479 822.4 891.4
886(26) 0.001479 822.3 892.1
921(27) 0.001372 822.2 893.6
887(26) 0.001479 822.0 896.0
879(26) 0.001479 821.9 899.5
899(27) 0.001372 821.8 904.1
892(26) 0.001479 821.7 909.9
920(27) 0.001372 821.5 916.9
915(27) 0.001372 821.4 925.1
933(27) 0.001372 821.3 934.2
961(27) 0.001372 821.2 944.2
920(27) 0.001372 821.0 955.0
953(27) 0.001372 820.9 966.4
994(28) 0.001276 820.8 978.3
979(28) 0.001276 820.7 990.8
931(27) 0.001372 820.6 1003.6
964(27) 0.001372 820.4 1016.4
1008(28) 0.001276 820.3 1028.9
1016(28) 0.001276 820.2 1040.8
1025(28) 0.001276 820.1 1052.0
1066(29) 0.001189 820.0 1062.6
1012(28) 0.001276 819.9 1073.0
1052(29) 0.001189 819.7 1083.6
1135(30) 0.001111 819.6 1094.7
1146(30) 0.001111 819.5 1106.3
1176(30) 0.001111 819.4 1118.3
1176(30) 0.001111 819.3 1130.5
1149(30) 0.001111 819.2 1142.4
1154(30) 0.001111 819.0 1153.8
1184(30) 0.001111 818.9 1164.3
1192(31) 0.001041 818.8 1173.5
1166(30) 0.001111 818.7 1180.5
1157(30) 0.001111 818.6 1184.1
1170(30) 0.001111 818.5 1183.6
1170(30) 0.001111 818.4 1178.4
1161(30) 0.001111 818.2 1168.7
1145(30) 0.001111 818.1 1155.5
1154(30) 0.001111 818.0 1140.2
1142(30) 0.001111 817.9 1124.3
1107(29) 0.001189 817.8 1109.3
1128(30) 0.001111 817.7 1096.2
1110(30) 0.001111 817.6 1085.6
1115(30) 0.001111 817.5 1077.7
1075(29) 0.001189 817.4 1072.7
1068(29) 0.001189 817.2 1070.0
1082(29) 0.001189 817.1 1068.9
1067(29) 0.001189 817.0 1068.4
1066(29) 0.001189 816.9 1067.4
1050(29) 0.001189 816.8 1064.7
1023(28) 0.001276 816.7 1059.4
1046(29) 0.001189 816.6 1051.1
996(28) 0.001276 816.5 1040.0
988(28) 0.001276 816.4 1026.6
980(28) 0.001276 816.3 1011.7
985(28) 0.001276 816.2 996.1
995(28) 0.001276 816.1 980.5
963(28) 0.001276 816.0 965.3
900(27) 0.001372 815.9 951.0
936(27) 0.001372 815.8 938.0
935(27) 0.001372 815.7 926.4
930(27) 0.001372 815.6 916.4
907(27) 0.001372 815.4 908.1
918(27) 0.001372 815.3 901.6
905(27) 0.001372 815.2 896.8
858(26) 0.001479 815.1 893.7
881(26) 0.001479 815.0 892.4
919(27) 0.001372 814.9 892.6
909(27) 0.001372 814.8 894.5
877(26) 0.001479 814.7 897.8
899(27) 0.001372 814.6 902.6
916(27) 0.001372 814.5 908.9
912(27) 0.001372 814.4 916.4
912(27) 0.001372 814.4 925.1
903(27) 0.001372 814.3 934.8
938(27) 0.001372 814.2 945.4
931(27) 0.001372 814.1 956.5
952(27) 0.001372 814.0 967.9
988(28) 0.001276 813.9 979.0
1002(28) 0.001276 813.8 989.4
995(28) 0.001276 813.7 998.7
974(28) 0.001276 813.6 1006.5
1036(29) 0.001189 813.5 1012.8
1021(28) 0.001276 813.4 1017.6
1077(29) 0.001189 813.3 1021.2
1046(29) 0.001189 813.2 1023.9
1042(29) 0.001189 813.1 1025.6
1022(28) 0.001276 813.0 1026.6
1008(28) 0.001276 812.9 1026.7
999(28) 0.001276 812.9 1026.3
957(27) 0.001372 812.8 1025.3
999(28) 0.001276 812.7 1024.3
1039(29) 0.001189 812.6 1023.6
1008(28) 0.001276 812.5 1023.4
1015(28) 0.001276 812.4 1023.9
1027(28) 0.001276 812.3 1025.1
1036(29) 0.001189 812.2 1027.1
1043(29) 0.001189 812.1 1029.7
1061(29) 0.001189 812.1 1032.8
1029(28) 0.001276 812.0 1036.4
1048(29) 0.001189 811.9 1040.2
1039(29) 0.001189 811.8 1043.8
1058(29) 0.001189 811.7 1046.8
1066(29) 0.001189 811.6 1048.7
1069(29) 0.001189 811.6 1049.1
1054(29) 0.001189 811.5 1047.7
1074(29) 0.001189 811.4 1044.6
1057(29) 0.001189 811.3 1040.0
1082(29) 0.001189 811.2 1034.0
1062(29) 0.001189 811.1 1026.9
1046(29) 0.001189 811.1 1018.7
1018(28) 0.001276 811.0 1009.6
1015(28) 0.001276 810.9 999.3
990(28) 0.001276 810.8 988.2
991(28) 0.001276 810.7 976.4
989(28) 0.001276 810.7 964.3
978(28) 0.001276 810.6 952.3
958(27) 0.001372 810.5 940.6
956(27) 0.001372 810.4 929.6
951(27) 0.001372 810.4 919.3
914(27) 0.001372 810.3 909.9
901(27) 0.001372 810.2 901.4
891(27) 0.001372 810.1 893.9
865(26) 0.001479 810.1 887.5
885(26) 0.001479 810.0 882.0
909(27) 0.001372 809.9 877.8
880(26) 0.001479 809.8 874.5
831(26) 0.001479 809.8 872.3
845(26) 0.001479 809.7 871.2
855(26) 0.001479 809.6 871.1
911(27) 0.001372 809.6 872.1
899(27) 0.001372 809.5 874.1
872(26) 0.001479 809.4 877.1
885(26) 0.001479 809.4 881.1
905(27) 0.001372 809.3 885.9
888(27) 0.001372 809.2 891.7
912(27) 0.001372 809.2 898.2
900(27) 0.001372 809.1 905.4
930(27) 0.001372 809.0 913.1
914(27) 0.001372 809.0 921.1
922(27) 0.001372 808.9 929.2
954(27) 0.001372 808.8 936.9
918(27) 0.001372 808.8 944.0
946(27) 0.001372 808.7 950.2
924(28) 0.001276 808.6 955.4
957(28) 0.001276 808.6 959.3
943(28) 0.001276 808.5 962.1
948(28) 0.001276 808.4 963.8
968(29) 0.001189 808.4 964.5
968(29) 0.001189 808.3 964.1
917(28) 0.001276 808.3 962.5
936(28) 0.001276 808.2 959.9
912(28) 0.001276 808.1 956.1
925(28) 0.001276 808.1 951.5
965(28) 0.001276 808.0 946.3
934(28) 0.001276 808.0 940.8
940(28) 0.001276 807.9 935.4
930(28) 0.001276 807.9 930.2
928(28) 0.001276 807.8 925.4
927(28) 0.001276 807.8 921.3
877(27) 0.001372 807.7 917.8
877(27) 0.001372 807.6 915.1
904(28) 0.001276 807.6 913.2
909(28) 0.001276 807.5 912.2
912(28) 0.001276 807.5 911.8
962(28) 0.001276 807.4 912.1
933(28) 0.001276 807.4 912.8
942(28) 0.001276 807.3 914.0
897(27) 0.001372 807.3 915.3
912(28) 0.001276 807.2 916.7
909(28) 0.001276 807.2 918.0
952(28) 0.001276 807.1 919.1
897(27) 0.001372 807.1 919.9
934(28) 0.001276 807.0 920.0
874(27) 0.001372 807.0 919.3
920(28) 0.001276 806.9 917.7
904(28) 0.001276 806.9 915.1
895(27) 0.001372 806.9 911.7
905(28) 0.001276 806.8 907.4
877(27) 0.001372 806.8 902.6
880(27) 0.001372 806.7 897.5
856(27) 0.001372 806.7 892.4
884(27) 0.001372 806.6 887.4
902(28) 0.001276 806.6 882.7
853(27) 0.001372 806.6 878.4
896(27) 0.001372 806.5 874.6
875(27) 0.001372 806.5 871.4
858(27) 0.001372 806.4 868.9
876(27) 0.001372 806.4 867.0
826(26) 0.001479 806.4 865.9
864(27) 0.001372 806.3 865.6
852(27) 0.001372 806.3 866.0
863(27) 0.001372 806.2 867.3
868(27) 0.001372 806.2 869.5
900(28) 0.001276 806.2 872.6
913(28) 0.001276 806.1 876.7
860(27) 0.001372 806.1 881.9
895(27) 0.001372 806.1 888.2
876(27) 0.001372 806.0 895.7
878(27) 0.001372 806.0 904.5
904(28) 0.001276 806.0 914.6
927(28) 0.001276 805.9 926.1
942(28) 0.001276 805.9 939.0
946(28) 0.001276 805.9 953.2
957(28) 0.001276 805.8 968.7
1011(29) 0.001189 805.8 985.4
994(29) 0.001189 805.8 1003.0
1044(30) 0.001111 805.7 1021.4
1056(30) 0.001111 805.7 1040.4
1027(29) 0.001189 805.7 1059.7
1117(31) 0.001041 805.7 1079.0
1153(31) 0.001041 805.6 1098.1
1145(31) 0.001041 805.6 1116.6
1124(31) 0.001041 805.6 1134.0
1216(32) 0.000977 805.6 1149.7
1151(31) 0.001041 805.5 1163.3
1135(31) 0.001041 805.5 1174.5
1160(31) 0.001041 805.5 1183.2
1175(31) 0.001041 805.5 1189.5
1201(32) 0.000977 805.4 1194.0
1227(32) 0.000977 805.4 1196.8
1192(32) 0.000977 805.4 1198.6
1147(31) 0.001041 805.4 1199.5
1172(31) 0.001041 805.4 1199.6
1259(32) 0.000977 805.3 1199.2
1219(32) 0.000977 805.3 1198.1
1194(32) 0.000977 805.3 1196.6
1175(31) 0.001041 805.3 1194.6
1200(32) 0.000977 805.3 1192.0
1218(32) 0.000977 805.2 1188.8
1195(32) 0.000977 805.2 1184.7
1184(31) 0.001041 805.2 1179.4
1185(31) 0.001041 805.2 1172.7
1170(31) 0.001041 805.2 1164.3
1205(32) 0.000977 805.2 1154.3
1206(32) 0.000977 805.1 1143.1
1094(30) 0.001111 805.1 1130.9
1169(31) 0.001041 805.1 1118.0
1136(31) 0.001041 805.1 1104.9
1140(31) 0.001041 805.1 1091.8
1058(30) 0.001111 805.1 1078.9
1073(30) 0.001111 805.1 1066.2
1098(30) 0.001111 805.1 1054.0
1067(24) 0.001736 805.0 1042.3
989(30) 0.001111 805.0 1031.2
1050(30) 0.001111 805.0 1020.8
1001(30) 0.001111 805.0 1011.1
983(30) 0.001111 805.0 1002.1
1010(30) 0.001111 805.0 993.9
1003(30) 0.001111 805.0 986.3
960(29) 0.001189 805.0 979.3
959(29) 0.001189 805.0 973.2
956(29) 0.001189 805.0 967.9
935(29) 0.001189 805.0 963.7
985(30) 0.001111 805.0 960.7
939(29) 0.001189 805.0 959.1
945(29) 0.001189 805.0 959.0
951(29) 0.001189 805.0 960.4
939(29) 0.001189 804.9 963.4
957(29) 0.001189 804.9 968.1
980(29) 0.001189 804.9 974.2
947(29) 0.001189 804.9 981.8
962(29) 0.001189 804.9 990.6
1015(30) 0.001111 804.9 1000.5
987(30) 0.001111 804.9 1011.1
1064(31) 0.001041 804.9 1022.2
1016(30) 0.001111 804.9 1033.4
1016(30) 0.001111 804.9 1044.5
1046(30) 0.001111 804.9 1055.2
1104(31) 0.001041 804.9 1065.2
1075(31) 0.001041 804.9 1074.1
1066(31) 0.001041 805.0 1081.5
1090(31) 0.001041 805.0 1087.0
1045(30) 0.001111 805.0 1090.1
1102(31) 0.001041 805.0 1090.7
1061(31) 0.001041 805.0 1088.7
1057(31) 0.001041 805.0 1084.1
1061(31) 0.001041 805.0 1077.3
1091(31) 0.001041 805.0 1068.8
1087(31) 0.001041 805.0 1059.0
1055(31) 0.001041 805.0 1048.4
1067(31) 0.001041 805.0 1037.5
1029(30) 0.001111 805.0 1026.6
971(29) 0.001189 805.0 1015.9
972(29) 0.001189 805.0 1005.6
1051(31) 0.001041 805.0 996.0
982(30) 0.001111 805.1 987.2
972(29) 0.001189 805.1 979.2
968(29) 0.001189 805.1 972.0
992(30) 0.001111 805.1 965.6
940(29) 0.001189 805.1 960.1
979(29) 0.001189 805.1 955.3
925(29) 0.001189 805.1 951.4
966(29) 0.001189 805.1 948.2
995(30) 0.001111 805.1 945.8
957(29) 0.001189 805.2 944.4
942(29) 0.001189 805.2 943.9
974(29) 0.001189 805.2 944.5
997(30) 0.001111 805.2 946.2
921(29) 0.001189 805.2 949.0
1003(30) 0.001111 805.2 952.9
975(29) 0.001189 805.2 957.7
980(30) 0.001111 805.3 963.5
960(29) 0.001189 805.3 970.0
988(30) 0.001111 805.3 977.0
993(30) 0.001111 805.3 984.3
1004(30) 0.001111 805.3 991.6
1053(31) 0.001041 805.3 998.5
1075(31) 0.001041 805.4 1005.0
1006(30) 0.001111 805.4 1010.7
1025(30) 0.001111 805.4 1015.4
1030(30) 0.001111 805.4 1019.1
1044(30) 0.001111 805.4 1021.8
1031(30) 0.001111 805.5 1023.2
1051(31) 0.001041 805.5 1023.4
1020(30) 0.001111 805.5 1022.2
1048(30) 0.001111 805.5 1019.7
1037(30) 0.001111 805.5 1015.7
1005(30) 0.001111 805.6 1010.4
999(30) 0.001111 805.6 1003.9
986(30) 0.001111 805.6 996.6
989(30) 0.001111 805.6 988.7
969(29) 0.001189 805.7 980.6
965(29) 0.001189 805.7 972.6
958(29) 0.001189 805.7 965.0
978(29) 0.001189 805.7 958.2
940(29) 0.001189 805.8 952.2
945(29) 0.001189 805.8 947.2
968(29) 0.001189 805.8 943.4
995(30) 0.001111 805.8 940.8
999(30) 0.001111 805.9 939.5
935(29) 0.001189 805.9 939.4
973(29) 0.001189 805.9 940.5
956(29) 0.001189 805.9 942.7
954(29) 0.001189 806.0 945.9
946(29) 0.001189 806.0 950.1
949(29) 0.001189 806.0 955.1
915(29) 0.001189 806.0 960.8
950(29) 0.001189 806.1 967.1
963(29) 0.001189 806.1 973.7
926(29) 0.001189 806.1 980.4
1014(30) 0.001111 806.2 987.1
973(29) 0.001189 806.2 993.6
979(29) 0.001189 806.2 999.7
966(28) 0.001276 806.3 1005.4
953(28) 0.001276 806.3 1010.6
1008(29) 0.001189 806.3 1015.4
1015(29) 0.001189 806.3 1019.9
1013(29) 0.001189 806.4 1024.0
996(29) 0.001189 806.4 1028.0
1034(29) 0.001189 806.4 1031.8
1107(30) 0.001111 806.5 1035.5
1070(30) 0.001111 806.5 1039.0
1077(30) 0.001111 806.5 1042.4
1093(30) 0.001111 806.6 1045.6
1087(30) 0.001111 806.6 1048.6
1058(30) 0.001111 806.6 1051.4
1026(29) 0.001189 806.7 1053.9
1028(29) 0.001189 806.7 1055.9
1079(30) 0.001111 806.7 1057.4
1063(30) 0.001111 806.8 1058.3
1043(30) 0.001111 806.8 1058.4
1115(30) 0.001111 806.8 1057.9
1041(29) 0.001189 806.9 1056.8
1076(30) 0.001111 806.9 1055.2
1054(30) 0.001111 806.9 1053.4
1058(30) 0.001111 807.0 1051.7
1089(30) 0.001111 807.0 1050.0
1058(30) 0.001111 807.0 1048.7
1070(30) 0.001111 807.1 1047.9
1073(30) 0.001111 807.1 1047.4
1046(30) 0.001111 807.1 1047.4
1074(30) 0.001111 807.2 1047.8
1042(29) 0.001189 807.2 1048.3
1064(30) 0.001111 807.3 1048.9
1022(29) 0.001189 807.3 1049.3
1040(29) 0.001189 807.3 1049.3
1016(29) 0.001189 807.4 1048.5
1018(29) 0.001189 807.4 1046.7
1028(29) 0.001189 807.4 1043.8
1016(29) 0.001189 807.5 1039.6
1023(29) 0.001189 807.5 1034.3
987(29) 0.001189 807.5 1027.9
1026(29) 0.001189 807.6 1020.6
985(29) 0.001189 807.6 1012.6
979(29) 0.001189 807.7 1004.2
972(29) 0.001189 807.7 995.7
948(28) 0.001276 807.7 987.1
923(28) 0.001276 807.8 978.7
1000(29) 0.001189 807.8 970.7
993(29) 0.001189 807.9 963.2
914(28) 0.001276 807.9 956.3
940(28) 0.001276 807.9 950.1
927(28) 0.001276 808.0 944.7
897(27) 0.001372 808.0 940.3
937(28) 0.001276 808.0 936.7
881(27) 0.001372 808.1 934.2
923(28) 0.001276 808.1 932.6
908(28) 0.001276 808.2 931.9
968(28) 0.001276 808.2 932.1
880(27) 0.001372 808.2 933.2
891(27) 0.001372 808.3 935.0
854(27) 0.001372 808.3 937.4
916(28) 0.001276 808.4 940.3
933(28) 0.001276 808.4 943.7
958(28) 0.001276 808.4 947.3
899(27) 0.001372 808.5 951.1
897(27) 0.001372 808.5 955.0
961(28) 0.001276 808.6 958.8
951(28) 0.001276 808.6 962.6
920(28) 0.001276 808.6 966.3
980(29) 0.001189 808.7 969.8
973(29) 0.001189 808.7 973.1
986(29) 0.001189 808.8 976.1
926(28) 0.001276 808.8 978.7
964(28) 0.001276 808.8 981.0
974(29) 0.001189 808.9 983.0
987(29) 0.001189 808.9 984.5
980(29) 0.001189 808.9 985.7
972(29) 0.001189 809.0 986.6
950(28) 0.001276 809.0 987.2
973(29) 0.001189 809.1 987.7
975(29) 0.001189 809.1 988.0
958(28) 0.001276 809.1 988.2
1003(29) 0.001189 809.2 988.5
1003(29) 0.001189 809.2 988.8
1000(29) 0.001189 809.3 989.2
989(29) 0.001189 809.3 989.9
999(29) 0.001189 809.3 990.9
995(29) 0.001189 809.4 992.3
1021(29) 0.001189 809.4 994.3
1014(29) 0.001189 809.5 997.0
978(29) 0.001189 809.5 1000.4
1017(29) 0.001189 809.5 1004.7
1004(29) 0.001189 809.6 1009.8
986(29) 0.001189 809.6 1015.8
984(29) 0.001189 809.7 1022.7
1019(29) 0.001189 809.7 1030.5
1045(30) 0.001111 809.7 1039.1
1000(29) 0.001189 809.8 1048.5
1067(30) 0.001111 809.8 1058.5
1088(30) 0.001111 809.9 1069.0
1038(29) 0.001189 809.9 1080.0
1106(43) 0.000541 810. 1091.
1119(30) 0.001111 810.0 1102.4
1105(30) 0.001111 810.0 1113.6
1132(30) 0.001111 810.0 1124.6
1133(30) 0.001111 810.1 1135.4
1177(31) 0.001041 810.1 1145.7
1188(31) 0.001041 810.2 1155.5
1155(30) 0.001111 810.2 1164.4
1172(31) 0.001041 810.2 1172.4
1194(31) 0.001041 810.3 1179.2
1178(31) 0.001041 810.3 1184.8
1153(30) 0.001111 810.3 1188.9
1159(30) 0.001111 810.4 1191.6
1184(31) 0.001041 810.4 1192.8
1172(31) 0.001041 810.5 1192.7
1182(31) 0.001041 810.5 1191.1
1146(30) 0.001111 810.5 1188.2
1194(31) 0.001041 810.6 1184.1
1186(31) 0.001041 810.6 1178.6
1188(31) 0.001041 810.6 1172.0
1177(31) 0.001041 810.7 1164.3
1192(31) 0.001041 810.7 1155.6
1152(30) 0.001111 810.7 1146.2
1120(30) 0.001111 810.8 1136.2
1142(30) 0.001111 810.8 1126.0
1128(30) 0.001111 810.9 1115.7
1113(30) 0.001111 810.9 1105.8
1120(30) 0.001111 810.9 1096.4
1094(30) 0.001111 811.0 1087.7
1059(29) 0.001189 811.0 1079.8
1101(30) 0.001111 811.0 1072.9
1050(29) 0.001189 811.1 1066.9
1060(29) 0.001189 811.1 1061.9
1092(30) 0.001111 811.1 1057.8
1048(29) 0.001189 811.2 1054.5
1072(29) 0.001189 811.2 1051.9
1040(29) 0.001189 811.2 1049.8
1083(29) 0.001189 811.3 1048.1
1070(29) 0.001189 811.3 1046.7
1028(29) 0.001189 811.3 1045.4
1040(29) 0.001189 811.4 1044.2
1056(29) 0.001189 811.4 1043.0
1053(29) 0.001189 811.4 1041.8
1047(29) 0.001189 811.5 1040.6
1011(29) 0.001189 811.5 1039.6
982(28) 0.001276 811.5 1038.6
1011(29) 0.001189 811.6 1037.9
1032(29) 0.001189 811.6 1037.4
998(28) 0.001276 811.6 1037.1
1037(29) 0.001189 811.6 1037.1
1073(29) 0.001189 811.7 1037.5
1055(29) 0.001189 811.7 1038.1
1090(30) 0.001111 811.7 1038.9
1027(29) 0.001189 811.8 1040.1
1070(29) 0.001189 811.8 1041.4
1047(29) 0.001189 811.8 1042.9
1047(29) 0.001189 811.9 1044.6
1052(29) 0.001189 811.9 1046.3
1051(29) 0.001189 811.9 1047.9
1016(29) 0.001189 811.9 1049.6
1059(29) 0.001189 812.0 1051.1
1053(29) 0.001189 812.0 1052.7
1061(29) 0.001189 812.0 1054.2
1028(29) 0.001189 812.1 1055.8
1065(29) 0.001189 812.1 1057.5
1053(29) 0.001189 812.1 1059.2
1055(29) 0.001189 812.1 1061.1
1071(29) 0.001189 812.2 1063.2
1076(29) 0.001189 812.2 1065.4
1073(29) 0.001189 812.2 1067.7
1087(30) 0.001111 812.2 1070.0
1081(29) 0.001189 812.3 1072.3
1072(29) 0.001189 812.3 1074.5
1065(29) 0.001189 812.3 1076.5
1097(30) 0.001111 812.3 1078.2
1088(30) 0.001111 812.4 1079.4
1058(29) 0.001189 812.4 1080.1
1077(29) 0.001189 812.4 1080.0
1089(30) 0.001111 812.4 1079.1
1101(30) 0.001111 812.5 1077.3
1080(29) 0.001189 812.5 1074.5
1026(29) 0.001189 812.5 1070.9
1074(29) 0.001189 812.5 1066.4
1037(29) 0.001189 812.6 1061.2
1036(29) 0.001189 812.6 1055.3
1042(29) 0.001189 812.6 1049.0
1014(29) 0.001189 812.6 1042.3
1052(29) 0.001189 812.7 1035.4
1043(29) 0.001189 812.7 1028.2
1036(29) 0.001189 812.7 1021.1
1003(28) 0.001276 812.7 1013.9
1044(29) 0.001189 812.7 1006.8
1055(29) 0.001189 812.8 999.7
1019(29) 0.001189 812.8 992.9
990(28) 0.001276 812.8 986.3
993(28) 0.001276 812.8 979.8
959(28) 0.001276 812.8 973.6
945(28) 0.001276 812.9 967.6
981(28) 0.001276 812.9 961.9
957(28) 0.001276 812.9 956.4
953(23) 0.001890 812.9 951.2
974(28) 0.001276 812.9 946.3
944(28) 0.001276 813.0 941.6
974(28) 0.001276 813.0 937.3
949(28) 0.001276 813.0 933.3
953(28) 0.001276 813.0 929.8
944(28) 0.001276 813.0 926.7
934(27) 0.001372 813.1 924.1
925(27) 0.001372 813.1 922.0
930(27) 0.001372 813.1 920.5
939(27) 0.001372 813.1 919.5
964(28) 0.001276 813.1 919.1
952(28) 0.001276 813.1 919.3
925(27) 0.001372 813.2 920.0
937(27) 0.001372 813.2 921.4
934(27) 0.001372 813.2 923.4
961(28) 0.001276 813.2 925.9
959(28) 0.001276 813.2 928.9
980(28) 0.001276 813.2 932.5
964(28) 0.001276 813.3 936.6
962(28) 0.001276 813.3 941.1
968(28) 0.001276 813.3 945.9
983(28) 0.001276 813.3 951.1
985(28) 0.001276 813.3 956.6
997(28) 0.001276 813.3 962.2
977(28) 0.001276 813.3 967.9
973(28) 0.001276 813.4 973.5
1006(28) 0.001276 813.4 979.0
1001(28) 0.001276 813.4 984.2
978(28) 0.001276 813.4 989.1
1008(28) 0.001276 813.4 993.6
982(28) 0.001276 813.4 997.7
968(28) 0.001276 813.5 1001.2
994(28) 0.001276 813.5 1004.2
1012(28) 0.001276 813.5 1006.7
1036(29) 0.001189 813.5 1008.7
1050(29) 0.001189 813.5 1010.2
1061(29) 0.001189 813.5 1011.2
1050(29) 0.001189 813.5 1011.9
1013(28) 0.001276 813.6 1012.1
1023(29) 0.001189 813.6 1012.0
1023(29) 0.001189 813.6 1011.5
1016(29) 0.001189 813.6 1010.7
1010(28) 0.001276 813.6 1009.6
998(28) 0.001276 813.6 1008.2
1006(28) 0.001276 813.6 1006.5
981(28) 0.001276 813.6 1004.5
1007(28) 0.001276 813.7 1002.4
1016(29) 0.001189 813.7 1000.0
1000(28) 0.001276 813.7 997.4
977(28) 0.001276 813.7 994.7
1039(29) 0.001189 813.7 991.7
1035(29) 0.001189 813.7 988.6
995(28) 0.001276 813.7 985.4
963(28) 0.001276 813.8 982.1
995(28) 0.001276 813.8 978.7
1014(28) 0.001276 813.8 975.4
1020(29) 0.001189 813.8 972.2
995(28) 0.001276 813.8 969.1
961(28) 0.001276 813.8 966.3
982(28) 0.001276 813.8 963.7
961(28) 0.001276 813.9 961.5
991(28) 0.001276 813.9 959.6
958(28) 0.001276 813.9 958.2
950(28) 0.001276 813.9 957.1
968(28) 0.001276 813.9 956.5
938(27) 0.001372 813.9 956.2
957(28) 0.001276 814.0 956.4
993(28) 0.001276 814.0 956.9
981(28) 0.001276 814.0 957.7
983(28) 0.001276 814.0 958.8
940(27) 0.001372 814.0 960.1
979(28) 0.001276 814.0 961.6
989(28) 0.001276 814.1 963.2
952(28) 0.001276 814.1 964.9
938(27) 0.001372 814.1 966.6
969(28) 0.001276 814.1 968.3
954(28) 0.001276 814.1 969.9
969(28) 0.001276 814.1 971.3
922(27) 0.001372 814.2 972.6
901(27) 0.001372 814.2 973.7
949(28) 0.001276 814.2 974.5
972(28) 0.001276 814.2 975.0
969(28) 0.001276 814.2 975.2
937(27) 0.001372 814.3 975.0
972(28) 0.001276 814.3 974.4
994(28) 0.001276 814.3 973.5
956(28) 0.001276 814.3 972.2
949(28) 0.001276 814.4 970.7
961(28) 0.001276 814.4 968.9
955(28) 0.001276 814.4 967.0
951(28) 0.001276 814.4 965.0
969(28) 0.001276 814.4 962.9
969(28) 0.001276 814.5 960.9
950(28) 0.001276 814.5 959.1
959(28) 0.001276 814.5 957.4
915(27) 0.001372 814.6 956.0
919(27) 0.001372 814.6 954.8
910(27) 0.001372 814.6 954.1
927(27) 0.001372 814.6 953.7
952(28) 0.001276 814.7 953.7
930(28) 0.001276 814.7 954.1
975(28) 0.001276 814.7 955.0
930(28) 0.001276 814.8 956.3
931(28) 0.001276 814.8 958.1
911(28) 0.001276 814.8 960.3
935(28) 0.001276 814.9 963.0
950(28) 0.001276 814.9 966.2
965(28) 0.001276 814.9 969.8
955(28) 0.001276 815.0 973.8
1026(29) 0.001189 815.0 978.3
975(28) 0.001276 815.0 983.2
989(29) 0.001189 815.1 988.6
983(29) 0.001189 815.1 994.4
1022(29) 0.001189 815.2 1000.5
992(29) 0.001189 815.2 1007.1
995(29) 0.001189 815.2 1014.1
1034(29) 0.001189 815.3 1021.4
1040(29) 0.001189 815.3 1029.0
1063(30) 0.001111 815.4 1036.9
1038(29) 0.001189 815.4 1045.0
1077(30) 0.001111 815.5 1053.3
1080(30) 0.001111 815.5 1061.7
1087(30) 0.001111 815.6 1070.1
1063(30) 0.001111 815.6 1078.5
1077(30) 0.001111 815.7 1086.9
1104(30) 0.001111 815.7 1095.0
1131(31) 0.001041 815.8 1102.8
1097(30) 0.001111 815.8 1110.3
1147(31) 0.001041 815.9 1117.4
1114(30) 0.001111 815.9 1123.9
1172(31) 0.001041 816.0 1129.9
1126(30) 0.001111 816.0 1135.2
1115(30) 0.001111 816.1 1139.9
1121(30) 0.001111 816.2 1144.0
1117(30) 0.001111 816.2 1147.4
1107(30) 0.001111 816.3 1150.1
1137(31) 0.001041 816.4 1152.2
1131(31) 0.001041 816.4 1153.7
1107(30) 0.001111 816.5 1154.5
1127(30) 0.001111 816.6 1154.8
1155(31) 0.001041 816.6 1154.4
1165(31) 0.001041 816.7 1153.5
1147(31) 0.001041 816.8 1152.0
1148(31) 0.001041 816.9 1149.9
1209(32) 0.000977 817.0 1147.3
1168(31) 0.001041 817.0 1144.3
1146(31) 0.001041 817.1 1140.8
1184(31) 0.001041 817.2 1137.0
1163(31) 0.001041 817.3 1132.7
1188(31) 0.001041 817.4 1128.2
1144(31) 0.001041 817.5 1123.3
1184(31) 0.001041 817.6 1118.2
1108(30) 0.001111 817.6 1112.9
1055(30) 0.001111 817.7 1107.4
1070(30) 0.001111 817.8 1101.7
1094(30) 0.001111 817.9 1095.8
1104(30) 0.001111 818.0 1089.9
1031(29) 0.001189 818.1 1083.9
1060(30) 0.001111 818.2 1077.9
1071(30) 0.001111 818.4 1072.0
1081(30) 0.001111 818.5 1066.1
1029(29) 0.001189 818.6 1060.4
1044(29) 0.001189 818.7 1054.9
1054(30) 0.001111 818.8 1049.5
1014(29) 0.001189 818.9 1044.4
1016(29) 0.001189 819.0 1039.5
993(29) 0.001189 819.2 1034.9
1040(29) 0.001189 819.3 1030.6
1031(29) 0.001189 819.4 1026.5
995(29) 0.001189 819.5 1022.7
1027(29) 0.001189 819.7 1019.1
1028(29) 0.001189 819.8 1015.8
995(29) 0.001189 819.9 1012.8
1008(29) 0.001189 820.1 1009.9
1023(29) 0.001189 820.2 1007.3
992(29) 0.001189 820.4 1004.8
959(28) 0.001276 820.5 1002.5
951(28) 0.001276 820.7 1000.3
986(29) 0.001189 820.8 998.3
993(29) 0.001189 821.0 996.4
962(28) 0.001276 821.1 994.6
992(29) 0.001189 821.3 993.0
962(28) 0.001276 821.5 991.6
999(29) 0.001189 821.6 990.4
1006(29) 0.001189 821.8 989.4
968(28) 0.001276 822.0 988.7
978(29) 0.001189 822.2 988.3
1001(29) 0.001189 822.3 988.2
1003(29) 0.001189 822.5 988.4
1049(29) 0.001189 822.7 989.0
1008(29) 0.001189 822.9 990.1
1009(29) 0.001189 823.1 991.5
1009(29) 0.001189 823.3 993.4
1011(29) 0.001189 823.5 995.7
990(29) 0.001189 823.7 998.5
1005(29) 0.001189 823.9 1001.7
1029(29) 0.001189 824.1 1005.3
1057(30) 0.001111 824.3 1009.4
1019(29) 0.001189 824.5 1013.9
1000(29) 0.001189 824.8 1018.7
1035(30) 0.001111 825.0 1023.9
1049(30) 0.001111 825.2 1029.4
1079(30) 0.001111 825.4 1035.2
1032(30) 0.001111 825.7 1041.3
1019(29) 0.001189 825.9 1047.5
1038(30) 0.001111 826.2 1053.9
1053(30) 0.001111 826.4 1060.4
1050(30) 0.001111 826.7 1066.8
1054(30) 0.001111 826.9 1073.3
1085(30) 0.001111 827.2 1079.6
1071(30) 0.001111 827.4 1085.7
1085(30) 0.001111 827.7 1091.6
1097(30) 0.001111 828.0 1097.1
1084(30) 0.001111 828.3 1102.2
1138(31) 0.001041 828.5 1106.8
1130(31) 0.001041 828.8 1110.9
1131(31) 0.001041 829.1 1114.4
1098(30) 0.001111 829.4 1117.4
1089(30) 0.001111 829.7 1119.7
1102(30) 0.001111 830.0 1121.4
1110(31) 0.001041 830.3 1122.5
1086(30) 0.001111 830.6 1123.1
1105(30) 0.001111 831.0 1123.2
1118(31) 0.001041 831.3 1122.8
1130(31) 0.001041 831.6 1122.1
1171(31) 0.001041 831.9 1121.0
1150(31) 0.001041 832.3 1119.7
1113(31) 0.001041 832.6 1118.2
1111(31) 0.001041 833.0 1116.6
1117(31) 0.001041 833.3 1114.8
1089(30) 0.001111 833.7 1113.0
1131(31) 0.001041 834.1 1111.1
1075(30) 0.001111 834.4 1109.2
1107(30) 0.001111 834.8 1107.3
1149(31) 0.001041 835.2 1105.4
1157(31) 0.001041 835.6 1103.5
1140(31) 0.001041 836.0 1101.6
1116(31) 0.001041 836.4 1099.7
1093(30) 0.001111 836.8 1097.8
1112(31) 0.001041 837.2 1095.9
1083(30) 0.001111 837.6 1093.8
1081(30) 0.001111 838.0 1091.7
1080(30) 0.001111 838.4 1089.5
1093(30) 0.001111 838.9 1087.2
1105(30) 0.001111 839.3 1084.8
1106(30) 0.001111 839.8 1082.3
1075(30) 0.001111 840.2 1079.6
1090(30) 0.001111 840.7 1076.8
1054(30) 0.001111 841.1 1074.0
1071(30) 0.001111 841.6 1071.0
1100(30) 0.001111 842.1 1068.0
1092(30) 0.001111 842.6 1065.0
1059(30) 0.001111 843.1 1062.0
1048(30) 0.001111 843.6 1058.9
1065(30) 0.001111 844.1 1055.9
1039(30) 0.001111 844.6 1052.9
1046(30) 0.001111 845.1 1050.0
1053(30) 0.001111 845.6 1047.2
1070(30) 0.001111 846.2 1044.4
1029(29) 0.001189 846.7 1041.7
1021(29) 0.001189 847.3 1039.2
1066(30) 0.001111 847.8 1036.6
1043(30) 0.001111 848.4 1034.2
1017(29) 0.001189 849.0 1031.9
1003(29) 0.001189 849.5 1029.7
998(29) 0.001189 850.1 1027.5
1006(29) 0.001189 850.7 1025.4
983(29) 0.001189 851.3 1023.4
988(29) 0.001189 851.9 1021.4
1021(29) 0.001189 852.5 1019.5
986(29) 0.001189 853.2 1017.6
972(29) 0.001189 853.8 1015.8
999(29) 0.001189 854.4 1014.0
1032(30) 0.001111 855.1 1012.2
1039(30) 0.001111 855.8 1010.4
1007(29) 0.001189 856.4 1008.7
1011(29) 0.001189 857.1 1006.9
998(29) 0.001189 857.8 1005.3
1043(30) 0.001111 858.5 1003.6
1034(30) 0.001111 859.2 1002.0
1038(30) 0.001111 859.9 1000.4
992(29) 0.001189 860.6 998.9
943(28) 0.001276 861.3 997.5
979(29) 0.001189 862.1 996.1
1007(29) 0.001189 862.8 994.7
1005(29) 0.001189 863.6 993.5
960(29) 0.001189 864.4 992.3
924(28) 0.001276 865.1 991.3
954(28) 0.001276 865.9 990.3
991(29) 0.001189 866.7 989.5
1039(30) 0.001111 867.5 988.8
1003(29) 0.001189 868.3 988.2
972(29) 0.001189 869.2 987.8
1002(29) 0.001189 870.0 987.6
983(29) 0.001189 870.8 987.5
939(28) 0.001276 871.7 987.6
936(28) 0.001276 872.6 988.0
974(29) 0.001189 873.4 988.5
969(29) 0.001189 874.3 989.3
1014(24) 0.001736 875.2 990.3
1002(29) 0.001189 876.1 991.6
989(29) 0.001189 877.0 993.1
996(29) 0.001189 878.0 994.8
988(29) 0.001189 878.9 996.9
1014(30) 0.001111 879.9 999.2
1036(30) 0.001111 880.8 1001.8
1054(30) 0.001111 881.8 1004.7
1053(30) 0.001111 882.8 1007.8
1027(30) 0.001111 883.8 1011.2
1039(30) 0.001111 884.8 1014.9
1042(30) 0.001111 885.8 1018.9
1015(30) 0.001111 886.9 1023.1
1009(30) 0.001111 887.9 1027.6
1026(30) 0.001111 889.0 1032.3
1054(30) 0.001111 890.0 1037.3
1075(30) 0.001111 891.1 1042.5
1072(30) 0.001111 892.2 1048.0
1044(30) 0.001111 893.3 1053.6
1040(30) 0.001111 894.4 1059.5
1055(30) 0.001111 895.6 1065.5
1091(31) 0.001041 896.7 1071.7
1092(31) 0.001041 897.9 1078.0
1079(30) 0.001111 899.0 1084.5
1101(31) 0.001041 900.2 1091.0
1119(31) 0.001041 901.4 1097.6
1098(31) 0.001041 902.6 1104.3
1109(31) 0.001041 903.8 1111.0
1118(31) 0.001041 905.1 1117.7
1135(31) 0.001041 906.3 1124.4
1174(32) 0.000977 907.6 1131.0
1190(32) 0.000977 908.9 1137.6
1160(31) 0.001041 910.2 1144.1
1123(31) 0.001041 911.5 1150.5
1129(31) 0.001041 912.8 1156.8
1192(32) 0.000977 914.1 1163.0
1185(32) 0.000977 915.5 1169.0
1179(32) 0.000977 916.8 1174.9
1203(32) 0.000977 918.2 1180.6
1169(32) 0.000977 919.6 1186.2
1191(32) 0.000977 921.0 1191.6
1202(32) 0.000977 922.5 1196.8
1200(32) 0.000977 923.9 1201.9
1218(32) 0.000977 925.3 1206.7
1215(32) 0.000977 926.8 1211.4
1238(32) 0.000977 928.3 1215.8
1229(32) 0.000977 929.8 1220.1
1193(32) 0.000977 931.3 1224.2
1227(32) 0.000977 932.9 1228.1
1242(32) 0.000977 934.4 1231.8
1239(32) 0.000977 936.0 1235.3
1241(32) 0.000977 937.6 1238.7
1252(33) 0.000918 939.2 1241.9
1269(33) 0.000918 940.8 1245.1
1289(33) 0.000918 942.4 1248.1
1266(33) 0.000918 944.1 1251.1
1238(32) 0.000977 945.7 1253.9
1239(32) 0.000977 947.4 1256.8
1232(32) 0.000977 949.1 1259.6
1273(33) 0.000918 950.8 1262.4
1260(33) 0.000918 952.6 1265.2
1273(33) 0.000918 954.3 1268.1
1271(33) 0.000918 956.1 1270.9
1259(33) 0.000918 957.9 1273.8
1279(33) 0.000918 959.7 1276.6
1300(33) 0.000918 961.5 1279.5
1329(34) 0.000865 963.4 1282.4
1308(33) 0.000918 965.2 1285.3
1248(33) 0.000918 967.1 1288.1
1219(32) 0.000977 969.0 1290.9
1245(33) 0.000918 971.0 1293.6
1277(33) 0.000918 972.9 1296.2
1284(33) 0.000918 974.9 1298.7
1276(33) 0.000918 976.8 1301.0
1301(33) . . .
1311(33) . . .
1297(33) . . .
1306(33) . . .
1262(33) . . .
1264(33) . . .
1306(33) . . .
1315(33) . . .
1285(33) . . .
1269(33) . . .
1266(33) . . .
1282(33) . . .
1274(33) . . .
1275(33) . . .
1326(33) . . .
1310(33) . . .
1286(33) . . .
1281(33) . . .
1249(33) . . .
1260(33) . . .
1308(33) . . .
1306(33) . . .
1279(33) . . .
1298(33) . . .
1275(33) . . .
1274(33) . . .
1273(34) . . .
1275(34) . . .
1231(33) . . .
1236(33) . . .
1275(34) . . .
1302(34) . . .
1279(34) . . .
1270(34) . . .
1286(34) . . .
1311(34) . . .
1303(34) . . .
1305(34) . . .
1281(34) . . .
1258(33) . . .
1263(33) . . .
1302(34) . . .
1264(33) . . .
1280(34) . . .
1290(34) . . .
1287(34) . . .
1263(33) . . .
1300(34) . . .
1277(34) . . .
1248(33) . . .
1252(33) . . .
1243(33) . . .
1262(33) . . .
1309(34) . . .
1312(34) . . .
1286(34) . . .
1237(33) . . .
1261(33) . . .
1286(34) . . .
1278(34) . . .
1328(34) . . .
1274(34) . . .
1330(34) . . .
1376(35) . . .
1302(34) . . .
1303(34) . . .
1349(34) . . .
1313(34) . . .
1335(34) . . .
1358(35) . . .
1351(35) . . .
1357(35) . . .
1368(35) . . .
1366(35) . . .
1376(35) . . .
1359(35) . . .
1368(35) . . .
1430(35) . . .
1413(35) . . .
1412(35) . . .
1424(35) . . .
1401(35) . . .
1411(35) . . .
1426(35) . . .
1437(35) . . .
1469(36) . . .
1488(36) . . .
1475(36) . . .
1454(36) . . .
1463(36) . . .
1560(37) . . .
1546(37) . . .
1467(36) . . .
1481(36) . . .
1504(36) . . .
1501(36) . . .
1533(37) . . .
1567(37) . . .
1520(36) . . .
1550(37) . . .
1545(37) . . .
1536(37) . . .
1556(37) . . .
1589(37) . . .
1591(37) . . .
1574(37) . . .
1588(37) . . .
1624(37) . . .
1604(37) . . .
1643(38) . . .
1675(38) . . .
1705(38) . . .
1681(38) . . .
1665(38) . . .
1698(38) . . .
1704(38) . . .
1722(39) . . .
1729(39) . . .
1689(38) . . .
1679(38) . . .
1745(39) . . .
1731(39) . . .
1688(38) . . .
1817(39) . . .
1774(39) . . .
1774(39) . . .
1817(57) . . .
1786(56) . . .
1805(56) . . .
1831(57) . . .
1850(57) . . .
1714(55) . . .
1740(56) . . .
1777(56) . . .
1875(57) . . .
1934(58) . . .
1844(57) . . .
1935(58) . . .
1786(56) . . .
1910(58) . . .
1888(58) . . .
1847(57) . . .
1892(58) . . .
1975(59) . . .
1904(58) . . .
2026(59) . . .
1986(59) . . .
1900(58) . . .
1931(58) . . .
1940(58) . . .
1898(58) . . .
1903(58) . . .
1865(57) . . .
1965(59) . . .
1965(59) . . .
1907(58) . . .
1974(59) . . .
2016(59) . . .
1927(58) . . .
1997(59) . . .
1977(59) . . .
1937(58) . . .
2002(59) . . .
1984(59) . . .
2012(59) . . .
2047(60) . . .
2013(59) . . .
2018(59) . . .
1941(58) . . .
2048(60) . . .
2080(60) . . .
2068(60) . . .
2079(60) . . .
2015(59) . . .
2091(60) . . .
2045(60) . . .
2048(60) . . .
2064(60) . . .
2111(61) . . .
2053(60) . . .
2031(59) . . .
2058(60) . . .
2100(60) . . .
2135(61) . . .
2098(60) . . .
2115(61) . . .
2128(61) . . .
2118(61) . . .
2124(61) . . .
2196(62) . . .
2113(61) . . .
2158(61) . . .
2096(60) . . .
2081(60) . . .
2133(61) . . .
2100(60) . . .
2205(62) . . .
2132(61) . . .
2155(61) . . .
2159(61) . . .
2197(62) . . .
2247(62) . . .
2229(62) . . .
2274(63) . . .
2244(62) . . .
2191(62) . . .
2123(61) . . .
2112(61) . . .
2298(63) . . .
2287(63) . . .
2333(63) . . .
2309(63) . . .
2200(62) . . .
2299(63) . . .
2298(63) . . .
2324(63) . . .
2224(62) . . .
2329(63) . . .
2264(62) . . .
2140(61) . . .
2243(62) . . .
2232(62) . . .
2231(62) . . .
2244(62) . . .
2342(63) . . .
2419(64) . . .
loop_
_gsas_i100_meas
100.00
51.17
91.03
1.56
0.02
0.78
12.03
5.81
15.31
0.21
21.21
2.56
0.76
0.21
19.94
6.70
2.25
3.10
5.56
11.11
0.47
0.00
0.91
0.10
1.14
0.26
0.95
3.21
3.81
3.65
1.02
2.47
1.79
11.06
1.06
0.04
3.98
0.03
3.31
0.03
0.07
0.03
0.54
1.06
0.36
2.00
1.47
0.86
1.60
0.01
0.98
0.61
2.92
0.02
2.01
1.40
0.02
0.00
2.43
3.40
0.19
1.71
2.81
0.39
0.09
0.11
0.00
1.18
0.13
1.83
0.00
0.31
0.79
0.60
1.69
1.07
0.52
0.26
0.00
2.53
0.19
0.06
2.27
0.92
0.02
0.15
0.30
0.92
0.20
1.60
0.11
0.08
0.00
0.32
3.18
1.20
1.06
2.77
0.76
0.20
0.37
1.91
0.07
0.71
1.21
0.25
1.19
2.48
0.29
0.12
0.02
1.44
0.03
0.00
0.43
0.92
0.37
2.80
0.11
1.20
0.02
0.24
0.97
0.59
0.39
3.78
0.18
0.89
0.25
1.18
0.12
0.68
0.00
3.22
0.28
0.03
0.04
0.03
0.66
0.00
0.16
0.25
1.41
0.17
0.45
0.03
0.02
0.01
0.70
0.09
0.68
0.78
0.16
0.37
1.50
0.77
0.77
0.55
0.01
0.14
0.02
0.03
0.59
0.47
0.67
0.12
0.08
0.50
0.86
0.09
0.12
0.01
0.06
0.01
0.00
0.76
0.15
0.10
0.31
5.28
0.46
0.03
1.52
0.27
0.24
0.46
0.24
0.46
0.07
0.47
0.15
0.11
0.00
0.28
0.10
0.24
0.19
0.22
0.26
0.70
0.39
0.74
0.69
0.84
0.14
0.15
0.01
0.05
0.15
0.01
0.16
0.29
0.01
1.32
0.29
3.24
0.02
0.09
0.01
0.00
0.15
0.01
1.47
2.23
0.75
0.16
0.09
0.15
0.43
1.22
0.10
0.42
0.16
1.99
0.30
0.50
0.38
0.35
0.22
0.04
0.03
0.07
0.27
0.17
0.22
0.86
0.44
0.34
0.44
0.09
1.18
1.95
0.08
1.00
0.03
1.41
0.23
0.01
1.72
0.01
0.66
0.24
0.01
2.25
0.00
0.38
0.25
0.01
0.00
0.11
3.33
0.11
0.32
0.04
0.10
0.62
0.01
0.26
0.00
1.34
0.15
0.00
0.62
0.66
2.12
1.58
0.71
0.00
0.24
0.30
0.54
0.68
0.01
0.00
0.20
0.25
0.76
1.16
0.01
0.33
0.42
0.00
0.97
0.34
1.40
0.44
0.09
1.38
0.49
0.03
0.92
0.05
0.08
0.00
0.01
0.01
0.11
0.25
0.06
0.10
0.00
1.29
0.44
0.62
0.14
0.06
1.21
0.14
0.40
0.50
3.67
0.86
0.01
0.35
0.01
0.17
0.79
1.27
0.82
0.12
0.56
0.52
0.00
0.81
0.32
0.23
0.27
0.31
0.02
0.65
0.93
0.03
0.17
1.51
0.66
0.17
0.01
0.07
0.01
0.98
0.23
2.08
0.39
1.07
0.00
0.51
0.51
0.27
0.01
0.40
3.86
0.13
1.22
1.34
0.02
0.94
0.01
1.51
0.29
0.02
0.12
0.25
0.26
0.00
0.40
0.77
0.20
0.18
0.27
0.00
0.58
1.10
1.22
0.20
0.13
1.75
2.58
0.15
0.07
0.07
0.01
0.83
0.99
0.86
0.24
0.09
0.09
0.04
0.36
0.00
0.08
1.30
0.69
0.00
0.87
0.05
0.08
0.83
1.23
1.20
0.42
0.04
1.21
0.05
0.05
0.03
0.01
0.00
0.11
0.35
0.09
0.90
0.00
0.12
0.00
0.88
0.36
0.00
0.26
0.00
0.48
0.26
0.02
0.90
0.01
0.01
0.15
0.06
0.07
0.67
0.26
0.29
2.76
1.09
0.37
1.34
0.67
0.04
0.00
0.99
0.09
0.09
1.85
2.20
0.45
0.00
0.58
0.28
0.76
0.39
0.15
1.88
0.94
1.24
0.25
0.09
0.09
0.19
2.07
0.00
0.45
0.51
0.04
0.44
0.54
0.42
1.44
0.76
0.00
0.51
0.26
2.71
0.44
0.69
0.15
0.74
0.04
0.46
0.40
0.04
0.00
0.78
0.15
2.05
0.49
0.00
0.92
0.01
0.00
0.44
0.04
1.10
0.35
0.03
2.12
0.06
1.10
0.08
0.00
0.10
3.11
0.88
0.28
0.12
0.05
0.05
0.32
0.11
0.14
2.48
1.82
0.16
0.06
0.79
0.93
0.18
0.11
1.45
2.67
0.22
0.94
0.07
0.80
0.03
0.25
0.73
0.20
0.38
0.00
0.09
4.46
0.05
1.26
0.73
0.09
0.10
0.93
0.00
0.35
1.46
0.04
0.50
0.86
1.54
0.03
0.63
0.35
0.14
0.00
0.04
0.60
3.79
1.58
0.81
0.05
1.23
0.92
0.54
0.70
0.16
1.84
1.65
1.02
0.58
0.10
0.00
2.32
1.26
0.02
3.51
0.13
0.27
0.01
0.02
0.97
0.34
0.91
0.01
0.01
0.73
0.00
0.12
0.00
3.93
0.42
0.49
0.05
0.04
0.12
0.00
0.07
0.11
1.50
0.00
0.54
5.63
0.00
0.66
0.54
3.07
0.71
0.99
1.22
1.27
0.61
0.59
0.06
0.60
0.00
0.01
0.74
0.08
