#------------------------------------------------------------------------------
#$Date: 2019-11-14 09:28:08 +0200 (Thu, 14 Nov 2019) $
#$Revision: 227760 $
#$URL: file:///home/coder/svn-repositories/cod/cif/1/55/29/1552900.cif $
#------------------------------------------------------------------------------
#
# This file is available in the Crystallography Open Database (COD),
# http://www.crystallography.net/
#
# All data on this site have been placed in the public domain by the
# contributors.
#
data_1552900
loop_
_publ_author_name
'Asgari, Mehrdad'
'Jawahery, Sudi'
'Bloch, Eric D.'
'Hudson, Matthew R.'
'Flacau, Roxana'
'Vlaisavljevich, Bess'
'Long, Jeffrey R.'
'Brown, Craig M.'
'Queen, Wendy L.'
_publ_section_title
;
 An experimental and computational study of CO<sub>2</sub> adsorption in
 the sodalite-type M-BTT (M = Cr, Mn, Fe, Cu) metal-organic frameworks
 featuring open metal sites.
;
_journal_issue                   20
_journal_name_full               'Chemical science'
_journal_page_first              4579
_journal_page_last               4588
_journal_paper_doi               10.1039/c8sc00971f
_journal_volume                  9
_journal_year                    2018
_chemical_formula_sum            'C26.13 H8 Cl1.77 Cu5.54 N32 O4.96'
_chemical_formula_weight         1263.93
_space_group_IT_number           221
_space_group_name_Hall           '-P 4 2 3'
_space_group_name_H-M_alt        'P m -3 m'
_symmetry_cell_setting           cubic
_symmetry_space_group_name_Hall  '-P 4 2 3'
_symmetry_space_group_name_H-M   'P m -3 m'
_audit_creation_date             2016-02-13T16:21
_audit_creation_method           'from EXP file using GSAS2CIF'
_audit_update_record
;
2017-10-25 deposited with the CCDC.
2018-04-23 downloaded from the CCDC.
;
_cell_angle_alpha                90.0
_cell_angle_beta                 90.0
_cell_angle_gamma                90.0
_cell_formula_units_Z            3
_cell_length_a                   18.52951(33)
_cell_length_b                   18.52951
_cell_length_c                   18.52951
_cell_measurement_reflns_used    639
_cell_measurement_temperature    10
_cell_measurement_theta_max      160
_cell_measurement_theta_min      4.5
_cell_volume                     6361.97(11)
_computing_structure_refinement  GSAS
_diffrn_ambient_temperature      10
_diffrn_measurement_device_type  BT1
_diffrn_radiation_probe          neutron
_diffrn_radiation_wavelength     2.0782
_exptl_absorpt_correction_T_max  1.00000
_exptl_absorpt_correction_T_min  1.00000
_exptl_absorpt_process_details
;   GSAS Absorption/surface roughness correction: function number 0
 No correction is applied.
;
_pd_block_id                     2016-02-13T16:21|0P5CO2_FREECL|bt1|bt1
_pd_calc_method                  'Rietveld Refinement'
_pd_instr_location               ' ?'
_pd_meas_2theta_range_inc        0.05
_pd_meas_2theta_range_max        166.25
_pd_meas_2theta_range_min        1.5
_pd_meas_number_of_points        3296
_pd_phase_name                   'Cu MOF'
_pd_proc_2theta_range_inc        0.05
_pd_proc_2theta_range_max        166.253
_pd_proc_2theta_range_min        1.503
_pd_proc_info_datetime           2016-02-13T16:21:16
_pd_proc_info_excluded_regions   ' ?'
_pd_proc_ls_background_function
;   GSAS Background function number 1 with 12 terms.
 Shifted Chebyshev function of 1st kind
      1:    685.137     2:   -127.077     3:    172.110     4:    25.0628    
      5:    80.6130     6:    7.25467     7:    51.4706     8:    5.18258    
      9:    26.0298    10:   -3.28640    11:    5.08910    12:   -3.54885    
;
_pd_proc_ls_peak_cutoff          0.00050
_pd_proc_ls_profile_function
;
 CW Profile function number 3 with  19 terms
 Pseudovoigt profile coefficients as parameterized in
 P. Thompson, D.E. Cox & J.B. Hastings (1987). J. Appl. Cryst.,20,79-83.
 Asymmetry correction of L.W. Finger, D.E. Cox & A. P. Jephcoat (1994).
 J. Appl. Cryst.,27,892-900.
 #1(GU)   =  427.388 #2(GV)   = -290.569 #3(GW)   =   67.938
 #4(GP)   =   60.535 #5(LX)   =    0.000 #6(LY)   =   15.132
 #7(S/L)  =   0.0349 #8(H/L)  =   0.0256
 #9(trns) =     0.00 #10(shft)=   0.0000
 #11(stec)=     0.00 #12(ptec)=     0.00 #13(sfec)=     0.00
 #14(L11) =    0.000 #15(L22) =    0.000 #16(L33) =    0.000
 #17(L12) =    0.000 #18(L13) =    0.000 #19(L23) =    0.000
 Peak tails are ignored  where the intensity is below 0.0005 times the peak
   Aniso. broadening axis   0.0   0.0   1.0
;
_pd_proc_ls_prof_R_factor        0.0305
_pd_proc_ls_prof_wR_expected     0.0355
_pd_proc_ls_prof_wR_factor       0.0354
_pd_proc_number_of_points        3296
_pd_spec_mounting                ' ?'
_refine_ls_goodness_of_fit_all   1.01
_refine_ls_matrix_type           full
_refine_ls_number_parameters     45
_refine_ls_number_restraints     6
_refine_ls_R_Fsqd_factor         0.03713
_refine_ls_shift/su_max          0.07
_refine_ls_shift/su_mean         0.01
_reflns_d_resolution_high        1.052
_reflns_d_resolution_low         18.530
_reflns_limit_h_max              17
_reflns_limit_h_min              1
_reflns_limit_k_max              12
_reflns_limit_k_min              0
_reflns_limit_l_max              10
_reflns_limit_l_min              0
_reflns_number_total             639
_cod_data_source_file            c8sc00971f3.cif
_cod_data_source_block           0P5CO2_FREECL_publ
_cod_depositor_comments
;
The following automatic conversions were performed:

'_geom_bond_publ_flag' value 'N' changed to 'n' according to
/home/data/users/saulius/crontab/automatic-downloads/current/RSC/lib/dictionaries/cif_core.dic
dictionary named 'cif_core.dic' version 2.4.2 from 2011-04-26 (189
times).

'_geom_angle_publ_flag' value 'N' changed to 'n' according to
/home/data/users/saulius/crontab/automatic-downloads/current/RSC/lib/dictionaries/cif_core.dic
dictionary named 'cif_core.dic' version 2.4.2 from 2011-04-26 (78
times).

Automatic conversion script
Id: cif_fix_values 5376 2017-05-30 11:51:03Z andrius 
;
_cod_original_cell_volume        6361.97(34)
_cod_database_code               1552900
_gsas_exptl_extinct_corr_t_min   1.00000
_gsas_exptl_extinct_corr_t_max   1.00000
loop_
_symmetry_equiv_pos_site_id
_symmetry_equiv_pos_as_xyz
1 +x,+y,+z
2 +z,+x,+y
3 +y,+z,+x
4 +x,+y,-z
5 -z,+x,+y
6 +y,-z,+x
7 -z,+x,-y
8 -y,-z,+x
9 +y,-z,-x
10 -x,+y,-z
11 -z,-x,+y
12 +x,-y,-z
13 +y,+x,+z
14 +z,+y,+x
15 +x,+z,+y
16 +y,+x,-z
17 -z,+y,+x
18 +x,-z,+y
19 -z,+y,-x
20 -x,-z,+y
21 +x,-z,-y
22 -y,+x,-z
23 -z,-y,+x
24 +y,-x,-z
-1 -x,-y,-z
-2 -z,-x,-y
-3 -y,-z,-x
-4 -x,-y,+z
-5 +z,-x,-y
-6 -y,+z,-x
-7 +z,-x,+y
-8 +y,+z,-x
-9 -y,+z,+x
-10 +x,-y,+z
-11 +z,+x,-y
-12 -x,+y,+z
-13 -y,-x,-z
-14 -z,-y,-x
-15 -x,-z,-y
-16 -y,-x,+z
-17 +z,-y,-x
-18 -x,+z,-y
-19 +z,-y,+x
-20 +x,+z,-y
-21 -x,+z,+y
-22 +y,-x,+z
-23 +z,+y,-x
-24 -y,+x,+z
loop_
_atom_site_type_symbol
_atom_site_label
_atom_site_fract_x
_atom_site_fract_y
_atom_site_fract_z
_atom_site_occupancy
_atom_site_thermal_displace_type
_atom_site_U_iso_or_equiv
_atom_site_symmetry_multiplicity
Cu Cu1 0.1330(5) 0.5 0.0 1.0 Uiso 0.0084(27) 12
C C1 0.14765(26) 0.33736(33) -0.14765(26) 1.0 Uiso 0.0065(9) 24
C C2 0.18009(24) 0.27141(33) -0.18009(24) 1.0 Uiso 0.0065(9) 24
C C3 0.24201(25) 0.24201(25) -0.1484(4) 1.0 Uiso 0.0065(9) 24
Cl Cl1 0.0 0.5 0.0 1.0 Uiso 0.041(5) 3
N N1 0.12938(18) 0.42535(18) -0.07844(18) 1.0 Uiso 0.0081(5) 48
N N2 0.17411(20) 0.37008(18) -0.08936(17) 1.0 Uiso 0.0081(5) 48
H H1 0.2657(5) 0.2657(5) -0.1013(7) 1.0 Uiso 0.020(4) 24
Cu Cu2 0.2270(14) 0.3842(22) 0.0 0.19199 Uiso 0.06409 24
C C1a 0.2913(10) 0.4388(6) 0.0 0.266(5) Uiso 0.011(6) 24
O O1a 0.2735(15) 0.5 0.0 0.533(9) Uiso 0.08(1) 12
O O1b 0.3118(15) 0.3796(10) 0.0 0.266(5) Uiso 0.05(1) 24
Cl Cl2 0.3576(18) 0.3576(18) 0.0 0.19199 Uiso 0.06535 12
O Os 0.2505(7) 0.5 0.0 0.17378 Uiso 0.01168 12
loop_
_atom_type_symbol
_atom_type_number_in_cell
_atom_type_scat_length_neutron
_atom_type_scat_source
Cu 16.608 0.7718 International_Tables_Vol_C
C 78.393 0.6648 International_Tables_Vol_C
Cl 5.304 0.9579 International_Tables_Vol_C
N 96.0 0.9360 International_Tables_Vol_C
H 24.0 -0.3741 International_Tables_Vol_C
O 14.871 0.5803 International_Tables_Vol_C
loop_
_geom_angle_atom_site_label_1
_geom_angle_atom_site_label_2
_geom_angle_atom_site_label_3
_geom_angle
_geom_angle_site_symmetry_1
_geom_angle_site_symmetry_3
_geom_angle_publ_flag
Cl1 Cu1 N1 88.08(29) 1_555 1_555 n
Cl1 Cu1 N1 88.08(29) 1_555 4_555 n
Cl1 Cu1 N1 88.08(29) 1_555 12_565 n
Cl1 Cu1 N1 88.08(29) 1_555 -10_565 n
N1 Cu1 N1 92.77(21) 1_555 4_555 n
N1 Cu1 N1 176.2(6) 1_555 12_565 n
N1 Cu1 N1 87.11(21) 1_555 -10_565 n
N1 Cu1 N1 87.11(21) 4_555 12_565 n
N1 Cu1 N1 176.2(6) 4_555 -10_565 n
N1 Cu1 N1 92.77(21) 12_565 -10_565 n
C2 C1 N2 123.53(30) 1_555 1_555 n
C2 C1 N2 123.53(30) 1_555 19_555 n
N2 C1 N2 112.9(6) 1_555 19_555 n
C1 C2 C3 118.77(33) 1_555 1_555 n
C1 C2 C3 118.77(33) 1_555 7_555 n
C3 C2 C3 122.4(7) 1_555 7_555 n
C2 C3 C2 117.6(7) 1_555 9_555 n
C2 C3 H1 121.22(33) 1_555 1_555 n
C2 C3 H1 121.22(33) 9_555 1_555 n
Cu1 Cl1 Cu1 180.0 1_555 10_555 n
Cu1 Cl1 Cu1 90.0 1_555 14_555 n
Cu1 Cl1 Cu1 90.0 1_555 19_555 n
Cu1 Cl1 Cu1 90.0 10_555 14_555 n
Cu1 Cl1 Cu1 90.0 10_555 19_555 n
Cu1 Cl1 Cu1 180.0 14_555 19_555 n
Cu1 N1 N1 122.38(25) 1_555 19_555 n
Cu1 N1 N2 128.2(4) 1_555 1_555 n
N1 N1 N2 109.41(21) 19_555 1_555 n
C1 N2 N1 104.1(4) 1_555 1_555 n
C1 N2 Cu2 159.8(13) 1_555 1_555 n
N1 N2 Cu2 94.6(11) 1_555 1_555 n
N2 Cu2 N2 117.0(14) 1_555 4_555 n
N2 Cu2 C1a 118.2(11) 1_555 1_555 n
N2 Cu2 O1b 119.8(8) 1_555 1_555 n
N2 Cu2 Cl2 117.9(11) 1_555 1_555 n
N2 Cu2 C1a 118.2(11) 4_555 1_555 n
N2 Cu2 O1b 119.8(8) 4_555 1_555 n
N2 Cu2 Cl2 117.9(11) 4_555 1_555 n
C1a Cu2 O1b 43.5(10) 1_555 1_555 n
C1a Cu2 Cl2 51.8(8) 1_555 1_555 n
O1b Cu2 Cl2 8.4(12) 1_555 1_555 n
Cu2 C1a O1a 114.0(19) 1_555 1_555 n
Cu2 C1a O1b 68.7(18) 1_555 1_555 n
Cu2 C1a Cl2 88.9(14) 1_555 1_555 n
Cu2 C1a Os 96.6(19) 1_555 1_555 n
O1a C1a O1b 177.2(13) 1_555 1_555 n
O1a C1a Cl2 157.1(22) 1_555 1_555 n
O1a C1a Os 17.4(13) 1_555 1_555 n
O1b C1a Cl2 20.1(21) 1_555 1_555 n
O1b C1a Os 165.4(16) 1_555 1_555 n
Cl2 C1a Os 174.5(21) 1_555 1_555 n
C1a O1a C1a 147.4(25) 1_555 12_565 n
C1a O1a Os 106.3(13) 1_555 1_555 n
C1a O1a Os 106.3(13) 12_565 1_555 n
Cu2 O1b C1a 67.8(18) 1_555 1_555 n
Cu2 O1b O1b 138.2(17) 1_555 13_555 n
Cu2 O1b Cl2 158(4) 1_555 1_555 n
C1a O1b O1b 154.1(13) 1_555 13_555 n
C1a O1b Cl2 135(4) 1_555 1_555 n
O1b O1b Cl2 19.4(34) 13_555 1_555 n
Cu2 Cl2 Cu2 113.1(29) 1_555 13_555 n
Cu2 Cl2 C1a 39.3(11) 1_555 1_555 n
Cu2 Cl2 C1a 152.3(28) 1_555 13_555 n
Cu2 Cl2 O1b 14.1(26) 1_555 1_555 n
Cu2 Cl2 O1b 127(4) 1_555 13_555 n
Cu2 Cl2 C1a 152.3(28) 13_555 1_555 n
Cu2 Cl2 C1a 39.3(11) 13_555 13_555 n
Cu2 Cl2 O1b 127(4) 13_555 1_555 n
Cu2 Cl2 O1b 14.1(26) 13_555 13_555 n
C1a Cl2 C1a 168.4(32) 1_555 13_555 n
C1a Cl2 O1b 25.2(20) 1_555 1_555 n
C1a Cl2 O1b 166(5) 1_555 13_555 n
C1a Cl2 O1b 166(5) 13_555 1_555 n
C1a Cl2 O1b 25.2(20) 13_555 13_555 n
O1b Cl2 O1b 141(7) 1_555 13_555 n
C1a Os C1a 112.6(16) 1_555 12_565 n
C1a Os O1a 56.3(8) 1_555 1_555 n
C1a Os O1a 56.3(8) 12_565 1_555 n
loop_
_geom_bond_atom_site_label_1
_geom_bond_atom_site_label_2
_geom_bond_distance
_geom_bond_site_symmetry_2
_geom_bond_publ_flag
Cu1 Cu1 3.485(13) 14_555 n
Cu1 Cu1 3.485(13) 19_555 n
Cu1 Cl1 2.465(9) 1_555 n
Cu1 N1 2.0076(31) 1_555 n
Cu1 N1 2.0076(31) 4_555 n
Cu1 N1 2.0076(31) 12_565 n
Cu1 N1 2.947(4) 17_555 n
Cu1 N1 2.947(4) 19_555 n
Cu1 N1 2.947(4) 23_565 n
Cu1 N1 2.0076(31) -10_565 n
Cu1 N1 2.947(4) -14_565 n
Cu1 N2 3.019(4) 1_555 n
Cu1 N2 3.019(4) 4_555 n
Cu1 N2 3.019(4) 12_565 n
Cu1 N2 3.019(4) -10_565 n
Cu1 Cu2 2.76(4) 1_555 n
Cu1 Cu2 2.76(4) 12_565 n
Cu1 C1a 3.145(18) 1_555 n
Cu1 C1a 3.145(18) 12_565 n
Cu1 O1a 2.603(29) 1_555 n
Cu1 Os 2.178(10) 1_555 n
C1 C2 1.489(9) 1_555 n
C1 C3 2.486(6) 1_555 n
C1 C3 2.486(6) 7_555 n
C1 N1 2.102(7) 1_555 n
C1 N1 2.102(7) 19_555 n
C1 N2 1.332(5) 1_555 n
C1 N2 1.332(5) 19_555 n
C1 Cu2 3.225(16) 1_555 n
C1 Cu2 3.225(16) 19_555 n
C2 C1 1.489(9) 1_555 n
C2 C2 2.393(11) 7_555 n
C2 C2 2.393(11) 9_555 n
C2 C3 1.399(5) 1_555 n
C2 C3 1.399(5) 7_555 n
C2 C3 2.798(9) 9_555 n
C2 N2 2.486(6) 1_555 n
C2 N2 2.486(6) 19_555 n
C3 C1 2.486(6) 1_555 n
C3 C1 2.486(6) 9_555 n
C3 C2 1.399(5) 1_555 n
C3 C2 2.798(9) 7_555 n
C3 C2 1.399(5) 9_555 n
C3 C3 2.453(12) 7_555 n
C3 C3 2.453(12) 9_555 n
C3 N2 2.900(5) 1_555 n
C3 N2 2.900(5) 13_555 n
C3 H1 1.071(17) 1_555 n
Cl1 Cu1 2.465(9) 1_555 n
Cl1 Cu1 2.465(9) 10_555 n
Cl1 Cu1 2.465(9) 14_555 n
Cl1 Cu1 2.465(9) 19_555 n
Cl1 N1 3.1263(32) 1_555 n
Cl1 N1 3.1263(32) 4_555 n
Cl1 N1 3.1263(32) 10_555 n
Cl1 N1 3.1263(32) 12_565 n
Cl1 N1 3.1263(32) 14_555 n
Cl1 N1 3.1263(32) 17_555 n
Cl1 N1 3.1263(32) 19_555 n
Cl1 N1 3.1263(32) 23_565 n
Cl1 N1 3.1263(32) -1_565 n
Cl1 N1 3.1263(32) -4_565 n
Cl1 N1 3.1263(32) -10_565 n
Cl1 N1 3.1263(32) -12_555 n
Cl1 N1 3.1263(32) -14_565 n
Cl1 N1 3.1263(32) -17_565 n
Cl1 N1 3.1263(32) -19_565 n
Cl1 N1 3.1263(32) -23_555 n
N1 Cu1 2.0076(31) 1_555 n
N1 Cu1 2.947(4) 19_555 n
N1 C1 2.102(7) 1_555 n
N1 Cl1 3.1263(32) 1_555 n
N1 N1 2.907(7) 4_555 n
N1 N1 1.335(7) 19_555 n
N1 N1 2.767(7) -10_565 n
N1 N1 3.072(7) -14_565 n
N1 N2 1.333(5) 1_555 n
N1 N2 3.377(5) 4_555 n
N1 N2 2.177(4) 19_555 n
N1 Cu2 2.442(24) 1_555 n
N1 O1a 3.340(23) 1_555 n
N1 Os 3.011(11) 1_555 n
N2 Cu1 3.019(4) 1_555 n
N2 C1 1.332(5) 1_555 n
N2 C2 2.486(6) 1_555 n
N2 C3 2.900(5) 1_555 n
N2 N1 1.333(5) 1_555 n
N2 N1 3.377(5) 4_555 n
N2 N1 2.177(4) 19_555 n
N2 N2 3.312(6) 4_555 n
N2 N2 2.221(6) 19_555 n
N2 Cu2 1.942(14) 1_555 n
N2 C1a 3.014(14) 1_555 n
N2 O1a 3.453(15) 1_555 n
N2 O1b 3.047(24) 1_555 n
N2 Cl2 3.789(29) 1_555 n
N2 Os 3.247(7) 1_555 n
H1 C3 1.071(17) 1_555 n
H1 Cu2 2.977(31) 1_555 n
H1 Cu2 2.977(31) 13_555 n
H1 Cl2 3.05(4) 1_555 n
Cu2 Cu1 2.76(4) 1_555 n
Cu2 C1 3.225(16) 1_555 n
Cu2 C1 3.225(16) 4_555 n
Cu2 N1 2.442(24) 1_555 n
Cu2 N1 2.442(24) 4_555 n
Cu2 N2 1.942(14) 1_555 n
Cu2 N2 1.942(14) 4_555 n
Cu2 H1 2.977(31) 1_555 n
Cu2 H1 2.977(31) 4_555 n
Cu2 C1a 1.56(4) 1_555 n
Cu2 O1a 2.31(4) 1_555 n
Cu2 O1b 1.57(4) 1_555 n
Cu2 O1b 3.129(33) 13_555 n
Cu2 Cl2 2.469(19) 1_555 n
Cu2 Os 2.19(4) 1_555 n
C1a Cu1 3.145(18) 1_555 n
C1a N2 3.014(14) 1_555 n
C1a N2 3.014(14) 4_555 n
C1a Cu2 1.56(4) 1_555 n
C1a C1a 2.268(23) 12_565 n
C1a O1a 1.181(9) 1_555 n
C1a O1b 1.162(10) 1_555 n
C1a O1b 3.387(26) 12_565 n
C1a O1b 2.865(29) 13_555 n
C1a Cl2 1.942(14) 1_555 n
C1a Os 1.363(15) 1_555 n
O1a Cu1 2.603(29) 1_555 n
O1a N1 3.340(23) 1_555 n
O1a N1 3.340(23) 4_555 n
O1a N1 3.340(23) 12_565 n
O1a N1 3.340(23) -10_565 n
O1a N2 3.453(15) 1_555 n
O1a N2 3.453(15) 4_555 n
O1a N2 3.453(15) 12_565 n
O1a N2 3.453(15) -10_565 n
O1a Cu2 2.31(4) 1_555 n
O1a Cu2 2.31(4) 12_565 n
O1a C1a 1.181(9) 1_555 n
O1a C1a 1.181(9) 12_565 n
O1a O1b 2.342(14) 1_555 n
O1a O1b 2.342(14) 12_565 n
O1a Cl2 3.065(18) 1_555 n
O1a Cl2 3.065(18) 12_565 n
O1a Os 0.425(31) 1_555 n
O1b N2 3.047(24) 1_555 n
O1b N2 3.047(24) 4_555 n
O1b Cu2 1.57(4) 1_555 n
O1b Cu2 3.129(33) 13_555 n
O1b C1a 1.162(10) 1_555 n
O1b C1a 3.387(26) 12_565 n
O1b C1a 2.865(29) 13_555 n
O1b O1a 2.342(14) 1_555 n
O1b Cl2 0.941(30) 1_555 n
O1b Os 2.504(16) 1_555 n
Cl2 N2 3.789(29) 1_555 n
Cl2 N2 3.789(29) 4_555 n
Cl2 N2 3.789(29) 13_555 n
Cl2 N2 3.789(29) 16_555 n
Cl2 H1 3.05(4) 1_555 n
Cl2 H1 3.05(4) 4_555 n
Cl2 Cu2 2.469(19) 1_555 n
Cl2 Cu2 2.469(19) 13_555 n
Cl2 C1a 1.942(14) 1_555 n
Cl2 C1a 1.942(14) 13_555 n
Cl2 O1a 3.065(18) 1_555 n
Cl2 O1a 3.065(18) 13_555 n
Cl2 O1b 0.941(30) 1_555 n
Cl2 O1b 0.941(30) 13_555 n
Cl2 Os 3.301(10) 1_555 n
Cl2 Os 3.301(10) 13_555 n
Os Cu1 2.178(10) 1_555 n
Os N1 3.011(11) 1_555 n
Os N1 3.011(11) 4_555 n
Os N1 3.011(11) 12_565 n
Os N1 3.011(11) -10_565 n
Os N2 3.247(7) 1_555 n
Os N2 3.247(7) 4_555 n
Os N2 3.247(7) 12_565 n
Os N2 3.247(7) -10_565 n
Os Cu2 2.19(4) 1_555 n
Os Cu2 2.19(4) 12_565 n
Os C1a 1.363(15) 1_555 n
Os C1a 1.363(15) 12_565 n
Os O1a 0.425(31) 1_555 n
Os O1b 2.504(16) 1_555 n
Os O1b 2.504(16) 12_565 n
Os Cl2 3.301(10) 1_555 n
Os Cl2 3.301(10) 12_565 n
loop_
_pd_meas_intensity_total
_pd_proc_ls_weight
_pd_proc_intensity_bkg_calc
_pd_calc_intensity_total
5650(160) 0.0 1439. .
5370(160) 0.0 1432. .
4500(150) 0.0 1426. .
4110(140) 0.0 1419. .
3570(130) 0.0 1412. .
3420(130) 0.0 1405. .
2950(120) 0.0 1399. .
2990(120) 0.0 1392. .
2400(110) 0.0 1386. .
2420(110) 0.0 1379. .
2240(100) 0.0 1373. .
2074(98) 0.0 1367. .
2051(98) 0.0 1360. .
1901(94) 0.0 1354. .
1667(88) 0.0 1348. .
1700(89) 0.0 1342. .
1733(90) 0.0 1336. .
1546(85) 0.0 1330. .
1648(88) 0.0 1324. .
1770(91) 0.0 1318. .
1634(87) 0.0 1312. .
1546(85) 0.0 1307. .
1574(86) 0.0 1301. .
1588(86) 0.0 1295. .
1564(86) 0.0 1290. .
1541(85) 0.0 1284. .
1705(89) 0.0 1279. .
1611(87) 0.0 1273. .
1620(87) 0.0 1268. .
1372(80) 0.0 1263. .
1475(83) 0.0 1257. .
1354(80) 0.0 1252. .
1330(79) 0.0 1247. .
1396(81) 0.0 1242. .
1307(78) 0.0 1237. .
1419(81) 0.0 1232. .
1349(79) 0.0 1227. .
1246(76) 0.0 1222. .
1120(72) 0.0 1217. .
1260(77) 0.0 1212. .
1157(74) 0.0 1207. .
1209(75) 0.0 1202. .
1246(76) 0.0 1198. .
1246(76) 0.0 1193. .
1190(75) 0.0 1189. .
1110(72) 0.0 1184. .
1096(72) 0.0 1179. .
1162(74) 0.0 1175. .
1092(71) 0.0 1171. .
1087(71) 0.0 1166. .
1110(72) 0.0 1162. .
1162(74) 0.0 1158. .
1036(70) 0.0 1153. .
1157(74) 0.0 1149. .
1124(72) 0.0 1145. .
1059(70) 0.0 1141. .
1050(70) 0.0 1137. .
1050(70) 0.0 1133. .
1050(70) 0.0 1129. .
1106(72) 0.0 1125. .
970(67) 0.0 1121. .
1040(70) 0.0002041 1117. 1117.
1003(68) 0.0002163 1113. 1113.
1129(73) 0.0001877 1109. 1109.
1087(71) 0.0001984 1105. 1109.
1054(70) 0.0002041 1102. 1105.
1092(71) 0.0001984 1098. 1102.
1017(69) 0.0002100 1094. 1099.
1092(71) 0.0001984 1091. 1095.
1115(72) 0.0001929 1087. 1092.
1120(72) 0.0001929 1084. 1089.
1012(69) 0.0002100 1080. 1086.
1073(71) 0.0001984 1077. 1084.
1078(71) 0.0001984 1073. 1081.
993(68) 0.0002163 1070. 1080.
984(68) 0.0002163 1066. 1083.
1148(73) 0.0001877 1063. 1092.
1302(78) 0.0001644 1060. 1113.
1284(77) 0.0001687 1056. 1153.
1415(81) 0.0001524 1053. 1217.
1597(86) 0.0001352 1050. 1306.
1578(86) 0.0001352 1047. 1419.
1527(84) 0.0001417 1044. 1553.
1723(90) 0.0001235 1041. 1706.
1901(94) 0.0001132 1037. 1879.
1770(91) 0.0001208 1034. 2074.
2310(100) 0.0000925 1031. 2295.
2290(100) 0.0000943 1028. 2548.
2730(110) 0.0000783 1025. 2841.
3210(120) 0.0000672 1023. 3189.
3630(130) 0.0000592 1020. 3611.
4190(140) 0.0000510 1017. 4144.
5220(160) 0.0000411 1014. 4847.
5980(170) 0.0000359 1011. 5808.
7850(190) 0.0000271 1008. 7103.
9130(210) 0.0000233 1006. 8684.
11290(230) 0.0000189 1003. 10228.
12090(240) 0.0000177 1000. 11131.
12520(240) 0.0000171 998. 10796.
10480(220) 0.0000205 995. 9116.
6960(120) 0.0000650 992. 6665.
4630(100) 0.0000980 990. 4305.
2887(80) 0.0001562 987. 2607.
1743(62) 0.0002601 985. 1654.
1237(52) 0.000370 982. 1228.
1080(48) 0.000434 980. 1072.
1062(48) 0.000434 977. 1021.
1128(49) 0.000416 975. 1004.
950(45) 0.000494 973. 995.
1025(47) 0.000453 970. 989.
976(46) 0.000473 968. 984.
970(46) 0.000473 966. 980.
966(46) 0.000473 963. 976.
993(46) 0.000473 961. 972.
962(45) 0.000494 959. 968.
991(46) 0.000473 957. 965.
975(46) 0.000473 954. 962.
921(44) 0.000517 952. 963.
932(45) 0.000494 950. 961.
794(41) 0.000595 948. 958.
857(43) 0.000541 946. 956.
825(42) 0.000567 944. 954.
877(43) 0.000541 942. 952.
884(43) 0.000541 940. 950.
905(44) 0.000517 938. 948.
904(44) 0.000517 936. 942.
935(45) 0.000494 934. 941.
837(42) 0.000567 932. 940.
939(45) 0.000494 930. 939.
921(44) 0.000517 928. 938.
868(43) 0.000541 926. 937.
997(46) 0.000473 924. 936.
948(45) 0.000494 922. 936.
919(44) 0.000517 920. 937.
954(45) 0.000494 919. 941.
1006(46) 0.000473 917. 951.
1086(48) 0.000434 915. 975.
1158(50) 0.000400 913. 1025.
1194(51) 0.000384 912. 1116.
1377(55) 0.0003306 910. 1259.
1564(58) 0.0002973 908. 1462.
1788(63) 0.0002520 907. 1727.
1933(65) 0.0002367 905. 2057.
2339(72) 0.0001929 903. 2464.
2801(79) 0.0001602 902. 2971.
3431(87) 0.0001321 900. 3629.
4295(97) 0.0001063 899. 4522.
5740(110) 0.0000783 897. 5749.
7320(130) 0.0000610 895. 7349.
9150(140) 0.0000489 894. 9128.
10370(150) 0.0000433 892. 10548.
10580(150) 0.0000422 891. 10894.
9620(150) 0.0000469 889. 9761.
7290(130) 0.0000620 888. 7494.
5010(110) 0.0000907 887. 4982.
3250(84) 0.0001417 885. 2999.
1827(63) 0.0002520 884. 1803.
1315(53) 0.000356 882. 1234.
971(46) 0.000473 881. 1021.
859(43) 0.000541 880. 949.
893(44) 0.000517 878. 925.
852(43) 0.000541 877. 915.
902(44) 0.000517 876. 909.
899(44) 0.000517 874. 904.
812(41) 0.000595 873. 900.
795(41) 0.000595 872. 897.
868(43) 0.000541 870. 894.
808(41) 0.000595 869. 892.
838(42) 0.000567 868. 890.
910(44) 0.000517 867. 888.
869(43) 0.000541 866. 887.
915(44) 0.000517 864. 886.
804(41) 0.000595 863. 886.
922(44) 0.000517 862. 886.
897(44) 0.000517 861. 886.
874(43) 0.000541 860. 887.
921(44) 0.000517 859. 889.
938(45) 0.000494 858. 894.
913(44) 0.000517 856. 904.
1031(47) 0.000453 855. 924.
1120(49) 0.000416 854. 979.
1293(53) 0.000356 853. 1089.
1472(57) 0.0003078 852. 1280.
1662(60) 0.0002778 851. 1580.
2069(67) 0.0002228 850. 2006.
2381(72) 0.0001929 849. 2583.
3080(82) 0.0001487 848. 3359.
4194(96) 0.0001085 847. 4426.
5700(110) 0.0000783 846. 5905.
7570(130) 0.0000592 845. 7859.
9910(150) 0.0000450 844. 10078.
11890(160) 0.0000376 843. 11922.
12300(170) 0.0000363 842. 12500.
11000(160) 0.0000406 841. 11270.
8230(140) 0.0000549 840. 8622.
5420(110) 0.0000842 840. 5653.
2930(110) 0.0000826 839. 3312.
1758(85) 0.0001384 838. 1910.
1154(68) 0.0002163 837. 1252.
962(62) 0.0002601 836. 1002.
897(43) 0.000541 835. 920.
884(43) 0.000541 834. 891.
820(41) 0.000595 834. 879.
829(41) 0.000595 833. 870.
855(42) 0.000567 832. 864.
960(44) 0.000517 831. 858.
924(44) 0.000517 830. 854.
855(42) 0.000567 830. 850.
871(42) 0.000567 829. 847.
851(42) 0.000567 828. 844.
843(41) 0.000595 827. 842.
811(41) 0.000595 826. 840.
854(42) 0.000567 826. 838.
856(42) 0.000567 825. 836.
855(42) 0.000567 824. 834.
887(43) 0.000541 824. 833.
844(41) 0.000595 823. 831.
874(42) 0.000567 822. 830.
901(43) 0.000541 821. 829.
822(41) 0.000595 821. 828.
864(42) 0.000567 820. 827.
862(42) 0.000567 819. 826.
854(42) 0.000567 819. 826.
812(41) 0.000595 818. 826.
839(41) 0.000595 818. 826.
831(41) 0.000595 817. 822.
874(42) 0.000567 816. 822.
848(42) 0.000567 816. 821.
837(41) 0.000595 815. 820.
797(40) 0.000625 814. 818.
817(41) 0.000595 814. 816.
861(42) 0.000567 813. 814.
894(43) 0.000541 813. 813.
833(41) 0.000595 812. 812.
875(42) 0.000567 811. 812.
782(40) 0.000625 811. 811.
769(39) 0.000657 810. 810.
873(42) 0.000567 810. 810.
838(41) 0.000595 809. 809.
834(41) 0.000595 809. 809.
854(42) 0.000567 808. 808.
730(38) 0.000693 808. 808.
782(40) 0.000625 807. 807.
852(42) 0.000567 807. 807.
835(41) 0.000595 806. 806.
765(39) 0.000657 806. 806.
801(40) 0.000625 805. 805.
799(40) 0.000625 805. 805.
812(41) 0.000595 804. 805.
832(41) 0.000595 804. 805.
819(41) 0.000595 803. 805.
763(39) 0.000657 803. 805.
803(40) 0.000625 802. 807.
808(40) 0.000625 802. 809.
814(41) 0.000595 801. 812.
800(40) 0.000625 801. 816.
847(42) 0.000567 800. 820.
880(42) 0.000567 800. 821.
798(40) 0.000625 799. 819.
818(41) 0.000595 799. 815.
816(41) 0.000595 799. 809.
812(41) 0.000595 798. 804.
800(40) 0.000625 798. 800.
807(40) 0.000625 797. 799.
769(39) 0.000657 797. 798.
852(42) 0.000567 797. 797.
854(42) 0.000567 796. 797.
844(41) 0.000595 796. 797.
845(42) 0.000567 795. 796.
775(40) 0.000625 795. 796.
739(39) 0.000657 795. 796.
815(41) 0.000595 794. 796.
789(40) 0.000625 794. 795.
886(43) 0.000541 793. 795.
807(40) 0.000625 793. 796.
821(41) 0.000595 793. 797.
836(41) 0.000595 792. 800.
780(40) 0.000625 792. 806.
793(40) 0.000625 792. 819.
821(41) 0.000595 791. 841.
898(43) 0.000541 791. 878.
929(44) 0.000517 791. 932.
1033(46) 0.000473 790. 1008.
1134(49) 0.000416 790. 1095.
1191(50) 0.000400 790. 1168.
1219(51) 0.000384 789. 1191.
1204(50) 0.000400 789. 1144.
1091(48) 0.000434 789. 1046.
929(44) 0.000517 788. 942.
876(42) 0.000567 788. 864.
846(42) 0.000567 788. 820.
784(40) 0.000625 787. 800.
800(40) 0.000625 787. 793.
813(41) 0.000595 787. 790.
804(40) 0.000625 786. 789.
763(39) 0.000657 786. 789.
797(58) 0.0002973 786. 788.
830(40) 0.000625 785. 787.
809(40) 0.000625 785. 787.
763(38) 0.000693 785. 787.
786(39) 0.000657 785. 786.
807(40) 0.000625 784. 786.
791(39) 0.000657 784. 786.
816(40) 0.000625 784. 785.
845(41) 0.000595 783. 785.
782(39) 0.000657 783. 785.
770(39) 0.000657 783. 784.
788(39) 0.000657 783. 784.
737(38) 0.000693 782. 784.
845(41) 0.000595 782. 784.
782(39) 0.000657 782. 784.
761(38) 0.000693 782. 783.
771(39) 0.000657 781. 783.
774(39) 0.000657 781. 783.
784(39) 0.000657 781. 783.
832(40) 0.000625 781. 783.
855(41) 0.000595 780. 783.
796(39) 0.000657 780. 784.
801(39) 0.000657 780. 784.
813(40) 0.000625 780. 785.
759(38) 0.000693 779. 785.
741(38) 0.000693 779. 785.
749(38) 0.000693 779. 786.
741(38) 0.000693 779. 787.
842(40) 0.000625 778. 789.
724(37) 0.000730 778. 794.
811(40) 0.000625 778. 804.
898(42) 0.000567 778. 827.
946(43) 0.000541 777. 875.
993(44) 0.000517 777. 964.
1124(47) 0.000453 777. 1112.
1395(53) 0.000356 777. 1333.
1639(58) 0.0002973 776. 1612.
1820(61) 0.0002687 776. 1877.
2009(64) 0.0002441 776. 2015.
1862(62) 0.0002601 776. 1934.
1702(59) 0.0002873 776. 1662.
1381(53) 0.000356 775. 1332.
1061(46) 0.000473 775. 1065.
950(43) 0.000541 775. 906.
869(41) 0.000595 775. 833.
845(41) 0.000595 774. 805.
814(40) 0.000625 774. 797.
767(38) 0.000693 774. 794.
788(39) 0.000657 774. 794.
771(39) 0.000657 774. 795.
761(38) 0.000693 773. 797.
832(40) 0.000625 773. 803.
841(40) 0.000625 773. 817.
795(39) 0.000657 773. 850.
1014(45) 0.000494 773. 926.
1158(48) 0.000434 772. 1078.
1269(51) 0.000384 772. 1355.
1720(59) 0.0002873 772. 1803.
2368(70) 0.0002041 772. 2418.
2958(79) 0.0001602 772. 3087.
3384(84) 0.0001417 771. 3564.
3409(85) 0.0001384 771. 3582.
2794(76) 0.0001731 771. 3086.
2081(65) 0.0002367 771. 2324.
1436(54) 0.0003429 771. 1627.
1100(47) 0.000453 770. 1168.
853(41) 0.000595 770. 936.
771(39) 0.000657 770. 842.
803(39) 0.000657 770. 809.
799(39) 0.000657 770. 797.
782(39) 0.000657 769. 792.
787(39) 0.000657 769. 788.
753(38) 0.000693 769. 785.
833(40) 0.000625 769. 783.
681(36) 0.000772 769. 782.
778(39) 0.000657 768. 781.
788(39) 0.000657 768. 781.
796(39) 0.000657 768. 782.
752(38) 0.000693 768. 783.
745(38) 0.000693 768. 787.
742(38) 0.000693 768. 792.
722(37) 0.000730 767. 796.
722(37) 0.000730 767. 797.
792(39) 0.000657 767. 794.
770(39) 0.000657 767. 788.
711(37) 0.000730 767. 783.
763(38) 0.000693 766. 780.
743(38) 0.000693 766. 778.
738(38) 0.000693 766. 778.
745(38) 0.000693 766. 779.
795(39) 0.000657 766. 780.
758(38) 0.000693 765. 782.
811(40) 0.000625 765. 785.
785(39) 0.000657 765. 792.
743(38) 0.000693 765. 806.
876(41) 0.000595 765. 841.
921(43) 0.000541 765. 920.
1177(49) 0.000416 764. 1080.
1404(53) 0.000356 764. 1369.
1838(61) 0.0002687 764. 1809.
2542(69) 0.0002100 764. 2350.
2944(74) 0.0001826 764. 2828.
3167(77) 0.0001687 764. 3009.
2910(74) 0.0001826 763. 2759.
2196(64) 0.0002441 763. 2201.
1584(54) 0.0003429 763. 1610.
1183(46) 0.000473 763. 1179.
954(41) 0.000595 763. 942.
774(37) 0.000730 762. 840.
743(36) 0.000772 762. 803.
757(36) 0.000772 762. 790.
792(37) 0.000730 762. 785.
819(38) 0.000693 762. 783.
798(38) 0.000693 762. 783.
797(38) 0.000693 761. 788.
738(36) 0.000772 761. 803.
803(38) 0.000693 761. 838.
963(42) 0.000567 761. 906.
1046(43) 0.000541 761. 1020.
1233(47) 0.000453 760. 1173.
1372(50) 0.000400 760. 1328.
1490(52) 0.000370 760. 1418.
1423(51) 0.000384 760. 1385.
1218(47) 0.000453 760. 1241.
1066(44) 0.000517 760. 1062.
855(39) 0.000657 759. 917.
804(38) 0.000693 759. 831.
778(37) 0.000730 759. 791.
801(38) 0.000693 759. 775.
743(36) 0.000772 759. 770.
885(40) 0.000625 758. 767.
760(37) 0.000730 758. 766.
766(37) 0.000730 758. 766.
831(38) 0.000693 758. 766.
780(37) 0.000730 758. 769.
812(38) 0.000693 758. 775.
772(37) 0.000730 757. 787.
822(38) 0.000693 757. 805.
778(37) 0.000730 757. 829.
858(39) 0.000657 757. 848.
817(38) 0.000693 757. 854.
891(40) 0.000625 757. 840.
766(37) 0.000730 756. 815.
745(36) 0.000772 756. 790.
801(38) 0.000693 756. 773.
738(36) 0.000772 756. 764.
770(37) 0.000730 756. 761.
773(37) 0.000730 755. 759.
780(37) 0.000730 755. 759.
761(37) 0.000730 755. 759.
779(37) 0.000730 755. 759.
790(37) 0.000730 755. 761.
757(36) 0.000772 755. 765.
785(37) 0.000730 754. 773.
747(36) 0.000772 754. 789.
750(36) 0.000772 754. 813.
850(39) 0.000657 754. 843.
824(38) 0.000693 754. 866.
864(39) 0.000657 753. 871.
874(39) 0.000657 753. 853.
824(38) 0.000693 753. 822.
790(37) 0.000730 753. 792.
754(36) 0.000772 753. 773.
733(36) 0.000772 753. 763.
707(35) 0.000816 752.3 759.0
812(38) 0.000693 752. 758.
779(37) 0.000730 752. 757.
724(36) 0.000772 752. 757.
760(37) 0.000730 752. 757.
764(37) 0.000730 751. 757.
733(36) 0.000772 751. 757.
753(36) 0.000772 751. 757.
757(36) 0.000772 751. 757.
721(35) 0.000816 750.7 757.7
746(36) 0.000772 751. 758.
719(35) 0.000816 750.3 758.7
702(35) 0.000816 750.1 759.5
736(36) 0.000772 750. 760.
758(37) 0.000730 750. 762.
758(36) 0.000772 750. 764.
763(37) 0.000730 749. 766.
741(36) 0.000772 749. 768.
758(37) 0.000730 749. 772.
748(36) 0.000772 749. 778.
776(37) 0.000730 749. 790.
824(38) 0.000693 748. 818.
901(40) 0.000625 748. 887.
1037(43) 0.000541 748. 1039.
1177(46) 0.000473 748. 1333.
1765(57) 0.0003078 748. 1794.
2375(67) 0.0002228 748. 2356.
2812(73) 0.0001877 747. 2821.
3086(76) 0.0001731 747. 2940.
2791(72) 0.0001929 747. 2616.
2055(62) 0.0002601 747. 2033.
1472(52) 0.000370 747. 1476.
1155(46) 0.000473 746. 1100.
885(40) 0.000625 746. 908.
808(38) 0.000693 746. 831.
795(37) 0.000730 746. 806.
830(38) 0.000693 746. 802.
832(38) 0.000693 745. 814.
844(38) 0.000693 745. 854.
942(41) 0.000595 745. 952.
1121(45) 0.000494 745. 1154.
1440(51) 0.000384 745. 1496.
1934(59) 0.0002873 744. 1950.
2375(66) 0.0002296 744. 2378.
2580(69) 0.0002100 744. 2569.
2472(68) 0.0002163 744. 2391.
2017(61) 0.0002687 744. 1941.
1439(51) 0.000384 743. 1458.
1125(45) 0.000494 743. 1105.
928(40) 0.000625 743. 911.
780(37) 0.000730 743. 828.
765(36) 0.000772 743. 800.
769(36) 0.000772 743. 795.
842(38) 0.000693 742. 804.
837(38) 0.000693 742. 837.
960(41) 0.000595 742. 920.
1112(44) 0.000517 742. 1088.
1440(51) 0.000384 742. 1364.
1783(57) 0.0003078 741. 1712.
2130(63) 0.0002520 741. 2015.
2297(65) 0.0002367 741. 2111.
2006(61) 0.0002687 741. 1928.
1661(55) 0.0003306 741. 1572.
1300(48) 0.000434 740. 1222.
1032(43) 0.000541 740. 981.
925(40) 0.000625 740. 856.
883(39) 0.000657 740. 806.
824(38) 0.000693 740. 792.
781(37) 0.000730 739. 796.
750(36) 0.000772 739. 821.
843(38) 0.000693 739. 889.
1021(42) 0.000567 739. 1039.
1305(48) 0.000434 739. 1311.
1682(55) 0.0003306 738. 1699.
2132(63) 0.0002520 738. 2101.
2309(65) 0.0002367 738. 2337.
2234(64) 0.0002441 738. 2253.
1932(59) 0.0002873 738. 1889.
1413(50) 0.000400 737. 1450.
1131(45) 0.000494 737. 1105.
916(40) 0.000625 737. 905.
878(39) 0.000657 737. 813.
775(36) 0.000772 737. 778.
754(36) 0.000772 736. 765.
734(35) 0.000816 736.2 760.3
731(35) 0.000816 736.0 759.4
768(36) 0.000772 736. 763.
816(37) 0.000730 736. 772.
858(39) 0.000657 735. 787.
889(39) 0.000657 735. 804.
842(38) 0.000693 735. 812.
887(39) 0.000657 735. 808.
831(38) 0.000693 735. 792.
821(38) 0.000693 734. 772.
775(36) 0.000772 734. 756.
768(36) 0.000772 734. 747.
741(35) 0.000816 733.8 742.6
735(35) 0.000816 733.6 740.9
755(36) 0.000772 733. 741.
739(35) 0.000816 733.2 742.0
751(36) 0.000772 733. 746.
772(36) 0.000772 733. 756.
771(36) 0.000772 733. 774.
823(38) 0.000693 732. 797.
836(38) 0.000693 732. 818.
840(38) 0.000693 732. 827.
794(37) 0.000730 732. 816.
833(38) 0.000693 732. 792.
775(36) 0.000772 731. 768.
729(35) 0.000816 731.1 750.5
747(36) 0.000772 731. 741.
787(37) 0.000730 731. 737.
767(36) 0.000772 731. 736.
674(34) 0.000865 730.3 737.1
740(35) 0.000816 730.1 741.0
773(36) 0.000772 730. 751.
745(36) 0.000772 730. 769.
793(37) 0.000730 730. 796.
832(38) 0.000693 729. 825.
828(38) 0.000693 729. 843.
809(37) 0.000730 729. 839.
824(38) 0.000693 729. 813.
796(37) 0.000730 728. 782.
818(38) 0.000693 728. 756.
801(37) 0.000730 728. 741.
723(35) 0.000816 727.9 734.1
740(35) 0.000816 727.7 731.2
733(35) 0.000816 727.5 729.9
725(35) 0.000816 727.3 729.3
754(36) 0.000772 727. 729.
757(36) 0.000772 727. 728.
668(33) 0.000918 726.6 728.1
695(34) 0.000865 726.4 727.8
711(35) 0.000816 726.2 727.5
743(36) 0.000772 726. 728.
728(35) 0.000816 725.8 727.6
732(34) 0.000865 725.6 727.3
726(34) 0.000865 725.4 727.1
706(33) 0.000918 725.2 727.0
689(33) 0.000918 725.0 726.8
720(34) 0.000865 724.8 726.7
761(35) 0.000816 724.6 726.5
767(35) 0.000816 724.4 726.4
717(34) 0.000865 724.2 726.3
724(34) 0.000865 724.0 726.2
781(35) 0.000816 723.8 726.1
720(34) 0.000865 723.6 726.1
722(34) 0.000865 723.4 726.1
738(34) 0.000865 723.2 726.1
717(34) 0.000865 722.9 726.1
730(34) 0.000865 722.7 726.3
714(34) 0.000865 722.5 726.4
714(34) 0.000865 722.3 726.8
716(34) 0.000865 722.1 727.5
721(34) 0.000865 721.9 729.0
727(34) 0.000865 721.7 733.0
736(34) 0.000865 721.5 742.3
793(36) 0.000772 721. 761.
780(35) 0.000816 721.1 791.9
866(37) 0.000730 721. 830.
834(37) 0.000730 721. 862.
916(39) 0.000657 720. 869.
863(37) 0.000730 720. 846.
757(35) 0.000816 720.1 808.5
769(35) 0.000816 719.9 773.8
751(35) 0.000816 719.7 751.5
776(35) 0.000816 719.5 741.6
803(36) 0.000772 719. 741.
782(35) 0.000816 719.0 750.0
770(35) 0.000816 718.8 775.0
844(37) 0.000730 719. 829.
933(39) 0.000657 718. 924.
1018(41) 0.000595 718. 1051.
1141(43) 0.000541 718. 1172.
1220(45) 0.000494 718. 1224.
1160(44) 0.000517 718. 1171.
997(40) 0.000625 717. 1047.
917(39) 0.000657 717. 920.
850(37) 0.000730 717. 830.
818(36) 0.000772 717. 785.
720(34) 0.000865 716.6 774.1
753(35) 0.000816 716.4 794.2
877(38) 0.000693 716. 861.
985(40) 0.000625 716. 1009.
1378(48) 0.000434 716. 1273.
1801(55) 0.0003306 716. 1635.
2104(60) 0.0002778 715. 1984.
2191(61) 0.0002687 715. 2144.
2061(59) 0.0002873 715. 2003.
1715(54) 0.0003429 715. 1648.
1334(47) 0.000453 715. 1272.
1045(41) 0.000595 714. 997.
869(38) 0.000693 714. 846.
794(36) 0.000772 714. 778.
748(34) 0.000865 713.7 751.8
764(35) 0.000816 713.5 741.3
734(34) 0.000865 713.3 736.6
771(35) 0.000816 713.1 733.3
725(34) 0.000865 712.9 731.0
696(33) 0.000918 712.7 729.4
701(33) 0.000918 712.5 728.3
710(34) 0.000865 712.3 727.8
682(33) 0.000918 712.1 727.7
722(34) 0.000865 711.9 728.2
715(34) 0.000865 711.7 729.6
714(34) 0.000865 711.5 732.9
745(34) 0.000865 711.3 741.4
755(35) 0.000816 711.1 763.2
768(35) 0.000816 710.9 814.3
885(38) 0.000693 711. 914.
1063(42) 0.000567 710. 1069.
1256(46) 0.000473 710. 1248.
1365(48) 0.000434 710. 1377.
1289(46) 0.000473 710. 1377.
1136(43) 0.000541 710. 1244.
990(40) 0.000625 709. 1060.
913(39) 0.000657 709. 903.
811(36) 0.000772 709. 806.
782(35) 0.000816 708.9 760.1
714(34) 0.000865 708.7 745.3
721(34) 0.000865 708.5 750.2
759(35) 0.000816 708.3 772.8
810(36) 0.000772 708. 816.
863(37) 0.000730 708. 873.
921(39) 0.000657 708. 926.
917(39) 0.000657 707. 945.
885(38) 0.000693 707. 916.
874(38) 0.000693 707. 857.
803(36) 0.000772 707. 798.
738(34) 0.000865 706.7 756.3
737(34) 0.000865 706.5 733.9
751(35) 0.000816 706.3 724.3
697(33) 0.000918 706.1 720.6
745(34) 0.000865 705.9 719.3
740(34) 0.000865 705.7 718.9
694(33) 0.000918 705.5 719.0
741(27) 0.001372 705.3 719.5
688(31) 0.001041 705.1 720.4
718(32) 0.000977 704.9 721.8
723(32) 0.000977 704.7 723.8
708(31) 0.001041 704.5 726.2
717(32) 0.000977 704.3 731.1
743(32) 0.000977 704.1 740.6
737(32) 0.000977 703.9 763.2
802(33) 0.000918 703.7 818.5
958(37) 0.000730 703. 941.
1196(41) 0.000595 703. 1164.
1491(46) 0.000473 703. 1488.
1887(53) 0.000356 703. 1826.
1938(53) 0.000356 703. 2021.
1915(53) 0.000356 702. 1944.
1559(48) 0.000434 702. 1643.
1151(41) 0.000595 702. 1291.
1026(38) 0.000693 702. 1016.
865(35) 0.000816 701.7 855.8
780(33) 0.000918 701.5 783.3
705(31) 0.001041 701.3 761.6
714(31) 0.001041 701.1 769.0
814(34) 0.000865 700.9 798.7
882(35) 0.000816 700.7 845.0
892(35) 0.000816 700.5 892.9
930(36) 0.000772 700. 918.
931(36) 0.000772 700. 901.
867(35) 0.000816 700.0 853.9
825(34) 0.000865 699.8 801.8
767(33) 0.000918 699.6 763.9
701(31) 0.001041 699.4 745.9
741(32) 0.000977 699.2 749.4
814(34) 0.000865 699.0 779.6
847(34) 0.000865 698.8 850.2
1027(38) 0.000693 699. 972.
1182(41) 0.000595 698. 1133.
1354(44) 0.000517 698. 1277.
1314(44) 0.000517 698. 1327.
1225(42) 0.000567 698. 1248.
1035(38) 0.000693 698. 1089.
859(35) 0.000816 697.4 932.3
766(33) 0.000918 697.3 823.0
770(33) 0.000918 697.1 766.5
734(32) 0.000977 696.9 750.2
711(31) 0.001041 696.7 764.3
779(33) 0.000918 696.5 808.0
875(35) 0.000816 696.3 879.8
989(37) 0.000730 696. 963.
1014(38) 0.000693 696. 1023.
1031(38) 0.000693 696. 1020.
942(36) 0.000772 696. 956.
830(34) 0.000865 695.4 868.0
796(33) 0.000918 695.2 793.4
713(31) 0.001041 695.0 746.3
723(32) 0.000977 694.8 723.6
773(33) 0.000918 694.6 716.6
752(32) 0.000977 694.4 719.1
725(32) 0.000977 694.2 728.7
739(32) 0.000977 694.0 742.9
756(32) 0.000977 693.8 756.1
749(32) 0.000977 693.7 760.8
761(33) 0.000918 693.5 752.9
743(32) 0.000977 693.3 737.1
710(31) 0.001041 693.1 721.1
698(31) 0.001041 692.9 709.6
700(31) 0.001041 692.7 703.4
720(32) 0.000977 692.5 700.3
742(32) 0.000977 692.3 700.5
717(31) 0.001041 692.2 702.6
694(31) 0.001041 692.0 706.2
730(32) 0.000977 691.8 710.1
742(32) 0.000977 691.6 712.3
719(32) 0.000977 691.4 711.2
673(30) 0.001111 691.2 707.5
707(31) 0.001041 691.0 703.4
659(30) 0.001111 690.9 700.7
725(32) 0.000977 690.7 700.7
722(32) 0.000977 690.5 704.9
730(32) 0.000977 690.3 716.2
745(32) 0.000977 690.1 738.3
739(32) 0.000977 689.9 771.5
834(34) 0.000865 689.8 808.2
869(35) 0.000816 689.6 832.6
794(33) 0.000918 689.4 829.3
749(32) 0.000977 689.2 799.9
798(33) 0.000918 689.0 761.7
774(33) 0.000918 688.8 730.0
682(31) 0.001041 688.7 710.0
708(31) 0.001041 688.5 699.9
759(33) 0.000918 688.3 695.6
740(32) 0.000977 688.1 693.5
698(31) 0.001041 687.9 692.6
689(31) 0.001041 687.8 692.1
680(31) 0.001041 687.6 691.7
679(31) 0.001041 687.4 691.5
703(31) 0.001041 687.2 691.4
761(33) 0.000918 687.0 691.4
724(32) 0.000977 686.8 691.9
658(30) 0.001111 686.7 692.6
672(30) 0.001111 686.5 694.4
684(29) 0.001189 686.3 698.3
727(30) 0.001111 686.1 705.4
684(29) 0.001189 686.0 715.9
733(30) 0.001111 685.8 727.7
733(30) 0.001111 685.6 735.8
747(30) 0.001111 685.4 735.6
723(30) 0.001111 685.2 728.0
700(29) 0.001189 685.1 718.6
701(29) 0.001189 684.9 713.1
742(30) 0.001111 684.7 716.7
762(31) 0.001041 684.5 736.5
836(32) 0.000977 684.3 783.9
913(34) 0.000865 684.2 869.9
1053(37) 0.000730 684. 991.
1145(38) 0.000693 684. 1116.
1177(39) 0.000657 684. 1185.
1164(39) 0.000657 683. 1155.
1045(37) 0.000730 683. 1043.
939(34) 0.000865 683.1 913.8
807(32) 0.000977 682.9 812.4
788(31) 0.001041 682.8 753.5
748(31) 0.001041 682.6 731.0
699(29) 0.001189 682.4 734.7
715(30) 0.001111 682.2 757.1
768(31) 0.001041 682.1 790.5
808(32) 0.000977 681.9 821.5
824(32) 0.000977 681.7 832.3
791(31) 0.001041 681.5 814.7
787(31) 0.001041 681.4 779.2
746(30) 0.001111 681.2 743.4
701(29) 0.001189 681.0 718.1
703(29) 0.001189 680.8 705.5
692(29) 0.001189 680.7 704.0
746(30) 0.001111 680.5 711.6
737(30) 0.001111 680.3 726.4
735(30) 0.001111 680.1 744.1
745(30) 0.001111 680.0 756.9
792(31) 0.001041 679.8 756.9
769(31) 0.001041 679.6 743.5
758(31) 0.001041 679.5 724.8
730(30) 0.001111 679.3 708.9
724(30) 0.001111 679.1 699.7
710(30) 0.001111 678.9 697.6
711(30) 0.001111 678.8 702.6
715(30) 0.001111 678.6 714.1
690(29) 0.001189 678.4 730.3
737(30) 0.001111 678.3 745.9
782(31) 0.001041 678.1 753.7
751(31) 0.001041 677.9 748.4
738(30) 0.001111 677.8 735.2
711(30) 0.001111 677.6 723.0
746(30) 0.001111 677.4 720.3
763(31) 0.001041 677.2 735.8
802(32) 0.000977 677.1 781.3
862(33) 0.000918 676.9 868.9
1053(37) 0.000730 677. 998.
1216(40) 0.000625 677. 1139.
1236(40) 0.000625 676. 1233.
1218(40) 0.000625 676. 1221.
1098(37) 0.000730 676. 1110.
935(34) 0.000865 675.9 964.8
865(33) 0.000918 675.7 841.4
776(31) 0.001041 675.6 761.5
736(30) 0.001111 675.4 719.7
718(30) 0.001111 675.2 701.0
740(30) 0.001111 675.1 693.0
685(29) 0.001189 674.9 689.2
684(29) 0.001189 674.7 687.2
693(29) 0.001189 674.6 685.7
714(30) 0.001111 674.4 684.6
731(30) 0.001111 674.2 683.7
714(30) 0.001111 674.1 683.2
669(29) 0.001189 673.9 682.8
734(30) 0.001111 673.7 682.5
715(30) 0.001111 673.6 682.5
700(29) 0.001189 673.4 682.6
694(29) 0.001189 673.2 682.7
697(29) 0.001189 673.1 683.3
707(30) 0.001111 672.9 684.1
664(29) 0.001189 672.7 685.4
695(29) 0.001189 672.6 687.7
718(30) 0.001111 672.4 692.3
675(29) 0.001189 672.2 702.9
716(30) 0.001111 672.1 726.6
779(31) 0.001041 671.9 773.1
861(33) 0.000918 671.7 849.0
903(34) 0.000865 671.6 946.2
1014(36) 0.000772 671. 1035.
1021(36) 0.000772 671. 1070.
1015(36) 0.000772 671. 1030.
954(35) 0.000816 670.9 939.3
891(34) 0.000865 670.8 846.1
805(32) 0.000977 670.6 780.1
760(31) 0.001041 670.4 751.4
763(31) 0.001041 670.3 758.4
806(32) 0.000977 670.1 795.1
821(32) 0.000977 670.0 850.2
903(34) 0.000865 669.8 903.0
901(34) 0.000865 669.6 926.0
874(33) 0.000918 669.5 904.4
770(29) 0.001189 669.3 854.1
768(29) 0.001189 669.1 805.5
787(30) 0.001111 669.0 783.6
807(30) 0.001111 668.8 807.1
932(32) 0.000977 668.7 891.6
1084(35) 0.000816 668.5 1043.2
1305(39) 0.000657 668. 1240.
1502(42) 0.000567 668. 1417.
1498(42) 0.000567 668. 1485.
1337(39) 0.000657 668. 1397.
1154(36) 0.000772 668. 1210.
969(33) 0.000918 667.5 1015.4
855(31) 0.001041 667.4 873.7
770(29) 0.001189 667.2 801.0
788(30) 0.001111 667.1 788.3
809(30) 0.001111 666.9 818.2
869(31) 0.001041 666.7 869.8
939(33) 0.000918 666.6 916.2
945(33) 0.000918 666.4 928.2
880(32) 0.000977 666.3 895.7
789(30) 0.001111 666.1 838.7
780(30) 0.001111 666.0 785.6
727(28) 0.001276 665.8 755.6
705(28) 0.001276 665.6 758.3
812(30) 0.001111 665.5 796.7
903(32) 0.000977 665.3 866.7
963(33) 0.000918 665.2 950.3
1033(34) 0.000865 665.0 1013.0
1005(34) 0.000865 664.8 1018.1
952(33) 0.000918 664.7 960.7
879(32) 0.000977 664.5 874.7
802(30) 0.001111 664.4 796.3
753(29) 0.001189 664.2 744.1
737(29) 0.001189 664.1 720.5
715(28) 0.001276 663.9 719.3
733(29) 0.001189 663.7 732.1
755(29) 0.001189 663.6 749.2
733(29) 0.001189 663.4 759.6
720(28) 0.001276 663.3 755.3
759(29) 0.001189 663.1 738.0
750(29) 0.001189 663.0 717.3
747(29) 0.001189 662.8 701.7
741(29) 0.001189 662.7 695.8
687(28) 0.001276 662.5 701.4
696(28) 0.001276 662.3 717.9
709(28) 0.001276 662.2 740.8
742(29) 0.001189 662.0 761.8
724(28) 0.001276 661.9 769.6
723(28) 0.001276 661.7 758.3
713(28) 0.001276 661.6 734.8
698(28) 0.001276 661.4 709.9
698(28) 0.001276 661.3 690.8
664(27) 0.001372 661.1 678.9
670(27) 0.001372 660.9 672.8
700(28) 0.001276 660.8 670.0
655(27) 0.001372 660.6 668.8
659(27) 0.001372 660.5 668.2
660(27) 0.001372 660.3 667.9
675(27) 0.001372 660.2 667.9
713(28) 0.001276 660.0 668.2
681(27) 0.001372 659.9 669.3
694(28) 0.001276 659.7 671.8
688(28) 0.001276 659.6 676.5
678(27) 0.001372 659.4 684.1
700(28) 0.001276 659.3 693.7
755(29) 0.001189 659.1 702.9
732(29) 0.001189 658.9 707.6
730(29) 0.001189 658.8 706.1
723(28) 0.001276 658.6 701.1
705(28) 0.001276 658.5 700.1
693(28) 0.001276 658.3 710.6
732(29) 0.001189 658.2 741.7
821(30) 0.001111 658.0 800.3
939(33) 0.000918 657.9 884.4
989(34) 0.000865 657.7 975.1
995(34) 0.000865 657.6 1036.2
970(33) 0.000918 657.4 1032.6
933(33) 0.000918 657.3 966.2
858(31) 0.001041 657.1 874.5
772(29) 0.001189 657.0 793.4
702(28) 0.001276 656.8 739.6
728(28) 0.001276 656.7 713.6
716(28) 0.001276 656.5 707.9
716(28) 0.001276 656.4 713.2
714(28) 0.001276 656.2 720.7
743(29) 0.001189 656.1 723.4
738(29) 0.001189 655.9 719.2
704(28) 0.001276 655.7 712.9
682(28) 0.001276 655.6 713.4
736(29) 0.001189 655.4 731.4
770(29) 0.001189 655.3 776.8
890(32) 0.000977 655.1 855.2
965(33) 0.000918 655.0 958.1
1057(35) 0.000816 654.8 1056.6
1084(35) 0.000816 654.7 1105.6
1082(35) 0.000816 654.5 1074.6
991(34) 0.000865 654.4 982.6
891(32) 0.000977 654.2 875.5
801(30) 0.001111 654.1 787.1
710(28) 0.001276 653.9 729.2
635(25) 0.001600 653.8 697.9
671(26) 0.001479 653.6 683.4
669(26) 0.001479 653.5 677.5
686(26) 0.001479 653.3 675.6
658(26) 0.001479 653.2 676.1
651(25) 0.001600 653.0 679.3
699(26) 0.001479 652.9 688.1
656(26) 0.001479 652.7 708.6
734(27) 0.001372 652.6 750.2
819(29) 0.001189 652.4 821.5
910(30) 0.001111 652.3 921.8
1048(33) 0.000918 652.1 1031.7
1138(34) 0.000865 652.0 1110.7
1143(34) 0.000865 651.8 1116.0
1100(33) 0.000918 651.7 1044.1
938(31) 0.001041 651.5 936.9
835(29) 0.001189 651.4 838.6
804(28) 0.001276 651.2 773.7
761(28) 0.001276 651.1 746.8
753(27) 0.001372 650.9 750.0
781(28) 0.001276 650.8 769.0
775(28) 0.001276 650.6 786.9
773(28) 0.001276 650.5 788.4
796(28) 0.001276 650.3 769.3
769(28) 0.001276 650.2 739.2
708(27) 0.001372 650.0 709.6
697(26) 0.001479 649.9 687.3
645(25) 0.001600 649.7 673.4
669(26) 0.001479 649.6 666.1
654(25) 0.001600 649.5 662.5
683(26) 0.001479 649.3 660.8
648(25) 0.001600 649.2 660.0
646(25) 0.001600 649.0 659.8
654(25) 0.001600 648.9 660.1
710(27) 0.001372 648.7 661.3
671(26) 0.001479 648.6 664.1
634(25) 0.001600 648.4 669.2
688(26) 0.001479 648.3 676.5
665(26) 0.001479 648.1 685.2
701(26) 0.001479 648.0 692.8
683(26) 0.001479 647.8 696.3
701(26) 0.001479 647.7 695.7
713(27) 0.001372 647.5 695.1
711(27) 0.001372 647.4 702.1
705(27) 0.001372 647.2 724.6
775(28) 0.001276 647.1 769.9
868(30) 0.001111 646.9 838.0
944(31) 0.001041 646.8 916.9
964(31) 0.001041 646.6 980.6
949(31) 0.001041 646.5 997.9
917(30) 0.001111 646.3 961.1
897(30) 0.001111 646.2 896.9
834(29) 0.001189 646.0 843.4
811(29) 0.001189 645.9 827.8
813(29) 0.001189 645.8 861.4
882(30) 0.001111 645.6 936.1
1045(33) 0.000918 645.5 1024.6
1049(33) 0.000918 645.3 1083.0
1039(32) 0.000977 645.2 1072.6
971(31) 0.001041 645.0 997.7
911(30) 0.001111 644.9 897.8
806(28) 0.001276 644.7 808.9
738(27) 0.001372 644.6 748.7
734(27) 0.001372 644.4 718.1
703(26) 0.001479 644.3 709.4
700(26) 0.001479 644.1 711.2
658(26) 0.001479 644.0 713.3
655(26) 0.001479 643.8 709.2
714(27) 0.001372 643.7 699.5
727(27) 0.001372 643.5 689.7
717(27) 0.001372 643.4 685.0
670(26) 0.001479 643.2 689.0
727(27) 0.001372 643.1 702.7
739(27) 0.001372 643.0 723.0
705(27) 0.001372 642.8 742.8
695(26) 0.001479 642.7 752.2
751(27) 0.001372 642.5 745.0
743(27) 0.001372 642.4 725.9
722(27) 0.001372 642.2 705.1
673(26) 0.001479 642.1 690.7
682(26) 0.001479 641.9 686.5
651(25) 0.001600 641.8 692.2
698(26) 0.001479 641.6 704.1
715(27) 0.001372 641.5 715.6
696(26) 0.001479 641.3 719.1
742(27) 0.001372 641.2 711.5
725(27) 0.001372 641.0 697.2
701(26) 0.001479 640.9 683.0
691(26) 0.001479 640.8 673.7
687(26) 0.001479 640.6 671.2
685(26) 0.001479 640.5 674.5
663(26) 0.001479 640.3 680.9
684(26) 0.001479 640.2 686.2
691(26) 0.001479 640.0 686.2
713(27) 0.001372 639.9 680.3
684(26) 0.001479 639.7 671.3
728(27) 0.001372 639.6 662.7
643(25) 0.001600 639.4 656.2
636(25) 0.001600 639.3 652.1
688(26) 0.001479 639.1 650.0
664(25) 0.001600 639.0 649.2
684(25) 0.001600 638.9 649.1
649(25) 0.001600 638.7 649.4
674(25) 0.001600 638.6 650.0
647(25) 0.001600 638.4 650.9
627(24) 0.001736 638.3 652.5
644(25) 0.001600 638.1 654.8
655(25) 0.001600 638.0 657.9
676(25) 0.001600 637.8 661.8
654(25) 0.001600 637.7 666.3
662(25) 0.001600 637.5 670.8
642(24) 0.001736 637.4 676.9
658(25) 0.001600 637.3 688.8
674(25) 0.001600 637.1 713.7
741(26) 0.001479 637.0 760.6
840(28) 0.001276 636.8 835.8
935(30) 0.001111 636.7 935.7
1029(31) 0.001041 636.5 1040.8
1150(33) 0.000918 636.4 1115.8
1114(33) 0.000918 636.2 1125.5
1054(32) 0.000977 636.1 1073.7
1012(31) 0.001041 635.9 1005.7
987(31) 0.001041 635.8 972.3
1013(31) 0.001041 635.6 1008.5
1122(33) 0.000918 635.5 1122.9
1295(35) 0.000816 635.4 1290.6
1421(37) 0.000730 635. 1452.
1540(39) 0.000657 635. 1527.
1502(38) 0.000693 635. 1466.
1367(36) 0.000772 635. 1303.
1214(34) 0.000865 634.6 1114.7
1053(32) 0.000977 634.5 959.8
899(29) 0.001189 634.3 863.5
840(28) 0.001276 634.2 823.1
834(28) 0.001276 634.0 818.7
906(29) 0.001189 633.9 824.0
897(29) 0.001189 633.8 817.3
808(28) 0.001276 633.6 792.2
777(27) 0.001372 633.5 757.9
722(26) 0.001479 633.3 726.3
699(26) 0.001479 633.2 705.0
702(26) 0.001479 633.0 695.8
709(26) 0.001479 632.9 696.0
706(26) 0.001479 632.7 700.2
716(26) 0.001479 632.6 702.6
710(26) 0.001479 632.4 700.4
705(26) 0.001479 632.3 696.3
648(25) 0.001600 632.2 696.8
722(26) 0.001479 632.0 708.3
662(25) 0.001600 631.9 734.0
760(27) 0.001372 631.7 772.1
819(28) 0.001276 631.6 813.1
834(28) 0.001276 631.4 841.3
831(28) 0.001276 631.3 841.6
783(27) 0.001372 631.1 813.7
784(27) 0.001372 631.0 773.3
728(26) 0.001479 630.9 736.5
733(26) 0.001479 630.7 713.0
690(25) 0.001600 630.6 704.8
720(26) 0.001479 630.4 707.9
719(26) 0.001479 630.3 714.5
677(25) 0.001600 630.1 715.9
659(25) 0.001600 630.0 708.1
690(25) 0.001600 629.8 693.5
657(25) 0.001600 629.7 677.7
716(26) 0.001479 629.5 664.6
644(25) 0.001600 629.4 655.6
637(24) 0.001736 629.3 650.6
638(24) 0.001736 629.1 648.6
643(25) 0.001600 629.0 649.0
614(24) 0.001736 628.8 651.9
656(25) 0.001600 628.7 658.6
654(25) 0.001600 628.5 671.9
696(26) 0.001479 628.4 695.7
719(26) 0.001479 628.2 731.7
716(26) 0.001479 628.1 778.4
770(27) 0.001372 628.0 827.6
849(28) 0.001276 627.8 864.7
819(28) 0.001276 627.7 875.2
843(28) 0.001276 627.5 860.6
834(28) 0.001276 627.4 841.6
807(28) 0.001276 627.2 843.2
880(29) 0.001189 627.1 882.0
953(30) 0.001111 626.9 960.3
1065(32) 0.000977 626.8 1061.0
1141(33) 0.000918 626.7 1148.2
1122(33) 0.000918 626.5 1177.4
1091(32) 0.000977 626.4 1128.5
993(31) 0.001041 626.2 1026.0
848(28) 0.001276 626.1 911.3
836(28) 0.001276 625.9 813.7
787(27) 0.001372 625.8 745.7
668(25) 0.001600 625.6 706.0
674(25) 0.001600 625.5 685.8
681(25) 0.001600 625.3 675.6
670(25) 0.001600 625.2 668.5
687(25) 0.001600 625.1 661.7
679(25) 0.001600 624.9 655.8
665(25) 0.001600 624.8 651.3
670(25) 0.001600 624.6 648.6
607(23) 0.001890 624.5 647.8
625(23) 0.001890 624.3 648.2
662(24) 0.001736 624.2 649.4
602(23) 0.001890 624.0 651.5
656(24) 0.001736 623.9 655.3
623(23) 0.001890 623.8 664.4
640(24) 0.001736 623.6 681.2
735(26) 0.001479 623.5 707.4
795(27) 0.001372 623.3 741.4
814(27) 0.001372 623.2 776.6
802(27) 0.001372 623.0 802.0
756(26) 0.001479 622.9 806.3
779(26) 0.001479 622.8 789.1
773(26) 0.001479 622.6 762.3
762(26) 0.001479 622.5 739.6
743(26) 0.001479 622.3 729.7
744(26) 0.001479 622.2 734.4
755(26) 0.001479 622.0 749.0
767(26) 0.001479 621.9 764.2
715(25) 0.001600 621.7 770.4
702(25) 0.001600 621.6 765.7
727(25) 0.001600 621.5 759.7
754(26) 0.001479 621.3 765.3
796(27) 0.001372 621.2 791.6
843(27) 0.001372 621.0 839.5
923(29) 0.001189 620.9 899.0
934(29) 0.001189 620.7 949.4
958(29) 0.001189 620.6 965.6
943(29) 0.001189 620.4 936.2
888(28) 0.001276 620.3 875.2
799(27) 0.001372 620.2 805.4
727(25) 0.001600 620.0 744.3
694(25) 0.001600 619.9 699.7
681(25) 0.001600 619.7 671.8
658(24) 0.001736 619.6 656.9
643(24) 0.001736 619.4 650.8
635(24) 0.001736 619.3 651.0
653(24) 0.001736 619.2 657.1
641(24) 0.001736 619.0 670.4
666(24) 0.001736 618.9 692.3
710(25) 0.001600 618.7 722.2
790(26) 0.001479 618.6 756.3
829(27) 0.001372 618.4 786.3
811(27) 0.001372 618.3 801.3
810(27) 0.001372 618.2 795.6
762(26) 0.001479 618.0 775.7
771(26) 0.001479 617.9 754.6
740(26) 0.001479 617.7 742.9
751(26) 0.001479 617.6 745.3
765(26) 0.001479 617.4 759.8
776(26) 0.001479 617.3 779.1
805(27) 0.001372 617.1 793.8
831(27) 0.001372 617.0 800.1
819(27) 0.001372 616.9 806.6
810(27) 0.001372 616.7 829.6
901(28) 0.001276 616.6 882.4
1021(30) 0.001111 616.4 968.2
1161(32) 0.000977 616.3 1074.5
1222(33) 0.000918 616.1 1171.8
1211(33) 0.000918 616.0 1219.7
1215(33) 0.000918 615.9 1192.3
1167(32) 0.000977 615.7 1104.1
1021(30) 0.001111 615.6 994.4
899(28) 0.001276 615.4 897.0
839(27) 0.001372 615.3 829.3
768(26) 0.001479 615.1 792.9
790(27) 0.001372 615.0 777.4
814(27) 0.001372 614.9 767.6
765(26) 0.001479 614.7 751.8
740(26) 0.001479 614.6 728.2
701(25) 0.001600 614.4 701.7
675(24) 0.001736 614.3 677.6
655(24) 0.001736 614.1 658.7
648(24) 0.001736 614.0 645.8
635(24) 0.001736 613.9 637.9
630(24) 0.001736 613.7 633.5
593(23) 0.001890 613.6 631.2
623(23) 0.001890 613.4 630.4
635(24) 0.001736 613.3 630.7
622(23) 0.001890 613.1 632.0
639(24) 0.001736 613.0 634.2
679(24) 0.001736 612.9 637.2
653(24) 0.001736 612.7 640.6
630(24) 0.001736 612.6 644.6
650(24) 0.001736 612.4 650.2
676(24) 0.001736 612.3 660.0
641(24) 0.001736 612.2 677.4
733(25) 0.001600 612.0 704.4
751(26) 0.001479 611.9 740.2
779(26) 0.001479 611.7 779.2
811(27) 0.001372 611.6 811.1
816(27) 0.001372 611.4 823.2
813(27) 0.001372 611.3 809.1
758(26) 0.001479 611.2 775.6
721(25) 0.001600 611.0 735.2
734(26) 0.001479 610.9 698.1
671(24) 0.001736 610.7 669.5
661(24) 0.001736 610.6 650.5
635(24) 0.001736 610.5 639.7
634(24) 0.001736 610.3 634.9
612(32) 0.000977 610.2 634.4
645(23) 0.001890 610.0 637.4
644(23) 0.001890 609.9 643.9
671(23) 0.001890 609.7 653.8
699(24) 0.001736 609.6 666.6
704(24) 0.001736 609.5 680.6
698(24) 0.001736 609.3 694.0
708(24) 0.001736 609.2 705.5
707(24) 0.001736 609.0 718.0
761(25) 0.001600 608.9 738.8
784(25) 0.001600 608.8 775.9
825(26) 0.001479 608.6 832.5
917(27) 0.001372 608.5 904.0
973(28) 0.001276 608.3 975.9
964(28) 0.001276 608.2 1025.0
974(28) 0.001276 608.0 1029.4
936(28) 0.001276 607.9 987.4
875(27) 0.001372 607.8 919.1
847(26) 0.001479 607.6 848.7
815(26) 0.001479 607.5 792.2
766(25) 0.001600 607.3 755.5
733(25) 0.001600 607.2 735.7
718(24) 0.001736 607.1 724.7
696(24) 0.001736 606.9 714.3
697(24) 0.001736 606.8 701.8
664(23) 0.001890 606.6 689.2
683(24) 0.001736 606.5 679.7
682(24) 0.001736 606.4 675.4
695(24) 0.001736 606.2 675.9
676(24) 0.001736 606.1 679.0
662(23) 0.001890 605.9 681.1
663(23) 0.001890 605.8 680.3
662(23) 0.001890 605.7 677.4
701(24) 0.001736 605.5 676.0
715(24) 0.001736 605.4 679.0
689(24) 0.001736 605.2 687.3
702(24) 0.001736 605.1 699.6
718(24) 0.001736 605.0 712.2
723(24) 0.001736 604.8 721.4
710(24) 0.001736 604.7 726.5
739(25) 0.001600 604.5 732.7
749(25) 0.001600 604.4 747.1
757(25) 0.001600 604.3 774.4
825(26) 0.001479 604.1 813.0
849(26) 0.001479 604.0 855.0
874(27) 0.001372 603.8 885.9
873(27) 0.001372 603.7 890.5
885(27) 0.001372 603.6 864.1
829(26) 0.001479 603.4 816.9
780(25) 0.001600 603.3 763.6
756(25) 0.001600 603.1 715.3
693(24) 0.001736 603.0 677.9
644(23) 0.001890 602.9 652.4
653(23) 0.001890 602.7 636.6
643(23) 0.001890 602.6 627.6
631(23) 0.001890 602.4 622.5
623(23) 0.001890 602.3 619.6
613(22) 0.002066 602.2 618.0
622(22) 0.002066 602.0 617.0
605(22) 0.002066 601.9 616.7
594(22) 0.002066 601.8 617.2
594(22) 0.002066 601.6 618.9
618(22) 0.002066 601.5 622.4
615(22) 0.002066 601.3 628.8
634(23) 0.001890 601.2 638.7
643(23) 0.001890 601.1 652.5
677(24) 0.001736 600.9 669.5
697(24) 0.001736 600.8 687.4
705(24) 0.001736 600.6 702.7
723(24) 0.001736 600.5 712.1
684(24) 0.001736 600.4 715.4
691(24) 0.001736 600.2 717.1
711(24) 0.001736 600.1 723.4
731(24) 0.001736 600.0 737.9
753(25) 0.001600 599.8 759.7
795(26) 0.001479 599.7 783.7
806(26) 0.001479 599.5 800.6
850(26) 0.001479 599.4 802.0
837(26) 0.001479 599.3 787.2
793(26) 0.001479 599.1 763.9
753(25) 0.001600 599.0 741.5
714(24) 0.001736 598.9 726.0
749(25) 0.001600 598.7 719.1
750(25) 0.001600 598.6 718.4
738(25) 0.001600 598.4 719.3
724(24) 0.001736 598.3 718.4
741(25) 0.001600 598.2 716.8
757(25) 0.001600 598.0 718.9
755(25) 0.001600 597.9 728.2
748(25) 0.001600 597.8 745.1
773(25) 0.001600 597.6 765.9
786(25) 0.001600 597.5 783.6
825(26) 0.001479 597.3 790.5
777(25) 0.001600 597.2 783.2
762(25) 0.001600 597.1 767.3
780(25) 0.001600 596.9 751.4
774(25) 0.001600 596.8 741.9
792(26) 0.001479 596.7 740.3
753(25) 0.001600 596.5 743.7
734(25) 0.001600 596.4 745.6
732(24) 0.001736 596.3 739.6
743(25) 0.001600 596.1 724.3
685(24) 0.001736 596.0 703.9
691(24) 0.001736 595.8 683.4
674(23) 0.001890 595.7 666.6
672(23) 0.001890 595.6 654.8
644(23) 0.001890 595.4 647.6
632(23) 0.001890 595.3 643.0
653(23) 0.001890 595.2 639.7
655(23) 0.001890 595.0 637.3
624(23) 0.001890 594.9 636.5
644(23) 0.001890 594.8 637.9
673(23) 0.001890 594.6 641.2
665(23) 0.001890 594.5 645.2
677(24) 0.001736 594.4 647.9
650(23) 0.001890 594.2 647.3
660(23) 0.001890 594.1 642.7
643(23) 0.001890 593.9 635.3
663(23) 0.001890 593.8 627.1
598(22) 0.002066 593.7 619.6
614(22) 0.002066 593.5 613.5
614(22) 0.002066 593.4 609.3
623(23) 0.001890 593.3 606.6
596(22) 0.002066 593.1 605.2
591(22) 0.002066 593.0 604.6
605(22) 0.002066 592.9 604.6
637(23) 0.001890 592.7 605.0
634(23) 0.001890 592.6 606.1
604(22) 0.002066 592.5 608.2
635(23) 0.001890 592.3 611.9
614(22) 0.002066 592.2 618.4
638(23) 0.001890 592.1 629.2
697(24) 0.001736 591.9 645.5
683(24) 0.001736 591.8 668.1
684(24) 0.001736 591.7 696.2
741(25) 0.001600 591.5 727.0
731(24) 0.001736 591.4 755.5
753(25) 0.001600 591.3 775.6
776(25) 0.001600 591.1 783.4
793(26) 0.001479 591.0 781.8
812(26) 0.001479 590.9 778.2
772(25) 0.001600 590.7 779.7
783(25) 0.001600 590.6 788.9
771(25) 0.001600 590.5 803.2
818(26) 0.001479 590.3 815.3
828(26) 0.001479 590.2 816.2
844(26) 0.001479 590.1 801.7
798(26) 0.001479 589.9 775.7
749(25) 0.001600 589.8 746.1
720(24) 0.001736 589.7 719.5
701(24) 0.001736 589.5 699.2
660(23) 0.001890 589.4 685.6
703(24) 0.001736 589.3 676.2
651(23) 0.001890 589.1 668.2
690(24) 0.001736 589.0 660.4
659(23) 0.001890 588.9 653.4
666(23) 0.001890 588.7 648.2
689(24) 0.001736 588.6 645.4
641(23) 0.001890 588.5 644.7
643(23) 0.001890 588.3 644.6
624(23) 0.001890 588.2 643.5
626(23) 0.001890 588.1 640.6
599(22) 0.002066 587.9 636.4
643(23) 0.001890 587.8 632.2
686(24) 0.001736 587.7 629.3
640(23) 0.001890 587.5 628.1
640(23) 0.001890 587.4 628.5
626(23) 0.001890 587.3 630.3
614(22) 0.002066 587.1 633.1
630(23) 0.001890 587.0 637.5
658(23) 0.001890 586.9 644.5
682(24) 0.001736 586.7 654.4
677(24) 0.001736 586.6 666.5
690(24) 0.001736 586.5 679.0
702(24) 0.001736 586.4 688.1
665(23) 0.001890 586.2 690.3
688(24) 0.001736 586.1 684.2
656(23) 0.001890 586.0 671.7
650(23) 0.001890 585.8 656.5
630(23) 0.001890 585.7 641.7
622(22) 0.002066 585.6 629.3
658(23) 0.001890 585.4 620.4
625(23) 0.001890 585.3 615.0
579(22) 0.002066 585.2 612.7
614(22) 0.002066 585.0 613.0
603(22) 0.002066 584.9 615.5
609(22) 0.002066 584.8 620.3
579(22) 0.002066 584.7 628.2
610(22) 0.002066 584.5 640.6
644(23) 0.001890 584.4 660.2
686(24) 0.001736 584.3 690.9
749(25) 0.001600 584.1 737.3
805(26) 0.001479 584.0 803.3
877(27) 0.001372 583.9 889.4
985(29) 0.001189 583.7 990.5
1167(31) 0.001041 583.6 1093.9
1203(32) 0.000977 583.5 1179.7
1170(31) 0.001041 583.3 1224.5
1238(32) 0.000977 583.2 1214.6
1151(31) 0.001041 583.1 1157.4
1069(24) 0.001736 583.0 1074.9
976(28) 0.001276 582.8 989.7
902(27) 0.001372 582.7 916.3
854(27) 0.001372 582.6 860.0
819(26) 0.001479 582.4 818.8
787(26) 0.001479 582.3 786.4
734(25) 0.001600 582.2 758.5
736(25) 0.001600 582.1 733.8
753(25) 0.001600 581.9 713.3
686(24) 0.001736 581.8 697.7
691(24) 0.001736 581.7 686.8
659(23) 0.001890 581.5 678.7
658(23) 0.001890 581.4 671.0
618(23) 0.001890 581.3 661.8
680(24) 0.001736 581.2 650.8
644(23) 0.001890 581.0 639.4
610(22) 0.002066 580.9 628.9
618(23) 0.001890 580.8 620.7
638(23) 0.001890 580.6 615.6
600(22) 0.002066 580.5 614.3
661(23) 0.001890 580.4 617.5
635(23) 0.001890 580.3 625.3
665(23) 0.001890 580.1 637.7
676(24) 0.001736 580.0 654.0
681(24) 0.001736 579.9 672.3
667(23) 0.001890 579.7 689.8
680(24) 0.001736 579.6 702.3
713(24) 0.001736 579.5 706.2
712(24) 0.001736 579.4 700.3
706(24) 0.001736 579.2 687.0
662(23) 0.001890 579.1 670.4
648(23) 0.001890 579.0 654.1
629(23) 0.001890 578.8 640.2
636(23) 0.001890 578.7 629.3
593(22) 0.002066 578.6 620.9
610(22) 0.002066 578.5 614.2
621(23) 0.001890 578.3 608.5
587(22) 0.002066 578.2 603.5
622(23) 0.001890 578.1 599.3
602(22) 0.002066 578.0 595.9
618(23) 0.001890 577.8 593.4
599(22) 0.002066 577.7 591.8
602(22) 0.002066 577.6 591.1
597(22) 0.002066 577.4 591.1
601(22) 0.002066 577.3 591.9
599(22) 0.002066 577.2 593.4
612(22) 0.002066 577.1 595.7
580(22) 0.002066 576.9 598.8
583(22) 0.002066 576.8 602.9
594(22) 0.002066 576.7 608.3
612(22) 0.002066 576.6 615.8
648(23) 0.001890 576.4 625.5
615(22) 0.002066 576.3 637.9
671(24) 0.001736 576.2 652.4
673(24) 0.001736 576.1 667.6
676(24) 0.001736 575.9 681.1
706(24) 0.001736 575.8 690.2
676(24) 0.001736 575.7 693.2
651(23) 0.001890 575.6 691.1
679(24) 0.001736 575.4 686.8
689(24) 0.001736 575.3 683.2
679(24) 0.001736 575.2 681.9
681(24) 0.001736 575.1 683.2
659(23) 0.001890 574.9 686.2
651(23) 0.001890 574.8 689.9
703(24) 0.001736 574.7 694.1
736(25) 0.001600 574.6 700.4
711(24) 0.001736 574.4 709.9
709(24) 0.001736 574.3 722.5
724(24) 0.001736 574.2 736.4
747(25) 0.001600 574.0 748.1
720(24) 0.001736 573.9 753.9
698(24) 0.001736 573.8 752.0
777(25) 0.001600 573.7 744.6
742(25) 0.001600 573.5 735.6
758(25) 0.001600 573.4 727.9
753(25) 0.001600 573.3 722.6
716(24) 0.001736 573.2 718.1
720(24) 0.001736 573.0 711.7
727(25) 0.001600 572.9 701.0
717(24) 0.001736 572.8 685.6
659(23) 0.001890 572.7 667.6
633(23) 0.001890 572.6 649.5
643(23) 0.001890 572.4 633.3
614(22) 0.002066 572.3 620.4
601(22) 0.002066 572.2 611.4
597(22) 0.002066 572.1 606.2
593(22) 0.002066 571.9 604.5
610(22) 0.002066 571.8 605.7
608(22) 0.002066 571.7 609.0
611(22) 0.002066 571.6 613.5
635(23) 0.001890 571.4 618.0
632(23) 0.001890 571.3 621.4
634(23) 0.001890 571.2 622.3
621(23) 0.001890 571.1 620.4
582(22) 0.002066 570.9 616.3
592(22) 0.002066 570.8 611.0
608(22) 0.002066 570.7 606.0
620(23) 0.001890 570.6 602.3
636(23) 0.001890 570.4 600.5
644(32) 0.000977 570.3 601.3
640(22) 0.002066 570.2 605.1
636(22) 0.002066 570.1 611.9
599(22) 0.002066 569.9 621.6
616(22) 0.002066 569.8 633.9
593(21) 0.002268 569.7 647.7
664(23) 0.001890 569.6 662.2
648(22) 0.002066 569.5 676.0
662(23) 0.001890 569.3 688.6
688(23) 0.001890 569.2 700.9
695(23) 0.001890 569.1 714.5
738(24) 0.001736 569.0 731.4
750(24) 0.001736 568.8 751.4
772(25) 0.001600 568.7 773.5
776(25) 0.001600 568.6 795.3
798(25) 0.001600 568.5 814.5
788(25) 0.001600 568.3 831.0
829(25) 0.001600 568.2 847.7
840(26) 0.001479 568.1 867.4
900(27) 0.001372 568.0 890.2
919(27) 0.001372 567.9 912.6
901(27) 0.001372 567.7 927.7
886(26) 0.001479 567.6 927.1
893(26) 0.001479 567.5 906.3
868(26) 0.001479 567.4 867.7
833(26) 0.001479 567.2 819.0
817(25) 0.001600 567.1 768.0
750(24) 0.001736 567.0 720.8
658(23) 0.001890 566.9 681.0
671(23) 0.001890 566.8 650.0
637(22) 0.002066 566.6 627.6
638(22) 0.002066 566.5 612.2
556(21) 0.002268 566.4 602.4
578(21) 0.002268 566.3 596.3
614(22) 0.002066 566.1 592.8
607(22) 0.002066 566.0 591.1
591(21) 0.002268 565.9 590.7
614(22) 0.002066 565.8 591.5
592(21) 0.002268 565.7 593.4
608(22) 0.002066 565.5 596.5
609(22) 0.002066 565.4 600.9
600(22) 0.002066 565.3 606.7
592(21) 0.002268 565.2 614.0
626(22) 0.002066 565.1 622.8
643(22) 0.002066 564.9 633.5
647(22) 0.002066 564.8 646.3
674(23) 0.001890 564.7 661.7
702(23) 0.001890 564.6 679.6
710(24) 0.001736 564.4 698.9
746(24) 0.001736 564.3 717.1
762(24) 0.001736 564.2 730.8
713(24) 0.001736 564.1 736.2
728(24) 0.001736 564.0 731.4
730(24) 0.001736 563.8 717.7
695(23) 0.001890 563.7 699.2
675(23) 0.001890 563.6 680.1
664(23) 0.001890 563.5 664.4
661(23) 0.001890 563.4 655.2
672(23) 0.001890 563.2 654.6
666(23) 0.001890 563.1 663.9
694(23) 0.001890 563.0 683.2
735(24) 0.001736 562.9 711.0
758(24) 0.001736 562.7 744.7
811(25) 0.001600 562.6 779.9
832(26) 0.001479 562.5 810.7
842(26) 0.001479 562.4 830.3
845(26) 0.001479 562.3 833.8
841(26) 0.001479 562.1 820.3
880(26) 0.001479 562.0 794.3
826(25) 0.001600 561.9 762.5
722(24) 0.001736 561.8 730.8
694(23) 0.001890 561.7 703.6
666(23) 0.001890 561.5 683.9
664(23) 0.001890 561.4 672.9
643(22) 0.002066 561.3 670.7
676(23) 0.001890 561.2 676.7
688(23) 0.001890 561.1 689.6
722(24) 0.001736 560.9 707.3
687(23) 0.001890 560.8 727.5
756(24) 0.001736 560.7 747.0
742(24) 0.001736 560.6 763.1
772(25) 0.001600 560.5 774.6
799(25) 0.001600 560.3 782.5
796(25) 0.001600 560.2 789.4
825(25) 0.001600 560.1 796.4
865(26) 0.001479 560.0 803.4
826(25) 0.001600 559.9 808.4
771(25) 0.001600 559.7 807.6
779(25) 0.001600 559.6 798.7
768(25) 0.001600 559.5 782.0
727(24) 0.001736 559.4 760.5
735(24) 0.001736 559.3 737.9
717(24) 0.001736 559.1 717.2
657(23) 0.001890 559.0 699.9
661(23) 0.001890 558.9 686.7
679(23) 0.001890 558.8 677.1
672(23) 0.001890 558.7 671.0
629(22) 0.002066 558.5 668.1
667(23) 0.001890 558.4 668.0
673(23) 0.001890 558.3 670.0
686(23) 0.001890 558.2 672.7
692(23) 0.001890 558.1 674.2
636(22) 0.002066 557.9 673.0
669(23) 0.001890 557.8 668.4
685(23) 0.001890 557.7 661.1
668(23) 0.001890 557.6 652.7
681(23) 0.001890 557.5 644.1
638(22) 0.002066 557.3 636.2
624(22) 0.002066 557.2 628.9
636(22) 0.002066 557.1 622.0
607(22) 0.002066 557.0 615.0
619(22) 0.002066 556.9 608.0
619(22) 0.002066 556.7 601.2
577(21) 0.002268 556.6 595.2
593(21) 0.002268 556.5 590.1
604(22) 0.002066 556.4 586.2
578(21) 0.002268 556.3 583.5
552(21) 0.002268 556.2 582.1
551(21) 0.002268 556.0 582.2
553(21) 0.002268 555.9 583.9
559(21) 0.002268 555.8 587.6
591(21) 0.002268 555.7 593.8
609(22) 0.002066 555.6 603.3
612(22) 0.002066 555.4 616.7
640(22) 0.002066 555.3 634.8
669(23) 0.001890 555.2 657.9
685(23) 0.001890 555.1 685.8
715(24) 0.001736 555.0 717.5
737(24) 0.001736 554.8 751.2
749(24) 0.001736 554.7 783.9
815(25) 0.001600 554.6 812.3
851(26) 0.001479 554.5 833.9
905(27) 0.001372 554.4 848.2
875(26) 0.001479 554.2 857.6
880(26) 0.001479 554.1 864.7
872(26) 0.001479 554.0 871.0
921(27) 0.001372 553.9 875.8
915(27) 0.001372 553.8 876.5
892(26) 0.001479 553.7 869.8
828(25) 0.001600 553.5 854.5
868(26) 0.001479 553.4 832.2
761(24) 0.001736 553.3 806.3
806(25) 0.001600 553.2 780.0
770(25) 0.001600 553.1 755.2
752(24) 0.001736 552.9 732.5
699(23) 0.001890 552.8 711.3
672(23) 0.001890 552.7 691.1
681(23) 0.001890 552.6 671.8
691(23) 0.001890 552.5 654.3
639(22) 0.002066 552.4 639.3
618(22) 0.002066 552.2 627.8
618(22) 0.002066 552.1 620.4
610(22) 0.002066 552.0 617.4
633(22) 0.002066 551.9 619.1
628(22) 0.002066 551.8 625.1
616(22) 0.002066 551.6 634.7
681(23) 0.001890 551.5 646.5
665(23) 0.001890 551.4 658.8
630(22) 0.002066 551.3 669.4
685(23) 0.001890 551.2 676.1
637(22) 0.002066 551.1 677.3
660(23) 0.001890 550.9 672.8
646(22) 0.002066 550.8 663.9
645(22) 0.002066 550.7 652.5
633(22) 0.002066 550.6 640.5
629(22) 0.002066 550.5 629.0
609(22) 0.002066 550.3 618.8
596(22) 0.002066 550.2 610.2
575(21) 0.002268 550.1 603.3
582(21) 0.002268 550.0 598.3
580(21) 0.002268 549.9 595.6
600(22) 0.002066 549.8 595.5
579(21) 0.002268 549.6 598.6
586(21) 0.002268 549.5 605.4
596(22) 0.002066 549.4 616.2
618(22) 0.002066 549.3 631.2
647(22) 0.002066 549.2 650.1
678(23) 0.001890 549.1 671.7
682(23) 0.001890 548.9 694.6
709(24) 0.001736 548.8 716.3
743(24) 0.001736 548.7 733.9
741(24) 0.001736 548.6 744.7
740(24) 0.001736 548.5 747.5
726(24) 0.001736 548.3 743.2
746(24) 0.001736 548.2 734.6
684(23) 0.001890 548.1 725.1
695(23) 0.001890 548.0 717.7
706(23) 0.001890 547.9 714.6
711(24) 0.001736 547.8 716.9
756(24) 0.001736 547.6 725.2
700(23) 0.001890 547.5 739.3
741(24) 0.001736 547.4 758.5
744(24) 0.001736 547.3 780.7
763(24) 0.001736 547.2 803.2
777(25) 0.001600 547.1 821.7
797(25) 0.001600 546.9 831.9
802(25) 0.001600 546.8 830.5
734(24) 0.001736 546.7 817.4
770(25) 0.001600 546.6 795.5
725(24) 0.001736 546.5 769.8
709(24) 0.001736 546.4 745.3
672(24) 0.001736 546.2 726.2
700(24) 0.001736 546.1 715.6
686(24) 0.001736 546.0 715.4
766(25) 0.001600 545.9 725.9
806(26) 0.001479 545.8 746.0
769(26) 0.001479 545.7 773.2
824(26) 0.001479 545.5 803.6
817(26) 0.001479 545.4 832.1
815(26) 0.001479 545.3 853.1
836(27) 0.001372 545.2 861.8
846(27) 0.001372 545.1 855.7
820(26) 0.001479 545.0 836.5
846(27) 0.001372 544.8 808.2
780(26) 0.001479 544.7 775.7
779(26) 0.001479 544.6 743.2
715(25) 0.001600 544.5 713.7
679(24) 0.001736 544.4 689.0
675(24) 0.001736 544.3 669.7
633(23) 0.001890 544.1 655.9
664(24) 0.001736 544.0 646.9
628(23) 0.001890 543.9 641.8
617(23) 0.001890 543.8 639.2
629(23) 0.001890 543.7 637.6
600(23) 0.001890 543.6 635.4
622(23) 0.001890 543.5 631.7
621(23) 0.001890 543.3 626.2
600(23) 0.001890 543.2 619.5
648(23) 0.001890 543.1 612.5
631(23) 0.001890 543.0 606.3
586(22) 0.002066 542.9 601.7
602(23) 0.001890 542.8 599.3
616(23) 0.001890 542.6 599.6
614(23) 0.001890 542.5 602.5
615(23) 0.001890 542.4 607.9
629(23) 0.001890 542.3 615.0
606(23) 0.001890 542.2 623.1
630(23) 0.001890 542.1 631.0
646(23) 0.001890 541.9 637.6
661(24) 0.001736 541.8 642.0
650(23) 0.001890 541.7 643.8
613(23) 0.001890 541.6 643.5
662(24) 0.001736 541.5 642.2
673(24) 0.001736 541.4 640.9
652(23) 0.001890 541.3 640.8
611(23) 0.001890 541.1 642.3
651(23) 0.001890 541.0 646.0
659(24) 0.001736 540.9 652.2
656(24) 0.001736 540.8 661.2
663(24) 0.001736 540.7 673.4
698(24) 0.001736 540.6 688.8
678(24) 0.001736 540.5 707.3
708(24) 0.001736 540.3 728.2
704(24) 0.001736 540.2 750.7
770(26) 0.001479 540.1 774.0
825(26) 0.001479 540.0 797.7
835(27) 0.001372 539.9 821.5
840(27) 0.001372 539.8 844.7
893(28) 0.001276 539.6 865.5
859(27) 0.001372 539.5 880.6
867(27) 0.001372 539.4 886.8
888(27) 0.001372 539.3 881.6
875(27) 0.001372 539.2 864.9
866(27) 0.001372 539.1 839.5
815(26) 0.001479 539.0 809.6
777(26) 0.001479 538.9 779.7
782(26) 0.001479 538.7 753.2
736(25) 0.001600 538.6 732.5
684(24) 0.001736 538.5 719.0
703(24) 0.001736 538.4 713.3
709(25) 0.001600 538.3 714.6
735(25) 0.001600 538.2 721.5
721(25) 0.001600 538.1 731.8
751(25) 0.001600 537.9 742.6
765(25) 0.001600 537.8 750.7
704(24) 0.001736 537.7 753.4
728(25) 0.001600 537.6 749.2
727(25) 0.001600 537.5 738.3
774(26) 0.001479 537.4 722.5
747(25) 0.001600 537.3 704.0
735(25) 0.001600 537.1 684.6
719(25) 0.001600 537.0 665.5
719(25) 0.001600 536.9 647.7
661(24) 0.001736 536.8 631.5
608(23) 0.001890 536.7 617.2
607(23) 0.001890 536.6 604.9
604(23) 0.001890 536.5 594.8
608(23) 0.001890 536.4 586.8
568(22) 0.002066 536.2 580.9
590(22) 0.002066 536.1 576.9
581(22) 0.002066 536.0 574.7
522(21) 0.002268 535.9 574.2
600(23) 0.001890 535.8 575.2
573(22) 0.002066 535.7 577.8
568(22) 0.002066 535.6 581.7
573(22) 0.002066 535.5 586.8
589(22) 0.002066 535.3 592.9
581(22) 0.002066 535.2 599.8
628(23) 0.001890 535.1 607.5
630(23) 0.001890 535.0 615.7
583(23) 0.001890 534.9 624.3
607(23) 0.001890 534.8 632.9
609(23) 0.001890 534.7 640.9
633(24) 0.001736 534.6 647.8
660(24) 0.001736 534.5 652.9
647(24) 0.001736 534.3 656.1
609(23) 0.001890 534.2 658.3
650(24) 0.001736 534.1 660.5
663(24) 0.001736 534.0 664.1
653(24) 0.001736 533.9 670.5
708(25) 0.001600 533.8 680.5
729(25) 0.001600 533.7 694.5
708(25) 0.001600 533.6 712.6
703(25) 0.001600 533.5 734.3
792(26) 0.001479 533.3 758.7
749(26) 0.001479 533.2 784.2
797(26) 0.001479 533.1 808.4
827(27) 0.001372 533.0 828.1
831(27) 0.001372 532.9 840.4
842(27) 0.001372 532.8 842.8
838(27) 0.001372 532.7 835.5
805(26) 0.001479 532.6 820.0
828(27) 0.001372 532.5 799.7
812(27) 0.001372 532.4 777.8
829(27) 0.001372 532.2 757.0
783(26) 0.001479 532.1 739.2
755(26) 0.001479 532.0 725.4
725(25) 0.001600 531.9 716.1
723(25) 0.001600 531.8 711.4
735(25) 0.001600 531.7 710.8
709(25) 0.001600 531.6 713.3
722(25) 0.001600 531.5 717.3
707(25) 0.001600 531.4 721.1
751(26) 0.001479 531.3 722.9
709(25) 0.001600 531.2 721.6
734(25) 0.001600 531.1 717.2
761(26) 0.001479 530.9 710.2
692(25) 0.001600 530.8 701.4
701(25) 0.001600 530.7 691.4
692(25) 0.001600 530.6 680.5
700(25) 0.001600 530.5 668.6
638(24) 0.001736 530.4 655.8
678(24) 0.001736 530.3 642.3
563(22) 0.002066 530.2 628.6
599(23) 0.001890 530.1 615.2
591(23) 0.001890 530.0 602.8
573(22) 0.002066 529.9 591.7
554(22) 0.002066 529.8 582.2
581(23) 0.001890 529.7 574.5
578(22) 0.002066 529.5 568.5
570(22) 0.002066 529.4 564.3
552(22) 0.002066 529.3 561.7
603(23) 0.001890 529.2 560.7
551(22) 0.002066 529.1 561.1
563(22) 0.002066 529.0 562.9
547(22) 0.002066 528.9 565.9
566(22) 0.002066 528.8 570.2
589(23) 0.001890 528.7 575.9
542(22) 0.002066 528.6 582.7
576(22) 0.002066 528.5 590.7
599(23) 0.001890 528.4 599.7
586(23) 0.001890 528.3 609.7
605(23) 0.001890 528.2 620.2
642(24) 0.001736 528.1 631.2
631(23) 0.001890 528.0 642.3
609(23) 0.001890 527.9 653.6
637(24) 0.001736 527.8 664.5
653(24) 0.001736 527.7 674.7
672(24) 0.001736 527.5 683.2
704(25) 0.001600 527.4 689.1
687(24) 0.001736 527.3 691.8
690(25) 0.001600 527.2 691.0
680(24) 0.001736 527.1 687.2
687(24) 0.001736 527.0 681.2
679(24) 0.001736 526.9 673.8
692(25) 0.001600 526.8 665.4
664(24) 0.001736 526.7 656.3
662(24) 0.001736 526.6 646.7
663(24) 0.001736 526.5 636.8
622(23) 0.001890 526.4 627.1
611(23) 0.001890 526.3 618.2
633(23) 0.001890 526.2 610.8
617(23) 0.001890 526.1 605.4
613(23) 0.001890 526.0 602.4
609(23) 0.001890 525.9 602.0
634(24) 0.001736 525.8 604.2
622(23) 0.001890 525.7 608.8
601(23) 0.001890 525.6 615.2
631(23) 0.001890 525.5 622.8
612(23) 0.001890 525.4 630.7
646(24) 0.001736 525.3 637.8
644(24) 0.001736 525.2 643.0
634(24) 0.001736 525.1 645.7
674(24) 0.001736 525.0 645.6
649(24) 0.001736 524.9 643.0
679(24) 0.001736 524.8 638.5
662(24) 0.001736 524.7 632.9
636(24) 0.001736 524.6 626.8
598(23) 0.001890 524.5 620.6
616(23) 0.001890 524.4 614.8
583(23) 0.001890 524.3 609.8
581(21) 0.002268 524.2 606.2
583(21) 0.002268 524.1 604.5
589(22) 0.002066 524.0 605.4
621(22) 0.002066 523.9 609.5
604(22) 0.002066 523.8 617.1
614(22) 0.002066 523.7 628.5
662(23) 0.001890 523.6 643.8
684(23) 0.001890 523.5 663.0
679(23) 0.001890 523.4 685.8
690(23) 0.001890 523.3 711.3
754(24) 0.001736 523.2 738.9
770(25) 0.001600 523.1 767.0
793(25) 0.001600 523.0 794.6
796(25) 0.001600 522.9 820.2
830(26) 0.001479 522.8 843.3
827(26) 0.001479 522.7 863.7
862(26) 0.001479 522.6 881.8
907(27) 0.001372 522.5 897.3
902(27) 0.001372 522.5 909.5
919(27) 0.001372 522.4 917.5
905(27) 0.001372 522.3 920.0
932(27) 0.001372 522.2 916.6
873(26) 0.001479 522.1 907.6
946(27) 0.001372 522.0 894.5
898(27) 0.001372 521.9 878.7
938(27) 0.001372 521.8 861.3
863(26) 0.001479 521.7 842.8
839(26) 0.001479 521.6 823.5
794(25) 0.001600 521.5 803.4
836(26) 0.001479 521.4 782.9
782(25) 0.001600 521.3 762.8
725(24) 0.001736 521.2 744.1
731(24) 0.001736 521.1 727.6
717(24) 0.001736 521.1 713.7
720(24) 0.001736 521.0 702.6
701(24) 0.001736 520.9 694.2
716(24) 0.001736 520.8 688.3
703(24) 0.001736 520.7 684.8
690(23) 0.001890 520.6 683.3
669(23) 0.001890 520.5 683.4
700(24) 0.001736 520.4 684.5
681(23) 0.001890 520.3 685.8
694(23) 0.001890 520.2 686.5
649(23) 0.001890 520.1 686.3
685(23) 0.001890 520.1 684.6
709(24) 0.001736 520.0 682.0
691(23) 0.001890 519.9 678.6
665(23) 0.001890 519.8 674.8
678(23) 0.001890 519.7 670.8
662(23) 0.001890 519.6 666.3
676(23) 0.001890 519.5 661.4
702(24) 0.001736 519.4 656.1
665(23) 0.001890 519.3 650.5
643(23) 0.001890 519.3 644.8
664(23) 0.001890 519.2 639.2
627(22) 0.002066 519.1 633.8
636(22) 0.002066 519.0 628.3
625(22) 0.002066 518.9 622.9
628(22) 0.002066 518.8 617.4
609(22) 0.002066 518.7 612.2
628(22) 0.002066 518.7 607.7
654(23) 0.001890 518.6 604.3
604(22) 0.002066 518.5 602.4
624(22) 0.002066 518.4 602.6
597(22) 0.002066 518.3 604.9
627(22) 0.002066 518.2 609.4
648(23) 0.001890 518.1 616.0
645(23) 0.001890 518.1 624.5
589(22) 0.002066 518.0 634.4
644(23) 0.001890 517.9 644.9
659(23) 0.001890 517.8 655.4
672(23) 0.001890 517.7 665.1
687(23) 0.001890 517.6 673.4
692(23) 0.001890 517.6 679.9
706(24) 0.001736 517.5 685.0
718(24) 0.001736 517.4 689.0
671(23) 0.001890 517.3 692.7
710(24) 0.001736 517.2 696.6
716(24) 0.001736 517.2 701.2
737(24) 0.001736 517.1 706.5
739(24) 0.001736 517.0 712.8
734(24) 0.001736 516.9 719.8
746(24) 0.001736 516.8 727.7
721(24) 0.001736 516.8 736.0
769(25) 0.001600 516.7 744.5
798(25) 0.001600 516.6 752.3
756(25) 0.001600 516.5 758.4
818(26) 0.001479 516.4 762.2
811(25) 0.001600 516.4 763.1
781(25) 0.001600 516.3 761.2
803(25) 0.001600 516.2 757.0
808(25) 0.001600 516.1 751.2
762(25) 0.001600 516.1 744.3
748(24) 0.001736 516.0 736.5
752(24) 0.001736 515.9 728.0
715(24) 0.001736 515.8 719.0
688(23) 0.001890 515.8 709.6
709(24) 0.001736 515.7 700.4
662(23) 0.001890 515.6 691.8
690(32) 0.000977 515.5 684.1
707(24) 0.001736 515.5 677.7
675(23) 0.001890 515.4 672.4
633(22) 0.002066 515.3 668.3
659(23) 0.001890 515.2 665.4
675(23) 0.001890 515.2 663.4
670(23) 0.001890 515.1 662.6
654(23) 0.001890 515.0 662.8
636(22) 0.002066 515.0 663.8
675(23) 0.001890 514.9 665.4
690(23) 0.001890 514.8 667.2
687(23) 0.001890 514.7 668.8
696(23) 0.001890 514.7 670.0
689(23) 0.001890 514.6 670.8
678(23) 0.001890 514.5 671.1
698(23) 0.001890 514.5 670.9
693(23) 0.001890 514.4 670.2
695(23) 0.001890 514.3 668.9
675(23) 0.001890 514.3 666.9
676(23) 0.001890 514.2 664.4
676(23) 0.001890 514.1 662.0
655(23) 0.001890 514.0 660.4
647(23) 0.001890 514.0 660.6
671(23) 0.001890 513.9 663.3
686(23) 0.001890 513.8 669.4
741(24) 0.001736 513.8 679.2
733(24) 0.001736 513.7 693.1
719(24) 0.001736 513.6 711.0
741(24) 0.001736 513.6 732.5
755(24) 0.001736 513.5 756.9
771(25) 0.001600 513.5 783.3
789(25) 0.001600 513.4 810.2
803(25) 0.001600 513.3 836.1
830(26) 0.001479 513.3 859.6
859(26) 0.001479 513.2 879.6
889(27) 0.001372 513.1 895.6
893(27) 0.001372 513.1 907.5
924(27) 0.001372 513.0 915.3
901(27) 0.001372 512.9 919.1
911(27) 0.001372 512.9 918.6
925(27) 0.001372 512.8 913.3
870(26) 0.001479 512.8 903.0
887(26) 0.001479 512.7 888.0
851(26) 0.001479 512.6 869.2
835(26) 0.001479 512.6 847.8
827(26) 0.001479 512.5 825.3
777(25) 0.001600 512.5 802.8
773(25) 0.001600 512.4 781.4
780(25) 0.001600 512.4 761.5
744(24) 0.001736 512.3 743.6
724(24) 0.001736 512.2 728.0
727(24) 0.001736 512.2 714.8
685(23) 0.001890 512.1 704.0
667(23) 0.001890 512.1 695.6
682(23) 0.001890 512.0 689.0
680(23) 0.001890 512.0 683.8
682(23) 0.001890 511.9 679.5
674(23) 0.001890 511.8 675.7
695(23) 0.001890 511.8 672.0
682(23) 0.001890 511.7 668.4
665(23) 0.001890 511.7 664.5
657(23) 0.001890 511.6 660.4
663(23) 0.001890 511.6 655.8
660(23) 0.001890 511.5 650.5
624(22) 0.002066 511.5 644.4
595(22) 0.002066 511.4 637.4
600(22) 0.002066 511.4 629.9
612(22) 0.002066 511.3 622.1
614(22) 0.002066 511.3 614.3
602(22) 0.002066 511.2 607.0
603(22) 0.002066 511.2 600.3
631(22) 0.002066 511.1 594.5
616(22) 0.002066 511.1 589.4
596(22) 0.002066 511.0 585.2
609(22) 0.002066 511.0 581.8
577(21) 0.002268 510.9 579.1
568(21) 0.002268 510.9 577.0
582(21) 0.002268 510.8 575.2
600(22) 0.002066 510.8 573.6
569(21) 0.002268 510.7 572.1
578(21) 0.002268 510.7 570.5
579(21) 0.002268 510.6 568.8
551(21) 0.002268 510.6 567.2
563(21) 0.002268 510.6 565.9
566(21) 0.002268 510.5 565.1
552(21) 0.002268 510.5 564.9
530(20) 0.002500 510.4 565.5
539(21) 0.002268 510.4 567.1
563(21) 0.002268 510.3 569.9
572(21) 0.002268 510.3 573.8
582(21) 0.002268 510.3 578.9
595(22) 0.002066 510.2 585.2
586(21) 0.002268 510.2 592.6
587(21) 0.002268 510.1 601.0
598(22) 0.002066 510.1 610.3
590(21) 0.002268 510.1 620.4
604(22) 0.002066 510.0 631.2
648(23) 0.001890 510.0 642.5
663(23) 0.001890 509.9 654.3
709(24) 0.001736 509.9 666.4
709(24) 0.001736 509.9 678.7
682(23) 0.001890 509.8 690.9
703(24) 0.001736 509.8 702.9
694(23) 0.001890 509.8 714.5
709(24) 0.001736 509.7 726.0
713(24) 0.001736 509.7 737.6
724(24) 0.001736 509.6 749.5
764(25) 0.001600 509.6 761.9
802(25) 0.001600 509.6 774.7
789(25) 0.001600 509.5 787.6
796(25) 0.001600 509.5 800.4
799(25) 0.001600 509.5 812.6
795(25) 0.001600 509.4 824.0
795(25) 0.001600 509.4 834.0
824(25) 0.001600 509.4 842.2
856(26) 0.001479 509.4 848.0
868(26) 0.001479 509.3 850.6
862(26) 0.001479 509.3 849.2
815(25) 0.001600 509.3 843.5
790(25) 0.001600 509.2 833.5
784(25) 0.001600 509.2 820.1
804(25) 0.001600 509.2 804.5
796(25) 0.001600 509.1 788.0
763(24) 0.001736 509.1 771.9
770(25) 0.001600 509.1 757.3
768(25) 0.001600 509.1 745.0
757(24) 0.001736 509.0 735.5
745(24) 0.001736 509.0 728.9
735(24) 0.001736 509.0 724.9
708(24) 0.001736 509.0 723.1
715(24) 0.001736 508.9 722.7
733(24) 0.001736 508.9 722.7
710(24) 0.001736 508.9 722.0
696(23) 0.001890 508.9 719.8
698(23) 0.001890 508.8 715.3
700(23) 0.001890 508.8 708.2
698(23) 0.001890 508.8 698.7
720(24) 0.001736 508.8 687.3
694(23) 0.001890 508.8 674.4
680(23) 0.001890 508.7 660.7
658(23) 0.001890 508.7 646.7
638(22) 0.002066 508.7 632.9
618(22) 0.002066 508.7 619.7
617(22) 0.002066 508.7 607.4
595(22) 0.002066 508.6 596.4
605(22) 0.002066 508.6 586.7
595(22) 0.002066 508.6 578.6
576(21) 0.002268 508.6 572.2
549(21) 0.002268 508.6 567.4
555(21) 0.002268 508.5 564.2
569(21) 0.002268 508.5 562.7
559(21) 0.002268 508.5 562.8
564(21) 0.002268 508.5 564.4
561(21) 0.002268 508.5 567.6
590(21) 0.002268 508.5 572.2
592(22) 0.002066 508.5 578.2
591(22) 0.002066 508.4 585.5
587(21) 0.002268 508.4 594.1
608(22) 0.002066 508.4 603.8
620(22) 0.002066 508.4 614.5
602(22) 0.002066 508.4 626.0
652(23) 0.001890 508.4 638.0
642(22) 0.002066 508.4 650.3
667(23) 0.001890 508.4 662.5
701(23) 0.001890 508.4 674.1
697(23) 0.001890 508.3 685.0
713(24) 0.001736 508.3 694.8
708(24) 0.001736 508.3 703.5
723(24) 0.001736 508.3 711.1
730(24) 0.001736 508.3 717.4
736(24) 0.001736 508.3 722.5
769(25) 0.001600 508.3 726.4
739(24) 0.001736 508.3 728.7
753(24) 0.001736 508.3 729.6
738(24) 0.001736 508.3 729.0
724(24) 0.001736 508.3 727.3
741(24) 0.001736 508.3 724.6
748(24) 0.001736 508.3 721.4
712(24) 0.001736 508.3 718.0
712(24) 0.001736 508.3 714.5
736(24) 0.001736 508.3 711.1
744(24) 0.001736 508.3 707.8
719(24) 0.001736 508.3 704.6
711(24) 0.001736 508.3 701.6
666(23) 0.001890 508.3 698.8
688(23) 0.001890 508.3 696.3
672(23) 0.001890 508.3 693.9
729(24) 0.001736 508.3 691.5
726(24) 0.001736 508.3 688.8
692(23) 0.001890 508.3 685.6
699(23) 0.001890 508.3 682.0
705(24) 0.001736 508.3 677.7
674(23) 0.001890 508.3 672.9
636(22) 0.002066 508.3 667.6
645(23) 0.001890 508.3 661.9
652(23) 0.001890 508.3 655.8
641(22) 0.002066 508.3 649.3
647(23) 0.001890 508.3 642.3
642(22) 0.002066 508.3 634.9
638(22) 0.002066 508.3 627.3
616(22) 0.002066 508.3 619.4
615(23) 0.001890 508.3 611.6
634(23) 0.001890 508.3 603.9
607(22) 0.002066 508.3 596.5
599(22) 0.002066 508.3 589.3
548(21) 0.002268 508.3 582.5
563(22) 0.002066 508.3 576.2
558(21) 0.002268 508.4 570.3
535(21) 0.002268 508.4 565.0
555(21) 0.002268 508.4 560.3
542(21) 0.002268 508.4 556.3
549(21) 0.002268 508.4 553.1
568(22) 0.002066 508.4 550.7
557(21) 0.002268 508.4 549.2
556(21) 0.002268 508.4 548.6
560(22) 0.002066 508.4 549.0
594(22) 0.002066 508.5 550.4
570(22) 0.002066 508.5 552.7
524(21) 0.002268 508.5 556.1
575(22) 0.002066 508.5 560.5
571(22) 0.002066 508.5 565.8
562(22) 0.002066 508.5 571.9
547(21) 0.002268 508.5 578.8
570(22) 0.002066 508.6 586.3
567(22) 0.002066 508.6 594.2
556(21) 0.002268 508.6 602.3
594(22) 0.002066 508.6 610.2
581(22) 0.002066 508.6 617.8
624(23) 0.001890 508.6 624.6
606(22) 0.002066 508.7 630.4
642(23) 0.001890 508.7 635.1
623(23) 0.001890 508.7 638.6
649(23) 0.001890 508.7 640.8
657(23) 0.001890 508.7 641.9
629(23) 0.001890 508.8 641.8
616(23) 0.001890 508.8 640.8
603(22) 0.002066 508.8 638.8
619(23) 0.001890 508.8 635.9
597(22) 0.002066 508.8 632.2
598(22) 0.002066 508.9 628.0
613(23) 0.001890 508.9 623.3
621(23) 0.001890 508.9 618.4
603(22) 0.002066 508.9 613.6
590(22) 0.002066 509.0 609.1
590(22) 0.002066 509.0 605.0
591(22) 0.002066 509.0 601.5
597(22) 0.002066 509.0 598.5
601(22) 0.002066 509.1 596.2
612(23) 0.001890 509.1 594.6
587(22) 0.002066 509.1 593.6
585(22) 0.002066 509.1 593.3
558(21) 0.002268 509.2 593.4
585(22) 0.002066 509.2 594.0
601(22) 0.002066 509.2 594.8
573(22) 0.002066 509.2 595.6
584(22) 0.002066 509.3 596.5
571(22) 0.002066 509.3 597.2
546(21) 0.002268 509.3 597.7
562(22) 0.002066 509.4 597.8
598(22) 0.002066 509.4 597.4
611(23) 0.001890 509.4 596.6
639(23) 0.001890 509.5 595.1
620(23) 0.001890 509.5 592.8
599(22) 0.002066 509.5 589.9
584(22) 0.002066 509.6 586.4
577(22) 0.002066 509.6 582.4
565(22) 0.002066 509.6 578.0
598(22) 0.002066 509.7 573.4
576(22) 0.002066 509.7 568.8
559(22) 0.002066 509.7 564.3
543(21) 0.002268 509.8 560.0
546(21) 0.002268 509.8 556.1
563(22) 0.002066 509.8 552.6
539(21) 0.002268 509.9 549.6
551(21) 0.002268 509.9 547.2
545(21) 0.002268 509.9 545.3
579(22) 0.002066 510.0 544.0
562(22) 0.002066 510.0 543.4
567(22) 0.002066 510.0 543.5
529(21) 0.002268 510.1 544.3
503(20) 0.002500 510.1 545.9
522(21) 0.002268 510.2 548.3
529(21) 0.002268 510.2 551.6
542(21) 0.002268 510.2 555.9
520(21) 0.002268 510.3 561.2
577(22) 0.002066 510.3 567.7
587(22) 0.002066 510.3 575.5
571(22) 0.002066 510.4 584.6
557(21) 0.002268 510.4 595.2
587(22) 0.002066 510.5 607.4
626(23) 0.001890 510.5 621.0
642(23) 0.001890 510.6 636.1
649(23) 0.001890 510.6 652.6
696(24) 0.001736 510.6 670.5
697(24) 0.001736 510.7 689.3
725(25) 0.001600 510.7 709.0
735(25) 0.001600 510.8 729.1
752(25) 0.001600 510.8 749.3
781(25) 0.001600 510.8 769.3
789(26) 0.001479 510.9 788.5
804(21) 0.002268 510.9 806.5
769(26) 0.001479 511.0 822.6
791(26) 0.001479 511.0 836.4
830(27) 0.001372 511.1 847.3
853(27) 0.001372 511.1 855.0
898(28) 0.001276 511.2 859.4
895(28) 0.001276 511.2 860.7
833(27) 0.001372 511.3 859.2
816(27) 0.001372 511.3 855.5
884(28) 0.001276 511.3 850.0
892(28) 0.001276 511.4 843.3
830(27) 0.001372 511.4 835.7
857(27) 0.001372 511.5 827.7
818(27) 0.001372 511.5 819.4
831(27) 0.001372 511.6 811.2
826(27) 0.001372 511.6 803.3
795(26) 0.001479 511.7 795.6
756(26) 0.001479 511.7 788.3
764(26) 0.001479 511.8 781.4
773(26) 0.001479 511.8 774.7
745(25) 0.001600 511.9 768.0
721(25) 0.001600 511.9 761.3
729(25) 0.001600 512.0 754.3
762(26) 0.001479 512.0 747.2
716(25) 0.001600 512.1 739.9
705(25) 0.001600 512.1 732.6
684(24) 0.001736 512.2 725.2
658(24) 0.001736 512.2 717.8
705(25) 0.001600 512.3 710.5
688(24) 0.001736 512.3 703.4
688(24) 0.001736 512.4 696.4
680(24) 0.001736 512.4 689.5
690(24) 0.001736 512.5 682.9
676(24) 0.001736 512.5 676.5
619(23) 0.001890 512.6 670.4
635(23) 0.001890 512.7 664.6
662(24) 0.001736 512.7 659.2
654(24) 0.001736 512.8 654.1
653(24) 0.001736 512.8 649.3
627(23) 0.001890 512.9 644.9
609(23) 0.001890 512.9 641.1
640(24) 0.001736 513.0 637.9
657(24) 0.001736 513.0 635.5
660(24) 0.001736 513.1 634.1
667(24) 0.001736 513.1 633.9
645(24) 0.001736 513.2 635.1
640(24) 0.001736 513.3 637.7
664(24) 0.001736 513.3 641.8
651(24) 0.001736 513.4 647.6
654(24) 0.001736 513.4 654.9
690(24) 0.001736 513.5 663.7
718(25) 0.001600 513.5 673.9
649(24) 0.001736 513.6 685.4
707(25) 0.001600 513.6 697.8
696(25) 0.001600 513.7 711.0
735(25) 0.001600 513.8 724.5
734(25) 0.001600 513.8 738.1
723(25) 0.001600 513.9 751.3
742(25) 0.001600 513.9 763.9
781(26) 0.001479 514.0 775.5
792(26) 0.001479 514.0 785.7
760(26) 0.001479 514.1 794.1
837(27) 0.001372 514.2 800.3
782(26) 0.001479 514.2 803.9
769(26) 0.001479 514.3 804.8
751(26) 0.001479 514.3 803.0
770(26) 0.001479 514.4 798.5
784(26) 0.001479 514.5 791.6
768(26) 0.001479 514.5 782.6
772(26) 0.001479 514.6 772.1
788(26) 0.001479 514.6 760.5
750(26) 0.001479 514.7 748.3
773(26) 0.001479 514.7 735.7
747(25) 0.001600 514.8 723.2
781(26) 0.001479 514.9 711.0
704(25) 0.001600 514.9 699.3
641(24) 0.001736 515.0 688.3
701(25) 0.001600 515.0 678.1
643(24) 0.001736 515.1 668.8
635(23) 0.001890 515.2 660.4
659(24) 0.001736 515.2 652.9
638(23) 0.001890 515.3 646.3
648(24) 0.001736 515.3 640.6
645(24) 0.001736 515.4 635.7
593(23) 0.001890 515.5 631.7
629(23) 0.001890 515.5 628.6
602(23) 0.001890 515.6 626.4
645(24) 0.001736 515.6 625.1
630(23) 0.001890 515.7 624.9
611(23) 0.001890 515.8 625.7
631(23) 0.001890 515.8 627.5
630(23) 0.001890 515.9 630.3
664(24) 0.001736 515.9 634.2
626(23) 0.001890 516.0 638.9
637(23) 0.001890 516.1 644.4
655(24) 0.001736 516.1 650.5
670(24) 0.001736 516.2 657.1
658(24) 0.001736 516.2 664.0
657(24) 0.001736 516.3 670.8
667(24) 0.001736 516.4 677.5
689(24) 0.001736 516.4 683.9
718(24) 0.001736 516.5 689.6
706(24) 0.001736 516.6 694.6
703(24) 0.001736 516.6 698.8
741(24) 0.001736 516.7 702.0
750(25) 0.001600 516.7 704.1
712(24) 0.001736 516.8 705.0
670(23) 0.001890 516.9 704.6
744(25) 0.001600 516.9 702.8
706(24) 0.001736 517.0 699.7
738(24) 0.001736 517.0 695.5
713(24) 0.001736 517.1 690.2
721(24) 0.001736 517.2 684.2
690(24) 0.001736 517.2 677.6
688(24) 0.001736 517.3 670.8
691(24) 0.001736 517.3 664.1
685(24) 0.001736 517.4 657.8
657(23) 0.001890 517.5 651.9
670(23) 0.001890 517.5 646.7
687(24) 0.001736 517.6 642.4
672(23) 0.001890 517.6 639.0
664(23) 0.001890 517.7 636.5
684(23) 0.001890 517.8 635.0
619(22) 0.002066 517.8 634.4
638(23) 0.001890 517.9 634.7
639(23) 0.001890 517.9 635.7
638(23) 0.001890 518.0 637.5
632(23) 0.001890 518.1 639.8
615(22) 0.002066 518.1 642.6
624(22) 0.002066 518.2 645.8
631(23) 0.001890 518.2 649.2
602(22) 0.002066 518.3 652.9
641(23) 0.001890 518.4 656.6
636(23) 0.001890 518.4 660.3
672(23) 0.001890 518.5 663.9
656(23) 0.001890 518.5 667.3
676(23) 0.001890 518.6 670.5
668(23) 0.001890 518.7 673.4
648(23) 0.001890 518.7 676.1
699(24) 0.001736 518.8 678.6
698(24) 0.001736 518.8 680.9
683(23) 0.001890 518.9 683.0
727(24) 0.001736 518.9 685.1
680(23) 0.001890 519.0 687.0
682(23) 0.001890 519.1 688.9
727(24) 0.001736 519.1 690.7
698(24) 0.001736 519.2 692.4
722(24) 0.001736 519.2 694.0
728(24) 0.001736 519.3 695.5
701(24) 0.001736 519.3 696.9
705(24) 0.001736 519.4 698.2
706(24) 0.001736 519.5 699.3
721(24) 0.001736 519.5 700.3
752(25) 0.001600 519.6 701.0
738(24) 0.001736 519.6 701.5
700(24) 0.001736 519.7 701.8
707(24) 0.001736 519.7 702.0
701(24) 0.001736 519.8 702.0
768(25) 0.001600 519.8 702.0
726(24) 0.001736 519.9 702.2
720(24) 0.001736 520.0 702.4
719(24) 0.001736 520.0 702.9
748(25) 0.001600 520.1 703.6
713(24) 0.001736 520.1 704.6
746(25) 0.001600 520.2 705.7
711(24) 0.001736 520.2 707.0
707(24) 0.001736 520.3 708.3
705(24) 0.001736 520.3 709.5
696(24) 0.001736 520.4 710.6
690(24) 0.001736 520.4 711.2
685(24) 0.001736 520.5 711.3
691(24) 0.001736 520.5 710.7
704(24) 0.001736 520.6 709.3
698(24) 0.001736 520.6 706.8
707(24) 0.001736 520.7 703.4
680(23) 0.001890 520.7 699.1
698(24) 0.001736 520.8 693.8
672(23) 0.001890 520.8 687.7
683(23) 0.001890 520.9 681.0
644(23) 0.001890 520.9 673.9
664(23) 0.001890 521.0 666.4
676(23) 0.001890 521.0 658.8
637(23) 0.001890 521.1 651.2
675(23) 0.001890 521.1 643.7
598(22) 0.002066 521.2 636.5
643(23) 0.001890 521.2 629.7
627(22) 0.002066 521.3 623.4
670(23) 0.001890 521.3 617.6
641(23) 0.001890 521.4 612.5
610(22) 0.002066 521.4 608.1
616(22) 0.002066 521.5 604.5
601(22) 0.002066 521.5 601.5
622(22) 0.002066 521.6 599.3
568(21) 0.002268 521.6 597.8
584(22) 0.002066 521.7 597.0
590(22) 0.002066 521.7 596.9
558(21) 0.002268 521.7 597.3
606(22) 0.002066 521.8 598.2
598(22) 0.002066 521.8 599.6
563(21) 0.002268 521.9 601.4
646(32) 0.000977 521.9 603.4
597(22) 0.002066 522.0 605.7
593(21) 0.002268 522.0 608.2
579(21) 0.002268 522.1 610.8
570(21) 0.002268 522.1 613.5
620(22) 0.002066 522.1 616.3
626(22) 0.002066 522.2 619.1
615(22) 0.002066 522.2 621.9
614(22) 0.002066 522.3 624.7
639(22) 0.002066 522.3 627.5
640(22) 0.002066 522.3 630.1
639(22) 0.002066 522.4 632.7
637(22) 0.002066 522.4 635.2
647(22) 0.002066 522.5 637.5
635(22) 0.002066 522.5 639.7
668(23) 0.001890 522.5 641.8
681(23) 0.001890 522.6 643.7
679(23) 0.001890 522.6 645.5
679(23) 0.001890 522.6 647.3
645(22) 0.002066 522.7 648.9
662(23) 0.001890 522.7 650.4
648(22) 0.002066 522.7 651.8
651(22) 0.002066 522.8 653.2
646(22) 0.002066 522.8 654.7
667(23) 0.001890 522.8 656.3
676(23) 0.001890 522.9 658.1
677(23) 0.001890 522.9 660.1
651(23) 0.001890 522.9 662.5
709(24) 0.001736 523.0 665.3
705(23) 0.001890 523.0 668.5
702(23) 0.001890 523.0 672.3
678(23) 0.001890 523.1 676.7
655(23) 0.001890 523.1 681.6
680(23) 0.001890 523.1 687.0
689(23) 0.001890 523.2 693.0
738(24) 0.001736 523.2 699.5
748(24) 0.001736 523.2 706.5
705(23) 0.001890 523.2 713.8
705(23) 0.001890 523.3 721.5
756(24) 0.001736 523.3 729.3
738(24) 0.001736 523.3 737.3
721(24) 0.001736 523.4 745.3
739(24) 0.001736 523.4 753.3
730(24) 0.001736 523.4 761.1
721(24) 0.001736 523.4 768.6
767(24) 0.001736 523.5 775.8
772(25) 0.001600 523.5 782.5
794(25) 0.001600 523.5 788.8
799(25) 0.001600 523.5 794.3
815(25) 0.001600 523.5 799.2
820(25) 0.001600 523.6 803.2
781(25) 0.001600 523.6 806.2
815(25) 0.001600 523.6 808.4
802(25) 0.001600 523.6 809.6
823(25) 0.001600 523.7 809.8
791(25) 0.001600 523.7 809.0
778(25) 0.001600 523.7 807.4
801(25) 0.001600 523.7 804.8
773(25) 0.001600 523.7 801.4
789(25) 0.001600 523.7 797.2
784(25) 0.001600 523.8 792.3
778(25) 0.001600 523.8 786.6
748(24) 0.001736 523.8 780.4
760(24) 0.001736 523.8 773.8
802(25) 0.001600 523.8 766.9
768(24) 0.001736 523.8 760.0
729(24) 0.001736 523.9 753.0
759(24) 0.001736 523.9 746.3
760(24) 0.001736 523.9 740.0
745(24) 0.001736 523.9 734.1
785(25) 0.001600 523.9 728.8
736(24) 0.001736 523.9 724.1
707(23) 0.001890 523.9 719.9
703(23) 0.001890 523.9 716.5
713(24) 0.001736 523.9 713.6
705(23) 0.001890 524.0 711.2
708(23) 0.001890 524.0 709.3
697(23) 0.001890 524.0 707.8
677(23) 0.001890 524.0 706.6
718(24) 0.001736 524.0 705.5
687(23) 0.001890 524.0 704.6
666(23) 0.001890 524.0 703.8
680(23) 0.001890 524.0 702.9
700(23) 0.001890 524.0 702.0
716(24) 0.001736 524.0 701.1
692(23) 0.001890 524.0 700.3
667(23) 0.001890 524.0 699.4
668(23) 0.001890 524.0 698.7
691(23) 0.001890 524.0 698.0
696(23) 0.001890 524.0 697.5
693(23) 0.001890 524.0 697.2
729(24) 0.001736 524.0 697.0
714(24) 0.001736 524.0 697.1
663(23) 0.001890 524.0 697.4
682(23) 0.001890 524.0 697.9
684(23) 0.001890 524.0 698.6
685(23) 0.001890 524.0 699.5
693(23) 0.001890 524.0 700.6
727(24) 0.001736 524.0 701.7
685(23) 0.001890 524.0 703.0
716(19) 0.002770 524.0 704.4
707(23) 0.001890 524.0 705.7
688(23) 0.001890 524.0 707.1
717(24) 0.001736 524.0 708.6
728(24) 0.001736 524.0 710.0
737(24) 0.001736 524.0 711.5
728(24) 0.001736 524.0 713.1
715(24) 0.001736 523.9 714.9
727(24) 0.001736 523.9 716.7
732(24) 0.001736 523.9 718.7
741(24) 0.001736 523.9 720.9
753(24) 0.001736 523.9 723.3
747(24) 0.001736 523.9 725.7
729(24) 0.001736 523.9 728.3
753(24) 0.001736 523.9 730.9
734(24) 0.001736 523.9 733.6
717(24) 0.001736 523.8 736.1
732(24) 0.001736 523.8 738.5
740(24) 0.001736 523.8 740.7
708(23) 0.001890 523.8 742.5
713(24) 0.001736 523.8 743.9
747(24) 0.001736 523.8 744.7
726(24) 0.001736 523.8 745.0
734(24) 0.001736 523.7 744.6
736(24) 0.001736 523.7 743.5
744(24) 0.001736 523.7 741.8
722(24) 0.001736 523.7 739.3
707(23) 0.001890 523.7 736.3
711(24) 0.001736 523.6 732.6
732(24) 0.001736 523.6 728.5
735(24) 0.001736 523.6 723.9
693(23) 0.001890 523.6 718.9
683(23) 0.001890 523.6 713.5
725(24) 0.001736 523.5 707.8
678(23) 0.001890 523.5 702.0
681(23) 0.001890 523.5 695.9
694(23) 0.001890 523.5 689.7
698(23) 0.001890 523.4 683.5
698(23) 0.001890 523.4 677.3
675(23) 0.001890 523.4 671.1
659(23) 0.001890 523.4 665.0
672(23) 0.001890 523.3 659.0
654(23) 0.001890 523.3 653.1
635(22) 0.002066 523.3 647.4
641(22) 0.002066 523.3 642.0
634(22) 0.002066 523.2 636.8
623(22) 0.002066 523.2 631.8
608(22) 0.002066 523.2 627.1
602(22) 0.002066 523.1 622.8
636(22) 0.002066 523.1 618.7
621(22) 0.002066 523.1 615.1
590(21) 0.002268 523.0 611.9
615(22) 0.002066 523.0 609.0
601(22) 0.002066 523.0 606.7
593(21) 0.002268 523.0 604.8
607(22) 0.002066 522.9 603.3
599(22) 0.002066 522.9 602.3
573(21) 0.002268 522.9 601.8
621(22) 0.002066 522.8 601.8
638(22) 0.002066 522.8 602.3
641(22) 0.002066 522.7 603.2
612(22) 0.002066 522.7 604.5
594(21) 0.002268 522.7 606.3
617(22) 0.002066 522.6 608.4
624(22) 0.002066 522.6 611.0
638(22) 0.002066 522.6 613.8
629(22) 0.002066 522.5 617.0
634(22) 0.002066 522.5 620.4
640(22) 0.002066 522.5 624.0
628(22) 0.002066 522.4 627.8
634(22) 0.002066 522.4 631.8
637(22) 0.002066 522.3 635.8
632(22) 0.002066 522.3 639.8
646(22) 0.002066 522.3 643.8
673(23) 0.001890 522.2 647.7
639(22) 0.002066 522.2 651.5
672(23) 0.001890 522.1 655.0
639(22) 0.002066 522.1 658.4
658(23) 0.001890 522.0 661.6
669(23) 0.001890 522.0 664.5
694(23) 0.001890 522.0 667.1
710(24) 0.001736 521.9 669.5
704(23) 0.001890 521.9 671.7
697(23) 0.001890 521.8 673.6
706(23) 0.001890 521.8 675.4
715(24) 0.001736 521.7 676.9
699(23) 0.001890 521.7 678.2
699(23) 0.001890 521.7 679.3
727(24) 0.001736 521.6 680.3
697(23) 0.001890 521.6 681.0
689(23) 0.001890 521.5 681.6
712(24) 0.001736 521.5 681.9
703(23) 0.001890 521.4 682.1
694(23) 0.001890 521.4 682.0
678(23) 0.001890 521.3 681.7
687(23) 0.001890 521.3 681.2
667(23) 0.001890 521.2 680.3
677(23) 0.001890 521.2 679.2
686(23) 0.001890 521.1 677.7
682(23) 0.001890 521.1 676.0
685(23) 0.001890 521.1 673.9
686(24) 0.001736 521.0 671.5
662(23) 0.001890 521.0 668.9
643(23) 0.001890 520.9 665.9
641(23) 0.001890 520.9 662.8
647(23) 0.001890 520.8 659.6
634(23) 0.001890 520.8 656.2
624(22) 0.002066 520.7 652.8
648(23) 0.001890 520.7 649.4
660(23) 0.001890 520.6 646.1
673(23) 0.001890 520.6 643.0
614(22) 0.002066 520.5 640.0
657(23) 0.001890 520.5 637.3
637(23) 0.001890 520.4 634.8
631(23) 0.001890 520.4 632.6
622(22) 0.002066 520.3 630.7
661(23) 0.001890 520.3 629.1
638(23) 0.001890 520.2 627.8
660(23) 0.001890 520.2 626.8
630(23) 0.001890 520.1 626.2
604(22) 0.002066 520.1 625.8
613(22) 0.002066 520.0 625.7
618(22) 0.002066 520.0 625.9
624(22) 0.002066 519.9 626.2
643(23) 0.001890 519.9 626.8
659(23) 0.001890 519.8 627.5
620(22) 0.002066 519.8 628.3
607(22) 0.002066 519.7 629.2
630(23) 0.001890 519.7 630.1
622(22) 0.002066 519.6 631.0
600(22) 0.002066 519.6 631.8
610(22) 0.002066 519.5 632.6
602(22) 0.002066 519.5 633.2
618(22) 0.002066 519.5 633.7
582(22) 0.002066 519.4 633.9
620(22) 0.002066 519.4 634.0
651(23) 0.001890 519.3 633.9
624(22) 0.002066 519.3 633.5
628(23) 0.001890 519.2 633.0
641(23) 0.001890 519.2 632.3
583(22) 0.002066 519.1 631.4
592(22) 0.002066 519.1 630.5
582(22) 0.002066 519.0 629.5
601(22) 0.002066 519.0 628.4
623(22) 0.002066 518.9 627.4
606(22) 0.002066 518.9 626.4
633(23) 0.001890 518.9 625.5
608(22) 0.002066 518.8 624.8
632(23) 0.001890 518.8 624.2
601(22) 0.002066 518.7 623.9
606(22) 0.002066 518.7 623.7
612(22) 0.002066 518.6 623.9
635(23) 0.001890 518.6 624.3
638(23) 0.001890 518.6 625.1
622(22) 0.002066 518.5 626.1
628(23) 0.001890 518.5 627.5
620(22) 0.002066 518.4 629.3
629(23) 0.001890 518.4 631.3
638(23) 0.001890 518.4 633.8
635(23) 0.001890 518.3 636.6
616(22) 0.002066 518.3 639.7
615(22) 0.002066 518.2 643.2
657(23) 0.001890 518.2 647.0
611(22) 0.002066 518.2 651.2
661(23) 0.001890 518.1 655.7
668(23) 0.001890 518.1 660.5
699(24) 0.001736 518.1 665.7
676(23) 0.001890 518.0 671.1
693(24) 0.001736 518.0 676.9
651(23) 0.001890 518.0 682.8
702(24) 0.001736 517.9 689.0
716(24) 0.001736 517.9 695.4
716(24) 0.001736 517.9 702.0
668(23) 0.001890 517.9 708.6
697(24) 0.001736 517.8 715.4
729(24) 0.001736 517.8 722.2
759(25) 0.001600 517.8 728.9
735(24) 0.001736 517.7 735.6
750(25) 0.001600 517.7 742.2
721(24) 0.001736 517.7 748.5
743(24) 0.001736 517.7 754.6
771(25) 0.001600 517.7 760.4
790(25) 0.001600 517.6 765.8
800(25) 0.001600 517.6 770.9
761(25) 0.001600 517.6 775.4
780(25) 0.001600 517.6 779.5
782(25) 0.001600 517.6 783.0
778(25) 0.001600 517.5 786.0
775(25) 0.001600 517.5 788.5
815(26) 0.001479 517.5 790.4
789(25) 0.001600 517.5 791.7
801(25) 0.001600 517.5 792.6
802(25) 0.001600 517.5 792.9
794(25) 0.001600 517.5 792.7
816(26) 0.001479 517.5 792.1
829(26) 0.001479 517.5 791.0
798(25) 0.001600 517.5 789.5
819(26) 0.001479 517.5 787.6
817(26) 0.001479 517.5 785.3
816(26) 0.001479 517.5 782.6
784(25) 0.001600 517.5 779.6
764(25) 0.001600 517.5 776.3
802(26) 0.001479 517.5 772.7
801(26) 0.001479 517.5 768.9
804(26) 0.001479 517.5 764.8
753(25) 0.001600 517.5 760.5
741(25) 0.001600 517.5 756.1
768(25) 0.001600 517.5 751.5
783(25) 0.001600 517.5 746.8
778(25) 0.001600 517.5 742.0
738(25) 0.001600 517.5 737.1
724(24) 0.001736 517.6 732.1
722(24) 0.001736 517.6 727.1
735(24) 0.001736 517.6 722.1
722(24) 0.001736 517.6 717.0
683(24) 0.001736 517.6 712.0
736(25) 0.001600 517.7 707.0
760(25) 0.001600 517.7 702.1
740(25) 0.001600 517.7 697.3
723(24) 0.001736 517.8 692.6
707(24) 0.001736 517.8 688.0
686(24) 0.001736 517.8 683.6
697(24) 0.001736 517.9 679.3
683(24) 0.001736 517.9 675.2
669(23) 0.001890 517.9 671.3
645(23) 0.001890 518.0 667.5
650(23) 0.001890 518.0 664.0
654(23) 0.001890 518.1 660.6
659(23) 0.001890 518.1 657.5
647(23) 0.001890 518.2 654.5
624(23) 0.001890 518.2 651.8
643(23) 0.001890 518.3 649.2
660(23) 0.001890 518.3 646.9
661(23) 0.001890 518.4 644.8
652(23) 0.001890 518.5 642.8
669(23) 0.001890 518.5 641.1
639(23) 0.001890 518.6 639.5
627(23) 0.001890 518.7 638.2
629(23) 0.001890 518.7 637.0
634(23) 0.001890 518.8 636.1
597(22) 0.002066 518.9 635.4
622(23) 0.001890 519.0 634.9
637(23) 0.001890 519.1 634.7
634(23) 0.001890 519.1 634.7
638(23) 0.001890 519.2 635.0
618(22) 0.002066 519.3 635.5
644(23) 0.001890 519.4 636.4
652(23) 0.001890 519.5 637.6
650(23) 0.001890 519.6 639.0
633(23) 0.001890 519.7 640.8
632(23) 0.001890 519.8 643.0
656(23) 0.001890 519.9 645.5
685(24) 0.001736 520.0 648.3
691(24) 0.001736 520.1 651.5
679(24) 0.001736 520.2 655.0
656(23) 0.001890 520.4 658.9
690(24) 0.001736 520.5 663.1
664(23) 0.001890 520.6 667.7
661(23) 0.001890 520.7 672.5
709(24) 0.001736 520.9 677.7
730(24) 0.001736 521.0 683.1
710(24) 0.001736 521.1 688.8
699(24) 0.001736 521.3 694.8
694(24) 0.001736 521.4 700.9
712(24) 0.001736 521.6 707.2
737(25) 0.001600 521.7 713.7
759(25) 0.001600 521.9 720.3
716(24) 0.001736 522.0 726.9
682(24) 0.001736 522.2 733.6
722(24) 0.001736 522.3 740.2
727(24) 0.001736 522.5 746.8
738(25) 0.001600 522.7 753.3
746(25) 0.001600 522.8 759.7
743(25) 0.001600 523.0 765.8
727(24) 0.001736 523.2 771.8
767(25) 0.001600 523.4 777.4
832(26) 0.001479 523.6 782.7
774(25) 0.001600 523.8 787.7
778(25) 0.001600 524.0 792.3
775(25) 0.001600 524.2 796.5
817(26) 0.001479 524.4 800.3
846(26) 0.001479 524.6 803.6
826(26) 0.001479 524.8 806.6
816(26) 0.001479 525.0 809.1
778(25) 0.001600 525.2 811.2
783(25) 0.001600 525.4 812.9
772(25) 0.001600 525.7 814.2
797(25) 0.001600 525.9 815.2
852(26) 0.001479 526.1 816.0
832(26) 0.001479 526.4 816.4
837(26) 0.001479 526.6 816.7
823(26) 0.001479 526.9 816.7
823(26) 0.001479 527.1 816.6
802(26) 0.001479 527.4 816.3
828(26) 0.001479 527.6 815.9
829(26) 0.001479 527.9 815.3
834(26) 0.001479 528.2 814.7
784(25) 0.001600 528.5 814.0
785(25) 0.001600 528.7 813.2
773(25) 0.001600 529.0 812.4
780(21) 0.002268 529.3 811.5
805(26) 0.001479 529.6 810.5
806(26) 0.001479 529.9 809.4
801(26) 0.001479 530.2 808.2
801(26) 0.001479 530.5 806.9
787(25) 0.001600 530.8 805.5
777(25) 0.001600 531.1 803.9
784(25) 0.001600 531.5 802.3
794(25) 0.001600 531.8 800.4
804(26) 0.001479 532.1 798.4
781(25) 0.001600 532.5 796.2
758(25) 0.001600 532.8 793.9
758(25) 0.001600 533.2 791.3
763(25) 0.001600 533.5 788.6
769(25) 0.001600 533.9 785.8
791(25) 0.001600 534.3 782.8
767(25) 0.001600 534.6 779.6
782(25) 0.001600 535.0 776.4
785(25) 0.001600 535.4 773.0
762(25) 0.001600 535.8 769.6
760(25) 0.001600 536.2 766.0
742(25) 0.001600 536.6 762.4
743(25) 0.001600 537.0 758.8
751(25) 0.001600 537.4 755.2
748(25) 0.001600 537.8 751.5
732(24) 0.001736 538.2 747.9
744(25) 0.001600 538.7 744.2
743(25) 0.001600 539.1 740.6
727(24) 0.001736 539.5 737.0
733(24) 0.001736 540.0 733.5
718(24) 0.001736 540.4 730.0
709(24) 0.001736 540.9 726.6
707(24) 0.001736 541.4 723.2
732(24) 0.001736 541.8 719.9
727(24) 0.001736 542.3 716.7
719(24) 0.001736 542.8 713.6
711(24) 0.001736 543.3 710.5
699(24) 0.001736 543.8 707.5
706(24) 0.001736 544.3 704.6
714(24) 0.001736 544.8 701.7
678(24) 0.001736 545.3 699.0
690(24) 0.001736 545.9 696.3
685(24) 0.001736 546.4 693.6
679(24) 0.001736 546.9 691.1
671(23) 0.001890 547.5 688.6
668(23) 0.001890 548.0 686.2
675(23) 0.001890 548.6 683.8
677(23) 0.001890 549.2 681.6
677(23) 0.001890 549.7 679.4
666(23) 0.001890 550.3 677.3
641(23) 0.001890 550.9 675.2
688(24) 0.001736 551.5 673.3
696(24) 0.001736 552.1 671.4
688(24) 0.001736 552.7 669.7
703(24) 0.001736 553.4 668.0
670(23) 0.001890 554.0 666.4
678(24) 0.001736 554.6 664.9
693(24) 0.001736 555.3 663.5
691(24) 0.001736 555.9 662.2
652(23) 0.001890 556.6 661.0
641(23) 0.001890 557.2 660.0
671(23) 0.001890 557.9 659.0
680(24) 0.001736 558.6 658.2
668(23) 0.001890 559.3 657.5
677(23) 0.001890 560.0 656.9
708(24) 0.001736 560.7 656.5
669(23) 0.001890 561.4 656.2
642(23) 0.001890 562.1 656.1
653(23) 0.001890 562.9 656.1
678(24) 0.001736 563.6 656.3
659(23) 0.001890 564.3 656.7
665(23) 0.001890 565.1 657.2
662(23) 0.001890 565.9 657.9
649(23) 0.001890 566.6 658.8
640(23) 0.001890 567.4 659.9
642(23) 0.001890 568.2 661.1
643(23) 0.001890 569.0 662.5
639(23) 0.001890 569.8 664.2
649(23) 0.001890 570.7 666.0
687(24) 0.001736 571.5 668.0
665(23) 0.001890 572.3 670.2
666(23) 0.001890 573.2 672.6
682(24) 0.001736 574.0 675.2
673(23) 0.001890 574.9 678.0
678(24) 0.001736 575.8 680.9
681(24) 0.001736 576.7 684.1
700(24) 0.001736 577.5 687.4
729(24) 0.001736 578.5 690.9
687(24) 0.001736 579.4 694.5
693(24) 0.001736 580.3 698.3
717(24) 0.001736 581.2 702.3
696(24) 0.001736 582.2 706.4
708(24) 0.001736 583.1 710.6
720(24) 0.001736 584.1 714.9
737(24) 0.001736 585.1 719.4
756(25) 0.001600 586.0 724.0
742(25) 0.001600 587.0 728.7
729(24) 0.001736 588.0 733.5
745(25) 0.001600 589.1 738.3
752(25) 0.001600 590.1 743.2
761(25) 0.001600 591.1 748.2
772(26) 0.001479 592.2 753.2
754(25) 0.001600 593.2 758.2
773(26) 0.001479 594.3 763.2
742(25) 0.001600 595.4 768.3
773(26) 0.001479 596.5 773.3
790(26) 0.001479 597.6 778.3
770(26) 0.001479 598.7 783.3
790(26) 0.001479 599.8 788.3
781(26) 0.001479 600.9 793.2
826(26) 0.001479 602.1 798.0
799(26) 0.001479 603.2 802.8
810(26) 0.001479 604.4 807.4
814(26) 0.001479 605.6 812.0
809(26) 0.001479 606.8 816.6
835(27) 0.001372 608.0 821.0
831(27) 0.001372 609.2 825.3
825(26) 0.001479 610.4 829.5
815(26) 0.001479 611.7 833.6
797(26) 0.001479 612.9 837.5
833(27) 0.001372 614.2 841.4
837(27) 0.001372 615.5 845.1
838(27) 0.001372 616.7 848.7
817(26) 0.001479 618.0 852.2
834(27) 0.001372 619.4 855.6
855(27) 0.001372 620.7 858.8
872(27) 0.001372 622.0 861.9
863(27) 0.001372 623.4 864.9
838(27) 0.001372 624.7 867.7
890(27) 0.001372 626.1 870.5
852(27) 0.001372 627.5 873.1
871(27) 0.001372 628.9 875.6
864(27) 0.001372 630.3 878.0
860(27) 0.001372 631.7 880.3
897(28) 0.001276 633.2 882.5
865(27) 0.001372 634.6 884.6
862(27) 0.001372 636.1 886.7
877(27) 0.001372 637.6 888.6
895(28) 0.001276 639.1 890.5
930(28) 0.001276 640.6 892.4
908(28) 0.001276 642.1 894.2
906(28) 0.001276 643.6 895.9
934(28) 0.001276 645.2 897.7
891(27) 0.001372 646.7 899.3
871(27) 0.001372 648.3 901.0
902(28) 0.001276 649.9 902.6
911(28) 0.001276 651.5 904.2
858(27) 0.001372 653.1 905.8
947(28) 0.001276 654.8 907.3
919(28) 0.001276 656.4 908.9
945(28) 0.001276 658.1 910.4
932(28) 0.001276 659.8 911.8
936(28) 0.001276 661.4 913.3
930(28) 0.001276 663.2 914.7
919(28) 0.001276 664.9 916.0
895(27) 0.001372 666.6 917.3
875(27) 0.001372 668.4 918.6
931(28) 0.001276 670.1 919.8
940(28) 0.001276 671.9 920.9
922(28) 0.001276 673.7 922.0
938(28) 0.001276 675.5 923.0
945(28) 0.001276 677.3 923.9
929(28) 0.001276 679.2 924.7
923(28) 0.001276 681.0 925.4
920(28) 0.001276 682.9 926.0
911(28) 0.001276 684.8 926.5
902(28) 0.001276 686.7 926.9
934(28) 0.001276 688.6 927.1
909(28) 0.001276 690.6 927.3
894(27) 0.001372 692.5 927.3
883(27) 0.001372 694.5 927.2
935(28) 0.001276 696.5 927.0
954(28) 0.001276 698.5 926.6
905(28) 0.001276 700.5 926.2
913(28) 0.001276 702.5 925.6
935(28) 0.001276 704.6 924.9
928(28) 0.001276 706.7 924.2
929(28) 0.001276 708.8 923.3
952(28) 0.001276 710.9 922.4
950(28) 0.001276 713.0 921.4
968(29) 0.001189 715.1 920.4
915(28) 0.001276 717.3 919.2
879(27) 0.001372 719.4 918.1
937(28) 0.001276 721.6 916.9
920(28) 0.001276 723.8 915.7
945(28) 0.001276 726.1 914.5
923(28) 0.001276 728.3 913.2
896(28) 0.001276 730.6 912.0
905(28) 0.001276 732.8 910.8
916(28) 0.001276 735.1 909.6
945(28) 0.001276 737.5 908.4
935(28) 0.001276 739.8 907.3
902(28) 0.001276 742.1 906.1
949(28) 0.001276 744.5 905.1
945(28) 0.001276 746.9 904.1
920(28) 0.001276 749.3 903.1
894(27) 0.001372 751.7 902.3
952(28) 0.001276 754.2 901.4
956(28) 0.001276 756.6 900.7
904(28) 0.001276 759.1 900.0
862(39) 0.000657 762. 899.
880(40) 0.000625 764. 899.
878(40) 0.000625 767. 899.
890(40) 0.000625 769. 898.
951(41) 0.000595 772. 898.
940(41) 0.000595 774. 898.
888(40) 0.000625 777. 898.
829(39) 0.000657 780. 898.
864(39) 0.000657 782. 898.
920(40) 0.000625 785. 898.
878(40) 0.000625 788. 899.
907(40) 0.000625 790. 899.
916(40) 0.000625 793. 900.
934(41) 0.000595 796. 901.
941(41) 0.000595 799. 901.
930(41) 0.000595 801. 902.
935(41) 0.000595 804. 903.
911(40) 0.000625 807. 905.
911(40) 0.000625 810. 906.
910(40) 0.000625 813. 907.
867(39) 0.000657 816. 909.
924(40) 0.000625 819. 910.
903(40) 0.000625 822. 912.
932(41) 0.000595 825. 914.
936(41) 0.000595 828. 916.
903(40) 0.000625 831. 918.
922(40) 0.000625 834. 920.
882(40) 0.000625 837. 922.
923(40) 0.000625 840. 924.
921(40) 0.000625 843. 927.
902(40) 0.000625 846. 929.
894(40) 0.000625 849. 932.
920(40) 0.000625 852. 935.
929(41) 0.000595 855. 937.
965(41) 0.000595 859. 940.
922(40) 0.000625 862. 943.
935(41) 0.000595 865. 947.
943(41) 0.000595 868. 950.
960(41) 0.000595 872. 953.
945(41) 0.000595 875. 957.
942(41) 0.000595 878. 960.
920(40) 0.000625 882. 964.
944(41) 0.000595 885. 968.
968(41) 0.000595 889. 971.
986(42) 0.000567 892. 975.
995(42) 0.000567 895. 979.
977(41) 0.000595 899. 983.
1001(42) 0.000567 902. 988.
928(41) 0.000595 906. 992.
982(42) 0.000567 910. 996.
966(41) 0.000595 913. 1001.
1044(43) 0.000541 917. 1005.
965(41) 0.000595 920. 1010.
978(42) 0.000567 924. 1015.
949(41) . . .
1027(42) . . .
1074(43) . . .
1027(42) . . .
992(42) . . .
1025(42) . . .
1001(42) . . .
1048(43) . . .
1032(43) . . .
1011(42) . . .
1011(42) . . .
1017(42) . . .
1104(44) . . .
1047(43) . . .
1037(43) . . .
1025(42) . . .
1084(44) . . .
1066(43) . . .
1091(44) . . .
1102(44) . . .
1084(44) . . .
1102(44) . . .
1097(44) . . .
1104(44) . . .
1039(43) . . .
1104(44) . . .
1096(44) . . .
1047(43) . . .
1170(45) . . .
1104(44) . . .
1190(45) . . .
1123(44) . . .
1096(44) . . .
1098(44) . . .
1183(45) . . .
1143(45) . . .
1190(45) . . .
1134(44) . . .
1139(45) . . .
1076(43) . . .
1146(45) . . .
1103(44) . . .
1118(44) . . .
1233(46) . . .
1197(46) . . .
1159(45) . . .
loop_
_gsas_i100_meas
100.00
77.74
83.97
0.36
0.30
3.23
8.36
7.79
8.71
0.00
14.57
4.31
0.56
0.58
13.41
7.87
3.16
2.32
6.88
9.75
0.79
0.67
0.76
0.00
0.34
0.58
1.24
1.74
4.27
5.08
1.87
1.87
1.30
7.80
0.31
0.98
0.03
3.79
1.95
0.04
0.37
0.14
0.49
0.54
0.26
0.59
1.71
1.20
0.81
0.60
0.44
0.86
3.14
0.00
2.59
0.20
1.21
3.36
0.10
1.93
0.52
1.02
2.38
0.05
0.56
0.06
0.45
0.03
0.38
2.47
0.06
0.35
1.64
1.40
2.23
1.09
0.38
0.54
0.24
1.76
0.02
0.55
0.66
2.20
0.03
0.32
0.42
0.27
0.04
0.50
0.38
0.04
0.00
0.23
3.16
3.91
1.16
1.79
0.05
1.30
0.37
0.03
1.40
0.47
1.44
0.31
0.10
1.66
1.89
0.13
0.04
0.03
0.00
1.36
0.58
0.29
2.17
0.23
0.24
0.45
0.44
0.27
0.00
1.37
0.13
4.69
0.33
1.00
0.12
0.06
1.69
0.57
3.39
0.00
0.62
0.01
0.02
0.23
0.03
0.19
0.71
0.07
1.03
1.10
0.33
0.07
0.01
0.00
0.88
0.91
0.74
0.01
0.44
0.45
1.28
0.41
0.75
0.48
0.25
0.01
0.45
0.06
0.01
0.99
0.03
0.62
0.02
1.32
0.67
0.54
0.38
0.00
0.15
0.00
0.07
0.75
0.16
5.29
0.36
0.55
0.09
0.09
1.00
0.15
0.17
0.38
0.00
0.67
0.21
0.37
0.02
0.15
0.02
0.09
0.17
0.14
0.27
0.38
0.10
0.60
0.14
0.40
0.99
0.47
0.71
0.02
0.01
0.01
0.36
0.08
1.44
0.26
0.03
0.59
0.13
3.56
0.02
0.02
0.01
0.01
0.27
0.03
1.85
1.00
2.20
0.03
0.08
0.07
0.77
0.58
0.16
0.17
0.01
1.93
0.30
0.53
0.22
0.00
0.40
0.40
0.24
0.16
0.00
0.01
0.01
1.14
0.33
0.02
0.55
0.49
2.20
0.86
0.00
1.02
0.04
1.19
0.02
0.16
2.01
0.00
0.14
0.00
0.38
0.07
0.00
2.63
0.16
0.02
0.00
0.17
3.64
0.06
0.57
0.14
0.01
0.31
1.00
0.04
0.00
0.37
0.55
0.01
0.03
0.81
0.46
2.09
0.00
1.50
0.24
0.46
1.31
0.02
0.87
0.21
0.29
0.00
0.23
1.00
0.03
1.65
0.47
1.88
0.01
0.13
0.34
0.58
0.06
1.66
0.10
0.28
0.02
0.96
0.05
0.03
0.09
0.04
0.36
0.01
0.00
0.17
0.06
1.50
0.52
0.46
0.05
1.21
0.06
0.14
0.46
2.59
3.83
0.42
0.02
1.20
0.04
0.00
0.36
0.80
0.40
0.36
1.11
0.48
0.31
0.01
0.80
0.40
0.18
0.00
0.30
0.88
0.22
0.73
0.87
0.19
0.00
0.06
0.00
1.70
2.52
0.39
0.00
0.88
0.31
0.92
0.00
0.12
0.36
0.44
0.03
0.62
3.80
1.28
0.07
0.03
0.76
0.32
1.94
1.03
0.03
0.66
0.60
0.23
1.08
0.50
0.06
0.09
0.10
0.01
0.23
0.26
0.36
1.41
0.44
1.44
0.08
2.56
2.20
0.03
1.00
0.11
0.35
1.05
0.79
0.07
0.04
0.26
0.15
0.12
1.31
0.27
0.10
0.09
0.00
1.65
0.93
0.08
1.28
0.11
1.00
0.83
0.96
0.30
0.00
0.01
0.01
0.02
0.30
0.06
0.00
0.79
0.17
0.51
0.00
0.05
0.21
0.03
0.92
0.02
0.30
0.58
0.04
0.80
0.25
0.05
0.01
0.00
0.06
0.65
0.18
0.01
0.64
2.85
0.64
1.64
1.16
0.16
0.39
0.17
1.44
1.28
0.01
0.91
0.04
0.27
0.12
0.04
1.07
0.09
0.24
1.21
0.46
0.22
2.63
2.14
0.20
0.06
0.22
0.29
0.51
0.62
0.03
0.01
1.71
0.49
0.73
0.59
1.81
0.89
0.27
0.68
0.62
0.06
0.23
0.01
0.76
0.60
0.03
0.02
0.63
2.22
0.49
2.26
0.83
0.59
0.01
0.05
0.46
0.11
0.32
0.05
0.63
0.77
0.01
0.01
0.00
0.02
1.64
0.03
0.08
0.30
0.23
2.28
0.03
2.04
0.09
2.15
0.13
2.52
0.38
0.77
0.10
0.00
2.98
0.22
0.89
0.24
1.69
0.18
0.51
0.04
0.01
0.19
0.51
1.92
0.70
4.35
0.29
0.12
0.84
0.28
0.01
1.30
0.33
0.23
0.23
0.93
0.15
0.02
0.04
0.92
12.40
0.65
0.25
0.94
0.11
0.14
0.91
1.30
2.49
0.01
0.30
0.15
0.11
1.04
1.20
0.53
0.50
0.63
0.05
0.00
2.68
0.54
2.41
0.87
0.88
0.05
0.00
0.16
0.63
0.01
0.00
4.78
0.07
1.46
0.09
0.83
0.87
0.73
0.18
3.16
0.80
3.28
0.00
0.39
0.15
0.08
0.04
0.14
0.52
0.00
1.31
1.67
0.35
2.25
1.58
0.04
1.27
1.00
0.32
0.33
8.25
0.11
0.03
1.08
0.55
0.01
0.44
5.01
0.60
1.09
1.73
0.56
0.01
0.05
1.38
0.09
0.04
0.08
0.56
