#------------------------------------------------------------------------------
#$Date: 2019-11-14 09:28:08 +0200 (Thu, 14 Nov 2019) $
#$Revision: 227760 $
#$URL: file:///home/coder/svn-repositories/cod/cif/1/55/28/1552895.cif $
#------------------------------------------------------------------------------
#
# This file is available in the Crystallography Open Database (COD),
# http://www.crystallography.net/
#
# All data on this site have been placed in the public domain by the
# contributors.
#
data_1552895
loop_
_publ_author_name
'Asgari, Mehrdad'
'Jawahery, Sudi'
'Bloch, Eric D.'
'Hudson, Matthew R.'
'Flacau, Roxana'
'Vlaisavljevich, Bess'
'Long, Jeffrey R.'
'Brown, Craig M.'
'Queen, Wendy L.'
_publ_section_title
;
 An experimental and computational study of CO<sub>2</sub> adsorption in
 the sodalite-type M-BTT (M = Cr, Mn, Fe, Cu) metal-organic frameworks
 featuring open metal sites.
;
_journal_issue                   20
_journal_name_full               'Chemical science'
_journal_page_first              4579
_journal_page_last               4588
_journal_paper_doi               10.1039/c8sc00971f
_journal_volume                  9
_journal_year                    2018
_chemical_formula_sum            'C24 H8 Cl1.77 Cu5.54 N32 O0.7'
_chemical_formula_weight         1170.15
_space_group_IT_number           221
_space_group_name_Hall           '-P 4 2 3'
_space_group_name_H-M_alt        'P m -3 m'
_symmetry_cell_setting           cubic
_symmetry_space_group_name_Hall  '-P 4 2 3'
_symmetry_space_group_name_H-M   'P m -3 m'
_audit_creation_date             2016-02-13T16:11
_audit_creation_method           'from EXP file using GSAS2CIF'
_audit_update_record
;
2017-10-25 deposited with the CCDC.
2018-04-23 downloaded from the CCDC.
;
_cell_angle_alpha                90.0
_cell_angle_beta                 90.0
_cell_angle_gamma                90.0
_cell_formula_units_Z            3
_cell_length_a                   18.51977(35)
_cell_length_b                   18.51977
_cell_length_c                   18.51977
_cell_measurement_reflns_used    632
_cell_measurement_temperature    10
_cell_measurement_theta_max      160
_cell_measurement_theta_min      4.5
_cell_volume                     6351.95(12)
_computing_structure_refinement  GSAS
_diffrn_ambient_temperature      10
_diffrn_measurement_device_type  BT1
_diffrn_radiation_probe          neutron
_diffrn_radiation_wavelength     2.0782
_exptl_absorpt_correction_T_max  1.00000
_exptl_absorpt_correction_T_min  1.00000
_exptl_absorpt_process_details
;   GSAS Absorption/surface roughness correction: function number 0
 No correction is applied.
;
_pd_block_id                     2016-02-13T16:11|FREECL||c2
_pd_calc_method                  'Rietveld Refinement'
_pd_instr_location               ' ?'
_pd_meas_2theta_range_inc        0.05
_pd_meas_2theta_range_max        166.25
_pd_meas_2theta_range_min        1.5
_pd_meas_number_of_points        3296
_pd_phase_name
'from Z:/queen/Dropbox (EPFL Valais Wallis)/Mehrdad's Work/CO2 in M'
_pd_proc_2theta_range_inc        0.05
_pd_proc_2theta_range_max        166.2519
_pd_proc_2theta_range_min        1.5019
_pd_proc_info_datetime           2016-02-13T16:11:39
_pd_proc_info_excluded_regions   ' ?'
_pd_proc_ls_background_function
;   GSAS Background function number 1 with 10 terms.
 Shifted Chebyshev function of 1st kind
      1:    633.269     2:   -154.264     3:    105.010     4:   -5.24822    
      5:    51.1678     6:   -13.0859     7:    25.3142     8:   -1.13472    
      9:    10.1443    10:   -4.25140    
;
_pd_proc_ls_peak_cutoff          0.00100
_pd_proc_ls_profile_function
;
 CW Profile function number 3 with  19 terms
 Pseudovoigt profile coefficients as parameterized in
 P. Thompson, D.E. Cox & J.B. Hastings (1987). J. Appl. Cryst.,20,79-83.
 Asymmetry correction of L.W. Finger, D.E. Cox & A. P. Jephcoat (1994).
 J. Appl. Cryst.,27,892-900.
 #1(GU)   =  473.335 #2(GV)   = -194.093 #3(GW)   =  105.811
 #4(GP)   =    3.221 #5(LX)   =    1.028 #6(LY)   =   10.160
 #7(S/L)  =   0.0326 #8(H/L)  =   0.0287
 #9(trns) =     0.00 #10(shft)=   0.0000
 #11(stec)=     0.00 #12(ptec)=     0.00 #13(sfec)=     0.00
 #14(L11) =    0.000 #15(L22) =    0.000 #16(L33) =    0.000
 #17(L12) =    0.000 #18(L13) =    0.000 #19(L23) =    0.000
 Peak tails are ignored  where the intensity is below 0.0010 times the peak
   Aniso. broadening axis   0.0   0.0   1.0
;
_pd_proc_ls_prof_R_factor        0.0308
_pd_proc_ls_prof_wR_expected     0.0361
_pd_proc_ls_prof_wR_factor       0.0354
_pd_proc_number_of_points        3296
_pd_spec_mounting                ' ?'
_refine_ls_goodness_of_fit_all   0.99
_refine_ls_matrix_type           full
_refine_ls_number_parameters     39
_refine_ls_number_restraints     11
_refine_ls_R_Fsqd_factor         0.03802
_refine_ls_shift/su_max          0.07
_refine_ls_shift/su_mean         0.01
_reflns_d_resolution_high        1.057
_reflns_d_resolution_low         18.520
_reflns_limit_h_max              17
_reflns_limit_h_min              1
_reflns_limit_k_max              12
_reflns_limit_k_min              0
_reflns_limit_l_max              10
_reflns_limit_l_min              0
_reflns_number_total             632
_cod_data_source_file            c8sc00971f3.cif
_cod_data_source_block           FREECL_publ
_cod_depositor_comments
;
The following automatic conversions were performed:

'_geom_bond_publ_flag' value 'N' changed to 'n' according to
/home/data/users/saulius/crontab/automatic-downloads/current/RSC/lib/dictionaries/cif_core.dic
dictionary named 'cif_core.dic' version 2.4.2 from 2011-04-26 (85
times).

'_geom_angle_publ_flag' value 'N' changed to 'n' according to
/home/data/users/saulius/crontab/automatic-downloads/current/RSC/lib/dictionaries/cif_core.dic
dictionary named 'cif_core.dic' version 2.4.2 from 2011-04-26 (35
times).

Automatic conversion script
Id: cif_fix_values 5376 2017-05-30 11:51:03Z andrius 
;
_cod_original_cell_volume        6351.9(4)
_cod_original_formula_sum        'C24 H8 Cl1.77 Cu5.54 N32 O0.70'
_cod_database_code               1552895
_gsas_exptl_extinct_corr_t_min   1.00000
_gsas_exptl_extinct_corr_t_max   1.00000
loop_
_symmetry_equiv_pos_site_id
_symmetry_equiv_pos_as_xyz
1 +x,+y,+z
2 +z,+x,+y
3 +y,+z,+x
4 +x,+y,-z
5 -z,+x,+y
6 +y,-z,+x
7 -z,+x,-y
8 -y,-z,+x
9 +y,-z,-x
10 -x,+y,-z
11 -z,-x,+y
12 +x,-y,-z
13 +y,+x,+z
14 +z,+y,+x
15 +x,+z,+y
16 +y,+x,-z
17 -z,+y,+x
18 +x,-z,+y
19 -z,+y,-x
20 -x,-z,+y
21 +x,-z,-y
22 -y,+x,-z
23 -z,-y,+x
24 +y,-x,-z
-1 -x,-y,-z
-2 -z,-x,-y
-3 -y,-z,-x
-4 -x,-y,+z
-5 +z,-x,-y
-6 -y,+z,-x
-7 +z,-x,+y
-8 +y,+z,-x
-9 -y,+z,+x
-10 +x,-y,+z
-11 +z,+x,-y
-12 -x,+y,+z
-13 -y,-x,-z
-14 -z,-y,-x
-15 -x,-z,-y
-16 -y,-x,+z
-17 +z,-y,-x
-18 -x,+z,-y
-19 +z,-y,+x
-20 +x,+z,-y
-21 -x,+z,+y
-22 +y,-x,+z
-23 +z,+y,-x
-24 -y,+x,+z
loop_
_atom_site_type_symbol
_atom_site_label
_atom_site_fract_x
_atom_site_fract_y
_atom_site_fract_z
_atom_site_occupancy
_atom_site_thermal_displace_type
_atom_site_U_iso_or_equiv
_atom_site_symmetry_multiplicity
Cu Cu1 0.1322(5) 0.5 0.0 1.0 Uiso 0.0095(27) 12
C C1 0.14834(26) 0.33711(31) -0.14834(26) 1.0 Uiso 0.0063(8) 24
C C2 0.18083(23) 0.27352(32) -0.18083(23) 1.0 Uiso 0.0063(8) 24
C C3 0.24163(25) 0.24163(25) -0.1492(4) 1.0 Uiso 0.0063(8) 24
Cl Cl1 0.0 0.5 0.0 1.0 Uiso 0.045(5) 3
N N1 0.12964(18) 0.42512(18) -0.07873(18) 1.0 Uiso 0.0102(5) 48
N N2 0.17467(19) 0.37041(18) -0.08916(17) 1.0 Uiso 0.0102(5) 48
H H1 0.2664(5) 0.2664(5) -0.1027(7) 1.0 Uiso 0.021(4) 24
Cu Cu2 0.2309(24) 0.3557(26) 0.0 0.192(8) Uiso 0.06409 24
O Os 0.2496(32) 0.5 0.0 0.174(17) Uiso 0.01168 12
Cl Cl2 0.3662(20) 0.3662(20) 0.0 0.192(8) Uiso 0.06535 12
loop_
_atom_type_symbol
_atom_type_number_in_cell
_atom_type_scat_length_neutron
_atom_type_scat_source
Cu 16.608 0.7718 International_Tables_Vol_C
C 72.0 0.6646 International_Tables_Vol_C
Cl 5.304 0.9577 International_Tables_Vol_C
N 96.0 0.9360 International_Tables_Vol_C
H 24.0 -0.3739 International_Tables_Vol_C
O 2.085 0.5803 International_Tables_Vol_C
loop_
_geom_angle_atom_site_label_1
_geom_angle_atom_site_label_2
_geom_angle_atom_site_label_3
_geom_angle
_geom_angle_site_symmetry_1
_geom_angle_site_symmetry_3
_geom_angle_publ_flag
Cl1 Cu1 N1 88.63(28) 1_555 1_555 n
Cl1 Cu1 N1 88.63(28) 1_555 4_555 n
Cl1 Cu1 N1 88.63(28) 1_555 12_565 n
Cl1 Cu1 N1 88.63(28) 1_555 -10_565 n
N1 Cu1 N1 92.83(21) 1_555 4_555 n
N1 Cu1 N1 177.3(6) 1_555 12_565 n
N1 Cu1 N1 87.10(21) 1_555 -10_565 n
N1 Cu1 N1 87.10(21) 4_555 12_565 n
N1 Cu1 N1 177.3(6) 4_555 -10_565 n
N1 Cu1 N1 92.83(21) 12_565 -10_565 n
C2 C1 N2 123.88(29) 1_555 1_555 n
C2 C1 N2 123.88(29) 1_555 19_555 n
N2 C1 N2 112.2(6) 1_555 19_555 n
C1 C2 C3 120.10(32) 1_555 1_555 n
C1 C2 C3 120.10(32) 1_555 7_555 n
C3 C2 C3 119.7(6) 1_555 7_555 n
C2 C3 C2 120.2(6) 1_555 9_555 n
C2 C3 H1 119.81(32) 1_555 1_555 n
C2 C3 H1 119.81(32) 9_555 1_555 n
Cu1 Cl1 Cu1 180.0 1_555 10_555 n
Cu1 Cl1 Cu1 90.0 1_555 14_555 n
Cu1 Cl1 Cu1 90.0 1_555 19_555 n
Cu1 Cl1 Cu1 90.0 10_555 14_555 n
Cu1 Cl1 Cu1 90.0 10_555 19_555 n
Cu1 Cl1 Cu1 180.0 14_555 19_555 n
Cu1 N1 N1 121.94(24) 1_555 19_555 n
Cu1 N1 N2 128.08(35) 1_555 1_555 n
N1 N1 N2 109.97(21) 19_555 1_555 n
C1 N2 N1 103.9(4) 1_555 1_555 n
C1 N2 Cu2 143.9(14) 1_555 1_555 n
N1 N2 Cu2 108.4(14) 1_555 1_555 n
N2 Cu2 N2 113.8(23) 1_555 4_555 n
N2 Cu2 Cl2 121.1(11) 1_555 1_555 n
N2 Cu2 Cl2 121.1(11) 4_555 1_555 n
Cu2 Cl2 Cu2 81.1(28) 1_555 13_555 n
loop_
_geom_bond_atom_site_label_1
_geom_bond_atom_site_label_2
_geom_bond_distance
_geom_bond_site_symmetry_2
_geom_bond_publ_flag
Cu1 Cl1 2.449(9) 1_555 n
Cu1 N1 2.0127(30) 1_555 n
Cu1 N1 2.0127(30) 4_555 n
Cu1 N1 2.0127(30) 12_565 n
Cu1 N1 2.944(4) 17_555 n
Cu1 N1 2.944(4) 19_555 n
Cu1 N1 2.944(4) 23_565 n
Cu1 N1 2.0127(30) -10_565 n
Cu1 N1 2.944(4) -14_565 n
Cu1 Cu2 3.24(5) 1_555 n
Cu1 Cu2 3.24(5) 12_565 n
Cu1 Os 2.17(6) 1_555 n
C1 C2 1.453(9) 1_555 n
C1 C3 2.472(5) 1_555 n
C1 C3 2.472(5) 7_555 n
C1 N1 2.107(6) 1_555 n
C1 N1 2.107(6) 19_555 n
C1 N2 1.349(4) 1_555 n
C1 N2 1.349(4) 19_555 n
C2 C1 1.453(9) 1_555 n
C2 C2 2.428(11) 7_555 n
C2 C2 2.428(11) 9_555 n
C2 C3 1.400(5) 1_555 n
C2 C3 1.400(5) 7_555 n
C2 N2 2.473(6) 1_555 n
C2 N2 2.473(6) 19_555 n
C3 C1 2.472(5) 1_555 n
C3 C1 2.472(5) 9_555 n
C3 C2 1.400(5) 1_555 n
C3 C2 1.400(5) 9_555 n
C3 C3 2.422(12) 7_555 n
C3 C3 2.422(12) 9_555 n
C3 H1 1.077(17) 1_555 n
Cl1 Cu1 2.449(9) 1_555 n
Cl1 Cu1 2.449(9) 10_555 n
Cl1 Cu1 2.449(9) 14_555 n
Cl1 Cu1 2.449(9) 19_555 n
Cl1 N1 3.1325(31) 1_555 n
Cl1 N1 3.1325(31) 4_555 n
Cl1 N1 3.1325(31) 10_555 n
Cl1 N1 3.1325(31) 12_565 n
Cl1 N1 3.1325(31) 14_555 n
Cl1 N1 3.1325(31) 17_555 n
Cl1 N1 3.1325(31) 19_555 n
Cl1 N1 3.1325(31) 23_565 n
Cl1 N1 3.1325(31) -1_565 n
Cl1 N1 3.1325(31) -4_565 n
Cl1 N1 3.1325(31) -10_565 n
Cl1 N1 3.1325(31) -12_555 n
Cl1 N1 3.1325(31) -14_565 n
Cl1 N1 3.1325(31) -17_565 n
Cl1 N1 3.1325(31) -19_565 n
Cl1 N1 3.1325(31) -23_555 n
N1 Cu1 2.0127(30) 1_555 n
N1 Cu1 2.944(4) 19_555 n
N1 C1 2.107(6) 1_555 n
N1 Cl1 3.1325(31) 1_555 n
N1 N1 1.333(7) 19_555 n
N1 N2 1.327(5) 1_555 n
N1 N2 2.178(4) 19_555 n
N1 Cu2 2.70(4) 1_555 n
N2 C1 1.349(4) 1_555 n
N2 C2 2.473(6) 1_555 n
N2 N1 1.327(5) 1_555 n
N2 N1 2.178(4) 19_555 n
N2 N2 2.240(6) 19_555 n
N2 Cu2 1.971(26) 1_555 n
H1 C3 1.077(17) 1_555 n
H1 Cu2 2.61(4) 1_555 n
H1 Cu2 2.61(4) 13_555 n
Cu2 Cu1 3.24(5) 1_555 n
Cu2 N1 2.70(4) 1_555 n
Cu2 N1 2.70(4) 4_555 n
Cu2 N2 1.971(26) 1_555 n
Cu2 N2 1.971(26) 4_555 n
Cu2 H1 2.61(4) 1_555 n
Cu2 H1 2.61(4) 4_555 n
Cu2 Cu2 3.27(10) 13_555 n
Cu2 Os 2.69(5) 1_555 n
Cu2 Cl2 2.51(6) 1_555 n
Os Cu1 2.17(6) 1_555 n
Os Cu2 2.69(5) 1_555 n
Os Cu2 2.69(5) 12_565 n
Cl2 Cu2 2.51(6) 1_555 n
Cl2 Cu2 2.51(6) 13_555 n
loop_
_pd_meas_intensity_total
_pd_proc_ls_weight
_pd_proc_intensity_bkg_calc
_pd_calc_intensity_total
5700(160) 0.0 1186. .
5170(160) 0.0 1182. .
4420(140) 0.0 1178. .
4140(140) 0.0 1175. .
3830(130) 0.0 1171. .
3250(120) 0.0 1168. .
3150(120) 0.0 1164. .
2760(110) 0.0 1161. .
2320(110) 0.0 1157. .
2140(100) 0.0 1154. .
2260(100) 0.0 1150. .
2032(98) 0.0 1147. .
1767(92) 0.0 1143. .
1897(95) 0.0 1140. .
1734(91) 0.0 1137. .
1762(91) 0.0 1133. .
1655(89) 0.0 1130. .
1701(90) 0.0 1127. .
1534(85) 0.0 1123. .
1571(86) 0.0 1120. .
1501(85) 0.0 1117. .
1394(82) 0.0 1114. .
1594(87) 0.0 1111. .
1422(82) 0.0 1108. .
1580(87) 0.0 1104. .
1459(83) 0.0 1101. .
1436(83) 0.0 1098. .
1375(81) 0.0 1095. .
1338(80) 0.0 1092. .
1450(83) 0.0 1089. .
1268(78) 0.0 1086. .
1254(77) 0.0 1083. .
1422(82) 0.0 1080. .
1235(77) 0.0 1077. .
1212(76) 0.0 1074. .
1333(80) 0.0 1071. .
1198(76) 0.0 1069. .
1114(73) 0.0 1066. .
998(69) 0.0 1063. .
1235(77) 0.0 1060. .
1110(73) 0.0 1057. .
1072(72) 0.0 1054. .
1133(74) 0.0 1052. .
1133(74) 0.0 1049. .
1077(72) 0.0 1046. .
1091(72) 0.0 1044. .
1054(71) 0.0 1041. .
1021(70) 0.0 1038. .
1119(73) 0.0 1036. .
1133(74) 0.0 1033. .
1082(72) 0.0 1030. .
975(68) 0.0 1028. .
1007(70) 0.0 1025. .
881(65) 0.0 1023. .
1114(73) 0.0 1020. .
961(68) 0.0 1018. .
1003(69) 0.0 1015. .
1105(73) 0.0 1013. .
1138(74) 0.0 1010. .
1040(71) 0.0 1008. .
956(68) 0.0 1005. .
1119(73) 0.0001877 1003. 1003.
867(65) 0.0002367 1000. 1000.
923(67) 0.0002228 998. 998.
942(67) 0.0002228 996. 1003.
1054(71) 0.0001984 993. 1001.
891(66) 0.0002296 991. 999.
867(65) 0.0002367 989. 997.
989(69) 0.0002100 987. 996.
909(66) 0.0002296 984. 994.
914(66) 0.0002296 982. 993.
1091(72) 0.0001929 980. 992.
933(67) 0.0002228 978. 991.
961(68) 0.0002163 975. 991.
1161(75) 0.0001778 973. 992.
1170(75) 0.0001778 971. 998.
1357(80) 0.0001562 969. 1012.
1240(77) 0.0001687 967. 1040.
1161(75) 0.0001778 965. 1089.
1235(77) 0.0001687 962. 1162.
1566(86) 0.0001352 960. 1259.
1576(87) 0.0001321 958. 1378.
1604(87) 0.0001321 956. 1515.
1762(91) 0.0001208 954. 1670.
1795(92) 0.0001181 952. 1843.
1967(97) 0.0001063 950. 2037.
2160(100) 0.0000980 948. 2256.
2390(110) 0.0000890 946. 2506.
2680(110) 0.0000797 944. 2795.
3160(120) 0.0000672 942. 3135.
3470(130) 0.0000610 940. 3545.
4280(140) 0.0000496 938. 4054.
4680(150) 0.0000457 936. 4720.
6170(170) 0.0000346 934. 5631.
7170(180) 0.0000299 932. 6894.
9290(210) 0.0000231 931. 8530.
11190(230) 0.0000191 929. 10274.
12360(240) 0.0000174 927. 11477.
12520(240) 0.0000171 925. 11369.
10630(220) 0.0000201 923. 9671.
7170(130) 0.0000630 921. 7002.
4790(100) 0.0000943 920. 4411.
2877(80) 0.0001562 918. 2584.
1991(66) 0.0002296 916. 1599.
1319(54) 0.0003429 914. 1180.
979(47) 0.000453 913. 1032.
995(47) 0.000453 911. 983.
1041(48) 0.000434 909. 963.
974(47) 0.000453 907. 952.
986(47) 0.000453 906. 943.
933(45) 0.000494 904. 936.
916(45) 0.000494 902. 930.
934(45) 0.000494 901. 925.
940(46) 0.000473 899. 921.
851(43) 0.000541 897. 917.
917(45) 0.000494 896. 913.
912(45) 0.000494 894. 910.
866(44) 0.000517 893. 907.
845(43) 0.000541 891. 904.
839(43) 0.000541 889. 901.
806(42) 0.000567 888. 888.
855(43) 0.000541 886. 886.
851(43) 0.000541 885. 885.
845(43) 0.000541 883. 890.
848(43) 0.000541 882. 889.
801(42) 0.000567 880. 888.
805(42) 0.000567 879. 887.
817(43) 0.000541 877. 887.
891(44) 0.000517 876. 886.
835(43) 0.000541 874. 886.
896(44) 0.000517 873. 886.
809(42) 0.000567 872. 886.
792(42) 0.000567 870. 886.
871(44) 0.000517 869. 888.
876(44) 0.000517 867. 891.
1044(48) 0.000434 866. 900.
1039(48) 0.000434 865. 920.
1001(47) 0.000453 863. 960.
1128(50) 0.000400 862. 1031.
1156(51) 0.000384 860. 1142.
1327(54) 0.0003429 859. 1296.
1497(58) 0.0002973 858. 1493.
1617(60) 0.0002778 856. 1735.
2002(67) 0.0002228 855. 2029.
2236(70) 0.0002041 854. 2390.
2738(78) 0.0001644 853. 2853.
3314(86) 0.0001352 851. 3474.
4393(99) 0.0001020 850. 4341.
5560(110) 0.0000812 849. 5520.
7030(130) 0.0000640 848. 6926.
8020(130) 0.0000557 846. 8180.
8390(140) 0.0000533 845. 8666.
7870(130) 0.0000574 844. 7930.
6050(120) 0.0000743 843. 6160.
4208(97) 0.0001063 841. 4122.
2642(76) 0.0001731 840. 2511.
1640(60) 0.0002778 839. 1558.
1210(52) 0.000370 838. 1120.
878(44) 0.000517 837. 957.
799(42) 0.000567 836. 903.
811(42) 0.000567 834. 882.
838(43) 0.000541 833. 872.
830(43) 0.000541 832. 864.
840(43) 0.000541 831. 858.
834(43) 0.000541 830. 864.
828(43) 0.000541 829. 861.
796(42) 0.000567 828. 858.
855(43) 0.000541 827. 856.
840(43) 0.000541 826. 855.
815(42) 0.000567 825. 854.
792(42) 0.000567 823. 853.
837(43) 0.000541 822. 853.
801(42) 0.000567 821. 853.
793(42) 0.000567 820. 854.
761(41) 0.000595 819. 855.
819(43) 0.000541 818. 857.
867(44) 0.000517 817. 861.
907(45) 0.000494 816. 867.
986(47) 0.000453 815. 879.
990(47) 0.000453 814. 901.
1128(50) 0.000400 813. 962.
1188(51) 0.000384 812. 1081.
1409(56) 0.0003189 811. 1288.
1712(62) 0.0002601 810. 1607.
2110(68) 0.0002163 809. 2055.
2345(72) 0.0001929 809. 2651.
3225(85) 0.0001384 808. 3437.
4292(98) 0.0001041 807. 4504.
5730(110) 0.0000783 806. 5997.
7900(130) 0.0000565 805. 8043.
10540(150) 0.0000427 804. 10527.
12550(170) 0.0000359 803. 12825.
13880(180) 0.0000323 802. 13864.
12510(170) 0.0000359 801. 12795.
9680(150) 0.0000463 800. 9880.
6340(120) 0.0000718 800. 6433.
3220(120) 0.0000743 799. 3679.
2031(92) 0.0001181 798. 2042.
1231(71) 0.0001984 797. 1289.
952(62) 0.0002601 796. 1009.
873(43) 0.000541 795. 916.
872(43) 0.000541 794. 881.
838(42) 0.000567 794. 863.
814(42) 0.000567 793. 851.
810(41) 0.000595 792. 841.
818(42) 0.000567 791. 833.
840(42) 0.000567 790. 827.
816(42) 0.000567 790. 822.
728(39) 0.000657 789. 817.
787(41) 0.000595 788. 813.
867(43) 0.000541 787. 810.
877(43) 0.000541 787. 807.
839(42) 0.000567 786. 804.
839(42) 0.000567 785. 802.
807(41) 0.000595 784. 800.
775(40) 0.000625 784. 798.
760(40) 0.000625 783. 796.
758(40) 0.000625 782. 794.
775(40) 0.000625 781. 793.
756(40) 0.000625 781. 792.
756(40) 0.000625 780. 782.
830(42) 0.000567 779. 782.
772(40) 0.000625 779. 783.
824(42) 0.000567 778. 784.
830(42) 0.000567 777. 786.
841(42) 0.000567 776. 788.
821(42) 0.000567 776. 790.
847(42) 0.000567 775. 790.
834(42) 0.000567 774. 787.
793(41) 0.000595 774. 783.
834(42) 0.000567 773. 778.
774(40) 0.000625 772. 775.
749(40) 0.000625 772. 773.
758(40) 0.000625 771. 772.
771(40) 0.000625 771. 771.
796(41) 0.000595 770. 770.
787(41) 0.000595 769. 769.
805(41) 0.000595 769. 769.
775(40) 0.000625 768. 768.
798(41) 0.000595 767. 767.
834(42) 0.000567 767. 767.
811(41) 0.000595 766. 766.
795(41) 0.000595 766. 766.
793(41) 0.000595 765. 765.
740(39) 0.000657 764. 764.
756(40) 0.000625 764. 764.
798(41) 0.000595 763. 763.
742(40) 0.000625 763. 763.
701(38) 0.000693 762. 762.
759(40) 0.000625 762. 762.
782(41) 0.000595 761. 761.
745(40) 0.000625 760. 760.
745(40) 0.000625 760. 760.
725(39) 0.000657 759. 759.
764(40) 0.000625 759. 759.
733(39) 0.000657 758. 758.
748(40) 0.000625 758. 758.
773(40) 0.000625 757. 757.
773(40) 0.000625 757. 757.
842(42) 0.000567 756. 756.
730(39) 0.000657 756. 756.
757(40) 0.000625 755. 755.
794(41) 0.000595 755. 755.
783(41) 0.000595 754. 754.
767(40) 0.000625 754. 754.
768(40) 0.000625 753. 753.
742(40) 0.000625 753. 753.
732(39) 0.000657 752. 752.
750(40) 0.000625 752. 752.
714(39) 0.000657 751. 751.
756(40) 0.000625 751. 751.
824(42) 0.000567 750. 751.
773(40) 0.000625 750. 750.
770(40) 0.000625 749. 750.
715(39) 0.000657 749. 749.
736(39) 0.000657 748. 749.
709(39) 0.000657 748. 750.
717(39) 0.000657 747. 751.
797(41) 0.000595 747. 753.
786(41) 0.000595 747. 758.
752(40) 0.000625 746. 765.
804(41) 0.000595 746. 777.
813(41) 0.000595 745. 793.
817(42) 0.000567 745. 814.
891(44) 0.000517 744. 833.
889(43) 0.000541 744. 842.
863(43) 0.000541 744. 833.
834(42) 0.000567 743. 810.
771(40) 0.000625 743. 784.
734(39) 0.000657 742. 763.
772(40) 0.000625 742. 751.
731(39) 0.000657 741. 745.
751(40) 0.000625 741. 743.
803(41) 0.000595 741. 742.
743(40) 0.000625 740. 741.
728(39) 0.000657 740. 740.
724(56) 0.0003189 739. 740.
666(37) 0.000730 739. 740.
690(37) 0.000730 739. 739.
706(38) 0.000693 738. 739.
738(39) 0.000657 738. 738.
783(40) 0.000625 738. 738.
740(39) 0.000657 737. 737.
752(39) 0.000657 737. 737.
783(40) 0.000625 736. 737.
760(39) 0.000657 736. 736.
746(39) 0.000657 736. 737.
736(39) 0.000657 735. 737.
792(40) 0.000625 735. 737.
739(39) 0.000657 735. 737.
736(39) 0.000657 734. 736.
764(39) 0.000657 734. 736.
686(37) 0.000730 734. 736.
738(39) 0.000657 733. 736.
728(38) 0.000693 733. 736.
741(39) 0.000657 733. 736.
721(38) 0.000693 732. 736.
729(38) 0.000693 732. 736.
819(41) 0.000595 732. 736.
723(38) 0.000693 731. 736.
738(39) 0.000657 731. 737.
754(39) 0.000657 731. 738.
674(37) 0.000730 730. 738.
733(38) 0.000693 730. 740.
786(40) 0.000625 730. 742.
777(40) 0.000625 729. 748.
793(40) 0.000625 729. 760.
785(40) 0.000625 729. 788.
860(42) 0.000567 728. 845.
949(44) 0.000517 728. 954.
1096(47) 0.000453 728. 1135.
1554(57) 0.0003078 728. 1414.
1863(62) 0.0002601 727. 1784.
2099(66) 0.0002296 727. 2171.
2365(70) 0.0002041 727. 2421.
2308(70) 0.0002041 726. 2382.
1984(64) 0.0002441 726. 2045.
1482(55) 0.0003306 726. 1580.
1123(48) 0.000434 725. 1183.
868(42) 0.000567 725. 935.
793(40) 0.000625 725. 816.
750(39) 0.000657 725. 771.
709(38) 0.000693 724. 757.
759(39) 0.000657 724. 752.
806(40) 0.000625 724. 751.
699(37) 0.000730 724. 751.
718(38) 0.000693 723. 754.
732(38) 0.000693 723. 759.
747(39) 0.000657 723. 773.
786(40) 0.000625 722. 806.
922(43) 0.000541 722. 881.
1068(47) 0.000453 722. 1035.
1227(50) 0.000400 722. 1318.
1836(62) 0.0002601 721. 1787.
2462(72) 0.0001929 721. 2464.
3258(83) 0.0001452 721. 3257.
3680(88) 0.0001291 721. 3910.
3880(91) 0.0001208 720. 4083.
3295(83) 0.0001452 720. 3618.
2574(73) 0.0001877 720. 2744.
1741(60) 0.0002778 720. 1875.
1322(52) 0.000370 719. 1270.
921(43) 0.000541 719. 949.
820(41) 0.000595 719. 816.
705(38) 0.000693 719. 769.
711(38) 0.000693 718. 752.
736(38) 0.000693 718. 744.
781(40) 0.000625 718. 739.
794(40) 0.000625 718. 736.
723(38) 0.000693 717. 733.
729(38) 0.000693 717. 733.
724(38) 0.000693 717. 731.
697(37) 0.000730 717. 730.
694(37) 0.000730 717. 729.
748(39) 0.000657 716. 729.
753(39) 0.000657 716. 729.
703(38) 0.000693 716. 729.
708(38) 0.000693 716. 730.
745(39) 0.000657 715. 730.
694(37) 0.000730 715. 729.
700(37) 0.000730 715. 728.
688(37) 0.000730 715. 727.
766(39) 0.000657 715. 726.
720(38) 0.000693 714. 727.
765(39) 0.000657 714. 727.
738(39) 0.000657 714. 725.
697(37) 0.000730 714. 727.
665(36) 0.000772 713. 730.
696(37) 0.000730 713. 733.
721(38) 0.000693 713. 740.
773(39) 0.000657 713. 754.
859(42) 0.000567 713. 787.
942(44) 0.000517 712. 863.
1054(46) 0.000473 712. 1020.
1339(53) 0.000356 712. 1308.
1842(62) 0.0002601 712. 1769.
2600(70) 0.0002041 712. 2372.
3049(76) 0.0001731 711. 2965.
3350(80) 0.0001562 711. 3286.
3196(78) 0.0001644 711. 3123.
2485(69) 0.0002100 711. 2539.
1856(59) 0.0002873 711. 1838.
1333(50) 0.000400 710. 1286.
1017(43) 0.000541 710. 963.
850(40) 0.000625 710. 816.
744(37) 0.000730 710. 762.
753(37) 0.000730 710. 742.
729(37) 0.000730 709. 735.
801(38) 0.000693 709. 730.
744(37) 0.000730 709. 728.
745(37) 0.000730 709. 728.
760(37) 0.000730 709. 731.
712(36) 0.000772 709. 742.
759(37) 0.000730 708. 765.
877(40) 0.000625 708. 805.
911(41) 0.000595 708. 864.
1013(43) 0.000541 708. 929.
1043(44) 0.000517 708. 975.
1045(44) 0.000517 707. 975.
958(42) 0.000567 707. 925.
878(40) 0.000625 707. 852.
800(38) 0.000693 707. 787.
818(39) 0.000657 707. 745.
725(36) 0.000772 707. 724.
674(35) 0.000816 706.3 716.0
703(36) 0.000772 706. 713.
698(36) 0.000772 706. 709.
728(37) 0.000730 706. 708.
713(36) 0.000772 706. 708.
707(36) 0.000772 705. 708.
671(35) 0.000816 705.3 708.7
711(36) 0.000772 705. 711.
766(37) 0.000730 705. 715.
788(38) 0.000693 705. 721.
713(36) 0.000772 705. 730.
777(38) 0.000693 704. 739.
783(38) 0.000693 704. 743.
735(37) 0.000730 704. 740.
801(38) 0.000693 704. 730.
758(37) 0.000730 704. 720.
765(37) 0.000730 704. 712.
687(35) 0.000816 703.4 707.4
731(37) 0.000730 703. 705.
769(38) 0.000693 703. 704.
733(37) 0.000730 703. 704.
701(36) 0.000772 703. 704.
710(36) 0.000772 703. 703.
703(36) 0.000772 702. 704.
733(37) 0.000730 702. 704.
700(36) 0.000772 702. 706.
692(36) 0.000772 702. 710.
675(35) 0.000816 701.8 716.8
679(35) 0.000816 701.7 725.0
773(38) 0.000693 701. 733.
761(37) 0.000730 701. 736.
730(37) 0.000730 701. 734.
795(38) 0.000693 701. 726.
698(36) 0.000772 701. 717.
710(36) 0.000772 701. 710.
707(36) 0.000772 701. 706.
653(34) 0.000865 700.4 704.5
720(36) 0.000772 700. 704.
675(35) 0.000816 700.1 703.8
695(36) 0.000772 700. 704.
704(36) 0.000772 700. 704.
698(36) 0.000772 700. 704.
654(35) 0.000816 699.5 704.3
697(36) 0.000772 699. 705.
700(36) 0.000772 699. 705.
709(36) 0.000772 699. 705.
683(35) 0.000816 698.9 705.8
699(36) 0.000772 699. 708.
719(36) 0.000772 699. 709.
692(36) 0.000772 698. 710.
763(37) 0.000730 698. 711.
720(36) 0.000772 698. 713.
725(36) 0.000772 698. 715.
734(37) 0.000730 698. 718.
672(35) 0.000816 697.7 721.7
683(35) 0.000816 697.5 727.9
699(36) 0.000772 697. 740.
744(37) 0.000730 697. 768.
790(38) 0.000693 697. 835.
948(42) 0.000567 697. 989.
1202(47) 0.000453 697. 1292.
1749(57) 0.0003078 697. 1795.
2486(69) 0.0002100 696. 2455.
3077(76) 0.0001731 696. 3080.
3406(80) 0.0001562 696. 3373.
3100(77) 0.0001687 696. 3137.
2501(69) 0.0002100 696. 2495.
1794(58) 0.0002973 696. 1782.
1279(49) 0.000416 696. 1247.
926(41) 0.000595 695. 946.
853(40) 0.000625 695. 814.
781(38) 0.000693 695. 766.
735(37) 0.000730 695. 754.
749(36) 0.000772 695. 758.
783(37) 0.000730 695. 785.
877(40) 0.000625 695. 855.
1054(44) 0.000517 694. 1007.
1319(49) 0.000416 694. 1277.
1621(55) 0.0003306 694. 1661.
1968(60) 0.0002778 694. 2063.
2228(64) 0.0002441 694. 2313.
2181(64) 0.0002441 694. 2257.
1853(58) 0.0002973 694. 1914.
1411(51) 0.000384 693. 1474.
1122(45) 0.000494 693. 1112.
943(41) 0.000595 693. 893.
821(38) 0.000693 693. 791.
757(37) 0.000730 693. 753.
715(35) 0.000816 692.8 743.9
691(35) 0.000816 692.6 750.9
799(38) 0.000693 692. 780.
867(39) 0.000657 692. 855.
1037(43) 0.000541 692. 1011.
1327(49) 0.000416 692. 1281.
1779(57) 0.0003078 692. 1648.
2194(64) 0.0002441 692. 2011.
2352(66) 0.0002296 692. 2201.
2248(65) 0.0002367 691. 2097.
1889(59) 0.0002873 691. 1749.
1381(50) 0.000400 691. 1346.
1041(43) 0.000541 691. 1033.
937(41) 0.000595 691. 852.
839(39) 0.000657 691. 771.
722(36) 0.000772 691. 743.
672(34) 0.000865 690.5 738.9
716(36) 0.000772 690. 753.
755(37) 0.000730 690. 798.
906(40) 0.000625 690. 901.
1070(44) 0.000517 690. 1095.
1378(50) 0.000400 690. 1390.
1742(57) 0.0003078 690. 1729.
2005(61) 0.0002687 690. 1979.
1989(61) 0.0002687 689. 1999.
1781(57) 0.0003078 689. 1764.
1395(50) 0.000400 689. 1406.
1124(45) 0.000494 689. 1087.
923(41) 0.000595 689. 879.
751(36) 0.000772 689. 774.
704(35) 0.000816 688.6 730.7
701(35) 0.000816 688.5 715.2
652(34) 0.000865 688.3 710.2
700(35) 0.000816 688.2 710.6
734(36) 0.000772 688. 717.
740(36) 0.000772 688. 732.
790(37) 0.000730 688. 756.
878(40) 0.000625 688. 785.
837(39) 0.000657 688. 807.
851(39) 0.000657 687. 809.
833(38) 0.000693 687. 789.
807(38) 0.000693 687. 757.
726(36) 0.000772 687. 727.
697(35) 0.000816 686.8 707.6
711(35) 0.000816 686.7 697.7
725(36) 0.000772 687. 693.
695(35) 0.000816 686.4 691.9
716(35) 0.000816 686.3 691.8
749(36) 0.000772 686. 693.
717(35) 0.000816 686.0 695.9
690(35) 0.000816 685.9 701.8
702(35) 0.000816 685.8 710.5
732(36) 0.000772 686. 720.
729(36) 0.000772 685. 725.
722(36) 0.000772 685. 723.
709(35) 0.000816 685.2 715.3
689(35) 0.000816 685.1 705.3
666(34) 0.000865 684.9 696.1
673(34) 0.000865 684.8 691.3
677(34) 0.000865 684.7 689.3
726(36) 0.000772 685. 689.
698(35) 0.000816 684.4 691.4
692(35) 0.000816 684.3 697.5
681(35) 0.000816 684.1 711.8
724(36) 0.000772 684. 739.
738(36) 0.000772 684. 783.
822(38) 0.000693 684. 834.
814(38) 0.000693 684. 875.
830(38) 0.000693 683. 883.
792(37) 0.000730 683. 851.
793(37) 0.000730 683. 798.
760(37) 0.000730 683. 748.
714(35) 0.000816 682.9 714.4
702(35) 0.000816 682.8 696.8
685(35) 0.000816 682.7 689.2
679(34) 0.000865 682.5 686.3
683(35) 0.000816 682.4 685.2
660(34) 0.000865 682.3 684.5
704(35) 0.000816 682.1 684.0
739(36) 0.000772 682. 684.
765(37) 0.000730 682. 683.
650(33) 0.000918 681.7 683.0
642(33) 0.000918 681.6 682.7
682(35) 0.000816 681.5 682.5
690(33) 0.000918 681.3 682.3
681(33) 0.000918 681.2 682.1
694(34) 0.000865 681.1 681.9
648(32) 0.000977 680.9 681.7
683(33) 0.000918 680.8 681.6
695(34) 0.000865 680.7 681.9
699(34) 0.000865 680.5 681.8
668(33) 0.000918 680.4 681.9
672(33) 0.000918 680.3 682.1
688(33) 0.000918 680.1 682.6
684(33) 0.000918 680.0 683.1
698(34) 0.000865 679.9 683.4
706(34) 0.000865 679.7 683.5
680(33) 0.000918 679.6 683.1
690(33) 0.000918 679.5 682.6
682(33) 0.000918 679.3 682.2
673(33) 0.000918 679.2 682.1
670(33) 0.000918 679.1 682.3
688(33) 0.000918 678.9 684.4
702(34) 0.000865 678.8 687.3
721(34) 0.000865 678.7 694.3
707(34) 0.000865 678.5 708.8
706(34) 0.000865 678.4 733.4
778(36) 0.000772 678. 766.
828(37) 0.000730 678. 798.
795(36) 0.000772 678. 813.
820(37) 0.000730 678. 802.
731(34) 0.000865 677.7 772.1
688(33) 0.000918 677.6 738.5
674(33) 0.000918 677.4 713.2
685(33) 0.000918 677.3 699.6
688(33) 0.000918 677.2 695.8
681(33) 0.000918 677.0 701.0
705(34) 0.000865 676.9 719.3
762(35) 0.000816 676.8 760.5
812(37) 0.000730 677. 836.
904(39) 0.000657 677. 944.
1084(43) 0.000541 676. 1060.
1154(44) 0.000517 676. 1135.
1129(44) 0.000517 676. 1123.
992(41) 0.000595 676. 1032.
873(38) 0.000693 676. 911.
802(36) 0.000772 676. 811.
749(35) 0.000816 675.6 751.2
720(34) 0.000865 675.5 726.9
766(35) 0.000816 675.3 732.2
772(36) 0.000772 675. 772.
888(38) 0.000693 675. 869.
1106(43) 0.000541 675. 1050.
1373(48) 0.000434 675. 1315.
1658(53) 0.000356 675. 1603.
1883(57) 0.0003078 675. 1795.
1888(57) 0.0003078 674. 1778.
1593(52) 0.000370 674. 1556.
1281(47) 0.000453 674. 1255.
976(40) 0.000625 674. 996.
802(36) 0.000772 674. 830.
733(35) 0.000816 673.7 746.3
715(34) 0.000865 673.6 711.0
677(33) 0.000918 673.5 697.3
642(32) 0.000977 673.3 691.6
664(33) 0.000918 673.2 688.5
690(33) 0.000918 673.1 686.5
669(33) 0.000918 672.9 685.1
693(34) 0.000865 672.8 684.2
679(33) 0.000918 672.7 683.6
687(33) 0.000918 672.5 683.3
684(33) 0.000918 672.4 683.4
692(33) 0.000918 672.3 684.1
654(32) 0.000977 672.1 685.9
710(34) 0.000865 672.0 690.7
739(35) 0.000816 671.9 703.4
744(35) 0.000816 671.7 732.8
829(37) 0.000730 672. 793.
924(39) 0.000657 671. 891.
1062(42) 0.000567 671. 1013.
1188(45) 0.000494 671. 1120.
1166(44) 0.000517 671. 1157.
1125(43) 0.000541 671. 1100.
975(40) 0.000625 671. 982.
836(37) 0.000730 671. 860.
799(36) 0.000772 671. 772.
719(34) 0.000865 670.4 724.3
694(34) 0.000865 670.3 706.9
733(35) 0.000816 670.1 712.0
760(35) 0.000816 670.0 738.1
775(36) 0.000772 670. 792.
871(38) 0.000693 670. 868.
938(39) 0.000657 670. 949.
972(40) 0.000625 669. 998.
959(40) 0.000625 669. 987.
917(39) 0.000657 669. 920.
844(37) 0.000730 669. 834.
778(36) 0.000772 669. 762.
716(34) 0.000865 668.8 716.4
678(33) 0.000918 668.7 693.6
638(32) 0.000977 668.6 684.0
681(33) 0.000918 668.4 680.5
684(33) 0.000918 668.3 679.8
698(34) 0.000865 668.2 679.4
701(26) 0.001479 668.0 679.4
681(31) 0.001041 667.9 679.9
668(31) 0.001041 667.8 680.7
686(31) 0.001041 667.6 682.0
666(31) 0.001041 667.5 683.9
705(32) 0.000977 667.4 687.2
708(32) 0.000977 667.2 693.7
701(31) 0.001041 667.1 709.2
739(32) 0.000977 667.0 747.1
772(33) 0.000918 666.9 832.3
943(37) 0.000730 667. 993.
1271(43) 0.000541 667. 1239.
1678(50) 0.000400 666. 1526.
1792(51) 0.000384 666. 1747.
1735(51) 0.000384 666. 1784.
1553(48) 0.000434 666. 1609.
1284(43) 0.000541 666. 1323.
1062(39) 0.000657 666. 1053.
854(35) 0.000816 665.7 865.8
762(33) 0.000918 665.5 765.5
724(32) 0.000977 665.4 725.5
718(32) 0.000977 665.3 721.0
751(33) 0.000918 665.2 739.5
799(34) 0.000865 665.0 774.3
838(35) 0.000816 664.9 816.0
857(35) 0.000816 664.8 846.7
829(34) 0.000865 664.6 848.8
820(34) 0.000865 664.5 820.0
814(34) 0.000865 664.4 776.8
752(33) 0.000918 664.2 738.5
722(32) 0.000977 664.1 716.3
773(33) 0.000918 664.0 715.2
743(32) 0.000977 663.9 742.2
755(33) 0.000918 663.7 810.8
938(37) 0.000730 664. 935.
1139(41) 0.000595 663. 1108.
1280(43) 0.000541 663. 1288.
1392(45) 0.000494 663. 1395.
1347(44) 0.000517 663. 1368.
1228(42) 0.000567 663. 1220.
1019(38) 0.000693 663. 1032.
839(35) 0.000816 662.7 873.9
764(33) 0.000918 662.6 775.0
698(31) 0.001041 662.4 731.3
720(32) 0.000977 662.3 729.5
765(33) 0.000918 662.2 761.9
771(33) 0.000918 662.0 824.6
849(35) 0.000816 661.9 905.7
996(38) 0.000693 662. 977.
1024(38) 0.000693 662. 1002.
956(37) 0.000730 662. 964.
841(35) 0.000816 661.4 884.5
742(32) 0.000977 661.3 800.7
696(31) 0.001041 661.1 736.8
660(30) 0.001111 661.0 699.9
660(30) 0.001111 660.9 683.0
673(31) 0.001041 660.8 678.1
675(31) 0.001041 660.6 679.8
661(30) 0.001111 660.5 685.1
699(31) 0.001041 660.4 691.4
715(32) 0.000977 660.3 695.2
659(30) 0.001111 660.1 693.8
656(30) 0.001111 660.0 687.4
680(31) 0.001041 659.9 679.2
696(31) 0.001041 659.7 672.1
651(30) 0.001111 659.6 667.2
649(30) 0.001111 659.5 664.6
667(31) 0.001041 659.4 663.4
673(31) 0.001041 659.2 663.0
703(32) 0.000977 659.1 662.9
704(32) 0.000977 659.0 662.9
662(31) 0.001041 658.9 663.0
665(31) 0.001041 658.7 663.0
669(31) 0.001041 658.6 662.9
687(31) 0.001041 658.5 662.8
700(31) 0.001041 658.4 663.1
694(31) 0.001041 658.2 664.9
663(31) 0.001041 658.1 668.5
685(31) 0.001041 658.0 678.0
701(31) 0.001041 657.8 696.4
722(32) 0.000977 657.7 725.5
790(34) 0.000865 657.6 761.1
812(34) 0.000865 657.5 791.6
815(34) 0.000865 657.3 801.9
767(33) 0.000918 657.2 785.3
800(34) 0.000865 657.1 751.5
766(33) 0.000918 657.0 716.0
667(31) 0.001041 656.8 689.3
647(30) 0.001111 656.7 673.0
642(30) 0.001111 656.6 665.2
643(30) 0.001111 656.5 661.9
674(31) 0.001041 656.3 660.5
723(32) 0.000977 656.2 659.9
686(31) 0.001041 656.1 659.5
674(31) 0.001041 656.0 659.3
689(31) 0.001041 655.9 659.2
678(31) 0.001041 655.7 659.2
681(31) 0.001041 655.6 659.3
674(31) 0.001041 655.5 659.8
656(30) 0.001111 655.4 660.9
598(27) 0.001372 655.2 663.4
645(28) 0.001276 655.1 668.1
672(29) 0.001189 655.0 675.5
697(30) 0.001111 654.9 684.5
713(30) 0.001111 654.7 692.3
714(30) 0.001111 654.6 695.6
669(29) 0.001189 654.5 692.7
690(29) 0.001189 654.4 686.3
676(29) 0.001189 654.3 681.2
685(29) 0.001189 654.1 682.4
689(29) 0.001189 654.0 696.7
721(30) 0.001111 653.9 733.8
775(31) 0.001041 653.8 804.5
881(33) 0.000918 653.6 910.6
1073(37) 0.000730 654. 1033.
1176(39) 0.000657 653. 1129.
1180(39) 0.000657 653. 1149.
1077(37) 0.000730 653. 1079.
959(35) 0.000816 653.0 961.1
847(33) 0.000918 652.9 844.6
739(30) 0.001111 652.8 761.5
704(30) 0.001111 652.7 718.8
679(29) 0.001189 652.6 710.5
695(29) 0.001189 652.4 728.2
763(31) 0.001041 652.3 762.5
760(31) 0.001041 652.2 800.5
775(31) 0.001041 652.1 824.6
812(32) 0.000977 651.9 820.3
777(31) 0.001041 651.8 789.1
748(31) 0.001041 651.7 747.2
708(30) 0.001111 651.6 710.2
715(30) 0.001111 651.5 685.9
685(29) 0.001189 651.4 674.5
642(28) 0.001276 651.2 673.3
645(28) 0.001276 651.1 679.1
686(29) 0.001189 651.0 688.6
681(29) 0.001189 650.9 697.6
704(30) 0.001111 650.8 701.2
719(30) 0.001111 650.6 697.1
666(29) 0.001189 650.5 687.6
725(30) 0.001111 650.4 677.6
703(30) 0.001111 650.3 671.1
653(29) 0.001189 650.2 671.0
718(30) 0.001111 650.0 679.2
725(30) 0.001111 649.9 697.0
708(30) 0.001111 649.8 723.1
745(31) 0.001041 649.7 751.4
815(32) 0.000977 649.6 771.1
749(31) 0.001041 649.5 771.9
761(31) 0.001041 649.3 754.2
759(31) 0.001041 649.2 728.6
748(31) 0.001041 649.1 709.0
699(30) 0.001111 649.0 706.5
753(31) 0.001041 648.9 730.7
779(31) 0.001041 648.8 790.2
902(34) 0.000865 648.6 885.9
1043(37) 0.000730 649. 1003.
1141(38) 0.000693 648. 1102.
1159(39) 0.000657 648. 1137.
1111(38) 0.000693 648. 1085.
930(34) 0.000865 648.1 975.5
854(33) 0.000918 647.9 858.2
800(32) 0.000977 647.8 766.0
694(29) 0.001189 647.7 708.5
663(29) 0.001189 647.6 678.8
685(29) 0.001189 647.5 665.5
673(29) 0.001189 647.4 659.8
660(29) 0.001189 647.3 657.2
666(29) 0.001189 647.1 655.7
650(28) 0.001276 647.0 655.3
626(28) 0.001276 646.9 654.6
652(28) 0.001276 646.8 654.0
643(28) 0.001276 646.7 653.5
589(27) 0.001372 646.6 653.3
628(28) 0.001276 646.5 653.2
650(28) 0.001276 646.3 653.2
628(28) 0.001276 646.2 653.5
708(30) 0.001111 646.1 653.8
653(28) 0.001276 646.0 654.4
640(28) 0.001276 645.9 655.7
682(29) 0.001189 645.8 657.5
690(29) 0.001189 645.7 661.3
653(29) 0.001189 645.6 670.0
653(29) 0.001189 645.4 689.6
706(30) 0.001111 645.3 728.9
772(31) 0.001041 645.2 795.6
826(32) 0.000977 645.1 888.1
976(35) 0.000816 645.0 986.7
1033(36) 0.000772 645. 1055.
1082(37) 0.000730 645. 1059.
1021(36) 0.000772 645. 995.
877(33) 0.000918 644.6 897.8
780(31) 0.001041 644.4 806.7
756(31) 0.001041 644.3 744.3
719(30) 0.001111 644.2 715.9
716(30) 0.001111 644.1 716.2
745(31) 0.001041 644.0 735.8
781(31) 0.001041 643.9 762.3
775(31) 0.001041 643.8 783.0
787(32) 0.000977 643.7 785.5
735(29) 0.001189 643.6 769.2
724(28) 0.001276 643.5 746.0
735(29) 0.001189 643.3 732.2
733(29) 0.001189 643.2 744.7
809(30) 0.001111 643.1 798.7
949(33) 0.000918 643.0 904.3
1103(35) 0.000816 642.9 1054.8
1227(37) 0.000730 643. 1216.
1306(39) 0.000657 643. 1327.
1288(38) 0.000693 643. 1331.
1127(36) 0.000772 642. 1225.
1013(34) 0.000865 642.4 1065.1
912(32) 0.000977 642.3 916.2
793(30) 0.001111 642.1 816.2
773(29) 0.001189 642.0 775.6
769(29) 0.001189 641.9 786.5
821(30) 0.001111 641.8 831.3
862(31) 0.001041 641.7 885.7
908(32) 0.000977 641.6 921.1
912(32) 0.000977 641.5 915.5
816(30) 0.001111 641.4 871.2
724(28) 0.001276 641.3 812.0
733(29) 0.001189 641.2 763.5
757(29) 0.001189 641.1 743.3
787(30) 0.001111 641.0 759.2
812(30) 0.001111 640.9 810.3
931(32) 0.000977 640.8 884.6
1019(34) 0.000865 640.7 957.2
1013(34) 0.000865 640.5 994.8
980(33) 0.000918 640.4 976.0
886(32) 0.000977 640.3 910.6
813(30) 0.001111 640.2 829.4
745(29) 0.001189 640.1 760.1
723(28) 0.001276 640.0 716.4
704(28) 0.001276 639.9 699.0
701(28) 0.001276 639.8 701.3
705(28) 0.001276 639.7 714.2
709(28) 0.001276 639.6 727.5
709(28) 0.001276 639.5 731.9
730(29) 0.001189 639.4 723.7
701(28) 0.001276 639.3 707.5
656(27) 0.001372 639.2 691.8
665(27) 0.001372 639.1 684.5
679(27) 0.001372 639.0 690.7
706(28) 0.001276 638.9 712.3
758(29) 0.001189 638.8 746.1
790(30) 0.001111 638.7 782.6
771(29) 0.001189 638.6 807.1
790(30) 0.001111 638.5 805.8
816(30) 0.001111 638.4 780.1
768(29) 0.001189 638.3 741.5
677(27) 0.001372 638.2 704.4
682(27) 0.001372 638.1 676.7
646(27) 0.001372 638.0 659.7
675(27) 0.001372 637.9 650.9
662(27) 0.001372 637.7 646.8
659(27) 0.001372 637.6 645.0
670(27) 0.001372 637.5 644.3
667(27) 0.001372 637.4 643.7
660(27) 0.001372 637.3 643.8
631(26) 0.001479 637.2 644.4
623(26) 0.001479 637.1 646.0
679(27) 0.001372 637.0 649.3
688(28) 0.001276 636.9 654.6
654(27) 0.001372 636.8 661.8
694(28) 0.001276 636.7 669.6
666(27) 0.001372 636.6 675.5
698(28) 0.001276 636.5 677.8
689(28) 0.001276 636.4 676.0
661(27) 0.001372 636.3 675.6
654(27) 0.001372 636.2 683.3
710(28) 0.001276 636.1 707.5
716(28) 0.001276 636.0 755.6
770(29) 0.001189 635.9 829.1
887(32) 0.000977 635.8 916.8
982(33) 0.000918 635.7 993.1
974(33) 0.000918 635.6 1025.3
961(33) 0.000918 635.5 995.6
887(32) 0.000977 635.4 920.1
829(31) 0.001041 635.3 832.0
744(29) 0.001189 635.2 757.6
707(28) 0.001276 635.1 708.4
694(28) 0.001276 635.0 683.2
685(28) 0.001276 634.9 674.4
680(27) 0.001372 634.9 673.9
691(28) 0.001276 634.8 675.3
675(27) 0.001372 634.7 675.1
675(27) 0.001372 634.6 673.7
657(27) 0.001372 634.5 675.4
662(27) 0.001372 634.4 687.1
667(27) 0.001372 634.3 716.2
763(29) 0.001189 634.2 768.4
869(31) 0.001041 634.1 841.6
945(33) 0.000918 634.0 921.4
1003(34) 0.000865 633.9 981.1
1042(34) 0.000865 633.8 993.0
966(33) 0.000918 633.7 949.9
899(32) 0.000977 633.6 873.7
784(30) 0.001111 633.5 793.7
707(28) 0.001276 633.4 729.7
661(25) 0.001600 633.3 687.7
673(26) 0.001479 633.2 664.7
675(26) 0.001479 633.1 653.8
668(26) 0.001479 633.0 649.8
637(25) 0.001600 632.9 648.8
656(25) 0.001600 632.8 650.4
666(26) 0.001479 632.7 655.9
671(26) 0.001479 632.6 669.1
676(26) 0.001479 632.5 696.0
774(28) 0.001276 632.4 743.2
825(29) 0.001189 632.3 812.6
912(30) 0.001111 632.2 895.7
1032(32) 0.000977 632.1 970.9
1065(33) 0.000918 632.1 1007.9
974(31) 0.001041 632.0 988.2
909(30) 0.001111 631.9 922.4
830(29) 0.001189 631.8 840.9
731(27) 0.001372 631.7 770.2
717(27) 0.001372 631.6 724.4
702(26) 0.001479 631.5 704.6
716(27) 0.001372 631.4 703.7
742(27) 0.001372 631.3 710.9
756(27) 0.001372 631.2 715.5
736(27) 0.001372 631.1 711.1
717(27) 0.001372 631.0 697.7
687(26) 0.001479 630.9 680.3
680(26) 0.001479 630.8 664.2
657(25) 0.001600 630.7 652.1
667(26) 0.001479 630.6 644.6
653(25) 0.001600 630.5 640.5
629(25) 0.001600 630.5 638.6
619(25) 0.001600 630.4 637.6
637(25) 0.001600 630.3 637.3
662(25) 0.001600 630.2 637.3
643(25) 0.001600 630.1 637.8
661(25) 0.001600 630.0 638.9
629(25) 0.001600 629.9 640.9
673(26) 0.001479 629.8 643.9
661(25) 0.001600 629.7 647.8
700(26) 0.001479 629.6 652.0
684(26) 0.001479 629.5 655.4
623(25) 0.001600 629.4 657.4
681(26) 0.001479 629.3 660.4
693(26) 0.001479 629.2 668.3
660(25) 0.001600 629.2 687.0
697(26) 0.001479 629.1 722.6
753(27) 0.001372 629.0 777.5
820(29) 0.001189 628.9 846.3
918(30) 0.001111 628.8 912.9
970(31) 0.001041 628.7 953.7
935(31) 0.001041 628.6 950.7
890(30) 0.001111 628.5 908.8
804(28) 0.001276 628.4 854.1
767(28) 0.001276 628.3 815.2
802(28) 0.001276 628.2 811.3
890(30) 0.001111 628.1 847.7
970(31) 0.001041 628.1 913.1
980(31) 0.001041 628.0 982.1
1039(32) 0.000977 627.9 1021.6
1037(32) 0.000977 627.8 1007.7
932(30) 0.001111 627.7 945.7
825(29) 0.001189 627.6 862.3
757(27) 0.001372 627.5 784.2
712(26) 0.001479 627.4 726.6
702(26) 0.001479 627.3 692.6
625(25) 0.001600 627.2 677.0
672(26) 0.001479 627.1 671.8
677(26) 0.001479 627.1 670.0
698(26) 0.001479 627.0 667.5
711(26) 0.001479 626.9 664.6
674(26) 0.001479 626.8 664.3
693(26) 0.001479 626.7 670.4
710(26) 0.001479 626.6 685.5
736(27) 0.001372 626.5 710.0
689(26) 0.001479 626.4 738.6
727(27) 0.001372 626.3 763.0
756(27) 0.001372 626.2 773.0
773(28) 0.001276 626.2 763.8
735(27) 0.001372 626.1 741.4
666(26) 0.001479 626.0 717.3
681(26) 0.001479 625.9 701.6
677(26) 0.001479 625.8 699.7
688(26) 0.001479 625.7 711.5
729(27) 0.001372 625.6 729.6
741(27) 0.001372 625.5 744.9
751(27) 0.001372 625.4 748.0
792(28) 0.001276 625.3 735.7
709(26) 0.001479 625.3 713.5
751(27) 0.001372 625.2 689.8
674(26) 0.001479 625.1 671.0
631(25) 0.001600 625.0 659.8
661(25) 0.001600 624.9 655.5
674(26) 0.001479 624.8 655.5
659(25) 0.001600 624.7 656.2
681(26) 0.001479 624.6 655.0
639(25) 0.001600 624.5 651.1
647(25) 0.001600 624.5 645.9
666(26) 0.001479 624.4 640.9
622(25) 0.001600 624.3 636.8
664(25) 0.001600 624.2 634.2
616(24) 0.001736 624.1 632.9
665(25) 0.001600 624.0 632.3
651(24) 0.001736 623.9 632.3
665(25) 0.001600 623.8 632.8
648(24) 0.001736 623.7 633.4
662(25) 0.001600 623.6 635.2
641(24) 0.001736 623.6 638.2
654(24) 0.001736 623.5 642.6
680(25) 0.001600 623.4 648.4
665(25) 0.001600 623.3 654.9
643(24) 0.001736 623.2 661.1
653(24) 0.001736 623.1 666.7
690(25) 0.001600 623.0 673.6
723(26) 0.001479 622.9 687.0
716(26) 0.001479 622.8 714.8
802(27) 0.001372 622.8 764.3
845(28) 0.001276 622.7 838.1
983(30) 0.001111 622.6 928.8
1003(31) 0.001041 622.5 1016.6
1037(31) 0.001041 622.4 1073.8
1081(32) 0.000977 622.3 1079.4
1002(31) 0.001041 622.2 1040.7
945(30) 0.001111 622.1 992.1
914(29) 0.001189 622.0 973.2
1000(31) 0.001041 622.0 1010.1
1130(33) 0.000918 621.9 1105.7
1243(34) 0.000865 621.8 1234.5
1382(36) 0.000772 622. 1349.
1333(36) 0.000772 622. 1393.
1287(35) 0.000816 621.5 1340.4
1151(33) 0.000918 621.4 1214.9
1007(31) 0.001041 621.3 1067.1
923(29) 0.001189 621.3 940.6
844(28) 0.001276 621.2 857.2
860(28) 0.001276 621.1 817.4
841(28) 0.001276 621.0 804.9
832(28) 0.001276 620.9 799.5
815(28) 0.001276 620.8 785.5
825(28) 0.001276 620.7 759.9
788(27) 0.001372 620.6 729.5
754(26) 0.001479 620.5 702.2
665(25) 0.001600 620.5 683.3
695(25) 0.001600 620.4 673.6
715(26) 0.001479 620.3 670.9
734(26) 0.001479 620.2 671.4
698(25) 0.001600 620.1 671.9
644(24) 0.001736 620.0 671.8
696(25) 0.001600 619.9 674.1
698(25) 0.001600 619.8 683.5
656(24) 0.001736 619.7 703.6
708(26) 0.001479 619.7 734.9
747(26) 0.001479 619.6 772.7
797(27) 0.001372 619.5 806.9
841(28) 0.001276 619.4 824.4
808(27) 0.001372 619.3 817.0
784(27) 0.001372 619.2 788.8
790(27) 0.001372 619.1 752.7
712(26) 0.001479 619.0 721.0
705(25) 0.001600 618.9 700.8
704(25) 0.001600 618.8 692.9
722(26) 0.001479 618.8 693.4
686(25) 0.001600 618.7 695.6
723(26) 0.001479 618.6 693.4
659(25) 0.001600 618.5 684.9
701(25) 0.001600 618.4 672.1
656(24) 0.001736 618.3 658.4
625(24) 0.001736 618.2 647.3
666(25) 0.001600 618.1 639.6
643(24) 0.001736 618.0 635.2
648(24) 0.001736 618.0 633.7
650(24) 0.001736 617.9 634.7
646(24) 0.001736 617.8 639.0
612(24) 0.001736 617.7 648.0
596(23) 0.001890 617.6 664.4
735(26) 0.001479 617.5 689.4
754(26) 0.001479 617.4 724.9
731(26) 0.001479 617.3 765.5
785(27) 0.001372 617.2 803.5
769(27) 0.001372 617.1 828.3
825(28) 0.001276 617.1 834.4
824(28) 0.001276 617.0 828.8
852(28) 0.001276 616.9 829.3
875(29) 0.001189 616.8 853.3
870(29) 0.001189 616.7 910.2
1029(31) 0.001041 616.6 994.5
1108(32) 0.000977 616.5 1084.9
1162(33) 0.000918 616.4 1148.1
1219(34) 0.000865 616.3 1153.1
1124(33) 0.000918 616.2 1094.3
1009(31) 0.001041 616.2 995.5
872(29) 0.001189 616.1 888.4
800(27) 0.001372 616.0 796.6
779(27) 0.001372 615.9 730.2
623(24) 0.001736 615.8 688.9
651(24) 0.001736 615.7 666.2
658(25) 0.001600 615.6 654.0
624(24) 0.001736 615.5 646.7
627(24) 0.001736 615.4 641.3
597(23) 0.001890 615.3 637.1
647(24) 0.001736 615.2 634.2
667(24) 0.001736 615.2 632.4
635(23) 0.001890 615.1 631.7
658(24) 0.001736 615.0 631.9
612(23) 0.001890 614.9 633.1
648(24) 0.001736 614.8 635.8
652(24) 0.001736 614.7 641.4
663(24) 0.001736 614.6 651.6
658(24) 0.001736 614.5 668.4
698(25) 0.001600 614.4 690.9
752(26) 0.001479 614.3 716.7
749(26) 0.001479 614.2 740.4
704(25) 0.001600 614.1 755.0
717(25) 0.001600 614.0 755.8
708(25) 0.001600 614.0 745.5
716(25) 0.001600 613.9 732.8
711(25) 0.001600 613.8 726.2
711(25) 0.001600 613.7 730.5
804(27) 0.001372 613.6 745.1
781(26) 0.001479 613.5 764.4
788(26) 0.001479 613.4 779.7
812(27) 0.001372 613.3 784.6
774(26) 0.001479 613.2 781.0
748(25) 0.001600 613.1 779.0
763(26) 0.001479 613.0 790.1
803(26) 0.001479 612.9 820.5
831(27) 0.001372 612.8 867.5
959(29) 0.001189 612.7 918.8
967(29) 0.001189 612.7 954.9
942(29) 0.001189 612.6 957.3
944(29) 0.001189 612.5 922.0
868(28) 0.001276 612.4 861.8
787(26) 0.001479 612.3 795.0
741(25) 0.001600 612.2 735.9
700(25) 0.001600 612.1 691.4
670(24) 0.001736 612.0 662.7
614(23) 0.001890 611.9 646.8
625(23) 0.001890 611.8 640.4
636(23) 0.001890 611.7 641.2
637(23) 0.001890 611.6 648.5
646(24) 0.001736 611.5 662.8
650(24) 0.001736 611.4 683.2
720(25) 0.001600 611.3 709.0
780(26) 0.001479 611.2 735.3
808(27) 0.001372 611.1 756.0
811(27) 0.001372 611.0 764.8
761(26) 0.001479 611.0 760.5
753(26) 0.001479 610.9 749.5
733(25) 0.001600 610.8 740.6
726(25) 0.001600 610.7 740.6
712(25) 0.001600 610.6 751.5
796(26) 0.001479 610.5 770.2
786(26) 0.001479 610.4 789.6
804(27) 0.001372 610.3 803.2
803(26) 0.001479 610.2 810.7
834(27) 0.001372 610.1 821.6
791(26) 0.001479 610.0 848.9
863(27) 0.001372 609.9 901.0
1002(30) 0.001111 609.8 976.2
1113(31) 0.001041 609.7 1059.9
1141(32) 0.000977 609.6 1126.8
1147(32) 0.000977 609.5 1149.6
1137(32) 0.000977 609.4 1116.6
1092(31) 0.001041 609.3 1043.0
972(29) 0.001189 609.2 955.6
916(28) 0.001276 609.1 878.3
839(27) 0.001372 609.0 824.0
773(26) 0.001479 608.9 793.0
791(26) 0.001479 608.8 776.9
753(26) 0.001479 608.7 763.8
755(26) 0.001479 608.6 745.7
734(25) 0.001600 608.5 721.6
689(24) 0.001736 608.4 695.4
688(24) 0.001736 608.3 671.3
697(25) 0.001600 608.2 652.0
648(24) 0.001736 608.1 638.5
636(23) 0.001890 608.0 630.2
645(24) 0.001736 607.9 625.9
634(23) 0.001890 607.8 624.3
639(23) 0.001890 607.7 625.0
646(24) 0.001736 607.6 627.4
656(24) 0.001736 607.5 631.5
635(23) 0.001890 607.4 636.5
633(23) 0.001890 607.3 642.5
651(24) 0.001736 607.2 648.5
622(23) 0.001890 607.1 654.5
630(23) 0.001890 607.0 661.8
641(23) 0.001890 606.9 673.6
720(25) 0.001600 606.8 692.7
715(25) 0.001600 606.7 720.5
736(25) 0.001600 606.6 754.7
771(26) 0.001479 606.5 788.8
784(26) 0.001479 606.4 813.2
834(27) 0.001372 606.3 818.4
776(26) 0.001479 606.2 801.6
762(26) 0.001479 606.1 769.0
702(25) 0.001600 606.0 730.5
688(24) 0.001736 605.9 694.5
645(24) 0.001736 605.8 665.9
640(23) 0.001890 605.7 646.6
645(24) 0.001736 605.6 635.6
633(32) 0.000977 605.5 631.7
635(23) 0.001890 605.4 633.6
650(23) 0.001890 605.3 640.9
652(23) 0.001890 605.2 653.3
677(23) 0.001890 605.1 670.2
707(24) 0.001736 605.0 689.9
736(24) 0.001736 604.9 710.1
732(24) 0.001736 604.8 727.7
739(24) 0.001736 604.7 741.7
750(25) 0.001600 604.6 756.0
820(26) 0.001479 604.5 778.1
804(26) 0.001479 604.4 814.6
840(26) 0.001479 604.3 867.1
920(27) 0.001372 604.2 928.5
961(28) 0.001276 604.1 985.6
1011(29) 0.001189 604.0 1018.9
964(28) 0.001276 603.8 1014.6
982(28) 0.001276 603.7 974.7
905(27) 0.001372 603.6 915.1
833(26) 0.001479 603.5 854.3
834(26) 0.001479 603.4 804.9
804(26) 0.001479 603.3 771.4
728(24) 0.001736 603.2 751.6
746(25) 0.001600 603.1 738.4
700(24) 0.001736 603.0 725.3
692(24) 0.001736 602.9 710.3
662(23) 0.001890 602.8 695.0
697(24) 0.001736 602.7 682.4
656(23) 0.001890 602.6 674.2
664(23) 0.001890 602.5 670.5
680(23) 0.001890 602.4 669.6
692(24) 0.001736 602.2 669.5
674(23) 0.001890 602.1 668.9
688(24) 0.001736 602.0 668.6
705(24) 0.001736 601.9 670.6
678(23) 0.001890 601.8 676.6
641(23) 0.001890 601.7 686.5
689(24) 0.001736 601.6 698.6
709(24) 0.001736 601.5 710.3
686(24) 0.001736 601.4 719.2
678(23) 0.001890 601.3 726.1
713(24) 0.001736 601.2 735.1
773(25) 0.001600 601.1 751.2
804(26) 0.001479 600.9 776.7
834(26) 0.001479 600.8 809.0
870(27) 0.001372 600.7 840.3
848(26) 0.001479 600.6 860.0
870(27) 0.001372 600.5 858.1
885(27) 0.001372 600.4 833.1
805(26) 0.001479 600.3 792.4
743(25) 0.001600 600.2 746.4
722(24) 0.001736 600.1 703.8
680(23) 0.001890 599.9 669.6
640(23) 0.001890 599.8 645.2
621(22) 0.002066 599.7 629.5
614(22) 0.002066 599.6 620.2
618(22) 0.002066 599.5 615.1
629(22) 0.002066 599.4 612.3
639(23) 0.001890 599.3 610.8
613(22) 0.002066 599.2 610.1
596(22) 0.002066 599.1 610.1
638(23) 0.001890 598.9 610.8
599(22) 0.002066 598.8 612.7
639(23) 0.001890 598.7 616.5
639(23) 0.001890 598.6 622.6
645(23) 0.001890 598.5 631.6
683(23) 0.001890 598.4 643.2
656(23) 0.001890 598.3 656.7
662(23) 0.001890 598.1 670.0
675(23) 0.001890 598.0 681.8
690(24) 0.001736 597.9 690.6
695(24) 0.001736 597.8 697.2
704(24) 0.001736 597.7 705.0
718(24) 0.001736 597.6 717.3
717(24) 0.001736 597.5 735.5
768(25) 0.001600 597.3 757.8
800(25) 0.001600 597.2 778.9
804(26) 0.001479 597.1 792.0
795(25) 0.001600 597.0 791.9
781(25) 0.001600 596.9 778.9
772(25) 0.001600 596.8 759.1
749(25) 0.001600 596.6 739.5
739(24) 0.001736 596.5 724.9
710(24) 0.001736 596.4 717.0
728(24) 0.001736 596.3 714.6
719(24) 0.001736 596.2 715.6
688(24) 0.001736 596.1 718.2
688(24) 0.001736 595.9 723.9
738(24) 0.001736 595.8 735.5
787(25) 0.001600 595.7 754.5
806(26) 0.001479 595.6 779.2
804(26) 0.001479 595.5 804.8
808(26) 0.001479 595.4 823.5
852(26) 0.001479 595.2 828.3
867(27) 0.001372 595.1 817.5
806(26) 0.001479 595.0 796.4
786(25) 0.001600 594.9 772.9
782(25) 0.001600 594.8 753.2
757(25) 0.001600 594.6 740.0
733(24) 0.001736 594.5 731.8
728(24) 0.001736 594.4 724.6
710(24) 0.001736 594.3 714.2
715(24) 0.001736 594.2 699.3
653(23) 0.001890 594.0 681.7
669(23) 0.001890 593.9 664.0
666(23) 0.001890 593.8 648.8
622(22) 0.002066 593.7 637.3
630(23) 0.001890 593.6 629.6
658(23) 0.001890 593.4 625.6
610(22) 0.002066 593.3 624.5
625(22) 0.002066 593.2 626.2
635(23) 0.001890 593.1 630.4
619(22) 0.002066 593.0 636.9
628(23) 0.001890 592.8 644.4
610(22) 0.002066 592.7 651.3
665(23) 0.001890 592.6 655.6
643(23) 0.001890 592.5 655.2
636(23) 0.001890 592.3 649.9
671(23) 0.001890 592.2 641.1
646(23) 0.001890 592.1 631.1
648(23) 0.001890 592.0 621.5
608(22) 0.002066 591.8 613.4
571(21) 0.002268 591.7 607.5
599(22) 0.002066 591.6 603.5
617(22) 0.002066 591.5 601.1
590(22) 0.002066 591.4 599.9
582(22) 0.002066 591.2 599.5
593(22) 0.002066 591.1 599.8
570(21) 0.002268 591.0 600.8
579(22) 0.002066 590.9 603.1
591(22) 0.002066 590.7 607.7
619(22) 0.002066 590.6 614.8
612(22) 0.002066 590.5 626.1
656(23) 0.001890 590.3 642.2
661(23) 0.001890 590.2 663.4
707(24) 0.001736 590.1 688.3
725(24) 0.001736 590.0 714.2
722(24) 0.001736 589.8 737.1
741(25) 0.001600 589.7 752.8
742(25) 0.001600 589.6 759.4
750(25) 0.001600 589.5 758.9
773(25) 0.001600 589.3 756.2
780(25) 0.001600 589.2 755.8
772(25) 0.001600 589.1 759.2
782(25) 0.001600 589.0 764.9
778(25) 0.001600 588.8 768.5
777(25) 0.001600 588.7 764.9
722(24) 0.001736 588.6 751.8
710(24) 0.001736 588.4 731.5
696(24) 0.001736 588.3 708.1
690(24) 0.001736 588.2 685.9
686(24) 0.001736 588.1 667.5
614(22) 0.002066 587.9 653.7
631(23) 0.001890 587.8 643.9
647(23) 0.001890 587.7 637.1
647(23) 0.001890 587.5 632.4
663(23) 0.001890 587.4 629.5
612(22) 0.002066 587.3 628.3
621(22) 0.002066 587.1 628.5
665(23) 0.001890 587.0 629.6
656(23) 0.001890 586.9 630.6
637(23) 0.001890 586.8 630.5
634(23) 0.001890 586.6 629.1
628(23) 0.001890 586.5 626.8
630(23) 0.001890 586.4 624.5
644(23) 0.001890 586.2 623.0
612(22) 0.002066 586.1 622.7
610(22) 0.002066 586.0 623.8
627(23) 0.001890 585.8 626.1
639(23) 0.001890 585.7 629.7
663(23) 0.001890 585.6 634.9
657(23) 0.001890 585.4 642.3
678(23) 0.001890 585.3 651.9
679(23) 0.001890 585.2 662.8
690(24) 0.001736 585.0 673.1
703(24) 0.001736 584.9 680.0
686(24) 0.001736 584.8 681.0
722(24) 0.001736 584.6 675.3
688(24) 0.001736 584.5 664.3
655(23) 0.001890 584.4 650.6
671(23) 0.001890 584.2 636.8
645(23) 0.001890 584.1 624.8
651(23) 0.001890 584.0 615.6
623(22) 0.002066 583.8 609.6
586(22) 0.002066 583.7 606.4
607(22) 0.002066 583.6 605.8
601(22) 0.002066 583.4 607.6
636(23) 0.001890 583.3 612.0
625(22) 0.002066 583.2 620.2
603(22) 0.002066 583.0 634.0
609(22) 0.002066 582.9 656.6
675(23) 0.001890 582.8 691.8
742(25) 0.001600 582.6 743.4
783(25) 0.001600 582.5 813.5
868(27) 0.001372 582.3 900.4
990(29) 0.001189 582.2 997.5
1091(30) 0.001111 582.1 1092.3
1145(31) 0.001041 581.9 1167.8
1160(31) 0.001041 581.8 1206.7
1195(31) 0.001041 581.7 1199.7
1134(25) 0.001600 581.5 1152.9
1097(30) 0.001111 581.4 1082.7
1041(29) 0.001189 581.2 1006.6
850(26) 0.001479 581.1 937.4
883(27) 0.001372 581.0 880.7
829(26) 0.001479 580.8 836.4
779(25) 0.001600 580.7 800.7
742(25) 0.001600 580.6 770.6
676(23) 0.001890 580.4 744.7
709(24) 0.001736 580.3 723.1
737(25) 0.001600 580.1 706.2
703(24) 0.001736 580.0 693.3
658(23) 0.001890 579.9 683.1
683(24) 0.001736 579.7 673.4
670(23) 0.001890 579.6 662.8
631(23) 0.001890 579.4 651.1
598(22) 0.002066 579.3 639.1
622(22) 0.002066 579.2 628.2
634(23) 0.001890 579.0 619.4
627(23) 0.001890 578.9 613.9
577(22) 0.002066 578.7 612.5
591(22) 0.002066 578.6 615.7
611(22) 0.002066 578.5 623.5
651(23) 0.001890 578.3 635.7
681(24) 0.001736 578.2 651.2
694(24) 0.001736 578.0 668.0
708(24) 0.001736 577.9 683.3
709(24) 0.001736 577.8 693.9
718(24) 0.001736 577.6 697.1
722(24) 0.001736 577.5 691.9
696(24) 0.001736 577.3 680.1
698(24) 0.001736 577.2 664.9
653(23) 0.001890 577.0 649.1
654(23) 0.001890 576.9 634.8
644(23) 0.001890 576.8 623.0
619(22) 0.002066 576.6 613.7
581(22) 0.002066 576.5 606.3
583(22) 0.002066 576.3 600.5
627(23) 0.001890 576.2 595.9
606(22) 0.002066 576.0 592.2
626(23) 0.001890 575.9 589.4
606(22) 0.002066 575.8 587.2
593(22) 0.002066 575.6 585.8
590(22) 0.002066 575.5 584.9
580(22) 0.002066 575.3 584.7
582(22) 0.002066 575.2 585.1
619(22) 0.002066 575.0 586.0
597(22) 0.002066 574.9 587.8
585(22) 0.002066 574.8 590.3
635(23) 0.001890 574.6 593.9
594(22) 0.002066 574.5 599.0
581(22) 0.002066 574.3 606.0
608(22) 0.002066 574.2 615.2
612(22) 0.002066 574.0 626.5
656(23) 0.001890 573.9 639.1
708(24) 0.001736 573.7 652.2
621(22) 0.002066 573.6 663.5
679(23) 0.001890 573.5 671.5
684(24) 0.001736 573.3 675.2
667(23) 0.001890 573.2 675.3
676(23) 0.001890 573.0 673.7
662(23) 0.001890 572.9 672.2
652(23) 0.001890 572.7 672.3
685(24) 0.001736 572.6 674.5
669(23) 0.001890 572.4 678.6
688(24) 0.001736 572.3 684.4
666(23) 0.001890 572.1 692.0
729(24) 0.001736 572.0 701.7
737(25) 0.001600 571.8 714.8
708(24) 0.001736 571.7 730.1
769(25) 0.001600 571.6 745.4
761(25) 0.001600 571.4 757.7
726(24) 0.001736 571.3 763.8
743(25) 0.001600 571.1 762.5
805(26) 0.001479 571.0 755.1
755(25) 0.001600 570.8 745.0
751(25) 0.001600 570.7 734.7
735(24) 0.001736 570.5 725.5
741(25) 0.001600 570.4 717.1
682(24) 0.001736 570.2 708.1
684(24) 0.001736 570.1 696.7
694(24) 0.001736 569.9 682.9
668(23) 0.001890 569.8 667.7
639(23) 0.001890 569.6 652.8
637(23) 0.001890 569.5 639.4
618(22) 0.002066 569.3 628.5
607(22) 0.002066 569.2 620.3
661(23) 0.001890 569.0 614.8
637(23) 0.001890 568.9 611.6
602(22) 0.002066 568.7 610.4
612(22) 0.002066 568.6 610.9
649(23) 0.001890 568.5 612.3
644(23) 0.001890 568.3 614.0
607(22) 0.002066 568.2 614.9
602(22) 0.002066 568.0 614.4
626(23) 0.001890 567.9 611.9
631(23) 0.001890 567.7 607.8
628(23) 0.001890 567.6 603.0
613(22) 0.002066 567.4 598.3
612(22) 0.002066 567.3 594.5
618(31) 0.001041 567.1 592.4
585(21) 0.002268 567.0 592.4
596(21) 0.002268 566.8 594.9
589(21) 0.002268 566.7 599.8
604(22) 0.002066 566.5 607.2
596(21) 0.002268 566.4 616.6
617(22) 0.002066 566.2 627.4
601(22) 0.002066 566.1 639.3
653(22) 0.002066 565.9 651.7
620(22) 0.002066 565.8 664.4
649(22) 0.002066 565.6 678.0
691(23) 0.001890 565.5 693.6
669(23) 0.001890 565.3 711.5
698(23) 0.001890 565.2 731.8
729(24) 0.001736 565.0 753.4
764(24) 0.001736 564.9 774.9
755(24) 0.001736 564.7 794.7
791(25) 0.001600 564.6 812.7
818(25) 0.001600 564.4 830.3
862(26) 0.001479 564.3 849.0
897(26) 0.001479 564.1 868.5
896(26) 0.001479 564.0 885.9
941(27) 0.001372 563.8 896.4
901(26) 0.001479 563.7 894.6
822(25) 0.001600 563.5 877.0
849(26) 0.001479 563.4 845.3
805(25) 0.001600 563.2 804.2
770(24) 0.001736 563.0 759.7
738(24) 0.001736 562.9 717.0
696(23) 0.001890 562.7 679.5
628(22) 0.002066 562.6 649.1
636(22) 0.002066 562.4 625.8
596(21) 0.002268 562.3 609.0
588(21) 0.002268 562.1 597.5
586(21) 0.002268 562.0 590.0
586(21) 0.002268 561.8 585.4
563(21) 0.002268 561.7 583.1
575(21) 0.002268 561.5 582.4
571(21) 0.002268 561.4 583.4
569(21) 0.002268 561.2 585.8
554(21) 0.002268 561.1 589.7
583(21) 0.002268 560.9 594.8
597(21) 0.002268 560.8 601.5
629(22) 0.002066 560.6 609.5
582(21) 0.002268 560.5 618.7
641(22) 0.002066 560.3 629.2
636(22) 0.002066 560.2 641.1
660(23) 0.001890 560.0 654.7
638(22) 0.002066 559.9 669.5
665(23) 0.001890 559.7 684.9
705(23) 0.001890 559.6 698.9
726(24) 0.001736 559.4 709.2
716(24) 0.001736 559.3 713.0
720(24) 0.001736 559.1 709.1
695(23) 0.001890 559.0 698.3
671(23) 0.001890 558.8 683.2
659(23) 0.001890 558.6 667.1
629(22) 0.002066 558.5 653.5
665(23) 0.001890 558.3 645.1
602(22) 0.002066 558.2 644.1
616(22) 0.002066 558.0 651.7
662(23) 0.001890 557.9 667.8
735(24) 0.001736 557.7 691.5
769(24) 0.001736 557.6 719.8
803(25) 0.001600 557.4 749.3
782(25) 0.001600 557.3 775.4
800(25) 0.001600 557.1 793.2
811(25) 0.001600 557.0 798.9
815(25) 0.001600 556.8 791.8
832(25) 0.001600 556.7 774.6
760(24) 0.001736 556.5 751.6
708(23) 0.001890 556.4 727.7
718(24) 0.001736 556.2 706.8
639(22) 0.002066 556.1 691.4
674(23) 0.001890 555.9 683.2
676(23) 0.001890 555.8 682.5
681(23) 0.001890 555.6 689.1
721(24) 0.001736 555.5 702.0
709(23) 0.001890 555.3 719.5
726(24) 0.001736 555.2 739.3
737(24) 0.001736 555.0 758.8
773(24) 0.001736 554.8 775.5
761(24) 0.001736 554.7 788.0
840(26) 0.001479 554.5 796.6
792(25) 0.001600 554.4 802.8
811(25) 0.001600 554.2 808.0
862(26) 0.001479 554.1 811.9
806(25) 0.001600 553.9 813.2
769(24) 0.001736 553.8 809.4
792(25) 0.001600 553.6 798.7
822(25) 0.001600 553.5 781.0
731(24) 0.001736 553.3 758.5
750(24) 0.001736 553.2 733.9
767(24) 0.001736 553.0 710.5
725(24) 0.001736 552.9 690.1
683(23) 0.001890 552.7 673.7
663(23) 0.001890 552.6 661.8
634(22) 0.002066 552.4 654.1
630(22) 0.002066 552.3 650.2
667(23) 0.001890 552.1 649.5
614(22) 0.002066 552.0 650.7
658(23) 0.001890 551.8 652.6
648(22) 0.002066 551.7 653.5
667(23) 0.001890 551.5 652.0
661(23) 0.001890 551.4 647.6
589(21) 0.002268 551.2 640.5
634(22) 0.002066 551.1 631.6
644(22) 0.002066 550.9 622.1
626(22) 0.002066 550.8 612.9
585(21) 0.002268 550.6 604.3
636(22) 0.002066 550.5 596.8
573(21) 0.002268 550.3 590.3
599(21) 0.002268 550.1 584.6
564(21) 0.002268 550.0 579.8
592(21) 0.002268 549.8 575.9
541(20) 0.002500 549.7 572.9
609(22) 0.002066 549.5 571.0
564(21) 0.002268 549.4 570.2
582(21) 0.002268 549.2 570.6
559(21) 0.002268 549.1 572.3
579(21) 0.002268 548.9 575.4
578(21) 0.002268 548.8 580.3
583(21) 0.002268 548.6 587.3
586(21) 0.002268 548.5 596.8
602(22) 0.002066 548.3 609.4
632(22) 0.002066 548.2 625.5
619(22) 0.002066 548.0 645.0
658(23) 0.001890 547.9 668.1
729(24) 0.001736 547.7 694.3
701(23) 0.001890 547.6 722.2
715(24) 0.001736 547.4 750.6
781(25) 0.001600 547.3 777.2
796(25) 0.001600 547.1 800.4
827(25) 0.001600 547.0 819.7
855(26) 0.001479 546.8 835.7
833(25) 0.001600 546.7 849.5
841(26) 0.001479 546.5 861.7
869(26) 0.001479 546.4 871.1
848(26) 0.001479 546.2 875.5
842(26) 0.001479 546.1 872.4
835(26) 0.001479 546.0 860.6
830(25) 0.001600 545.8 840.8
808(25) 0.001600 545.7 815.7
759(24) 0.001736 545.5 788.5
805(25) 0.001600 545.4 761.1
743(24) 0.001736 545.2 735.1
715(24) 0.001736 545.1 710.7
715(24) 0.001736 544.9 687.9
626(22) 0.002066 544.8 666.8
656(23) 0.001890 544.6 647.7
631(22) 0.002066 544.5 631.4
625(22) 0.002066 544.3 618.4
637(22) 0.002066 544.2 609.3
566(21) 0.002268 544.0 604.3
610(22) 0.002066 543.9 603.6
566(21) 0.002268 543.7 606.8
593(21) 0.002268 543.6 613.2
628(22) 0.002066 543.4 621.7
619(22) 0.002066 543.3 630.9
619(22) 0.002066 543.1 639.2
642(22) 0.002066 543.0 645.0
632(22) 0.002066 542.8 646.9
617(22) 0.002066 542.7 644.5
623(22) 0.002066 542.6 638.6
626(22) 0.002066 542.4 630.1
616(22) 0.002066 542.3 620.6
574(21) 0.002268 542.1 610.8
621(22) 0.002066 542.0 601.8
599(22) 0.002066 541.8 593.9
583(21) 0.002268 541.7 587.5
597(21) 0.002268 541.5 582.8
574(21) 0.002268 541.4 580.1
594(21) 0.002268 541.2 579.9
593(21) 0.002268 541.1 582.6
596(21) 0.002268 541.0 588.6
590(21) 0.002268 540.8 598.2
585(21) 0.002268 540.7 611.8
630(22) 0.002066 540.5 628.4
661(23) 0.001890 540.4 647.5
668(23) 0.001890 540.2 667.6
679(23) 0.001890 540.1 686.5
706(23) 0.001890 539.9 702.3
659(23) 0.001890 539.8 712.7
718(24) 0.001736 539.7 716.7
685(23) 0.001890 539.5 714.4
725(24) 0.001736 539.4 708.0
711(24) 0.001736 539.2 699.9
660(23) 0.001890 539.1 693.0
684(23) 0.001890 538.9 689.6
694(23) 0.001890 538.8 691.1
685(23) 0.001890 538.7 698.4
691(23) 0.001890 538.5 711.3
705(23) 0.001890 538.4 729.1
739(24) 0.001736 538.2 749.9
781(25) 0.001600 538.1 771.0
768(24) 0.001736 537.9 789.0
781(25) 0.001600 537.8 800.3
786(25) 0.001600 537.7 802.3
762(24) 0.001736 537.5 794.1
760(24) 0.001736 537.4 777.7
751(24) 0.001736 537.2 756.8
745(25) 0.001600 537.1 735.7
701(24) 0.001736 537.0 718.3
717(25) 0.001600 536.8 708.2
699(24) 0.001736 536.7 707.2
740(25) 0.001600 536.5 716.2
721(25) 0.001600 536.4 734.4
741(25) 0.001600 536.3 759.5
785(26) 0.001479 536.1 788.1
811(26) 0.001479 536.0 815.4
822(26) 0.001479 535.8 836.9
880(27) 0.001372 535.7 848.0
810(26) 0.001479 535.6 846.0
775(26) 0.001479 535.4 831.2
809(26) 0.001479 535.3 806.4
843(27) 0.001372 535.1 775.6
766(25) 0.001600 535.0 742.7
698(24) 0.001736 534.9 711.4
709(24) 0.001736 534.7 683.7
704(24) 0.001736 534.6 660.9
707(24) 0.001736 534.5 643.4
636(23) 0.001890 534.3 631.0
626(23) 0.001890 534.2 622.8
605(22) 0.002066 534.0 617.7
591(22) 0.002066 533.9 614.5
641(23) 0.001890 533.8 611.7
606(23) 0.001890 533.6 608.3
582(22) 0.002066 533.5 604.0
591(22) 0.002066 533.4 598.9
608(23) 0.001890 533.2 593.7
577(22) 0.002066 533.1 589.1
555(22) 0.002066 533.0 585.8
573(22) 0.002066 532.8 584.5
582(22) 0.002066 532.7 585.5
585(22) 0.002066 532.6 588.9
612(23) 0.001890 532.4 594.6
583(22) 0.002066 532.3 601.9
604(22) 0.002066 532.1 610.1
619(23) 0.001890 532.0 618.0
624(23) 0.001890 531.9 624.9
654(23) 0.001890 531.7 629.5
664(24) 0.001736 531.6 631.4
593(22) 0.002066 531.5 631.0
624(23) 0.001890 531.3 629.0
636(23) 0.001890 531.2 626.6
622(23) 0.001890 531.1 624.8
661(24) 0.001736 531.0 624.8
659(23) 0.001890 530.8 627.1
613(23) 0.001890 530.7 632.2
595(22) 0.002066 530.6 640.5
630(23) 0.001890 530.4 652.1
697(24) 0.001736 530.3 666.9
692(24) 0.001736 530.2 684.5
716(24) 0.001736 530.0 704.4
753(25) 0.001600 529.9 725.5
752(25) 0.001600 529.8 747.1
752(25) 0.001600 529.6 768.5
789(26) 0.001479 529.5 789.1
833(26) 0.001479 529.4 808.3
838(27) 0.001372 529.3 824.8
788(26) 0.001479 529.1 836.8
810(26) 0.001479 529.0 841.9
844(27) 0.001372 528.9 838.3
810(26) 0.001479 528.7 825.5
831(26) 0.001479 528.6 805.1
817(26) 0.001479 528.5 779.9
750(25) 0.001600 528.4 753.1
738(25) 0.001600 528.2 728.0
707(24) 0.001736 528.1 706.8
673(24) 0.001736 528.0 691.2
666(24) 0.001736 527.9 681.9
666(24) 0.001736 527.7 678.7
686(24) 0.001736 527.6 680.7
685(24) 0.001736 527.5 686.2
692(24) 0.001736 527.4 693.0
698(24) 0.001736 527.2 699.0
687(24) 0.001736 527.1 701.7
703(24) 0.001736 527.0 699.9
684(24) 0.001736 526.9 693.1
732(25) 0.001600 526.7 682.1
711(24) 0.001736 526.6 668.1
646(23) 0.001890 526.5 652.7
639(23) 0.001890 526.4 636.9
641(23) 0.001890 526.2 621.5
586(22) 0.002066 526.1 607.4
581(22) 0.002066 526.0 594.8
560(22) 0.002066 525.9 584.0
583(22) 0.002066 525.7 575.0
608(23) 0.001890 525.6 567.9
585(22) 0.002066 525.5 562.7
559(22) 0.002066 525.4 559.2
552(21) 0.002268 525.3 557.4
561(22) 0.002066 525.1 557.3
552(21) 0.002268 525.0 558.6
599(22) 0.002066 524.9 561.5
588(22) 0.002066 524.8 565.6
572(22) 0.002066 524.7 571.0
521(21) 0.002268 524.5 577.3
601(22) 0.002066 524.4 584.9
569(22) 0.002066 524.3 593.1
630(23) 0.001890 524.2 601.8
595(23) 0.001890 524.1 611.0
597(23) 0.001890 523.9 620.1
621(23) 0.001890 523.8 628.8
648(24) 0.001736 523.7 636.6
619(23) 0.001890 523.6 642.9
590(23) 0.001890 523.5 647.7
640(24) 0.001736 523.4 651.3
648(24) 0.001736 523.2 654.7
651(24) 0.001736 523.1 659.0
641(24) 0.001736 523.0 665.4
687(24) 0.001736 522.9 674.9
679(24) 0.001736 522.8 688.0
676(24) 0.001736 522.7 704.8
748(25) 0.001600 522.6 725.1
747(25) 0.001600 522.4 747.9
797(26) 0.001479 522.3 771.9
805(26) 0.001479 522.2 794.9
770(26) 0.001479 522.1 814.7
800(26) 0.001479 522.0 828.4
830(27) 0.001372 521.9 834.1
851(27) 0.001372 521.8 830.8
855(27) 0.001372 521.6 819.5
788(26) 0.001479 521.5 802.4
805(26) 0.001479 521.4 782.4
782(26) 0.001479 521.3 762.2
773(26) 0.001479 521.2 743.8
767(26) 0.001479 521.1 729.1
744(25) 0.001600 521.0 718.3
713(25) 0.001600 520.9 712.0
668(24) 0.001736 520.8 709.8
716(25) 0.001600 520.7 711.1
696(25) 0.001600 520.5 714.4
692(25) 0.001600 520.4 718.1
708(25) 0.001600 520.3 720.6
741(25) 0.001600 520.2 720.8
705(25) 0.001600 520.1 717.7
733(25) 0.001600 520.0 711.7
728(25) 0.001600 519.9 703.4
710(25) 0.001600 519.8 693.3
645(24) 0.001736 519.7 681.8
643(24) 0.001736 519.6 669.1
644(24) 0.001736 519.5 655.5
658(24) 0.001736 519.4 641.1
606(23) 0.001890 519.3 626.4
643(24) 0.001736 519.1 611.8
619(23) 0.001890 519.0 598.0
602(23) 0.001890 518.9 585.4
600(23) 0.001890 518.8 574.1
555(22) 0.002066 518.7 564.7
551(22) 0.002066 518.6 557.2
551(22) 0.002066 518.5 551.5
549(22) 0.002066 518.4 547.6
562(22) 0.002066 518.3 545.3
534(22) 0.002066 518.2 544.7
549(22) 0.002066 518.1 545.5
550(22) 0.002066 518.0 547.7
564(22) 0.002066 517.9 551.2
566(22) 0.002066 517.8 556.1
558(22) 0.002066 517.7 562.2
592(23) 0.001890 517.6 569.6
572(22) 0.002066 517.5 578.2
586(23) 0.001890 517.4 587.9
601(23) 0.001890 517.3 598.5
593(23) 0.001890 517.2 609.7
632(23) 0.001890 517.1 621.4
624(23) 0.001890 517.0 633.1
633(23) 0.001890 516.9 644.7
636(23) 0.001890 516.8 655.4
623(23) 0.001890 516.7 664.7
645(24) 0.001736 516.6 671.6
659(24) 0.001736 516.5 675.5
665(24) 0.001736 516.4 676.0
679(24) 0.001736 516.3 673.2
680(24) 0.001736 516.2 667.6
663(24) 0.001736 516.1 660.1
674(24) 0.001736 516.0 651.3
659(24) 0.001736 515.9 641.7
640(24) 0.001736 515.9 631.7
659(24) 0.001736 515.8 621.6
596(23) 0.001890 515.7 611.9
593(23) 0.001890 515.6 603.1
605(23) 0.001890 515.5 595.9
583(23) 0.001890 515.4 590.6
601(23) 0.001890 515.3 587.9
593(23) 0.001890 515.2 587.6
588(23) 0.001890 515.1 589.9
574(22) 0.002066 515.0 594.6
600(23) 0.001890 514.9 601.2
612(23) 0.001890 514.8 609.1
613(23) 0.001890 514.7 617.5
598(23) 0.001890 514.7 625.3
606(23) 0.001890 514.6 631.8
627(23) 0.001890 514.5 635.8
593(23) 0.001890 514.4 637.0
646(24) 0.001736 514.3 635.4
665(24) 0.001736 514.2 631.4
643(24) 0.001736 514.1 625.6
660(24) 0.001736 514.0 618.9
644(24) 0.001736 513.9 611.7
583(22) 0.002066 513.9 604.7
574(21) 0.002268 513.8 598.2
623(22) 0.002066 513.7 593.0
606(22) 0.002066 513.6 589.6
575(21) 0.002268 513.5 588.5
584(21) 0.002268 513.4 590.3
585(21) 0.002268 513.3 595.4
602(22) 0.002066 513.2 604.2
606(22) 0.002066 513.2 616.7
674(23) 0.001890 513.1 633.1
638(22) 0.002066 513.0 653.2
656(23) 0.001890 512.9 676.4
678(23) 0.001890 512.8 702.1
715(24) 0.001736 512.7 729.5
768(25) 0.001600 512.7 757.4
739(24) 0.001736 512.6 784.7
824(26) 0.001479 512.5 810.4
861(26) 0.001479 512.4 834.0
870(26) 0.001479 512.3 855.1
895(27) 0.001372 512.3 873.4
891(27) 0.001372 512.2 888.1
927(27) 0.001372 512.1 898.3
945(27) 0.001372 512.0 903.0
896(27) 0.001372 511.9 901.3
899(27) 0.001372 511.9 893.4
891(27) 0.001372 511.8 880.1
941(27) 0.001372 511.7 862.9
920(27) 0.001372 511.6 843.1
864(26) 0.001479 511.5 821.8
811(25) 0.001600 511.5 800.3
775(25) 0.001600 511.4 778.4
801(25) 0.001600 511.3 757.1
770(25) 0.001600 511.2 736.8
729(24) 0.001736 511.2 718.2
734(24) 0.001736 511.1 701.9
679(23) 0.001890 511.0 688.0
708(24) 0.001736 510.9 676.6
669(23) 0.001890 510.8 667.9
678(23) 0.001890 510.8 661.3
653(23) 0.001890 510.7 656.6
633(22) 0.002066 510.6 653.8
659(23) 0.001890 510.6 652.5
675(23) 0.001890 510.5 652.4
651(23) 0.001890 510.4 653.1
656(23) 0.001890 510.3 653.9
671(23) 0.001890 510.3 654.5
648(23) 0.001890 510.2 654.6
671(23) 0.001890 510.1 654.2
682(23) 0.001890 510.0 653.2
649(23) 0.001890 510.0 651.8
667(23) 0.001890 509.9 649.9
662(23) 0.001890 509.8 647.5
641(22) 0.002066 509.8 644.5
648(23) 0.001890 509.7 640.7
678(23) 0.001890 509.6 636.3
642(23) 0.001890 509.6 631.3
615(22) 0.002066 509.5 625.9
599(22) 0.002066 509.4 620.4
640(22) 0.002066 509.3 614.7
635(22) 0.002066 509.3 608.9
605(22) 0.002066 509.2 603.1
592(22) 0.002066 509.1 597.5
593(22) 0.002066 509.1 592.3
591(22) 0.002066 509.0 588.1
576(21) 0.002268 508.9 585.0
589(22) 0.002066 508.9 583.7
597(22) 0.002066 508.8 584.2
573(21) 0.002268 508.8 586.7
598(22) 0.002066 508.7 591.1
593(22) 0.002066 508.6 597.4
616(22) 0.002066 508.6 605.1
608(22) 0.002066 508.5 613.8
603(22) 0.002066 508.4 623.0
626(22) 0.002066 508.4 632.0
633(22) 0.002066 508.3 640.2
664(23) 0.001890 508.2 647.4
692(23) 0.001890 508.2 653.5
655(23) 0.001890 508.1 658.6
667(23) 0.001890 508.1 663.2
645(23) 0.001890 508.0 667.8
699(23) 0.001890 507.9 672.9
717(24) 0.001736 507.9 678.7
693(23) 0.001890 507.8 685.2
677(23) 0.001890 507.8 692.6
772(25) 0.001600 507.7 700.8
748(24) 0.001736 507.6 709.5
786(25) 0.001600 507.6 718.6
743(24) 0.001736 507.5 727.4
723(24) 0.001736 507.5 735.3
743(24) 0.001736 507.4 741.4
723(24) 0.001736 507.3 745.2
736(24) 0.001736 507.3 746.5
753(24) 0.001736 507.2 745.4
748(24) 0.001736 507.2 742.2
758(24) 0.001736 507.1 737.5
743(24) 0.001736 507.1 731.4
738(24) 0.001736 507.0 724.3
717(24) 0.001736 507.0 716.2
713(24) 0.001736 506.9 707.4
737(24) 0.001736 506.8 698.2
733(33) 0.000918 506.8 689.1
697(23) 0.001890 506.7 680.5
697(23) 0.001890 506.7 672.8
687(23) 0.001890 506.6 666.2
694(23) 0.001890 506.6 661.0
668(23) 0.001890 506.5 656.7
662(23) 0.001890 506.5 653.5
669(23) 0.001890 506.4 651.5
667(23) 0.001890 506.4 650.5
656(23) 0.001890 506.3 650.5
677(23) 0.001890 506.3 651.2
672(23) 0.001890 506.2 652.3
688(23) 0.001890 506.2 653.4
665(23) 0.001890 506.1 654.2
669(23) 0.001890 506.1 654.7
671(23) 0.001890 506.0 654.6
640(22) 0.002066 506.0 654.1
658(23) 0.001890 505.9 653.1
641(22) 0.002066 505.9 651.6
617(22) 0.002066 505.8 649.8
643(22) 0.002066 505.8 647.5
647(22) 0.002066 505.7 645.4
625(22) 0.002066 505.7 643.9
633(22) 0.002066 505.6 643.8
653(23) 0.001890 505.6 646.0
666(23) 0.001890 505.5 651.2
652(23) 0.001890 505.5 659.8
662(23) 0.001890 505.4 672.3
671(23) 0.001890 505.4 688.7
672(23) 0.001890 505.4 708.7
743(24) 0.001736 505.3 731.8
740(24) 0.001736 505.3 757.2
744(24) 0.001736 505.2 783.7
792(25) 0.001600 505.2 809.9
828(25) 0.001600 505.1 834.5
857(26) 0.001479 505.1 856.2
856(26) 0.001479 505.1 874.1
890(26) 0.001479 505.0 887.7
902(27) 0.001372 505.0 897.2
905(27) 0.001372 504.9 902.5
921(27) 0.001372 504.9 903.7
903(27) 0.001372 504.8 900.8
866(26) 0.001479 504.8 893.5
858(26) 0.001479 504.8 882.1
867(26) 0.001479 504.7 867.0
827(25) 0.001600 504.7 849.0
824(25) 0.001600 504.6 829.2
799(25) 0.001600 504.6 808.6
818(25) 0.001600 504.6 788.2
783(25) 0.001600 504.5 768.3
724(24) 0.001736 504.5 749.4
701(23) 0.001890 504.4 732.0
726(24) 0.001736 504.4 716.2
685(23) 0.001890 504.4 702.2
669(23) 0.001890 504.3 690.1
673(23) 0.001890 504.3 679.8
689(23) 0.001890 504.3 671.2
660(23) 0.001890 504.2 663.7
662(23) 0.001890 504.2 657.3
654(23) 0.001890 504.1 651.5
667(23) 0.001890 504.1 646.1
640(22) 0.002066 504.1 641.0
642(22) 0.002066 504.0 636.0
663(23) 0.001890 504.0 631.0
655(23) 0.001890 504.0 625.8
639(22) 0.002066 503.9 620.3
624(22) 0.002066 503.9 614.3
631(22) 0.002066 503.9 608.0
619(22) 0.002066 503.8 601.5
609(22) 0.002066 503.8 595.0
606(22) 0.002066 503.8 588.9
597(22) 0.002066 503.7 583.2
573(21) 0.002268 503.7 578.3
586(21) 0.002268 503.7 574.1
599(22) 0.002066 503.6 570.7
580(21) 0.002268 503.6 568.0
582(21) 0.002268 503.6 566.0
579(21) 0.002268 503.5 564.6
565(21) 0.002268 503.5 563.5
562(21) 0.002268 503.5 562.6
541(21) 0.002268 503.4 561.7
538(20) 0.002500 503.4 560.8
549(21) 0.002268 503.4 559.6
563(21) 0.002268 503.4 558.4
565(21) 0.002268 503.3 557.2
554(21) 0.002268 503.3 556.3
533(20) 0.002500 503.3 555.9
569(21) 0.002268 503.2 556.2
594(22) 0.002066 503.2 557.4
601(22) 0.002066 503.2 559.6
565(21) 0.002268 503.2 563.0
556(21) 0.002268 503.1 567.8
588(21) 0.002268 503.1 573.8
600(22) 0.002066 503.1 581.0
609(22) 0.002066 503.0 589.5
609(22) 0.002066 503.0 599.0
582(21) 0.002268 503.0 609.4
600(22) 0.002066 503.0 620.5
623(22) 0.002066 502.9 632.1
650(23) 0.001890 502.9 644.2
621(22) 0.002066 502.9 656.6
632(22) 0.002066 502.9 669.0
697(23) 0.001890 502.8 681.2
684(23) 0.001890 502.8 693.1
694(23) 0.001890 502.8 704.4
674(23) 0.001890 502.8 715.2
692(23) 0.001890 502.7 725.6
741(24) 0.001736 502.7 735.7
750(24) 0.001736 502.7 745.9
735(24) 0.001736 502.7 756.3
759(24) 0.001736 502.6 766.9
786(25) 0.001600 502.6 777.4
761(24) 0.001736 502.6 787.6
777(25) 0.001600 502.6 797.2
781(25) 0.001600 502.6 805.9
798(25) 0.001600 502.5 813.2
816(25) 0.001600 502.5 818.8
855(26) 0.001479 502.5 821.9
810(25) 0.001600 502.5 822.1
780(25) 0.001600 502.4 818.9
760(24) 0.001736 502.4 812.0
797(25) 0.001600 502.4 801.9
758(24) 0.001736 502.4 789.1
792(25) 0.001600 502.4 774.7
803(25) 0.001600 502.3 759.8
755(24) 0.001736 502.3 745.5
740(24) 0.001736 502.3 732.8
721(24) 0.001736 502.3 722.1
730(24) 0.001736 502.3 713.9
732(24) 0.001736 502.2 708.2
706(23) 0.001890 502.2 704.8
717(24) 0.001736 502.2 703.2
702(23) 0.001890 502.2 702.6
692(23) 0.001890 502.2 702.2
651(23) 0.001890 502.1 701.1
667(23) 0.001890 502.1 698.5
677(23) 0.001890 502.1 693.8
695(23) 0.001890 502.1 686.8
673(23) 0.001890 502.1 677.6
642(22) 0.002066 502.1 666.7
642(22) 0.002066 502.0 654.4
659(23) 0.001890 502.0 641.3
627(22) 0.002066 502.0 627.9
588(21) 0.002268 502.0 614.6
587(21) 0.002268 502.0 602.0
623(22) 0.002066 502.0 590.3
606(22) 0.002066 501.9 579.8
565(21) 0.002268 501.9 570.8
532(20) 0.002500 501.9 563.3
527(20) 0.002500 501.9 557.5
553(21) 0.002268 501.9 553.4
564(21) 0.002268 501.9 551.0
566(21) 0.002268 501.8 550.2
543(21) 0.002268 501.8 551.0
562(21) 0.002268 501.8 553.4
562(21) 0.002268 501.8 557.3
573(21) 0.002268 501.8 562.7
574(21) 0.002268 501.8 569.4
587(21) 0.002268 501.8 577.4
610(22) 0.002066 501.7 586.5
620(22) 0.002066 501.7 596.6
610(22) 0.002066 501.7 607.5
623(22) 0.002066 501.7 619.0
657(23) 0.001890 501.7 630.9
682(23) 0.001890 501.7 642.7
680(23) 0.001890 501.7 654.2
689(23) 0.001890 501.7 665.1
694(23) 0.001890 501.6 675.0
726(24) 0.001736 501.6 684.0
699(23) 0.001890 501.6 691.6
696(23) 0.001890 501.6 698.1
723(24) 0.001736 501.6 703.4
732(24) 0.001736 501.6 707.6
737(24) 0.001736 501.6 710.7
731(24) 0.001736 501.6 712.6
714(24) 0.001736 501.5 713.4
711(24) 0.001736 501.5 713.2
711(24) 0.001736 501.5 712.1
702(23) 0.001890 501.5 710.4
727(24) 0.001736 501.5 708.2
727(24) 0.001736 501.5 705.8
704(23) 0.001890 501.5 703.2
712(24) 0.001736 501.5 700.5
713(24) 0.001736 501.5 697.7
684(23) 0.001890 501.4 694.8
681(23) 0.001890 501.4 692.0
698(23) 0.001890 501.4 689.2
705(23) 0.001890 501.4 686.5
707(23) 0.001890 501.4 683.9
672(23) 0.001890 501.4 681.2
681(23) 0.001890 501.4 678.5
694(23) 0.001890 501.4 675.4
670(23) 0.001890 501.4 672.0
670(23) 0.001890 501.4 668.2
645(22) 0.002066 501.3 663.9
652(23) 0.001890 501.3 659.1
647(22) 0.002066 501.3 653.9
652(23) 0.001890 501.3 648.1
630(22) 0.002066 501.3 641.7
621(22) 0.002066 501.3 634.7
637(22) 0.002066 501.3 627.0
632(23) 0.001890 501.3 618.8
601(22) 0.002066 501.3 610.2
612(22) 0.002066 501.3 601.5
621(23) 0.001890 501.3 592.9
564(21) 0.002268 501.3 584.4
554(21) 0.002268 501.2 576.3
590(22) 0.002066 501.2 568.7
575(22) 0.002066 501.2 561.7
538(21) 0.002268 501.2 555.3
548(21) 0.002268 501.2 549.6
565(21) 0.002268 501.2 544.7
517(21) 0.002268 501.2 540.7
497(20) 0.002500 501.2 537.6
524(21) 0.002268 501.2 535.4
546(21) 0.002268 501.2 534.1
549(21) 0.002268 501.2 534.0
536(21) 0.002268 501.2 534.8
522(21) 0.002268 501.2 536.5
584(22) 0.002066 501.1 539.3
565(22) 0.002066 501.1 543.0
526(21) 0.002268 501.1 547.7
522(21) 0.002268 501.1 553.3
570(22) 0.002066 501.1 559.7
558(21) 0.002268 501.1 566.9
587(22) 0.002066 501.1 574.6
592(22) 0.002066 501.1 582.6
584(22) 0.002066 501.1 590.8
602(22) 0.002066 501.1 598.8
607(22) 0.002066 501.1 606.4
592(22) 0.002066 501.1 613.3
612(22) 0.002066 501.1 619.2
646(23) 0.001890 501.1 624.0
623(23) 0.001890 501.1 627.6
645(23) 0.001890 501.0 629.9
623(23) 0.001890 501.0 631.0
625(23) 0.001890 501.0 630.9
622(23) 0.001890 501.0 629.6
595(22) 0.002066 501.0 627.3
633(23) 0.001890 501.0 624.0
623(23) 0.001890 501.0 619.8
607(22) 0.002066 501.0 615.0
615(22) 0.002066 501.0 609.6
574(22) 0.002066 501.0 604.0
587(22) 0.002066 501.0 598.5
579(22) 0.002066 501.0 593.1
588(22) 0.002066 501.0 588.2
598(22) 0.002066 501.0 583.8
593(22) 0.002066 501.0 580.2
563(21) 0.002268 501.0 577.3
584(22) 0.002066 501.0 575.2
548(21) 0.002268 500.9 573.9
587(22) 0.002066 500.9 573.4
535(21) 0.002268 500.9 573.6
601(22) 0.002066 500.9 574.4
582(22) 0.002066 500.9 575.7
560(21) 0.002268 500.9 577.3
592(22) 0.002066 500.9 579.1
557(21) 0.002268 500.9 581.0
583(22) 0.002066 500.9 582.7
584(22) 0.002066 500.9 584.1
572(22) 0.002066 500.9 585.0
550(21) 0.002268 500.9 585.3
580(22) 0.002066 500.9 584.9
579(22) 0.002066 500.9 583.6
546(21) 0.002268 500.9 581.4
570(22) 0.002066 500.9 578.4
566(22) 0.002066 500.9 574.6
557(21) 0.002268 500.8 570.2
577(22) 0.002066 500.8 565.5
545(21) 0.002268 500.8 560.5
534(21) 0.002268 500.8 555.5
544(21) 0.002268 500.8 550.6
568(22) 0.002066 500.8 546.0
512(20) 0.002500 500.8 541.8
516(21) 0.002268 500.8 538.1
539(21) 0.002268 500.8 534.8
557(21) 0.002268 500.8 532.2
553(21) 0.002268 500.8 530.2
539(21) 0.002268 500.8 528.9
488(20) 0.002500 500.8 528.4
505(20) 0.002500 500.8 528.5
526(21) 0.002268 500.8 529.4
530(21) 0.002268 500.8 531.2
531(21) 0.002268 500.8 533.9
497(20) 0.002500 500.7 537.5
518(21) 0.002268 500.7 542.1
527(21) 0.002268 500.7 547.9
536(21) 0.002268 500.7 555.0
527(21) 0.002268 500.7 563.4
572(22) 0.002066 500.7 573.2
584(22) 0.002066 500.7 584.6
588(22) 0.002066 500.7 597.4
637(23) 0.001890 500.7 611.8
637(23) 0.001890 500.7 627.8
645(23) 0.001890 500.7 645.0
680(24) 0.001736 500.7 663.4
680(24) 0.001736 500.7 682.7
712(24) 0.001736 500.7 702.6
716(24) 0.001736 500.7 722.8
709(20) 0.002500 500.7 742.9
806(26) 0.001479 500.6 762.4
783(26) 0.001479 500.6 780.9
788(26) 0.001479 500.6 797.8
782(26) 0.001479 500.6 812.6
770(26) 0.001479 500.6 824.8
816(27) 0.001372 500.6 834.3
851(27) 0.001372 500.6 840.7
821(27) 0.001372 500.6 844.3
855(27) 0.001372 500.6 845.2
849(27) 0.001372 500.6 843.9
845(27) 0.001372 500.6 840.7
863(27) 0.001372 500.6 836.2
826(27) 0.001372 500.6 830.6
828(27) 0.001372 500.6 824.2
830(27) 0.001372 500.5 817.4
805(26) 0.001479 500.5 810.3
793(26) 0.001479 500.5 803.1
767(26) 0.001479 500.5 795.9
744(25) 0.001600 500.5 788.8
731(25) 0.001600 500.5 781.7
761(26) 0.001479 500.5 774.6
751(26) 0.001479 500.5 767.3
731(25) 0.001600 500.5 759.6
734(25) 0.001600 500.5 751.6
718(25) 0.001600 500.5 743.2
731(25) 0.001600 500.5 734.4
709(25) 0.001600 500.4 725.6
722(25) 0.001600 500.4 716.7
702(25) 0.001600 500.4 707.8
676(24) 0.001736 500.4 699.2
705(25) 0.001600 500.4 690.9
679(24) 0.001736 500.4 682.9
682(24) 0.001736 500.4 675.3
658(24) 0.001736 500.4 668.2
633(23) 0.001890 500.4 661.5
658(24) 0.001736 500.4 655.2
682(24) 0.001736 500.3 649.4
628(23) 0.001890 500.3 644.0
614(23) 0.001890 500.3 638.9
632(23) 0.001890 500.3 634.1
616(23) 0.001890 500.3 629.6
570(22) 0.002066 500.3 625.4
596(23) 0.001890 500.3 621.8
599(23) 0.001890 500.3 618.7
619(23) 0.001890 500.3 616.4
581(22) 0.002066 500.3 615.1
603(23) 0.001890 500.2 614.9
626(23) 0.001890 500.2 615.9
610(23) 0.001890 500.2 618.3
609(23) 0.001890 500.2 622.0
595(23) 0.001890 500.2 627.2
630(23) 0.001890 500.2 633.8
614(23) 0.001890 500.2 641.7
629(23) 0.001890 500.2 650.8
651(24) 0.001736 500.2 660.8
718(25) 0.001600 500.1 671.5
669(24) 0.001736 500.1 682.7
735(25) 0.001600 500.1 694.0
727(25) 0.001600 500.1 705.0
688(24) 0.001736 500.1 715.6
675(24) 0.001736 500.1 725.3
735(25) 0.001600 500.1 733.9
695(25) 0.001600 500.1 741.0
718(25) 0.001600 500.0 746.5
739(25) 0.001600 500.0 749.7
728(25) 0.001600 500.0 750.7
736(25) 0.001600 500.0 749.3
754(26) 0.001479 500.0 745.7
725(25) 0.001600 500.0 740.0
712(25) 0.001600 500.0 732.4
724(25) 0.001600 499.9 723.3
746(25) 0.001600 499.9 713.1
801(26) 0.001479 499.9 702.2
709(25) 0.001600 499.9 690.9
707(25) 0.001600 499.9 679.4
643(24) 0.001736 499.9 668.0
642(24) 0.001736 499.9 656.9
655(24) 0.001736 499.8 646.4
624(23) 0.001890 499.8 636.5
610(23) 0.001890 499.8 627.5
625(23) 0.001890 499.8 619.3
607(23) 0.001890 499.8 612.0
583(22) 0.002066 499.8 605.7
616(23) 0.001890 499.7 600.2
572(22) 0.002066 499.7 595.7
589(23) 0.001890 499.7 592.2
597(23) 0.001890 499.7 589.6
588(23) 0.001890 499.7 588.0
565(22) 0.002066 499.7 587.3
620(23) 0.001890 499.6 587.7
590(23) 0.001890 499.6 589.1
621(23) 0.001890 499.6 591.5
617(23) 0.001890 499.6 594.8
602(23) 0.001890 499.6 599.2
569(22) 0.002066 499.6 604.4
625(23) 0.001890 499.5 610.2
608(23) 0.001890 499.5 616.7
619(23) 0.001890 499.5 623.7
638(24) 0.001736 499.5 630.9
665(24) 0.001736 499.5 638.2
654(23) 0.001890 499.4 645.3
669(23) 0.001890 499.4 652.1
649(23) 0.001890 499.4 658.3
663(23) 0.001890 499.4 663.7
688(24) 0.001736 499.4 668.3
699(24) 0.001736 499.4 671.9
701(24) 0.001736 499.3 674.4
678(23) 0.001890 499.3 675.7
669(23) 0.001890 499.3 675.7
680(24) 0.001736 499.3 674.3
692(24) 0.001736 499.3 671.7
719(24) 0.001736 499.2 667.8
677(23) 0.001890 499.2 662.8
700(24) 0.001736 499.2 656.9
637(23) 0.001890 499.2 650.4
654(23) 0.001890 499.1 643.6
666(23) 0.001890 499.1 636.6
633(23) 0.001890 499.1 629.9
672(23) 0.001890 499.1 623.6
609(22) 0.002066 499.1 617.9
597(22) 0.002066 499.0 613.0
609(22) 0.002066 499.0 609.1
638(23) 0.001890 499.0 606.1
598(22) 0.002066 499.0 604.1
586(22) 0.002066 498.9 603.2
621(22) 0.002066 498.9 603.2
615(22) 0.002066 498.9 604.3
566(21) 0.002268 498.9 606.2
583(22) 0.002066 498.9 608.8
634(23) 0.001890 498.8 612.1
606(22) 0.002066 498.8 615.9
631(23) 0.001890 498.8 620.2
595(22) 0.002066 498.8 624.7
626(23) 0.001890 498.7 629.4
667(23) 0.001890 498.7 634.1
609(22) 0.002066 498.7 638.7
607(22) 0.002066 498.7 643.1
650(23) 0.001890 498.6 647.2
647(23) 0.001890 498.6 651.1
651(23) 0.001890 498.6 654.6
641(23) 0.001890 498.6 657.8
659(23) 0.001890 498.5 660.8
686(24) 0.001736 498.5 663.6
697(24) 0.001736 498.5 666.2
685(24) 0.001736 498.5 668.6
672(23) 0.001890 498.4 671.0
702(24) 0.001736 498.4 673.2
725(24) 0.001736 498.4 675.4
691(24) 0.001736 498.4 677.4
688(24) 0.001736 498.3 679.4
713(24) 0.001736 498.3 681.2
705(24) 0.001736 498.3 682.9
695(24) 0.001736 498.2 684.4
706(24) 0.001736 498.2 685.6
689(24) 0.001736 498.2 686.6
702(24) 0.001736 498.2 687.2
706(24) 0.001736 498.1 687.5
689(24) 0.001736 498.1 687.5
696(24) 0.001736 498.1 687.2
697(24) 0.001736 498.0 686.8
734(24) 0.001736 498.0 686.2
711(24) 0.001736 498.0 685.6
697(24) 0.001736 498.0 685.1
725(24) 0.001736 497.9 684.6
705(24) 0.001736 497.9 684.3
684(24) 0.001736 497.9 684.0
654(23) 0.001890 497.8 683.8
710(24) 0.001736 497.8 683.7
707(24) 0.001736 497.8 683.6
651(23) 0.001890 497.7 683.3
702(24) 0.001736 497.7 682.8
704(24) 0.001736 497.7 681.9
712(24) 0.001736 497.7 680.5
675(23) 0.001890 497.6 678.5
729(24) 0.001736 497.6 675.8
684(24) 0.001736 497.6 672.2
658(23) 0.001890 497.5 667.9
681(24) 0.001736 497.5 662.7
655(23) 0.001890 497.5 656.9
646(23) 0.001890 497.4 650.5
649(23) 0.001890 497.4 643.7
658(23) 0.001890 497.4 636.5
616(22) 0.002066 497.3 629.1
624(23) 0.001890 497.3 621.7
648(23) 0.001890 497.3 614.5
599(22) 0.002066 497.2 607.5
592(22) 0.002066 497.2 600.8
588(22) 0.002066 497.2 594.6
582(22) 0.002066 497.1 589.0
591(22) 0.002066 497.1 583.9
603(22) 0.002066 497.1 579.6
578(22) 0.002066 497.0 576.0
582(22) 0.002066 497.0 573.2
576(22) 0.002066 497.0 571.2
595(22) 0.002066 496.9 569.9
564(21) 0.002268 496.9 569.3
574(22) 0.002066 496.9 569.4
602(22) 0.002066 496.8 570.1
550(21) 0.002268 496.8 571.4
563(30) 0.001111 496.8 573.2
583(21) 0.002268 496.7 575.5
551(21) 0.002268 496.7 578.0
561(21) 0.002268 496.7 580.8
559(21) 0.002268 496.6 583.9
554(21) 0.002268 496.6 587.0
581(21) 0.002268 496.6 590.3
567(21) 0.002268 496.5 593.6
606(22) 0.002066 496.5 596.9
628(22) 0.002066 496.4 600.1
561(21) 0.002268 496.4 603.3
585(22) 0.002066 496.4 606.3
584(22) 0.002066 496.3 609.2
577(21) 0.002268 496.3 612.0
635(22) 0.002066 496.3 614.5
624(22) 0.002066 496.2 616.9
588(22) 0.002066 496.2 619.1
639(23) 0.001890 496.2 621.1
627(22) 0.002066 496.1 622.8
617(22) 0.002066 496.1 624.4
637(22) 0.002066 496.0 625.8
624(22) 0.002066 496.0 627.1
614(22) 0.002066 496.0 628.3
679(23) 0.001890 495.9 629.3
643(23) 0.001890 495.9 630.4
655(23) 0.001890 495.9 631.5
641(23) 0.001890 495.8 632.6
639(23) 0.001890 495.8 634.0
646(23) 0.001890 495.7 635.6
617(22) 0.002066 495.7 637.5
643(23) 0.001890 495.7 639.9
658(23) 0.001890 495.6 642.8
648(23) 0.001890 495.6 646.2
625(22) 0.002066 495.6 650.2
660(23) 0.001890 495.5 654.8
661(23) 0.001890 495.5 660.1
657(23) 0.001890 495.4 666.1
712(24) 0.001736 495.4 672.7
663(23) 0.001890 495.4 679.9
708(24) 0.001736 495.3 687.6
725(24) 0.001736 495.3 695.9
702(24) 0.001736 495.2 704.5
742(24) 0.001736 495.2 713.4
706(24) 0.001736 495.2 722.4
719(24) 0.001736 495.1 731.5
765(25) 0.001600 495.1 740.5
760(25) 0.001600 495.1 749.4
783(25) 0.001600 495.0 758.0
819(26) 0.001479 495.0 766.2
798(25) 0.001600 494.9 773.9
741(24) 0.001736 494.9 781.0
798(25) 0.001600 494.9 787.2
820(26) 0.001479 494.8 792.5
809(25) 0.001600 494.8 796.8
788(25) 0.001600 494.7 800.1
793(25) 0.001600 494.7 802.2
783(25) 0.001600 494.7 803.1
792(25) 0.001600 494.6 802.9
831(26) 0.001479 494.6 801.6
749(24) 0.001736 494.5 799.2
793(25) 0.001600 494.5 795.8
789(25) 0.001600 494.5 791.4
778(25) 0.001600 494.4 786.2
810(25) 0.001600 494.4 780.1
810(25) 0.001600 494.3 773.4
733(24) 0.001736 494.3 766.1
779(25) 0.001600 494.3 758.5
724(24) 0.001736 494.2 750.6
733(24) 0.001736 494.2 742.7
713(24) 0.001736 494.1 734.9
726(24) 0.001736 494.1 727.4
710(24) 0.001736 494.1 720.4
701(24) 0.001736 494.0 713.9
678(23) 0.001890 494.0 708.0
737(24) 0.001736 494.0 702.8
739(24) 0.001736 493.9 698.3
722(24) 0.001736 493.9 694.5
700(24) 0.001736 493.8 691.4
689(23) 0.001890 493.8 688.8
666(23) 0.001890 493.8 686.8
706(24) 0.001736 493.7 685.2
666(23) 0.001890 493.7 683.8
672(23) 0.001890 493.6 682.8
677(23) 0.001890 493.6 681.8
703(24) 0.001736 493.6 680.9
668(23) 0.001890 493.5 679.9
670(23) 0.001890 493.5 679.0
703(24) 0.001736 493.4 678.2
703(24) 0.001736 493.4 677.2
696(24) 0.001736 493.4 676.2
677(23) 0.001890 493.3 675.2
680(23) 0.001890 493.3 674.3
664(23) 0.001890 493.3 673.5
706(24) 0.001736 493.2 672.9
640(23) 0.001890 493.2 672.4
705(24) 0.001736 493.1 672.1
697(24) 0.001736 493.1 672.0
651(23) 0.001890 493.1 672.1
663(23) 0.001890 493.0 672.4
649(23) 0.001890 493.0 673.0
672(19) 0.002770 493.0 673.6
690(23) 0.001890 492.9 674.4
660(23) 0.001890 492.9 675.2
687(23) 0.001890 492.8 676.1
668(23) 0.001890 492.8 677.1
666(23) 0.001890 492.8 678.0
697(24) 0.001736 492.7 679.0
666(23) 0.001890 492.7 680.1
653(23) 0.001890 492.7 681.2
667(23) 0.001890 492.6 682.3
673(23) 0.001890 492.6 683.6
716(24) 0.001736 492.6 685.0
693(23) 0.001890 492.5 686.5
674(23) 0.001890 492.5 688.2
671(23) 0.001890 492.5 690.0
726(24) 0.001736 492.4 691.9
712(24) 0.001736 492.4 693.9
703(24) 0.001736 492.3 695.9
675(23) 0.001890 492.3 698.0
671(23) 0.001890 492.3 699.9
710(24) 0.001736 492.2 701.7
693(23) 0.001890 492.2 703.2
686(23) 0.001890 492.2 704.5
728(24) 0.001736 492.1 705.5
700(24) 0.001736 492.1 706.0
666(23) 0.001890 492.1 705.8
653(23) 0.001890 492.1 705.0
677(23) 0.001890 492.0 703.6
687(23) 0.001890 492.0 701.5
703(24) 0.001736 492.0 698.7
684(23) 0.001890 491.9 695.4
687(23) 0.001890 491.9 691.5
692(23) 0.001890 491.9 687.1
689(23) 0.001890 491.8 682.3
690(23) 0.001890 491.8 677.0
671(23) 0.001890 491.8 671.5
645(23) 0.001890 491.7 665.6
644(23) 0.001890 491.7 659.6
671(23) 0.001890 491.7 653.4
645(23) 0.001890 491.7 647.1
644(23) 0.001890 491.6 640.8
646(23) 0.001890 491.6 634.5
646(23) 0.001890 491.6 628.2
629(22) 0.002066 491.5 622.1
585(22) 0.002066 491.5 616.1
585(22) 0.002066 491.5 610.3
575(21) 0.002268 491.5 604.7
580(21) 0.002268 491.4 599.3
568(21) 0.002268 491.4 594.2
586(22) 0.002066 491.4 589.4
600(22) 0.002066 491.4 584.9
576(21) 0.002268 491.3 580.7
578(21) 0.002268 491.3 576.9
561(21) 0.002268 491.3 573.5
607(22) 0.002066 491.3 570.5
576(21) 0.002268 491.3 568.0
566(21) 0.002268 491.2 565.9
593(22) 0.002066 491.2 564.3
587(22) 0.002066 491.2 563.1
582(22) 0.002066 491.2 562.5
567(21) 0.002268 491.1 562.4
562(21) 0.002268 491.1 562.7
555(21) 0.002268 491.1 563.6
578(21) 0.002268 491.1 564.9
613(22) 0.002066 491.1 566.7
567(21) 0.002268 491.1 568.9
525(20) 0.002500 491.0 571.6
542(21) 0.002268 491.0 574.7
568(21) 0.002268 491.0 578.1
586(22) 0.002066 491.0 581.8
562(21) 0.002268 491.0 585.8
575(21) 0.002268 491.0 590.0
583(22) 0.002066 490.9 594.4
582(22) 0.002066 490.9 598.9
610(22) 0.002066 490.9 603.5
613(22) 0.002066 490.9 608.0
608(22) 0.002066 490.9 612.5
579(21) 0.002268 490.9 616.9
591(22) 0.002066 490.9 621.1
598(22) 0.002066 490.9 625.0
622(22) 0.002066 490.8 628.7
644(23) 0.001890 490.8 632.1
645(23) 0.001890 490.8 635.2
644(23) 0.001890 490.8 638.0
656(23) 0.001890 490.8 640.4
664(23) 0.001890 490.8 642.5
655(23) 0.001890 490.8 644.3
666(23) 0.001890 490.8 645.7
685(23) 0.001890 490.8 646.9
680(23) 0.001890 490.8 647.9
632(22) 0.002066 490.8 648.5
672(23) 0.001890 490.8 649.0
668(23) 0.001890 490.8 649.1
643(23) 0.001890 490.8 649.1
675(23) 0.001890 490.8 648.9
674(23) 0.001890 490.8 648.4
668(23) 0.001890 490.8 647.7
651(23) 0.001890 490.8 646.8
619(22) 0.002066 490.8 645.6
636(22) 0.002066 490.8 644.2
648(23) 0.001890 490.8 642.7
673(23) 0.001890 490.8 640.8
688(24) 0.001736 490.8 638.8
628(23) 0.001890 490.8 636.5
612(22) 0.002066 490.8 633.9
623(22) 0.002066 490.8 631.2
623(22) 0.002066 490.8 628.4
624(23) 0.001890 490.8 625.4
610(22) 0.002066 490.8 622.3
633(23) 0.001890 490.8 619.1
651(23) 0.001890 490.8 616.0
606(22) 0.002066 490.9 612.9
611(22) 0.002066 490.9 610.0
650(23) 0.001890 490.9 607.2
623(22) 0.002066 490.9 604.5
594(22) 0.002066 490.9 602.1
609(22) 0.002066 490.9 600.0
606(22) 0.002066 490.9 598.1
620(22) 0.002066 491.0 596.6
629(23) 0.001890 491.0 595.3
596(22) 0.002066 491.0 594.3
579(22) 0.002066 491.0 593.6
617(22) 0.002066 491.0 593.2
607(22) 0.002066 491.1 593.0
596(22) 0.002066 491.1 593.1
579(22) 0.002066 491.1 593.4
600(22) 0.002066 491.1 593.9
558(21) 0.002268 491.2 594.5
583(22) 0.002066 491.2 595.2
579(22) 0.002066 491.2 596.0
592(22) 0.002066 491.2 596.8
567(21) 0.002268 491.3 597.6
570(22) 0.002066 491.3 598.4
590(22) 0.002066 491.3 599.1
566(21) 0.002268 491.4 599.7
577(22) 0.002066 491.4 600.2
586(22) 0.002066 491.4 600.5
573(22) 0.002066 491.5 600.6
558(21) 0.002268 491.5 600.6
602(22) 0.002066 491.5 600.3
563(21) 0.002268 491.6 599.9
575(22) 0.002066 491.6 599.2
610(22) 0.002066 491.7 598.4
563(21) 0.002268 491.7 597.4
591(22) 0.002066 491.7 596.4
592(22) 0.002066 491.8 595.2
561(21) 0.002268 491.8 594.0
580(22) 0.002066 491.9 592.9
594(22) 0.002066 491.9 591.8
587(22) 0.002066 492.0 590.7
595(22) 0.002066 492.0 589.8
591(22) 0.002066 492.1 589.1
615(22) 0.002066 492.1 588.5
606(22) 0.002066 492.2 588.2
590(22) 0.002066 492.2 588.2
604(22) 0.002066 492.3 588.4
577(22) 0.002066 492.4 588.9
607(22) 0.002066 492.4 589.8
600(22) 0.002066 492.5 591.0
576(22) 0.002066 492.5 592.6
604(22) 0.002066 492.6 594.5
592(22) 0.002066 492.7 596.8
588(22) 0.002066 492.7 599.4
632(23) 0.001890 492.8 602.4
622(22) 0.002066 492.9 605.8
616(22) 0.002066 492.9 609.6
624(23) 0.001890 493.0 613.7
619(22) 0.002066 493.1 618.1
637(23) 0.001890 493.1 623.0
645(23) 0.001890 493.2 628.2
640(23) 0.001890 493.3 633.7
645(23) 0.001890 493.4 639.5
666(23) 0.001890 493.4 645.6
633(23) 0.001890 493.5 651.9
636(23) 0.001890 493.6 658.5
643(23) 0.001890 493.7 665.3
656(23) 0.001890 493.8 672.3
670(23) 0.001890 493.9 679.4
700(24) 0.001736 494.0 686.6
712(24) 0.001736 494.0 693.8
720(24) 0.001736 494.1 701.0
709(24) 0.001736 494.2 708.2
729(24) 0.001736 494.3 715.2
702(24) 0.001736 494.4 722.0
734(24) 0.001736 494.5 728.6
736(24) 0.001736 494.6 734.8
710(24) 0.001736 494.7 740.7
718(24) 0.001736 494.8 746.2
723(24) 0.001736 494.9 751.3
778(25) 0.001600 495.0 755.8
783(25) 0.001600 495.1 759.9
799(25) 0.001600 495.2 763.3
773(25) 0.001600 495.3 766.3
776(25) 0.001600 495.4 768.7
768(25) 0.001600 495.6 770.5
758(25) 0.001600 495.7 771.7
750(25) 0.001600 495.8 772.5
767(25) 0.001600 495.9 772.7
798(25) 0.001600 496.0 772.4
804(26) 0.001479 496.1 771.6
764(25) 0.001600 496.3 770.4
782(25) 0.001600 496.4 768.7
773(25) 0.001600 496.5 766.6
769(25) 0.001600 496.6 764.1
767(25) 0.001600 496.8 761.2
769(25) 0.001600 496.9 758.0
777(25) 0.001600 497.0 754.5
782(25) 0.001600 497.2 750.7
778(25) 0.001600 497.3 746.7
740(25) 0.001600 497.4 742.5
731(24) 0.001736 497.6 738.1
748(25) 0.001600 497.7 733.6
756(25) 0.001600 497.9 729.0
754(25) 0.001600 498.0 724.2
721(24) 0.001736 498.2 719.4
714(24) 0.001736 498.3 714.5
715(24) 0.001736 498.5 709.6
738(25) 0.001600 498.6 704.7
720(24) 0.001736 498.8 699.9
689(24) 0.001736 498.9 695.0
702(24) 0.001736 499.1 690.3
708(24) 0.001736 499.3 685.7
684(24) 0.001736 499.4 681.1
683(24) 0.001736 499.6 676.8
690(24) 0.001736 499.8 672.5
678(24) 0.001736 499.9 668.5
638(23) 0.001890 500.1 664.6
646(23) 0.001890 500.3 660.9
671(23) 0.001890 500.5 657.4
660(23) 0.001890 500.6 654.1
639(23) 0.001890 500.8 651.0
651(23) 0.001890 501.0 648.1
665(23) 0.001890 501.2 645.4
635(23) 0.001890 501.4 642.8
602(22) 0.002066 501.6 640.5
634(23) 0.001890 501.7 638.3
627(23) 0.001890 501.9 636.3
617(22) 0.002066 502.1 634.4
638(23) 0.001890 502.3 632.7
643(23) 0.001890 502.5 631.1
633(23) 0.001890 502.7 629.7
631(23) 0.001890 502.9 628.4
634(23) 0.001890 503.1 627.2
663(23) 0.001890 503.4 626.2
647(23) 0.001890 503.6 625.3
645(23) 0.001890 503.8 624.5
626(23) 0.001890 504.0 623.9
623(23) 0.001890 504.2 623.5
621(23) 0.001890 504.4 623.3
617(22) 0.002066 504.7 623.3
601(22) 0.002066 504.9 623.6
607(22) 0.002066 505.1 624.0
636(23) 0.001890 505.3 624.8
643(23) 0.001890 505.6 625.8
639(23) 0.001890 505.8 627.1
651(23) 0.001890 506.1 628.8
648(23) 0.001890 506.3 630.7
657(23) 0.001890 506.5 633.0
661(23) 0.001890 506.8 635.6
672(23) 0.001890 507.0 638.5
660(23) 0.001890 507.3 641.8
681(24) 0.001736 507.5 645.4
715(24) 0.001736 507.8 649.3
699(24) 0.001736 508.0 653.6
677(23) 0.001890 508.3 658.1
685(24) 0.001736 508.6 662.9
675(23) 0.001890 508.8 668.0
689(24) 0.001736 509.1 673.3
687(24) 0.001736 509.4 678.8
665(23) 0.001890 509.7 684.4
670(23) 0.001890 509.9 690.3
693(24) 0.001736 510.2 696.2
692(24) 0.001736 510.5 702.2
693(24) 0.001736 510.8 708.2
723(24) 0.001736 511.1 714.2
715(24) 0.001736 511.4 720.1
726(24) 0.001736 511.7 725.9
729(24) 0.001736 511.9 731.6
708(24) 0.001736 512.2 737.1
740(25) 0.001600 512.6 742.4
732(24) 0.001736 512.9 747.5
740(25) 0.001600 513.2 752.2
727(24) 0.001736 513.5 756.6
747(25) 0.001600 513.8 760.6
752(25) 0.001600 514.1 764.3
752(25) 0.001600 514.4 767.6
761(25) 0.001600 514.7 770.5
744(25) 0.001600 515.1 773.0
780(25) 0.001600 515.4 775.2
761(25) 0.001600 515.7 777.0
783(25) 0.001600 516.1 778.4
801(26) 0.001479 516.4 779.5
778(25) 0.001600 516.7 780.4
795(25) 0.001600 517.1 780.9
786(25) 0.001600 517.4 781.3
757(25) 0.001600 517.8 781.4
777(25) 0.001600 518.1 781.4
804(26) 0.001479 518.5 781.1
808(26) 0.001479 518.9 780.8
814(26) 0.001479 519.2 780.3
795(21) 0.002268 519.6 779.8
781(25) 0.001600 519.9 779.1
760(25) 0.001600 520.3 778.4
789(25) 0.001600 520.7 777.6
779(25) 0.001600 521.1 776.8
771(25) 0.001600 521.5 775.8
770(25) 0.001600 521.8 774.8
750(25) 0.001600 522.2 773.8
767(25) 0.001600 522.6 772.6
763(25) 0.001600 523.0 771.3
771(25) 0.001600 523.4 769.9
742(25) 0.001600 523.8 768.4
754(25) 0.001600 524.2 766.8
767(25) 0.001600 524.6 765.0
767(25) 0.001600 525.0 763.1
759(25) 0.001600 525.5 761.0
743(25) 0.001600 525.9 758.7
742(25) 0.001600 526.3 756.3
738(25) 0.001600 526.7 753.7
746(25) 0.001600 527.2 751.0
773(25) 0.001600 527.6 748.2
754(25) 0.001600 528.0 745.2
744(25) 0.001600 528.5 742.1
730(24) 0.001736 528.9 738.9
685(24) 0.001736 529.4 735.6
693(24) 0.001736 529.8 732.2
698(24) 0.001736 530.3 728.8
704(24) 0.001736 530.7 725.3
722(24) 0.001736 531.2 721.9
719(24) 0.001736 531.6 718.4
712(24) 0.001736 532.1 714.9
725(24) 0.001736 532.6 711.4
695(24) 0.001736 533.1 707.9
711(24) 0.001736 533.5 704.5
698(24) 0.001736 534.0 701.1
688(24) 0.001736 534.5 697.8
698(24) 0.001736 535.0 694.5
697(24) 0.001736 535.5 691.3
688(24) 0.001736 536.0 688.2
684(24) 0.001736 536.5 685.2
685(24) 0.001736 537.0 682.3
682(24) 0.001736 537.5 679.4
693(24) 0.001736 538.0 676.6
687(24) 0.001736 538.6 673.9
664(23) 0.001890 539.1 671.3
661(23) 0.001890 539.6 668.8
671(23) 0.001890 540.1 666.4
663(23) 0.001890 540.7 664.1
625(23) 0.001890 541.2 661.8
622(23) 0.001890 541.8 659.7
636(23) 0.001890 542.3 657.6
659(23) 0.001890 542.9 655.6
636(23) 0.001890 543.4 653.7
626(23) 0.001890 544.0 651.8
654(23) 0.001890 544.5 650.1
654(23) 0.001890 545.1 648.4
639(23) 0.001890 545.7 646.8
626(23) 0.001890 546.2 645.3
643(23) 0.001890 546.8 643.8
653(23) 0.001890 547.4 642.5
681(24) 0.001736 548.0 641.2
684(24) 0.001736 548.6 640.0
647(23) 0.001890 549.2 638.9
625(23) 0.001890 549.8 637.9
626(23) 0.001890 550.4 637.0
652(23) 0.001890 551.0 636.1
679(24) 0.001736 551.6 635.4
672(23) 0.001890 552.2 634.8
638(23) 0.001890 552.9 634.3
621(23) 0.001890 553.5 633.9
618(23) 0.001890 554.1 633.6
606(22) 0.002066 554.8 633.4
598(22) 0.002066 555.4 633.4
618(23) 0.001890 556.1 633.5
632(23) 0.001890 556.7 633.7
625(23) 0.001890 557.4 634.1
618(23) 0.001890 558.0 634.6
627(23) 0.001890 558.7 635.3
622(23) 0.001890 559.4 636.2
612(22) 0.002066 560.0 637.2
614(22) 0.002066 560.7 638.4
648(23) 0.001890 561.4 639.8
635(23) 0.001890 562.1 641.3
630(23) 0.001890 562.8 643.0
662(23) 0.001890 563.5 644.9
681(24) 0.001736 564.2 647.0
681(24) 0.001736 564.9 649.3
665(23) 0.001890 565.6 651.7
645(23) 0.001890 566.3 654.3
647(23) 0.001890 567.0 657.1
645(23) 0.001890 567.7 660.0
644(23) 0.001890 568.5 663.2
670(23) 0.001890 569.2 666.5
681(24) 0.001736 570.0 669.9
671(23) 0.001890 570.7 673.6
678(24) 0.001736 571.4 677.3
673(23) 0.001890 572.2 681.3
667(23) 0.001890 573.0 685.3
691(24) 0.001736 573.7 689.5
719(24) 0.001736 574.5 693.8
739(25) 0.001600 575.3 698.3
743(25) 0.001600 576.1 702.8
707(25) 0.001600 576.8 707.4
695(24) 0.001736 577.6 712.1
733(25) 0.001600 578.4 716.9
744(25) 0.001600 579.2 721.8
753(25) 0.001600 580.0 726.7
729(25) 0.001600 580.8 731.7
701(25) 0.001600 581.7 736.7
747(25) 0.001600 582.5 741.7
744(25) 0.001600 583.3 746.7
767(26) 0.001479 584.1 751.7
769(26) 0.001479 585.0 756.7
744(25) 0.001600 585.8 761.7
747(25) 0.001600 586.7 766.6
761(26) 0.001479 587.5 771.5
748(25) 0.001600 588.4 776.4
770(26) 0.001479 589.2 781.1
761(26) 0.001479 590.1 785.8
745(25) 0.001600 591.0 790.4
744(25) 0.001600 591.9 795.0
774(26) 0.001479 592.8 799.4
807(26) 0.001479 593.7 803.7
814(26) 0.001479 594.5 807.9
818(26) 0.001479 595.5 812.0
822(26) 0.001479 596.4 816.0
812(26) 0.001479 597.3 819.9
821(26) 0.001479 598.2 823.7
833(27) 0.001372 599.1 827.3
823(27) 0.001372 600.0 830.8
819(26) 0.001479 601.0 834.1
827(27) 0.001372 601.9 837.4
810(26) 0.001479 602.9 840.4
834(27) 0.001372 603.8 843.4
852(27) 0.001372 604.8 846.2
838(27) 0.001372 605.8 848.9
839(27) 0.001372 606.7 851.5
850(27) 0.001372 607.7 854.0
840(27) 0.001372 608.7 856.3
843(27) 0.001372 609.7 858.5
901(28) 0.001276 610.7 860.6
861(27) 0.001372 611.7 862.7
867(27) 0.001372 612.7 864.6
835(27) 0.001372 613.7 866.4
858(27) 0.001372 614.7 868.2
873(27) 0.001372 615.7 869.9
910(28) 0.001276 616.8 871.5
901(28) 0.001276 617.8 873.1
863(27) 0.001372 618.8 874.6
936(28) 0.001276 619.9 876.0
893(28) 0.001276 620.9 877.5
905(28) 0.001276 622.0 878.8
856(27) 0.001372 623.1 880.2
912(28) 0.001276 624.1 881.5
918(28) 0.001276 625.2 882.7
881(27) 0.001372 626.3 883.9
882(27) 0.001372 627.4 885.1
932(28) 0.001276 628.5 886.2
896(28) 0.001276 629.6 887.3
891(27) 0.001372 630.7 888.3
899(28) 0.001276 631.8 889.3
910(28) 0.001276 632.9 890.2
904(28) 0.001276 634.1 891.0
905(28) 0.001276 635.2 891.8
913(28) 0.001276 636.4 892.5
923(28) 0.001276 637.5 893.1
894(28) 0.001276 638.7 893.6
891(28) 0.001276 639.8 894.0
901(28) 0.001276 641.0 894.4
880(27) 0.001372 642.2 894.6
886(27) 0.001372 643.3 894.6
902(28) 0.001276 644.5 894.6
888(27) 0.001372 645.7 894.4
912(28) 0.001276 646.9 894.1
929(28) . . .
879(27) . . .
870(27) . . .
937(28) . . .
926(28) . . .
930(28) . . .
927(28) . . .
937(28) . . .
924(28) . . .
908(28) . . .
928(28) . . .
929(28) . . .
929(28) . . .
941(28) . . .
924(28) . . .
912(28) . . .
886(27) . . .
910(28) . . .
966(29) . . .
957(28) . . .
965(29) . . .
966(29) . . .
934(28) . . .
933(28) . . .
943(28) . . .
920(28) . . .
985(42) . . .
961(41) . . .
886(40) . . .
892(40) . . .
931(41) . . .
941(41) . . .
872(39) . . .
917(40) . . .
856(39) . . .
885(40) . . .
865(39) . . .
905(40) . . .
902(40) . . .
921(40) . . .
916(40) . . .
835(39) . . .
912(40) . . .
928(41) . . .
949(41) . . .
947(41) . . .
909(40) . . .
899(40) . . .
891(40) . . .
909(40) . . .
926(41) . . .
883(40) . . .
947(41) . . .
896(40) . . .
891(40) . . .
888(40) . . .
924(41) . . .
953(41) . . .
902(40) . . .
901(40) . . .
879(40) . . .
860(39) . . .
958(41) . . .
947(41) . . .
882(40) . . .
890(40) . . .
948(41) . . .
899(40) . . .
888(40) . . .
896(40) . . .
948(41) . . .
980(42) . . .
921(40) . . .
921(40) . . .
928(41) . . .
897(40) . . .
955(41) . . .
927(41) . . .
951(41) . . .
964(41) . . .
946(41) . . .
915(40) . . .
959(41) . . .
966(41) . . .
973(41) . . .
960(41) . . .
932(41) . . .
974(42) . . .
1011(42) . . .
1022(42) . . .
972(41) . . .
984(42) . . .
1055(43) . . .
969(41) . . .
1032(43) . . .
1032(43) . . .
1037(43) . . .
1057(43) . . .
1032(43) . . .
995(42) . . .
993(42) . . .
1003(42) . . .
1057(43) . . .
1024(42) . . .
1033(43) . . .
1004(42) . . .
1072(43) . . .
1057(43) . . .
1000(42) . . .
1091(44) . . .
1125(44) . . .
1059(43) . . .
1039(43) . . .
1109(44) . . .
1063(43) . . .
1050(43) . . .
1062(43) . . .
1005(42) . . .
1119(44) . . .
1131(44) . . .
1021(42) . . .
988(42) . . .
1015(42) . . .
1074(43) . . .
1089(44) . . .
1135(45) . . .
loop_
_gsas_i100_meas
100.00
57.84
89.96
0.62
0.00
0.94
10.42
7.58
11.98
0.00
16.46
2.10
0.59
0.24
15.56
7.40
2.00
7.16
2.71
7.87
1.00
0.22
0.99
0.03
0.45
0.25
2.28
0.35
3.04
4.16
1.76
1.41
1.94
6.91
1.16
0.00
4.41
0.06
1.81
0.14
0.01
0.03
0.41
0.72
0.21
0.50
1.29
1.42
0.94
0.29
0.87
0.80
2.47
0.00
2.58
0.79
0.02
1.69
0.03
2.75
1.29
0.29
2.43
0.18
0.30
1.00
0.13
0.03
0.27
0.09
2.33
0.19
1.54
1.04
0.92
1.84
0.40
0.28
0.17
1.85
0.08
0.26
2.26
0.48
0.10
0.24
0.52
0.43
0.11
0.81
0.22
0.20
0.02
0.18
3.14
0.75
3.23
1.61
1.28
0.06
0.33
0.01
1.48
0.55
1.41
2.45
0.27
0.13
1.47
0.02
0.06
0.04
0.00
0.97
0.36
0.83
0.09
0.37
2.24
1.18
0.14
0.58
0.00
0.50
4.14
0.15
0.20
1.11
0.21
0.13
1.48
0.89
3.39
0.01
0.78
0.00
0.02
0.13
0.29
0.00
0.14
0.58
0.21
1.30
0.08
0.78
0.00
0.01
0.68
0.00
0.76
0.92
0.46
0.26
1.56
0.50
0.52
0.44
0.00
0.10
0.01
0.03
0.45
0.73
0.55
0.06
0.98
0.47
0.02
0.27
0.02
0.34
0.19
0.04
0.01
0.96
0.13
0.06
0.40
0.32
5.05
0.10
0.04
1.13
0.38
0.19
0.74
0.02
0.15
0.43
0.09
0.00
0.09
0.06
0.21
0.28
0.18
0.20
0.10
0.56
0.62
0.16
0.96
0.59
0.48
0.20
0.04
0.41
0.00
0.05
0.35
0.12
0.11
0.04
1.38
0.01
3.20
0.01
0.06
0.28
0.00
0.00
1.48
0.73
1.96
0.17
0.04
0.11
0.60
0.08
0.13
0.96
0.04
1.98
0.37
0.44
0.37
0.22
0.28
0.03
0.01
0.14
0.05
0.06
0.09
0.04
0.95
0.37
0.26
0.38
0.96
2.02
0.02
0.94
0.96
0.01
0.19
0.01
0.00
0.32
0.00
0.07
1.83
0.05
0.01
2.59
0.23
0.01
0.00
0.20
3.61
0.29
0.01
0.06
0.02
0.56
1.02
0.28
0.01
0.01
0.02
0.70
0.66
0.06
1.76
0.00
1.43
0.28
0.19
0.94
0.46
0.63
0.00
0.19
0.00
0.17
0.27
0.00
1.05
1.65
0.44
1.74
0.02
0.24
0.28
0.09
0.55
1.51
0.15
0.34
0.06
0.98
0.06
0.02
0.09
0.04
0.02
0.34
0.01
0.03
1.54
0.14
0.38
0.41
0.01
0.04
1.26
0.12
0.46
2.32
3.97
0.45
0.57
0.19
0.01
0.85
0.02
0.39
0.63
0.03
0.40
0.86
0.73
0.38
0.01
0.18
0.17
0.39
0.01
0.17
0.81
0.52
0.01
0.72
0.15
0.11
2.32
0.28
1.78
0.00
0.90
0.00
0.78
0.01
0.41
0.03
0.28
0.25
0.27
0.47
3.68
1.21
0.10
0.01
1.32
0.04
0.81
1.45
0.27
0.57
0.53
0.30
0.87
0.09
0.05
0.03
0.58
0.01
0.36
0.23
0.34
1.50
0.04
1.39
0.36
2.17
2.02
0.03
0.93
0.16
0.21
0.84
0.74
0.06
0.08
0.15
0.20
0.29
1.51
0.09
0.08
0.03
0.87
0.01
1.29
1.32
0.10
0.17
0.80
0.72
1.06
0.00
0.35
0.01
0.17
0.00
0.02
0.04
0.00
0.12
0.53
0.00
0.87
0.23
0.20
1.01
0.02
0.04
0.01
0.00
0.40
0.81
0.27
0.05
0.00
0.00
0.01
0.11
0.59
0.00
2.64
1.47
0.55
0.51
0.09
1.14
0.42
0.24
0.27
0.01
0.06
0.55
1.32
1.62
0.11
0.03
0.24
1.00
1.04
0.23
0.23
1.57
0.51
2.02
0.16
0.17
0.30
0.07
0.02
0.02
0.31
0.44
1.52
0.58
0.63
0.42
1.67
0.59
0.79
0.09
0.57
0.33
0.23
0.03
0.69
0.51
2.46
0.43
0.03
0.75
0.03
0.06
0.47
0.02
1.96
0.04
0.61
0.75
0.07
0.74
0.01
0.37
0.06
0.69
0.08
0.00
1.45
0.05
0.07
2.19
0.43
0.19
0.06
0.00
0.34
0.20
2.71
1.06
2.03
2.15
0.10
0.05
0.13
3.31
0.06
0.87
0.35
1.67
0.57
0.03
0.01
0.34
0.37
4.00
0.20
0.23
1.15
0.07
0.36
0.65
0.02
0.16
0.06
0.85
0.74
0.21
0.06
0.99
0.17
1.07
1.87
1.33
0.17
0.27
0.00
0.41
0.83
0.56
1.01
0.48
0.64
0.19
0.02
0.53
0.00
0.15
3.10
0.81
2.03
2.50
0.92
0.55
0.01
0.04
2.22
1.38
0.74
0.02
0.72
1.34
0.10
0.00
0.11
0.37
0.04
0.12
0.48
0.04
0.00
0.09
0.27
0.31
1.19
6.88
4.47
1.27
1.23
0.41
0.42
0.09
0.06
1.07
0.17
1.42
0.77
1.01
0.03
0.00
1.08
0.01
0.08
4.49
1.11
1.35
0.69
0.16
0.03
2.91
0.00
0.45
0.48
0.32
