#------------------------------------------------------------------------------
#$Date: 2019-11-14 09:28:08 +0200 (Thu, 14 Nov 2019) $
#$Revision: 227760 $
#$URL: file:///home/coder/svn-repositories/cod/cif/1/55/29/1552901.cif $
#------------------------------------------------------------------------------
#
# This file is available in the Crystallography Open Database (COD),
# http://www.crystallography.net/
#
# All data on this site have been placed in the public domain by the
# contributors.
#
data_1552901
loop_
_publ_author_name
'Asgari, Mehrdad'
'Jawahery, Sudi'
'Bloch, Eric D.'
'Hudson, Matthew R.'
'Flacau, Roxana'
'Vlaisavljevich, Bess'
'Long, Jeffrey R.'
'Brown, Craig M.'
'Queen, Wendy L.'
_publ_section_title
;
 An experimental and computational study of CO<sub>2</sub> adsorption in
 the sodalite-type M-BTT (M = Cr, Mn, Fe, Cu) metal-organic frameworks
 featuring open metal sites.
;
_journal_issue                   20
_journal_name_full               'Chemical science'
_journal_page_first              4579
_journal_page_last               4588
_journal_paper_doi               10.1039/c8sc00971f
_journal_volume                  9
_journal_year                    2018
_chemical_formula_sum            'C33.47 H15.77 Cl Fe4.36 N32 O16.34'
_chemical_formula_weight         1406.39
_space_group_IT_number           221
_space_group_name_Hall           '-P 4 2 3'
_space_group_name_H-M_alt        'P m -3 m'
_symmetry_cell_setting           cubic
_symmetry_space_group_name_Hall  '-P 4 2 3'
_symmetry_space_group_name_H-M   'P m -3 m'
_audit_creation_date             2016-05-25T14:04
_audit_creation_method           'from EXP file using GSAS2CIF'
_audit_update_record
;
2017-10-25 deposited with the CCDC.
2018-04-23 downloaded from the CCDC.
;
_cell_angle_alpha                90.0
_cell_angle_beta                 90.0
_cell_angle_gamma                90.0
_cell_formula_units_Z            3
_cell_length_a                   18.8952(4)
_cell_length_b                   18.8952
_cell_length_c                   18.8952
_cell_measurement_reflns_used    660
_cell_measurement_temperature    10
_cell_measurement_theta_max      160
_cell_measurement_theta_min      4
_cell_volume                     6746.13(14)
_computing_structure_refinement  GSAS
_diffrn_ambient_temperature      10
_diffrn_measurement_device_type  BT1
_diffrn_radiation_probe          neutron
_diffrn_radiation_wavelength     2.0775
_exptl_absorpt_correction_T_max  1.00000
_exptl_absorpt_correction_T_min  1.00000
_exptl_absorpt_process_details
;   GSAS Absorption/surface roughness correction: function number 0
 No correction is applied.
;
_pd_block_id                     2016-05-25T14:04|1P5_FINAL|wendy|bt1
_pd_calc_method                  'Rietveld Refinement'
_pd_instr_location               ' ?'
_pd_meas_2theta_range_inc        0.05
_pd_meas_2theta_range_max        166.25
_pd_meas_2theta_range_min        1.5
_pd_meas_number_of_points        3296
_pd_phase_name
'from Z:/queen/Desktop/1P5CO2_NIST_final/0P5CO2.EXP'
_pd_proc_2theta_range_inc        0.05
_pd_proc_2theta_range_max        166.4192
_pd_proc_2theta_range_min        1.6692
_pd_proc_info_datetime           2016-05-25T14:04:12
_pd_proc_info_excluded_regions
; ?

;
_pd_proc_ls_background_function
;   GSAS Background function number 1 with 12 terms.
 Shifted Chebyshev function of 1st kind
      1:    1557.02     2:   -350.606     3:    330.706     4:   -47.1962    
      5:    193.284     6:   -72.2921     7:    129.383     8:   -50.4273    
      9:    65.6738    10:   -19.3719    11:    7.45674    12:   -16.1080    
;
_pd_proc_ls_peak_cutoff          0.00100
_pd_proc_ls_profile_function
;
 CW Profile function number 3 with  19 terms
 Pseudovoigt profile coefficients as parameterized in
 P. Thompson, D.E. Cox & J.B. Hastings (1987). J. Appl. Cryst.,20,79-83.
 Asymmetry correction of L.W. Finger, D.E. Cox & A. P. Jephcoat (1994).
 J. Appl. Cryst.,27,892-900.
 #1(GU)   =  535.109 #2(GV)   = -250.839 #3(GW)   =  123.954
 #4(GP)   =    9.454 #5(LX)   =    0.000 #6(LY)   =   16.442
 #7(S/L)  =   0.0408 #8(H/L)  =   0.0382
 #9(trns) =     0.00 #10(shft)=   0.0000
 #11(stec)=     0.00 #12(ptec)=     0.00 #13(sfec)=     0.00
 #14(L11) =    0.000 #15(L22) =    0.000 #16(L33) =    0.000
 #17(L12) =    0.000 #18(L13) =    0.000 #19(L23) =    0.000
 Peak tails are ignored  where the intensity is below 0.0010 times the peak
   Aniso. broadening axis   0.0   0.0   1.0
;
_pd_proc_ls_prof_R_factor        0.0271
_pd_proc_ls_prof_wR_expected     0.0245
_pd_proc_ls_prof_wR_factor       0.0306
_pd_proc_number_of_points        3296
_pd_spec_mounting                ' ?'
_refine_ls_goodness_of_fit_all   1.26
_refine_ls_matrix_type           full
_refine_ls_number_parameters     54
_refine_ls_number_restraints     21
_refine_ls_R_Fsqd_factor         0.06561
_refine_ls_shift/su_max          0.07
_refine_ls_shift/su_mean         0.01
_reflns_d_resolution_high        1.056
_reflns_d_resolution_low         18.895
_reflns_limit_h_max              18
_reflns_limit_h_min              1
_reflns_limit_k_max              12
_reflns_limit_k_min              0
_reflns_limit_l_max              10
_reflns_limit_l_min              0
_reflns_number_total             660
_cod_data_source_file            c8sc00971f3.cif
_cod_data_source_block           1P5_FINAL_publ
_cod_depositor_comments
;
The following automatic conversions were performed:

'_geom_bond_publ_flag' value 'N' changed to 'n' according to
/home/data/users/saulius/crontab/automatic-downloads/current/RSC/lib/dictionaries/cif_core.dic
dictionary named 'cif_core.dic' version 2.4.2 from 2011-04-26 (260
times).

'_geom_angle_publ_flag' value 'N' changed to 'n' according to
/home/data/users/saulius/crontab/automatic-downloads/current/RSC/lib/dictionaries/cif_core.dic
dictionary named 'cif_core.dic' version 2.4.2 from 2011-04-26 (477
times).

Automatic conversion script
Id: cif_fix_values 5376 2017-05-30 11:51:03Z andrius 
;
_cod_original_cell_volume        6746.1(4)
_cod_database_code               1552901
_gsas_exptl_extinct_corr_t_min   1.00000
_gsas_exptl_extinct_corr_t_max   1.00000
loop_
_symmetry_equiv_pos_site_id
_symmetry_equiv_pos_as_xyz
1 +x,+y,+z
2 +z,+x,+y
3 +y,+z,+x
4 +x,+y,-z
5 -z,+x,+y
6 +y,-z,+x
7 -z,+x,-y
8 -y,-z,+x
9 +y,-z,-x
10 -x,+y,-z
11 -z,-x,+y
12 +x,-y,-z
13 +y,+x,+z
14 +z,+y,+x
15 +x,+z,+y
16 +y,+x,-z
17 -z,+y,+x
18 +x,-z,+y
19 -z,+y,-x
20 -x,-z,+y
21 +x,-z,-y
22 -y,+x,-z
23 -z,-y,+x
24 +y,-x,-z
-1 -x,-y,-z
-2 -z,-x,-y
-3 -y,-z,-x
-4 -x,-y,+z
-5 +z,-x,-y
-6 -y,+z,-x
-7 +z,-x,+y
-8 +y,+z,-x
-9 -y,+z,+x
-10 +x,-y,+z
-11 +z,+x,-y
-12 -x,+y,+z
-13 -y,-x,-z
-14 -z,-y,-x
-15 -x,-z,-y
-16 -y,-x,+z
-17 +z,-y,-x
-18 -x,+z,-y
-19 +z,-y,+x
-20 +x,+z,-y
-21 -x,+z,+y
-22 +y,-x,+z
-23 +z,+y,-x
-24 -y,+x,+z
loop_
_atom_site_type_symbol
_atom_site_label
_atom_site_fract_x
_atom_site_fract_y
_atom_site_fract_z
_atom_site_occupancy
_atom_site_thermal_displace_type
_atom_site_U_iso_or_equiv
_atom_site_symmetry_multiplicity
Fe Fe1 0.1351(5) 0.5 0.0 1.0 Uiso 0.002(2) 12
C C1 0.1508(4) 0.3368(5) -0.1508(4) 1.0 Uiso 0.0190(12) 24
C C2 0.1795(4) 0.2707(5) -0.1795(4) 1.0 Uiso 0.0190(12) 24
C C3 0.24188(34) 0.24188(34) -0.1473(5) 1.0 Uiso 0.0190(12) 24
Cl Cl1 0.0 0.5 0.0 1.0 Uiso 0.027(5) 3
N N1 0.13076(26) 0.42088(25) -0.08032(27) 1.0 Uiso 0.0211(7) 48
N N2 0.17522(26) 0.36653(27) -0.09042(24) 1.0 Uiso 0.0211(7) 48
H H1 0.2616(6) 0.2616(6) -0.1100(8) 1.0 Uiso 0.026(5) 24
Fe Fe2 0.2679(7) 0.0 0.0 0.1793 Uiso 0.10322 6
O Os 0.2508(7) 0.5 0.0 0.6471 Uiso 0.03508 12
C Cs 0.3090(11) 0.5 0.0465(12) 0.3236 Uiso 0.03508 24
O O1a 0.2607(8) 0.5 0.0 0.35765 Uiso 0.09372 12
O O1b 0.3048(35) 0.3852(16) 0.0 0.17882 Uiso 0.10422 24
C C1a 0.2856(20) 0.4437(11) 0.0 0.17882 Uiso 0.10422 24
H Hsa 0.2909(22) 0.5 0.0951(19) 0.3236 Uiso 0.10908 24
H Hsb 0.3433(16) 0.4598(17) 0.0317(25) 0.3236 Uiso 0.10908 48
C C2a 0.0 0.2766(12) 0.0398(10) 0.205 Uiso 0.015(6) 24
O O2b 0.0 0.2309(15) 0.0796(19) 0.205 Uiso 0.021(6) 24
O O2a 0.0 0.3206(14) 0.0 0.82 Uiso 0.013(6) 6
C C3a 0.1590(8) 0.1590(8) 0.0 0.67(1) Uiso 0.06(1) 12
O O3a 0.0989(10) 0.1590(18) 0.0 0.33(1) Uiso 0.06(1) 24
O O3b 0.2179(10) 0.1580(16) 0.0 0.33(1) Uiso 0.06(1) 24
C C4a 0.1007(23) 0.0483(26) 0.0483(26) 0.14(1) Uiso 0.06(2) 24
O O4a 0.144(4) 0.0787(15) 0.0787(15) 0.14(1) Uiso 0.06(2) 24
O O4b 0.0552(24) 0.0187(20) 0.0187(20) 0.14(1) Uiso 0.06(2) 24
loop_
_atom_type_symbol
_atom_type_number_in_cell
_atom_type_scat_length_neutron
_atom_type_scat_source
Fe 13.076 0.9450 International_Tables_Vol_C
C 100.396 0.6646 International_Tables_Vol_C
Cl 3.0 0.9577 International_Tables_Vol_C
N 96.0 0.9360 International_Tables_Vol_C
H 47.299 -0.3739 International_Tables_Vol_C
O 49.026 0.5803 International_Tables_Vol_C
loop_
_geom_angle_atom_site_label_1
_geom_angle_atom_site_label_2
_geom_angle_atom_site_label_3
_geom_angle
_geom_angle_site_symmetry_1
_geom_angle_site_symmetry_3
_geom_angle_publ_flag
Cl1 Fe1 N1 87.77(29) 1_555 1_555 n
Cl1 Fe1 N1 87.77(29) 1_555 4_555 n
Cl1 Fe1 N1 87.77(29) 1_555 12_565 n
Cl1 Fe1 N1 87.77(29) 1_555 -10_565 n
N1 Fe1 N1 90.78(28) 1_555 4_555 n
N1 Fe1 N1 175.5(6) 1_555 12_565 n
N1 Fe1 N1 89.05(28) 1_555 -10_565 n
N1 Fe1 N1 89.05(28) 4_555 12_565 n
N1 Fe1 N1 175.5(6) 4_555 -10_565 n
N1 Fe1 N1 90.78(28) 12_565 -10_565 n
C2 C1 N2 122.7(4) 1_555 1_555 n
C2 C1 N2 122.7(4) 1_555 19_555 n
N2 C1 N2 113.7(9) 1_555 19_555 n
C1 C2 C3 118.1(5) 1_555 1_555 n
C1 C2 C3 118.1(5) 1_555 7_555 n
C3 C2 C3 123.6(10) 1_555 7_555 n
C2 C3 C2 116.4(9) 1_555 9_555 n
C2 C3 H1 121.8(5) 1_555 1_555 n
C2 C3 H1 121.8(5) 9_555 1_555 n
Fe1 Cl1 Fe1 180.0 1_555 10_555 n
Fe1 Cl1 Fe1 90.0 1_555 14_555 n
Fe1 Cl1 Fe1 90.0 1_555 19_555 n
Fe1 Cl1 Fe1 90.0 10_555 14_555 n
Fe1 Cl1 Fe1 90.0 10_555 19_555 n
Fe1 Cl1 Fe1 180.0 14_555 19_555 n
Fe1 N1 N1 122.06(26) 1_555 19_555 n
Fe1 N1 N2 127.9(4) 1_555 1_555 n
N1 N1 N2 110.03(31) 19_555 1_555 n
C1 N2 N1 103.0(5) 1_555 1_555 n
C2a Fe2 C2a 155(4) 3_555 6_555 n
C2a Fe2 C2a 87.3(8) 3_555 13_555 n
C2a Fe2 C2a 87.3(8) 3_555 16_555 n
C2a Fe2 O2b 37.4(18) 3_555 3_555 n
C2a Fe2 O2b 167.5(27) 3_555 6_555 n
C2a Fe2 O2b 95.2(7) 3_555 13_555 n
C2a Fe2 O2b 95.2(7) 3_555 16_555 n
C2a Fe2 O2a 77.6(20) 3_555 3_555 n
C2a Fe2 C2a 87.3(8) 6_555 13_555 n
C2a Fe2 C2a 87.3(8) 6_555 16_555 n
C2a Fe2 O2b 167.5(27) 6_555 3_555 n
C2a Fe2 O2b 37.4(18) 6_555 6_555 n
C2a Fe2 O2b 95.2(7) 6_555 13_555 n
C2a Fe2 O2b 95.2(7) 6_555 16_555 n
C2a Fe2 O2a 77.6(20) 6_555 3_555 n
C2a Fe2 C2a 155(4) 13_555 16_555 n
C2a Fe2 O2b 95.2(7) 13_555 3_555 n
C2a Fe2 O2b 95.2(7) 13_555 6_555 n
C2a Fe2 O2b 37.4(18) 13_555 13_555 n
C2a Fe2 O2b 167.5(27) 13_555 16_555 n
C2a Fe2 O2a 77.6(20) 13_555 3_555 n
C2a Fe2 O2b 95.2(7) 16_555 3_555 n
C2a Fe2 O2b 95.2(7) 16_555 6_555 n
C2a Fe2 O2b 167.5(27) 16_555 13_555 n
C2a Fe2 O2b 37.4(18) 16_555 16_555 n
C2a Fe2 O2a 77.6(20) 16_555 3_555 n
O2b Fe2 O2b 130.1(25) 3_555 6_555 n
O2b Fe2 O2b 79.7(10) 3_555 13_555 n
O2b Fe2 O2b 79.7(10) 3_555 16_555 n
O2b Fe2 O2a 115.0(13) 3_555 3_555 n
O2b Fe2 O2b 79.7(10) 6_555 13_555 n
O2b Fe2 O2b 79.7(10) 6_555 16_555 n
O2b Fe2 O2a 115.0(13) 6_555 3_555 n
O2b Fe2 O2b 130.1(25) 13_555 16_555 n
O2b Fe2 O2a 115.0(13) 13_555 3_555 n
O2b Fe2 O2a 115.0(13) 16_555 3_555 n
Cs Os Cs 77.2(23) 1_555 4_555 n
Cs Os O1a 38.6(11) 1_555 1_555 n
Cs Os C1a 65.8(16) 1_555 1_555 n
Cs Os C1a 65.8(16) 1_555 12_565 n
Cs Os O1a 38.6(11) 4_555 1_555 n
Cs Os C1a 65.8(16) 4_555 1_555 n
Cs Os C1a 65.8(16) 4_555 12_565 n
O1a Os C1a 58.3(20) 1_555 1_555 n
O1a Os C1a 58.3(20) 1_555 12_565 n
C1a Os C1a 117(4) 1_555 12_565 n
Os Cs Cs 51.4(11) 1_555 4_555 n
Os Cs O1a 5.3(5) 1_555 1_555 n
Os Cs C1a 51.9(11) 1_555 1_555 n
Os Cs C1a 51.9(11) 1_555 12_565 n
Os Cs Hsa 108.2(12) 1_555 1_555 n
Os Cs Hsb 108.6(12) 1_555 1_555 n
Os Cs Hsb 108.6(12) 1_555 -10_565 n
Cs Cs O1a 46.1(13) 4_555 1_555 n
Cs Cs C1a 52.7(11) 4_555 1_555 n
Cs Cs C1a 52.7(11) 4_555 12_565 n
Cs Cs Hsa 159.6(16) 4_555 1_555 n
Cs Cs Hsb 74.4(21) 4_555 1_555 n
Cs Cs Hsb 74.4(21) 4_555 -10_565 n
O1a Cs C1a 50.2(9) 1_555 1_555 n
O1a Cs C1a 50.2(9) 1_555 12_565 n
O1a Cs Hsa 113.5(13) 1_555 1_555 n
O1a Cs Hsb 105.2(12) 1_555 1_555 n
O1a Cs Hsb 105.2(12) 1_555 -10_565 n
C1a Cs C1a 94.5(13) 1_555 12_565 n
C1a Cs Hsa 117.5(14) 1_555 1_555 n
C1a Cs Hsb 59.3(18) 1_555 1_555 n
C1a Cs Hsb 124.5(28) 1_555 -10_565 n
C1a Cs Hsa 117.5(14) 12_565 1_555 n
C1a Cs Hsb 124.5(28) 12_565 1_555 n
C1a Cs Hsb 59.3(18) 12_565 -10_565 n
Hsa Cs Hsb 118.0(25) 1_555 1_555 n
Hsa Cs Hsb 118.0(25) 1_555 -10_565 n
Hsb Cs Hsb 94(5) 1_555 -10_565 n
Os O1a Cs 136.1(13) 1_555 1_555 n
Os O1a Cs 136.1(13) 1_555 4_555 n
Os O1a C1a 113.8(22) 1_555 1_555 n
Os O1a C1a 113.8(22) 1_555 12_565 n
Cs O1a Cs 87.8(26) 1_555 4_555 n
Cs O1a C1a 73.1(16) 1_555 1_555 n
Cs O1a C1a 73.1(16) 1_555 12_565 n
Cs O1a C1a 73.1(16) 4_555 1_555 n
Cs O1a C1a 73.1(16) 4_555 12_565 n
C1a O1a C1a 132(4) 1_555 12_565 n
Os C1a Cs 62.3(9) 1_555 1_555 n
Os C1a Cs 62.3(9) 1_555 4_555 n
Os C1a O1a 7.9(7) 1_555 1_555 n
Os C1a O1b 167(4) 1_555 1_555 n
Os C1a Hsb 104.2(22) 1_555 1_555 n
Os C1a Hsb 104.2(22) 1_555 4_555 n
Cs C1a Cs 74.6(22) 1_555 4_555 n
Cs C1a O1a 56.7(11) 1_555 1_555 n
Cs C1a O1b 127.0(21) 1_555 1_555 n
Cs C1a Hsb 44.1(12) 1_555 1_555 n
Cs C1a Hsb 81.3(34) 1_555 4_555 n
Cs C1a O1a 56.7(11) 4_555 1_555 n
Cs C1a O1b 127.0(21) 4_555 1_555 n
Cs C1a Hsb 81.3(34) 4_555 1_555 n
Cs C1a Hsb 44.1(12) 4_555 4_555 n
O1a C1a O1b 174(4) 1_555 1_555 n
O1a C1a Hsb 97.3(24) 1_555 1_555 n
O1a C1a Hsb 97.3(24) 1_555 4_555 n
O1b C1a Hsb 87.7(29) 1_555 1_555 n
O1b C1a Hsb 87.7(29) 1_555 4_555 n
Hsb C1a Hsb 56(5) 1_555 4_555 n
Cs Hsb C1a 76.6(12) 1_555 1_555 n
Cs Hsb Hsb 105.6(21) 1_555 4_555 n
Cs Hsb Hsb 42.9(25) 1_555 -10_565 n
C1a Hsb Hsb 62.1(24) 1_555 4_555 n
C1a Hsb Hsb 103.7(15) 1_555 -10_565 n
Hsb Hsb Hsb 90.0 4_555 -10_565 n
Fe2 C2a C2a 12.4(20) 2_555 4_555 n
Fe2 C2a C2a 46.3(4) 2_555 14_555 n
Fe2 C2a C2a 46.3(4) 2_555 17_555 n
Fe2 C2a O2b 118.6(27) 2_555 1_555 n
Fe2 C2a O2a 60.3(25) 2_555 1_555 n
C2a C2a C2a 45.0000(8) 4_555 14_555 n
C2a C2a C2a 45.0000(8) 4_555 17_555 n
C2a C2a O2b 131.0(14) 4_555 1_555 n
C2a C2a O2a 47.9(12) 4_555 1_555 n
C2a C2a C2a 90.0000(16) 14_555 17_555 n
C2a C2a O2b 117.6(9) 14_555 1_555 n
C2a C2a O2a 61.7(7) 14_555 1_555 n
C2a C2a O2b 117.6(9) 17_555 1_555 n
C2a C2a O2a 61.7(7) 17_555 1_555 n
O2b C2a O2a 178.9(12) 1_555 1_555 n
Fe2 O2b C2a 24.0(10) 2_555 1_555 n
Fe2 O2b O3a 130.0(29) 2_555 14_555 n
Fe2 O2b O3b 164.5(25) 2_555 2_555 n
C2a O2b O3a 154.1(31) 1_555 14_555 n
C2a O2b O3b 140.4(25) 1_555 2_555 n
O3a O2b O3b 65.5(14) 14_555 2_555 n
Fe2 O2a C2a 42.1(12) 2_555 1_555 n
Fe2 O2a C2a 42.1(12) 2_555 4_555 n
Fe2 O2a C2a 42.1(12) 2_555 14_555 n
Fe2 O2a C2a 42.1(12) 2_555 17_555 n
C2a O2a C2a 84.3(24) 1_555 4_555 n
C2a O2a C2a 56.6(15) 1_555 14_555 n
C2a O2a C2a 56.6(15) 1_555 17_555 n
C2a O2a C2a 56.6(15) 4_555 14_555 n
C2a O2a C2a 56.6(15) 4_555 17_555 n
C2a O2a C2a 84.3(24) 14_555 17_555 n
O3a C3a O3a 89.9(30) 1_555 13_555 n
O3a C3a O3b 179.0(12) 1_555 1_555 n
O3a C3a O3b 89.1(28) 1_555 13_555 n
O3a C3a O3b 89.1(28) 13_555 1_555 n
O3a C3a O3b 179.0(12) 13_555 13_555 n
O3b C3a O3b 92.0(31) 1_555 13_555 n
O2b O3a C3a 105.0(26) 14_555 1_555 n
O2b O3a O3a 150.1(18) 14_555 13_555 n
O2b O3a O3b 60.2(19) 14_555 13_555 n
O2b O3a C4a 118.3(22) 14_555 2_555 n
O2b O3a C4a 118.3(22) 14_555 16_555 n
O2b O3a O4a 96.2(27) 14_555 2_555 n
O2b O3a O4a 96.2(27) 14_555 16_555 n
C3a O3a O3a 45.0(15) 1_555 13_555 n
C3a O3a O3b 44.9(14) 1_555 13_555 n
C3a O3a C4a 123.8(30) 1_555 2_555 n
C3a O3a C4a 123.8(30) 1_555 16_555 n
C3a O3a O4a 104.2(15) 1_555 2_555 n
C3a O3a O4a 104.2(15) 1_555 16_555 n
O3a O3a O3b 89.9(8) 13_555 13_555 n
O3a O3a C4a 86.6(21) 13_555 2_555 n
O3a O3a C4a 86.6(21) 13_555 16_555 n
O3a O3a O4a 92.7(25) 13_555 2_555 n
O3a O3a O4a 92.7(25) 13_555 16_555 n
O3b O3a C4a 147.7(19) 13_555 2_555 n
O3b O3a C4a 147.7(19) 13_555 16_555 n
O3b O3a O4a 107.4(17) 13_555 2_555 n
O3b O3a O4a 107.4(17) 13_555 16_555 n
C4a O3a C4a 64.0(35) 2_555 16_555 n
C4a O3a O4a 41.0(10) 2_555 2_555 n
C4a O3a O4a 104.8(34) 2_555 16_555 n
C4a O3a O4a 104.8(34) 16_555 2_555 n
C4a O3a O4a 41.0(10) 16_555 16_555 n
O4a O3a O4a 144.8(30) 2_555 16_555 n
O2b O3b C3a 100.4(21) 3_555 1_555 n
O2b O3b O3a 54.3(15) 3_555 13_555 n
O2b O3b O3b 144.4(14) 3_555 13_555 n
C3a O3b O3a 46.1(15) 1_555 13_555 n
C3a O3b O3b 44.0(15) 1_555 13_555 n
O3a O3b O3b 90.1(8) 13_555 13_555 n
O3a C4a O3a 100.3(30) 3_555 13_555 n
O3a C4a C4a 145.9(24) 3_555 2_555 n
O3a C4a C4a 93.4(21) 3_555 3_555 n
O3a C4a C4a 123.8(24) 3_555 4_555 n
O3a C4a C4a 58.0(17) 3_555 18_555 n
O3a C4a O4a 62.0(15) 3_555 1_555 n
O3a C4a O4b 118.9(27) 3_555 1_555 n
O3a C4a O4b 146.1(16) 3_555 2_555 n
O3a C4a O4b 112.1(18) 3_555 3_555 n
O3a C4a O4b 126.0(33) 3_555 4_555 n
O3a C4a O4b 96.7(34) 3_555 18_555 n
O3a C4a C4a 93.4(21) 13_555 2_555 n
O3a C4a C4a 145.9(24) 13_555 3_555 n
O3a C4a C4a 58.0(17) 13_555 4_555 n
O3a C4a C4a 123.8(24) 13_555 18_555 n
O3a C4a O4a 62.0(15) 13_555 1_555 n
O3a C4a O4b 118.9(27) 13_555 1_555 n
O3a C4a O4b 112.1(18) 13_555 2_555 n
O3a C4a O4b 146.1(16) 13_555 3_555 n
O3a C4a O4b 96.7(34) 13_555 4_555 n
O3a C4a O4b 126.0(33) 13_555 18_555 n
C4a C4a C4a 60.0000(5) 2_555 3_555 n
C4a C4a C4a 90.0 2_555 4_555 n
C4a C4a C4a 135.0 2_555 18_555 n
C4a C4a O4a 99(4) 2_555 1_555 n
C4a C4a O4b 79.6(30) 2_555 1_555 n
C4a C4a O4b 44.1(21) 2_555 2_555 n
C4a C4a O4b 64.9(15) 2_555 3_555 n
C4a C4a O4b 82.5(22) 2_555 4_555 n
C4a C4a O4b 100.2(24) 2_555 18_555 n
C4a C4a C4a 135.0000(8) 3_555 4_555 n
C4a C4a C4a 90.0 3_555 18_555 n
C4a C4a O4a 99(4) 3_555 1_555 n
C4a C4a O4b 79.6(30) 3_555 1_555 n
C4a C4a O4b 64.9(15) 3_555 2_555 n
C4a C4a O4b 44.1(21) 3_555 3_555 n
C4a C4a O4b 100.2(24) 3_555 4_555 n
C4a C4a O4b 82.5(22) 3_555 18_555 n
C4a C4a C4a 90.0 4_555 18_555 n
C4a C4a O4a 119.7(28) 4_555 1_555 n
C4a C4a O4b 61.4(20) 4_555 1_555 n
C4a C4a O4b 70.2(16) 4_555 2_555 n
C4a C4a O4b 94.5(19) 4_555 3_555 n
C4a C4a O4b 39.0(20) 4_555 4_555 n
C4a C4a O4b 69.9(15) 4_555 18_555 n
C4a C4a O4a 119.7(28) 18_555 1_555 n
C4a C4a O4b 61.4(20) 18_555 1_555 n
C4a C4a O4b 94.5(19) 18_555 2_555 n
C4a C4a O4b 70.2(16) 18_555 3_555 n
C4a C4a O4b 69.9(15) 18_555 4_555 n
C4a C4a O4b 39.0(20) 18_555 18_555 n
O4a C4a O4b 178(6) 1_555 1_555 n
O4a C4a O4b 143(6) 1_555 2_555 n
O4a C4a O4b 143(6) 1_555 3_555 n
O4a C4a O4b 159(4) 1_555 4_555 n
O4a C4a O4b 159(4) 1_555 18_555 n
O4b C4a O4b 35.5(30) 1_555 2_555 n
O4b C4a O4b 35.5(30) 1_555 3_555 n
O4b C4a O4b 22.3(19) 1_555 4_555 n
O4b C4a O4b 22.3(19) 1_555 18_555 n
O4b C4a O4b 34.3(24) 2_555 3_555 n
O4b C4a O4b 43.1(16) 2_555 4_555 n
O4b C4a O4b 56.6(18) 2_555 18_555 n
O4b C4a O4b 56.6(18) 3_555 4_555 n
O4b C4a O4b 43.1(16) 3_555 18_555 n
O4b C4a O4b 35.7(27) 4_555 18_555 n
O3a O4a O3a 116(4) 3_555 13_555 n
O3a O4a C4a 77.0(21) 3_555 1_555 n
O3a O4a O4a 143.1(28) 3_555 2_555 n
O3a O4a O4a 87.3(25) 3_555 3_555 n
O3a O4a C4a 77.0(21) 13_555 1_555 n
O3a O4a O4a 87.3(25) 13_555 2_555 n
O3a O4a O4a 143.1(28) 13_555 3_555 n
C4a O4a O4a 81(4) 1_555 2_555 n
C4a O4a O4a 81(4) 1_555 3_555 n
O4a O4a O4a 60.0000(5) 2_555 3_555 n
C4a O4b C4a 56(4) 1_555 2_555 n
C4a O4b C4a 56(4) 1_555 3_555 n
C4a O4b C4a 80(4) 1_555 4_555 n
C4a O4b C4a 80(4) 1_555 18_555 n
C4a O4b O4b 100.4(30) 1_555 2_555 n
C4a O4b O4b 100.4(30) 1_555 3_555 n
C4a O4b O4b 118.6(20) 1_555 4_555 n
C4a O4b O4b 117(4) 1_555 5_555 n
C4a O4b O4b 115.3(24) 1_555 6_555 n
C4a O4b O4b 127(4) 1_555 7_555 n
C4a O4b O4b 127(4) 1_555 8_555 n
C4a O4b O4b 152.4(33) 1_555 9_555 n
C4a O4b O4b 132.6(34) 1_555 12_555 n
C4a O4b O4b 115.3(24) 1_555 16_555 n
C4a O4b O4b 117(4) 1_555 17_555 n
C4a O4b O4b 118.6(20) 1_555 18_555 n
C4a O4b O4b 152.4(33) 1_555 24_555 n
C4a O4b O4b 139.1(19) 1_555 -7_555 n
C4a O4b O4b 139.1(19) 1_555 -8_555 n
C4a O4b C4a 50.1(30) 2_555 3_555 n
C4a O4b C4a 89.0(7) 2_555 4_555 n
C4a O4b C4a 130.8(16) 2_555 18_555 n
C4a O4b O4b 44.1(21) 2_555 2_555 n
C4a O4b O4b 72.8(12) 2_555 3_555 n
C4a O4b O4b 109.8(16) 2_555 4_555 n
C4a O4b O4b 61(4) 2_555 5_555 n
C4a O4b O4b 108(6) 2_555 6_555 n
C4a O4b O4b 72(5) 2_555 7_555 n
C4a O4b O4b 101(4) 2_555 8_555 n
C4a O4b O4b 129(4) 2_555 9_555 n
C4a O4b O4b 154.5(17) 2_555 12_555 n
C4a O4b O4b 67(5) 2_555 16_555 n
C4a O4b O4b 77.2(20) 2_555 17_555 n
C4a O4b O4b 159.6(13) 2_555 18_555 n
C4a O4b O4b 151(4) 2_555 24_555 n
C4a O4b O4b 143.7(31) 2_555 -7_555 n
C4a O4b O4b 105.6(23) 2_555 -8_555 n
C4a O4b C4a 130.8(16) 3_555 4_555 n
C4a O4b C4a 89.0(7) 3_555 18_555 n
C4a O4b O4b 72.8(12) 3_555 2_555 n
C4a O4b O4b 44.1(21) 3_555 3_555 n
C4a O4b O4b 159.6(13) 3_555 4_555 n
C4a O4b O4b 77.2(20) 3_555 5_555 n
C4a O4b O4b 67(5) 3_555 6_555 n
C4a O4b O4b 101(4) 3_555 7_555 n
C4a O4b O4b 72(5) 3_555 8_555 n
C4a O4b O4b 151(4) 3_555 9_555 n
C4a O4b O4b 154.5(17) 3_555 12_555 n
C4a O4b O4b 108(6) 3_555 16_555 n
C4a O4b O4b 61(4) 3_555 17_555 n
C4a O4b O4b 109.8(16) 3_555 18_555 n
C4a O4b O4b 129(4) 3_555 24_555 n
C4a O4b O4b 105.6(23) 3_555 -7_555 n
C4a O4b O4b 143.7(31) 3_555 -8_555 n
C4a O4b C4a 105(4) 4_555 18_555 n
C4a O4b O4b 97.5(22) 4_555 2_555 n
C4a O4b O4b 157.3(20) 4_555 3_555 n
C4a O4b O4b 39.0(20) 4_555 4_555 n
C4a O4b O4b 108.7(27) 4_555 5_555 n
C4a O4b O4b 162(6) 4_555 6_555 n
C4a O4b O4b 88.4(28) 4_555 7_555 n
C4a O4b O4b 152(4) 4_555 8_555 n
C4a O4b O4b 73.8(22) 4_555 9_555 n
C4a O4b O4b 72.2(13) 4_555 12_555 n
C4a O4b O4b 70(5) 4_555 16_555 n
C4a O4b O4b 144.8(31) 4_555 17_555 n
C4a O4b O4b 110.1(15) 4_555 18_555 n
C4a O4b O4b 100(4) 4_555 24_555 n
C4a O4b O4b 122.8(21) 4_555 -7_555 n
C4a O4b O4b 62(4) 4_555 -8_555 n
C4a O4b O4b 157.3(20) 18_555 2_555 n
C4a O4b O4b 97.5(22) 18_555 3_555 n
C4a O4b O4b 110.1(15) 18_555 4_555 n
C4a O4b O4b 144.8(31) 18_555 5_555 n
C4a O4b O4b 70(5) 18_555 6_555 n
C4a O4b O4b 152(4) 18_555 7_555 n
C4a O4b O4b 88.4(28) 18_555 8_555 n
C4a O4b O4b 100(4) 18_555 9_555 n
C4a O4b O4b 72.2(13) 18_555 12_555 n
C4a O4b O4b 162(6) 18_555 16_555 n
C4a O4b O4b 108.7(27) 18_555 17_555 n
C4a O4b O4b 39.0(20) 18_555 18_555 n
C4a O4b O4b 73.8(22) 18_555 24_555 n
C4a O4b O4b 62(4) 18_555 -7_555 n
C4a O4b O4b 122.8(21) 18_555 -8_555 n
O4b O4b O4b 60.0000(5) 2_555 3_555 n
O4b O4b O4b 90.0 2_555 4_555 n
O4b O4b O4b 18.7(22) 2_555 5_555 n
O4b O4b O4b 91(4) 2_555 6_555 n
O4b O4b O4b 30.4(31) 2_555 7_555 n
O4b O4b O4b 73.4(16) 2_555 8_555 n
O4b O4b O4b 90.4(31) 2_555 9_555 n
O4b O4b O4b 120.0000(5) 2_555 12_555 n
O4b O4b O4b 36(5) 2_555 16_555 n
O4b O4b O4b 50.7(9) 2_555 17_555 n
O4b O4b O4b 135.0 2_555 18_555 n
O4b O4b O4b 107.0(16) 2_555 24_555 n
O4b O4b O4b 108.7(22) 2_555 -7_555 n
O4b O4b O4b 71.7(14) 2_555 -8_555 n
O4b O4b O4b 135.0000(8) 3_555 4_555 n
O4b O4b O4b 50.7(9) 3_555 5_555 n
O4b O4b O4b 36(5) 3_555 6_555 n
O4b O4b O4b 73.4(16) 3_555 7_555 n
O4b O4b O4b 30.4(31) 3_555 8_555 n
O4b O4b O4b 107.0(16) 3_555 9_555 n
O4b O4b O4b 120.0000(9) 3_555 12_555 n
O4b O4b O4b 91(4) 3_555 16_555 n
O4b O4b O4b 18.7(22) 3_555 17_555 n
O4b O4b O4b 90.0 3_555 18_555 n
O4b O4b O4b 90.4(31) 3_555 24_555 n
O4b O4b O4b 71.7(14) 3_555 -7_555 n
O4b O4b O4b 108.7(22) 3_555 -8_555 n
O4b O4b O4b 90.0 4_555 5_555 n
O4b O4b O4b 125.0(26) 4_555 6_555 n
O4b O4b O4b 65.6(24) 4_555 7_555 n
O4b O4b O4b 113.8(24) 4_555 8_555 n
O4b O4b O4b 35.266(28) 4_555 9_555 n
O4b O4b O4b 45.0000(8) 4_555 12_555 n
O4b O4b O4b 54(5) 4_555 16_555 n
O4b O4b O4b 116.3(22) 4_555 17_555 n
O4b O4b O4b 90.0 4_555 18_555 n
O4b O4b O4b 65.6(24) 4_555 24_555 n
O4b O4b O4b 90.0 4_555 -7_555 n
O4b O4b O4b 26.3(22) 4_555 -8_555 n
O4b O4b O4b 75.3(21) 5_555 6_555 n
O4b O4b O4b 24.4(24) 5_555 7_555 n
O4b O4b O4b 56.7(7) 5_555 8_555 n
O4b O4b O4b 79.7(18) 5_555 9_555 n
O4b O4b O4b 108.3(14) 5_555 12_555 n
O4b O4b O4b 40(5) 5_555 16_555 n
O4b O4b O4b 36.5(29) 5_555 17_555 n
O4b O4b O4b 116.3(22) 5_555 18_555 n
O4b O4b O4b 90.0 5_555 24_555 n
O4b O4b O4b 90.0 5_555 -7_555 n
O4b O4b O4b 66.6(14) 5_555 -8_555 n
O4b O4b O4b 90.3(25) 6_555 7_555 n
O4b O4b O4b 19.8(26) 6_555 8_555 n
O4b O4b O4b 89.7(26) 6_555 9_555 n
O4b O4b O4b 89(4) 6_555 12_555 n
O4b O4b O4b 110(5) 6_555 16_555 n
O4b O4b O4b 40(5) 6_555 17_555 n
O4b O4b O4b 54(5) 6_555 18_555 n
O4b O4b O4b 61.8(10) 6_555 24_555 n
O4b O4b O4b 39(4) 6_555 -7_555 n
O4b O4b O4b 105.1(7) 6_555 -8_555 n
O4b O4b O4b 70.527(28) 7_555 8_555 n
O4b O4b O4b 60.0000(5) 7_555 9_555 n
O4b O4b O4b 89.6(31) 7_555 12_555 n
O4b O4b O4b 19.8(26) 7_555 16_555 n
O4b O4b O4b 56.7(7) 7_555 17_555 n
O4b O4b O4b 113.8(24) 7_555 18_555 n
O4b O4b O4b 80.2(18) 7_555 24_555 n
O4b O4b O4b 90.0 7_555 -7_555 n
O4b O4b O4b 43.0(11) 7_555 -8_555 n
O4b O4b O4b 80.2(18) 8_555 9_555 n
O4b O4b O4b 89.6(31) 8_555 12_555 n
O4b O4b O4b 90.3(25) 8_555 16_555 n
O4b O4b O4b 24.4(24) 8_555 17_555 n
O4b O4b O4b 65.6(24) 8_555 18_555 n
O4b O4b O4b 60.0000(9) 8_555 24_555 n
O4b O4b O4b 43.0(11) 8_555 -7_555 n
O4b O4b O4b 90.0000(11) 8_555 -8_555 n
O4b O4b O4b 29.6(31) 9_555 12_555 n
O4b O4b O4b 61.8(10) 9_555 16_555 n
O4b O4b O4b 90.0000(11) 9_555 17_555 n
O4b O4b O4b 65.6(24) 9_555 18_555 n
O4b O4b O4b 33.2(32) 9_555 24_555 n
O4b O4b O4b 56.7(7) 9_555 -7_555 n
O4b O4b O4b 24.4(24) 9_555 -8_555 n
O4b O4b O4b 89(4) 12_555 16_555 n
O4b O4b O4b 108.3(14) 12_555 17_555 n
O4b O4b O4b 45.0000(8) 12_555 18_555 n
O4b O4b O4b 29.6(31) 12_555 24_555 n
O4b O4b O4b 50.7(9) 12_555 -7_555 n
O4b O4b O4b 50.7(9) 12_555 -8_555 n
O4b O4b O4b 75.3(21) 16_555 17_555 n
O4b O4b O4b 125.0(26) 16_555 18_555 n
O4b O4b O4b 89.7(26) 16_555 24_555 n
O4b O4b O4b 105.1(7) 16_555 -7_555 n
O4b O4b O4b 39(4) 16_555 -8_555 n
O4b O4b O4b 90.0 17_555 18_555 n
O4b O4b O4b 79.7(18) 17_555 24_555 n
O4b O4b O4b 66.6(14) 17_555 -7_555 n
O4b O4b O4b 90.0000(13) 17_555 -8_555 n
O4b O4b O4b 35.266(28) 18_555 24_555 n
O4b O4b O4b 26.3(22) 18_555 -7_555 n
O4b O4b O4b 90.0 18_555 -8_555 n
O4b O4b O4b 24.4(24) 24_555 -7_555 n
O4b O4b O4b 56.7(7) 24_555 -8_555 n
O4b O4b O4b 78.7(17) -7_555 -8_555 n
loop_
_geom_bond_atom_site_label_1
_geom_bond_atom_site_label_2
_geom_bond_distance
_geom_bond_site_symmetry_2
_geom_bond_publ_flag
Fe1 Fe1 5.107(17) 10_555 n
Fe1 Fe1 3.611(12) 14_555 n
Fe1 Fe1 3.611(12) 19_555 n
Fe1 Cl1 2.554(9) 1_555 n
Fe1 N1 2.132(4) 1_555 n
Fe1 N1 2.132(4) 4_555 n
Fe1 N1 2.132(4) 12_565 n
Fe1 N1 3.068(6) 17_555 n
Fe1 N1 3.068(6) 19_555 n
Fe1 N1 3.068(6) 23_565 n
Fe1 N1 2.132(4) -10_565 n
Fe1 N1 3.068(6) -14_565 n
Fe1 N2 3.139(5) 1_555 n
Fe1 N2 3.139(5) 4_555 n
Fe1 N2 3.139(5) 12_565 n
Fe1 N2 3.139(5) -10_565 n
Fe1 Fe2 5.075(12) 2_555 n
Fe1 Fe2 5.075(12) 11_565 n
Fe1 Os 2.186(11) 1_555 n
Fe1 Cs 3.401(17) 1_555 n
Fe1 Cs 3.401(17) 4_555 n
Fe1 O1a 2.373(12) 1_555 n
Fe1 O1b 3.87(4) 1_555 n
Fe1 O1b 3.87(4) 12_565 n
Fe1 C1a 3.035(32) 1_555 n
Fe1 C1a 3.035(32) 12_565 n
Fe1 Hsa 3.449(33) 1_555 n
Fe1 Hsa 3.449(33) 4_555 n
C1 C2 1.465(13) 1_555 n
C1 N1 2.108(9) 1_555 n
C1 N1 2.108(9) 19_555 n
C1 N2 1.353(7) 1_555 n
C1 N2 1.353(7) 19_555 n
C2 C1 1.465(13) 1_555 n
C2 C3 1.434(6) 1_555 n
C2 C3 1.434(6) 7_555 n
C3 C2 1.434(6) 1_555 n
C3 C2 1.434(6) 9_555 n
C3 H1 0.880(17) 1_555 n
Cl1 Fe1 2.554(9) 1_555 n
Cl1 Fe1 2.554(9) 10_555 n
Cl1 Fe1 2.554(9) 14_555 n
Cl1 Fe1 2.554(9) 19_555 n
Cl1 N1 3.262(5) 1_555 n
Cl1 N1 3.262(5) 4_555 n
Cl1 N1 3.262(5) 10_555 n
Cl1 N1 3.262(5) 12_565 n
Cl1 N1 3.262(5) 14_555 n
Cl1 N1 3.262(5) 17_555 n
Cl1 N1 3.262(5) 19_555 n
Cl1 N1 3.262(5) 23_565 n
Cl1 N1 3.262(5) -1_565 n
Cl1 N1 3.262(5) -4_565 n
Cl1 N1 3.262(5) -10_565 n
Cl1 N1 3.262(5) -12_555 n
Cl1 N1 3.262(5) -14_565 n
Cl1 N1 3.262(5) -17_565 n
Cl1 N1 3.262(5) -19_565 n
Cl1 N1 3.262(5) -23_555 n
Cl1 Fe2 4.386(13) 2_555 n
Cl1 Fe2 4.386(13) 11_565 n
Cl1 O2a 3.390(27) 1_555 n
Cl1 O2a 3.390(27) 12_565 n
N1 Fe1 2.132(4) 1_555 n
N1 Fe1 3.068(6) 19_555 n
N1 C1 2.108(9) 1_555 n
N1 Cl1 3.262(5) 1_555 n
N1 N1 1.348(11) 19_555 n
N1 N2 1.340(6) 1_555 n
N2 Fe1 3.139(5) 1_555 n
N2 C1 1.353(7) 1_555 n
N2 N1 1.340(6) 1_555 n
H1 C3 0.880(17) 1_555 n
Fe2 Fe1 5.075(12) 3_555 n
Fe2 Fe1 5.075(12) 9_555 n
Fe2 Fe1 5.075(12) 13_555 n
Fe2 Fe1 5.075(12) 24_555 n
Fe2 Cl1 4.386(13) 3_555 n
Fe2 C2a 0.769(19) 3_555 n
Fe2 C2a 0.769(19) 6_555 n
Fe2 C2a 0.769(19) 13_555 n
Fe2 C2a 0.769(19) 16_555 n
Fe2 O2b 1.658(30) 3_555 n
Fe2 O2b 1.658(30) 6_555 n
Fe2 O2b 1.658(30) 13_555 n
Fe2 O2b 1.658(30) 16_555 n
Fe2 O2a 0.996(30) 3_555 n
Fe2 C3a 3.641(8) 1_555 n
Fe2 C3a 3.641(8) 3_555 n
Fe2 C3a 3.641(8) 9_555 n
Fe2 C3a 3.641(8) 12_555 n
Fe2 O3a 2.780(25) 3_555 n
Fe2 O3a 2.780(25) 9_555 n
Fe2 O3a 2.780(25) 13_555 n
Fe2 O3a 2.780(25) 24_555 n
Fe2 O3b 3.131(28) 1_555 n
Fe2 O3b 3.131(28) 12_555 n
Fe2 O3b 3.131(28) 15_555 n
Fe2 O3b 3.131(28) 21_555 n
Fe2 C4a 3.41(6) 1_555 n
Fe2 C4a 3.41(6) 4_555 n
Fe2 C4a 3.41(6) 12_555 n
Fe2 C4a 3.41(6) 18_555 n
Fe2 O4a 3.14(7) 1_555 n
Fe2 O4a 3.14(7) 4_555 n
Fe2 O4a 3.14(7) 12_555 n
Fe2 O4a 3.14(7) 18_555 n
Fe2 O4b 4.05(5) 1_555 n
Fe2 O4b 4.05(5) 4_555 n
Fe2 O4b 4.05(5) 12_555 n
Fe2 O4b 4.05(5) 18_555 n
Os Fe1 2.186(11) 1_555 n
Os Cs 1.407(12) 1_555 n
Os Cs 1.407(12) 4_555 n
Os O1a 0.187(17) 1_555 n
Os C1a 1.250(16) 1_555 n
Os C1a 1.250(16) 12_565 n
Cs Fe1 3.401(17) 1_555 n
Cs Os 1.407(12) 1_555 n
Cs Cs 1.76(5) 4_555 n
Cs O1a 1.266(17) 1_555 n
Cs C1a 1.449(29) 1_555 n
Cs C1a 1.449(29) 12_565 n
Cs Hsa 0.98(4) 1_555 n
Cs Hsb 1.036(6) 1_555 n
Cs Hsb 1.036(6) -10_565 n
O1a Fe1 2.373(12) 1_555 n
O1a Os 0.187(17) 1_555 n
O1a Cs 1.266(17) 1_555 n
O1a Cs 1.266(17) 4_555 n
O1a C1a 1.163(12) 1_555 n
O1a C1a 1.163(12) 12_565 n
O1b Fe1 3.87(4) 1_555 n
O1b O1b 2.15(7) 13_555 n
O1b C1a 1.163(13) 1_555 n
C1a Fe1 3.035(32) 1_555 n
C1a Os 1.250(16) 1_555 n
C1a Cs 1.449(29) 1_555 n
C1a Cs 1.449(29) 4_555 n
C1a O1a 1.163(12) 1_555 n
C1a O1b 1.163(13) 1_555 n
C1a C1a 2.13(4) 12_565 n
C1a Hsb 1.28(5) 1_555 n
C1a Hsb 1.28(5) 4_555 n
Hsa Fe1 3.449(33) 1_555 n
Hsa Cs 0.98(4) 1_555 n
Hsa Hsb 1.73(4) 1_555 n
Hsa Hsb 1.73(4) -10_565 n
Hsb Cs 1.036(6) 1_555 n
Hsb C1a 1.28(5) 1_555 n
Hsb Hsa 1.73(4) 1_555 n
Hsb Hsb 1.20(10) 4_555 n
Hsb Hsb 1.93(9) 12_565 n
Hsb Hsb 1.52(6) -10_565 n
C2a Fe2 0.769(19) 2_555 n
C2a C2a 1.50(4) 4_555 n
C2a C2a 1.063(27) 14_555 n
C2a C2a 1.063(27) 17_555 n
C2a O2b 1.146(12) 1_555 n
C2a O2b 1.890(29) 14_555 n
C2a O2b 1.890(29) 17_555 n
C2a O2a 1.120(12) 1_555 n
O2b Fe2 1.658(30) 2_555 n
O2b C2a 1.146(12) 1_555 n
O2b C2a 1.890(29) 14_555 n
O2b C2a 1.890(29) 17_555 n
O2b O2b 2.13(5) 14_555 n
O2b O2b 2.13(5) 17_555 n
O2b C3a 2.024(26) 2_555 n
O2b O3a 1.41(4) 14_555 n
O2b O3b 1.50(4) 2_555 n
O2a Cl1 3.390(27) 1_555 n
O2a Fe2 0.996(30) 2_555 n
O2a C2a 1.120(12) 1_555 n
O2a C2a 1.120(12) 4_555 n
O2a C2a 1.120(12) 14_555 n
O2a C2a 1.120(12) 17_555 n
C3a Fe2 3.641(8) 1_555 n
C3a Fe2 3.641(8) 2_555 n
C3a O2b 2.024(26) 3_555 n
C3a O2b 2.024(26) 14_555 n
C3a O3a 1.136(12) 1_555 n
C3a O3a 1.136(12) 13_555 n
C3a O3b 1.112(12) 1_555 n
C3a O3b 1.112(12) 13_555 n
C3a O4a 2.143(14) 1_555 n
C3a O4a 2.143(14) 2_555 n
C3a O4a 2.143(14) 4_555 n
C3a O4a 2.143(14) 16_555 n
O3a Fe2 2.780(25) 2_555 n
O3a O2b 1.41(4) 14_555 n
O3a C3a 1.136(12) 1_555 n
O3a O3a 1.61(5) 13_555 n
O3a O3b 1.58(4) 13_555 n
O3a C4a 1.72(4) 2_555 n
O3a C4a 1.72(4) 16_555 n
O3a O4a 1.560(30) 2_555 n
O3a O4a 1.560(30) 16_555 n
O3b Fe2 3.131(28) 1_555 n
O3b O2b 1.50(4) 3_555 n
O3b C3a 1.112(12) 1_555 n
O3b O3a 1.58(4) 13_555 n
O3b O3b 1.60(4) 13_555 n
C4a Fe2 3.41(6) 1_555 n
C4a O3a 1.72(4) 3_555 n
C4a O3a 1.72(4) 13_555 n
C4a C4a 1.40(11) 2_555 n
C4a C4a 1.40(11) 3_555 n
C4a C4a 1.82(10) 4_555 n
C4a C4a 1.82(10) 18_555 n
C4a O4a 1.158(13) 1_555 n
C4a O4a 1.95(7) 2_555 n
C4a O4a 1.95(7) 3_555 n
C4a O4b 1.168(12) 1_555 n
C4a O4b 1.65(6) 2_555 n
C4a O4b 1.65(6) 3_555 n
C4a O4b 1.63(6) 4_555 n
C4a O4b 2.004(32) 6_555 n
C4a O4b 1.98(10) 12_555 n
C4a O4b 2.004(32) 16_555 n
C4a O4b 1.63(6) 18_555 n
O4a Fe2 3.14(7) 1_555 n
O4a C3a 2.143(14) 1_555 n
O4a C3a 2.143(14) 3_555 n
O4a O3a 1.560(30) 3_555 n
O4a O3a 1.560(30) 13_555 n
O4a C4a 1.158(13) 1_555 n
O4a C4a 1.95(7) 2_555 n
O4a C4a 1.95(7) 3_555 n
O4a O4a 1.75(12) 2_555 n
O4a O4a 1.75(12) 3_555 n
O4b Fe2 4.05(5) 1_555 n
O4b C4a 1.168(12) 1_555 n
O4b C4a 1.65(6) 2_555 n
O4b C4a 1.65(6) 3_555 n
O4b C4a 1.63(6) 4_555 n
O4b C4a 2.004(32) 6_555 n
O4b C4a 1.98(10) 12_555 n
O4b C4a 2.004(32) 16_555 n
O4b C4a 1.63(6) 18_555 n
O4b O4b 0.98(9) 2_555 n
O4b O4b 0.98(9) 3_555 n
O4b O4b 0.71(7) 4_555 n
O4b O4b 1.56(6) 5_555 n
O4b O4b 1.20(5) 6_555 n
O4b O4b 1.71(6) 7_555 n
O4b O4b 1.71(6) 8_555 n
O4b O4b 1.71(6) 9_555 n
O4b O4b 1.97(7) 11_555 n
O4b O4b 1.00(11) 12_555 n
O4b O4b 1.20(5) 16_555 n
O4b O4b 1.56(6) 17_555 n
O4b O4b 0.71(7) 18_555 n
O4b O4b 1.97(7) 19_555 n
O4b O4b 1.71(6) 24_555 n
O4b O4b 2.10(8) -2_555 n
O4b O4b 2.10(8) -3_555 n
O4b O4b 1.56(6) -7_555 n
O4b O4b 1.56(6) -8_555 n
O4b O4b 2.09(9) -12_555 n
loop_
_pd_meas_intensity_total
_pd_proc_ls_weight
_pd_proc_intensity_bkg_calc
_pd_calc_intensity_total
5710(160) 0.0 3660. .
5100(160) 0.0 3638. .
5040(150) 0.0 3616. .
4850(150) 0.0 3594. .
4600(150) 0.0 3572. .
4330(140) 0.0 3550. .
4290(140) 0.0 3529. .
4070(140) 0.0 3508. .
4020(140) 0.0 3487. .
4120(140) 0.0 3466. .
3760(130) 0.0 3445. .
3780(130) 0.0 3425. .
3750(130) 0.0 3405. .
3770(130) 0.0 3385. .
3810(140) 0.0 3365. .
3730(130) 0.0 3346. .
3940(140) 0.0 3326. .
3750(130) 0.0 3307. .
3690(130) 0.0 3288. .
3710(130) 0.0 3269. .
3720(130) 0.0 3251. .
3630(130) 0.0 3232. .
3710(130) 0.0 3214. .
3660(130) 0.0 3196. .
3860(140) 0.0 3178. .
3650(130) 0.0 3160. .
3840(140) 0.0 3142. .
3540(130) 0.0 3125. .
3750(130) 0.0 3108. .
3530(130) 0.0 3091. .
3580(130) 0.0 3074. .
3440(130) 0.0 3057. .
3470(130) 0.0 3040. .
3310(130) 0.0 3024. .
3270(130) 0.0 3008. .
3360(130) 0.0 2992. .
3300(130) 0.0 2976. .
3140(120) 0.0 2960. .
3080(120) 0.0 2944. .
3370(130) 0.0 2929. .
3260(130) 0.0 2914. .
3260(130) 0.0 2899. .
3240(130) 0.0 2884. .
3220(120) 0.0 2869. .
2970(120) 0.0 2854. .
3200(120) 0.0000650 2840. 2851.
3030(120) 0.0000683 2825. 2837.
3200(120) 0.0000650 2811. 2824.
3110(120) 0.0000672 2797. 2812.
3120(120) 0.0000661 2783. 2801.
3290(130) 0.0000630 2769. 2796.
3280(130) 0.0000640 2755. 2799.
3520(130) 0.0000592 2742. 2817.
3250(130) 0.0000640 2728. 2854.
3520(130) 0.0000592 2715. 2916.
3680(130) 0.0000565 2702. 3001.
3720(130) 0.0000565 2689. 3105.
3480(130) 0.0000601 2676. 3224.
3660(130) 0.0000574 2663. 3356.
4170(140) 0.0000503 2651. 3496.
3970(140) 0.0000533 2638. 3645.
4080(140) 0.0000518 2626. 3803.
4120(140) 0.0000510 2614. 3971.
4170(140) 0.0000503 2602. 4149.
4410(140) 0.0000482 2590. 4337.
4550(150) 0.0000463 2578. 4537.
4800(150) 0.0000444 2566. 4751.
4840(150) 0.0000439 2555. 4979.
5090(160) 0.0000416 2543. 5222.
5160(160) 0.0000411 2532. 5483.
5200(160) 0.0000411 2521. 5763.
5680(160) 0.0000376 2510. 6065.
5820(170) 0.0000367 2499. 6391.
6310(170) 0.0000338 2488. 6745.
6600(180) 0.0000323 2477. 7130.
7150(180) 0.0000299 2466. 7551.
7370(190) 0.0000292 2456. 8013.
7930(190) 0.0000271 2445. 8524.
8450(200) 0.0000255 2435. 9092.
9470(210) 0.0000227 2425. 9729.
9960(220) 0.0000216 2415. 10449.
11040(230) 0.0000196 2405. 11272.
11980(240) 0.0000181 2395. 12228.
13310(250) 0.0000163 2385. 13358.
14480(260) 0.0000150 2376. 14730.
16580(280) 0.0000131 2366. 16461.
19080(300) 0.0000114 2357. 18740.
23040(330) 9.47e-6 2347. 21837.
27520(360) 7.93e-6 2338. 25974.
32400(390) 6.75e-6 2329. 30991.
37350(410) 5.86e-6 2320. 35900.
40060(430) 5.46e-6 2311. 38835.
39540(430) 5.54e-6 2302. 37878.
33900(390) 6.44e-6 2293. 32475.
25690(340) 8.50e-6 2285. 24196.
16760(280) 0.0000129 2276. 15770.
9810(210) 0.0000220 2268. 9300.
6020(170) 0.0000354 2259. 5383.
3810(140) 0.0000549 2251. 3473.
2490(110) 0.0000826 2243. 2706.
2259(72) 0.0001929 2235. 2441.
2193(70) 0.0002041 2227. 2352.
2134(70) 0.0002041 2219. 2314.
2207(71) 0.0001984 2211. 2290.
2179(70) 0.0002041 2203. 2272.
2022(68) 0.0002163 2196. 2256.
1983(67) 0.0002228 2188. 2241.
1981(67) 0.0002228 2181. 2228.
1894(66) 0.0002296 2173. 2216.
1952(67) 0.0002228 2166. 2204.
2005(67) 0.0002228 2159. 2194.
2026(68) 0.0002163 2151. 2184.
1933(66) 0.0002296 2144. 2174.
1970(67) 0.0002228 2137. 2165.
1930(66) 0.0002296 2131. 2156.
2084(69) 0.0002100 2124. 2148.
2006(67) 0.0002228 2117. 2140.
1910(66) 0.0002296 2110. 2134.
1986(67) 0.0002228 2104. 2129.
2000(67) 0.0002228 2097. 2110.
2008(67) 0.0002228 2091. 2113.
1960(67) 0.0002228 2084. 2119.
2037(68) 0.0002163 2078. 2130.
2071(69) 0.0002100 2072. 2144.
2200(70) 0.0002041 2066. 2161.
2081(69) 0.0002100 2060. 2182.
1974(67) 0.0002228 2054. 2204.
2090(69) 0.0002100 2048. 2230.
2258(71) 0.0001984 2042. 2258.
2221(71) 0.0001984 2036. 2290.
2330(73) 0.0001877 2030. 2326.
2289(72) 0.0001929 2025. 2366.
2248(71) 0.0001984 2019. 2413.
2351(73) 0.0001877 2014. 2467.
2528(75) 0.0001778 2008. 2529.
2499(75) 0.0001778 2003. 2604.
2711(78) 0.0001644 1997. 2694.
2891(81) 0.0001524 1992. 2808.
3177(84) 0.0001417 1987. 2956.
3453(88) 0.0001291 1982. 3158.
3651(90) 0.0001235 1977. 3434.
4213(97) 0.0001063 1972. 3787.
4720(100) 0.0000961 1967. 4170.
4970(110) 0.0000907 1962. 4465.
5030(110) 0.0000907 1957. 4523.
4500(100) 0.0001000 1952. 4245.
4051(95) 0.0001108 1947. 3700.
3323(86) 0.0001352 1943. 3079.
2693(78) 0.0001644 1938. 2563.
2198(70) 0.0002041 1934. 2228.
2048(68) 0.0002163 1929. 2055.
1874(65) 0.0002367 1925. 1979.
1961(67) 0.0002228 1920. 1950.
1830(65) 0.0002367 1916. 1938.
1923(66) 0.0002296 1912. 1931.
1971(67) 0.0002228 1907. 1926.
1913(66) 0.0002296 1903. 1922.
1864(65) 0.0002367 1899. 1918.
1909(66) 0.0002296 1895. 1914.
1827(65) 0.0002367 1891. 1911.
1954(67) 0.0002228 1887. 1909.
2025(68) 0.0002163 1883. 1909.
2034(68) 0.0002163 1879. 1912.
2012(68) 0.0002163 1875. 1924.
2041(68) 0.0002163 1872. 1951.
2170(70) 0.0002041 1868. 2000.
2369(73) 0.0001877 1864. 2079.
2442(74) 0.0001826 1861. 2190.
2501(75) 0.0001778 1857. 2332.
2639(77) 0.0001687 1854. 2503.
2742(79) 0.0001602 1850. 2700.
2951(81) 0.0001524 1847. 2923.
3166(84) 0.0001417 1843. 3175.
3336(86) 0.0001352 1840. 3462.
3615(90) 0.0001235 1837. 3792.
3912(93) 0.0001156 1833. 4177.
4269(97) 0.0001063 1830. 4636.
4930(110) 0.0000907 1827. 5199.
5630(110) 0.0000797 1824. 5923.
6830(120) 0.0000661 1821. 6892.
8110(130) 0.0000557 1818. 8215.
9820(150) 0.0000463 1815. 9946.
12040(160) 0.0000376 1812. 11925.
13850(170) 0.0000330 1809. 13634.
14240(180) 0.0000319 1806. 14302.
12880(170) 0.0000354 1803. 13350.
10370(150) 0.0000439 1800. 10919.
7370(130) 0.0000620 1797. 7891.
5020(110) 0.0000907 1795. 5234.
3423(87) 0.0001321 1792. 3445.
2390(73) 0.0001877 1789. 2487.
2025(68) 0.0002163 1787. 2069.
1828(65) 0.0002367 1784. 1915.
1861(65) 0.0002367 1781. 1860.
1739(63) 0.0002520 1779. 1838.
1779(64) 0.0002441 1776. 1825.
1778(86) 0.0001352 1774. 1815.
1721(85) 0.0001384 1772. 1807.
1842(88) 0.0001291 1769. 1800.
1707(85) 0.0001384 1767. 1794.
1845(64) 0.0002441 1764. 1789.
1823(63) 0.0002520 1762. 1785.
1891(64) 0.0002441 1760. 1782.
1902(65) 0.0002367 1758. 1780.
1875(64) 0.0002441 1755. 1778.
1793(63) 0.0002520 1753. 1778.
1875(64) 0.0002441 1751. 1779.
1772(62) 0.0002601 1749. 1780.
1842(64) 0.0002441 1747. 1783.
1819(63) 0.0002520 1745. 1786.
1816(63) 0.0002520 1743. 1791.
1852(64) 0.0002441 1741. 1798.
1859(64) 0.0002441 1739. 1807.
1853(64) 0.0002441 1737. 1821.
1939(65) 0.0002367 1735. 1840.
1937(65) 0.0002367 1733. 1866.
1872(64) 0.0002441 1731. 1896.
1861(64) 0.0002441 1730. 1916.
1928(65) 0.0002367 1728. 1924.
1957(65) 0.0002367 1726. 1907.
1926(65) 0.0002367 1724. 1866.
1830(63) 0.0002520 1723. 1816.
1788(63) 0.0002520 1721. 1773.
1855(64) 0.0002441 1719. 1744.
1697(61) 0.0002687 1718. 1728.
1732(62) 0.0002601 1716. 1721.
1713(61) 0.0002687 1714. 1717.
1700(61) 0.0002687 1713. 1714.
1636(60) 0.0002778 1711. 1713.
1767(62) 0.0002601 1710. 1711.
1807(63) 0.0002520 1708. 1709.
1759(62) 0.0002601 1707. 1708.
1754(62) 0.0002601 1705. 1707.
1742(62) 0.0002601 1704. 1706.
1794(63) 0.0002520 1703. 1705.
1743(62) 0.0002601 1701. 1705.
1813(63) 0.0002520 1700. 1706.
1739(62) 0.0002601 1699. 1707.
1702(61) 0.0002687 1697. 1708.
1773(62) 0.0002601 1696. 1711.
1854(64) 0.0002441 1695. 1714.
1735(62) 0.0002601 1693. 1718.
1693(61) 0.0002687 1692. 1724.
1752(62) 0.0002601 1691. 1732.
1773(62) 0.0002601 1690. 1743.
1741(62) 0.0002601 1689. 1758.
1765(62) 0.0002601 1687. 1776.
1748(62) 0.0002601 1686. 1790.
1660(60) 0.0002778 1685. 1795.
1677(61) 0.0002687 1684. 1785.
1693(61) 0.0002687 1683. 1761.
1648(60) 0.0002778 1682. 1733.
1758(62) 0.0002601 1681. 1709.
1717(61) 0.0002687 1680. 1694.
1729(62) 0.0002601 1679. 1685.
1659(60) 0.0002778 1678. 1681.
1688(61) 0.0002687 1677. 1679.
1749(62) 0.0002601 1676. 1677.
1740(62) 0.0002601 1675. 1676.
1718(61) 0.0002687 1674. 1675.
1731(62) 0.0002601 1673. 1675.
1796(63) 0.0002520 1672. 1675.
1721(61) 0.0002687 1671. 1675.
1733(62) 0.0002601 1670. 1677.
1738(62) 0.0002601 1670. 1680.
1724(61) 0.0002687 1669. 1684.
1766(62) 0.0002601 1668. 1690.
1756(62) 0.0002601 1667. 1697.
1677(61) 0.0002687 1666. 1707.
1646(60) 0.0002778 1666. 1719.
1738(62) 0.0002601 1665. 1736.
1759(62) 0.0002601 1664. 1759.
1777(62) 0.0002601 1663. 1790.
1723(61) 0.0002687 1663. 1826.
1761(62) 0.0002601 1662. 1858.
1667(60) 0.0002778 1661. 1872.
1824(63) 0.0002520 1660. 1858.
1814(63) 0.0002520 1660. 1816.
1776(62) 0.0002601 1659. 1764.
1720(61) 0.0002687 1658. 1718.
1697(61) 0.0002687 1658. 1686.
1692(61) 0.0002687 1657. 1670.
1685(61) 0.0002687 1657. 1662.
1610(59) 0.0002873 1656. 1659.
1764(62) 0.0002601 1655. 1658.
1777(62) 0.0002601 1655. 1657.
1689(61) 0.0002687 1654. 1656.
1642(60) 0.0002778 1654. 1655.
1752(62) 0.0002601 1653. 1655.
1761(62) 0.0002601 1653. 1654.
1647(60) 0.0002778 1652. 1654.
1677(61) 0.0002687 1652. 1653.
1666(60) 0.0002778 1651. 1653.
1672(61) 0.0002687 1651. 1652.
1725(61) 0.0002687 1650. 1652.
1686(61) 0.0002687 1650. 1651.
1734(89) 0.0001262 1649. 1651.
1704(60) 0.0002778 1649. 1650.
1718(60) 0.0002778 1648. 1650.
1652(59) 0.0002873 1648. 1650.
1753(61) 0.0002687 1647. 1650.
1797(62) 0.0002601 1647. 1649.
1748(61) 0.0002687 1647. 1649.
1777(61) 0.0002687 1646. 1649.
1779(61) 0.0002687 1646. 1649.
1784(61) 0.0002687 1645. 1649.
1795(62) 0.0002601 1645. 1650.
1728(60) 0.0002778 1645. 1651.
1771(61) 0.0002687 1644. 1651.
1732(61) 0.0002687 1644. 1652.
1729(60) 0.0002778 1644. 1655.
1788(61) 0.0002687 1643. 1660.
1676(60) 0.0002778 1643. 1670.
1680(60) 0.0002778 1643. 1688.
1769(61) 0.0002687 1642. 1715.
1749(61) 0.0002687 1642. 1753.
1827(62) 0.0002601 1642. 1804.
1869(63) 0.0002520 1641. 1871.
2117(67) 0.0002228 1641. 1962.
2193(68) 0.0002163 1641. 2086.
2277(69) 0.0002100 1641. 2253.
2519(73) 0.0001877 1640. 2457.
2777(76) 0.0001731 1640. 2657.
2907(78) 0.0001644 1640. 2782.
2813(77) 0.0001687 1640. 2757.
2621(74) 0.0001826 1639. 2570.
2282(69) 0.0002100 1639. 2293.
2083(66) 0.0002296 1639. 2029.
1885(63) 0.0002520 1639. 1841.
1741(61) 0.0002687 1638. 1735.
1706(60) 0.0002778 1638. 1688.
1731(61) 0.0002687 1638. 1671.
1838(62) 0.0002601 1638. 1669.
1827(62) 0.0002601 1638. 1676.
1794(62) 0.0002601 1637. 1694.
1849(63) 0.0002520 1637. 1728.
1861(63) 0.0002520 1637. 1785.
1891(63) 0.0002520 1637. 1871.
1933(64) 0.0002441 1637. 1992.
2211(68) 0.0002163 1636. 2157.
2287(69) 0.0002100 1636. 2384.
2658(75) 0.0001778 1636. 2696.
2987(79) 0.0001602 1636. 3113.
3604(87) 0.0001321 1636. 3614.
3938(91) 0.0001208 1636. 4095.
4223(94) 0.0001132 1636. 4374.
4086(93) 0.0001156 1635. 4281.
3599(87) 0.0001321 1635. 3802.
2816(77) 0.0001687 1635. 3129.
2316(70) 0.0002041 1635. 2507.
2011(65) 0.0002367 1635. 2072.
1778(61) 0.0002687 1635. 1832.
1670(59) 0.0002873 1635. 1724.
1616(58) 0.0002973 1635. 1683.
1606(58) 0.0002973 1634. 1667.
1655(59) 0.0002873 1634. 1660.
1707(60) 0.0002778 1634. 1656.
1618(59) 0.0002873 1634. 1654.
1540(57) 0.0003078 1634. 1652.
1600(58) 0.0002973 1634. 1651.
1689(60) 0.0002778 1634. 1650.
1674(60) 0.0002778 1634. 1649.
1659(59) 0.0002873 1634. 1649.
1650(59) 0.0002873 1634. 1648.
1692(60) 0.0002778 1634. 1649.
1712(60) 0.0002778 1634. 1649.
1672(59) 0.0002873 1633. 1649.
1646(59) 0.0002873 1633. 1650.
1602(58) 0.0002973 1633. 1650.
1654(59) 0.0002873 1633. 1650.
1702(60) 0.0002778 1633. 1651.
1664(59) 0.0002873 1633. 1652.
1655(59) 0.0002873 1633. 1654.
1646(59) 0.0002873 1633. 1659.
1753(61) 0.0002687 1633. 1667.
1784(61) 0.0002687 1633. 1685.
1810(62) 0.0002601 1633. 1719.
1882(63) 0.0002520 1633. 1779.
1925(64) 0.0002441 1633. 1875.
2039(66) 0.0002296 1633. 2020.
2173(68) 0.0002163 1633. 2228.
2510(73) 0.0001877 1633. 2522.
2733(76) 0.0001731 1633. 2930.
3217(82) 0.0001487 1633. 3455.
3736(89) 0.0001262 1633. 4034.
4271(95) 0.0001108 1633. 4500.
4196(94) 0.0001132 1632. 4642.
3873(90) 0.0001235 1632. 4330.
3430(85) 0.0001384 1632. 3669.
2670(75) 0.0001778 1632. 2930.
2229(69) 0.0002100 1632. 2339.
1907(63) 0.0002520 1632. 1971.
1797(62) 0.0002601 1632. 1789.
1809(62) 0.0002601 1632. 1715.
1735(61) 0.0002687 1632. 1692.
1812(62) 0.0002601 1632. 1693.
1692(57) 0.0003078 1632. 1710.
1705(57) 0.0003078 1632. 1744.
1732(58) 0.0002973 1632. 1800.
1880(60) 0.0002778 1632. 1885.
2035(62) 0.0002601 1632. 2009.
2083(63) 0.0002520 1632. 2182.
2249(65) 0.0002367 1632. 2405.
2584(70) 0.0002041 1632. 2647.
2741(72) 0.0001929 1632. 2836.
2723(72) 0.0001929 1632. 2883.
2589(70) 0.0002041 1632. 2739.
2397(68) 0.0002163 1632. 2458.
2176(64) 0.0002441 1632. 2153.
1940(61) 0.0002687 1632. 1914.
1833(59) 0.0002873 1632. 1767.
1704(57) 0.0003078 1632. 1695.
1730(58) 0.0002973 1632. 1665.
1767(58) 0.0002973 1632. 1653.
1704(57) 0.0003078 1632. 1649.
1671(57) 0.0003078 1632. 1646.
1673(57) 0.0003078 1632. 1645.
1596(55) 0.0003306 1632. 1645.
1644(56) 0.0003189 1632. 1645.
1630(56) 0.0003189 1632. 1647.
1637(56) 0.0003189 1632. 1649.
1723(57) 0.0003078 1632. 1651.
1652(56) 0.0003189 1632. 1653.
1692(57) 0.0003078 1632. 1654.
1698(57) 0.0003078 1632. 1652.
1616(56) 0.0003189 1632. 1648.
1691(57) 0.0003078 1632. 1644.
1615(56) 0.0003189 1632. 1641.
1645(56) 0.0003189 1632. 1639.
1582(55) 0.0003306 1632. 1638.
1669(57) 0.0003078 1632. 1638.
1692(57) 0.0003078 1632. 1639.
1656(56) 0.0003189 1632. 1639.
1638(56) 0.0003189 1632. 1642.
1619(56) 0.0003189 1632. 1648.
1658(56) 0.0003189 1632. 1656.
1650(56) 0.0003189 1632. 1668.
1682(57) 0.0003078 1632. 1684.
1690(57) 0.0003078 1632. 1705.
1651(56) 0.0003189 1632. 1725.
1748(58) 0.0002973 1632. 1739.
1625(56) 0.0003189 1632. 1738.
1631(56) 0.0003189 1632. 1722.
1556(55) 0.0003306 1632. 1696.
1556(55) 0.0003306 1632. 1673.
1662(56) 0.0003189 1632. 1655.
1651(56) 0.0003189 1632. 1645.
1682(57) 0.0003078 1632. 1641.
1642(56) 0.0003189 1632. 1639.
1601(55) 0.0003306 1632. 1638.
1605(55) 0.0003306 1632. 1638.
1530(54) 0.0003429 1632. 1638.
1627(56) 0.0003189 1632. 1638.
1590(55) 0.0003306 1632. 1639.
1609(56) 0.0003189 1632. 1639.
1613(56) 0.0003189 1632. 1640.
1573(55) 0.0003306 1632. 1641.
1567(55) 0.0003306 1632. 1641.
1631(56) 0.0003189 1632. 1643.
1656(56) 0.0003189 1632. 1645.
1617(56) 0.0003189 1632. 1646.
1622(56) 0.0003189 1632. 1649.
1739(58) 0.0002973 1632. 1652.
1718(57) 0.0003078 1632. 1658.
1718(57) 0.0003078 1632. 1669.
1654(56) 0.0003189 1632. 1690.
1641(56) 0.0003189 1632. 1732.
1763(58) 0.0002973 1632. 1805.
1958(61) 0.0002687 1632. 1927.
2086(63) 0.0002520 1632. 2115.
2341(67) 0.0002228 1632. 2389.
2788(73) 0.0001877 1632. 2745.
3240(78) 0.0001644 1632. 3135.
3599(83) 0.0001452 1632. 3446.
3713(84) 0.0001417 1632. 3537.
3392(80) 0.0001562 1632. 3332.
2963(75) 0.0001778 1632. 2910.
2503(69) 0.0002100 1632. 2449.
2133(64) 0.0002441 1632. 2086.
1908(60) 0.0002778 1632. 1864.
1845(59) 0.0002873 1632. 1760.
1782(58) 0.0002973 1632. 1729.
1691(57) 0.0003078 1632. 1745.
1761(58) 0.0002973 1632. 1798.
1816(59) 0.0002873 1631. 1897.
1984(62) 0.0002601 1631. 2056.
2243(65) 0.0002367 1631. 2289.
2561(70) 0.0002041 1631. 2592.
2989(75) 0.0001778 1631. 2916.
3316(79) 0.0001602 1631. 3163.
3295(79) 0.0001602 1631. 3218.
3173(78) 0.0001644 1631. 3027.
2690(71) 0.0001984 1631. 2668.
2369(67) 0.0002228 1631. 2289.
2122(64) 0.0002441 1631. 1998.
1876(60) 0.0002778 1631. 1826.
1776(58) 0.0002973 1631. 1749.
1652(55) 0.0003306 1631. 1735.
1787(57) 0.0003078 1631. 1765.
1830(58) 0.0002973 1631. 1839.
1896(59) 0.0002873 1631. 1968.
2128(63) 0.0002520 1631. 2169.
2339(66) 0.0002296 1631. 2449.
2759(72) 0.0001929 1631. 2783.
2942(74) 0.0001826 1631. 3093.
3154(77) 0.0001687 1631. 3259.
3083(76) 0.0001731 1631. 3184.
2859(73) 0.0001877 1631. 2882.
2395(67) 0.0002228 1631. 2486.
2129(63) 0.0002520 1630. 2137.
1909(59) 0.0002873 1630. 1902.
1824(58) 0.0002973 1630. 1782.
1736(57) 0.0003078 1630. 1742.
1751(57) 0.0003078 1630. 1758.
1837(58) 0.0002973 1630. 1820.
1907(59) 0.0002873 1630. 1939.
2004(61) 0.0002687 1630. 2129.
2281(65) 0.0002367 1630. 2399.
2471(68) 0.0002163 1630. 2727.
2746(71) 0.0001984 1630. 3039.
3045(75) 0.0001778 1630. 3218.
3063(75) 0.0001778 1630. 3166.
2723(71) 0.0001984 1630. 2882.
2382(66) 0.0002296 1630. 2493.
2082(62) 0.0002601 1630. 2139.
1913(59) 0.0002873 1630. 1894.
1751(57) 0.0003078 1629. 1757.
1675(56) 0.0003189 1629. 1694.
1659(55) 0.0003306 1629. 1668.
1650(55) 0.0003306 1629. 1658.
1736(57) 0.0003078 1629. 1654.
1675(56) 0.0003189 1629. 1652.
1679(56) 0.0003189 1629. 1652.
1748(57) 0.0003078 1629. 1652.
1712(56) 0.0003189 1629. 1653.
1631(55) 0.0003306 1629. 1653.
1686(56) 0.0003189 1629. 1650.
1642(55) 0.0003306 1629. 1646.
1694(56) 0.0003189 1629. 1642.
1643(55) 0.0003306 1628. 1639.
1633(55) 0.0003306 1628. 1636.
1666(56) 0.0003189 1628. 1635.
1712(56) 0.0003189 1628. 1634.
1612(55) 0.0003306 1628. 1634.
1601(54) 0.0003429 1628. 1634.
1636(55) 0.0003306 1628. 1635.
1620(55) 0.0003306 1628. 1637.
1637(55) 0.0003306 1628. 1639.
1727(57) 0.0003078 1628. 1641.
1607(54) 0.0003429 1628. 1642.
1670(56) 0.0003189 1627. 1642.
1689(56) 0.0003189 1627. 1639.
1689(56) 0.0003189 1627. 1636.
1653(55) 0.0003306 1627. 1633.
1633(55) 0.0003306 1627. 1631.
1628(55) 0.0003306 1627. 1630.
1730(57) 0.0003078 1627. 1630.
1634(55) 0.0003306 1627. 1631.
1634(55) 0.0003306 1627. 1632.
1696(56) 0.0003189 1627. 1635.
1606(54) 0.0003429 1626. 1639.
1620(55) 0.0003306 1626. 1645.
1664(55) 0.0003306 1626. 1650.
1566(54) 0.0003429 1626. 1654.
1646(55) 0.0003306 1626. 1654.
1633(55) 0.0003306 1626. 1649.
1689(56) 0.0003189 1626. 1642.
1629(55) 0.0003306 1626. 1636.
1625(55) 0.0003306 1626. 1631.
1611(55) 0.0003306 1625. 1629.
1574(54) 0.0003429 1625. 1627.
1704(56) 0.0003189 1625. 1627.
1714(56) 0.0003189 1625. 1626.
1691(56) 0.0003189 1625. 1626.
1606(54) 0.0003429 1625. 1626.
1682(56) 0.0003189 1625. 1626.
1679(56) 0.0003189 1625. 1626.
1603(54) 0.0003429 1624. 1627.
1576(54) 0.0003429 1624. 1627.
1682(56) 0.0003189 1624. 1627.
1662(55) 0.0003306 1624. 1627.
1630(55) 0.0003306 1624. 1628.
1599(54) 0.0003429 1624. 1628.
1618(55) 0.0003306 1624. 1628.
1551(54) 0.0003429 1624. 1629.
1628(55) 0.0003306 1623. 1631.
1609(55) 0.0003306 1623. 1633.
1611(55) 0.0003306 1623. 1638.
1589(54) 0.0003429 1623. 1643.
1596(54) 0.0003429 1623. 1649.
1694(56) 0.0003189 1623. 1654.
1642(55) 0.0003306 1623. 1655.
1657(55) 0.0003306 1622. 1652.
1688(56) 0.0003189 1622. 1647.
1725(56) 0.0003189 1622. 1642.
1667(56) 0.0003189 1622. 1639.
1637(53) 0.000356 1622. 1640.
1668(54) 0.0003429 1622. 1647.
1714(54) 0.0003429 1622. 1662.
1672(54) 0.0003429 1621. 1689.
1783(55) 0.0003306 1621. 1732.
1774(55) 0.0003306 1621. 1791.
1890(57) 0.0003078 1621. 1859.
1915(58) 0.0002973 1621. 1915.
1958(58) 0.0002973 1621. 1938.
1922(58) 0.0002973 1621. 1912.
1911(57) 0.0003078 1620. 1850.
1749(55) 0.0003306 1620. 1779.
1645(53) 0.000356 1620. 1724.
1659(53) 0.000356 1620. 1694.
1686(54) 0.0003429 1620. 1693.
1699(54) 0.0003429 1620. 1720.
1748(55) 0.0003306 1619. 1782.
1789(56) 0.0003189 1619. 1886.
1904(57) 0.0003078 1619. 2029.
2101(60) 0.0002778 1619. 2193.
2128(61) 0.0002687 1619. 2330.
2080(60) 0.0002778 1619. 2384.
2020(59) 0.0002873 1618. 2323.
1976(58) 0.0002973 1618. 2174.
1871(57) 0.0003078 1618. 2005.
1849(57) 0.0003078 1618. 1877.
1903(57) 0.0003078 1618. 1820.
1926(58) 0.0002973 1618. 1847.
2003(59) 0.0002873 1617. 1975.
2345(64) 0.0002441 1617. 2231.
2744(69) 0.0002100 1617. 2641.
3270(75) 0.0001778 1617. 3188.
3864(82) 0.0001487 1617. 3773.
4398(87) 0.0001321 1617. 4211.
4603(89) 0.0001262 1616. 4303.
4181(85) 0.0001384 1616. 3971.
3335(76) 0.0001731 1616. 3364.
2753(69) 0.0002100 1616. 2730.
2330(63) 0.0002520 1616. 2238.
2050(60) 0.0002778 1615. 1934.
1807(56) 0.0003189 1615. 1777.
1697(54) 0.0003429 1615. 1708.
1670(54) 0.0003429 1615. 1681.
1699(54) 0.0003429 1615. 1668.
1716(54) 0.0003429 1615. 1661.
1634(53) 0.000356 1614. 1657.
1547(52) 0.000370 1614. 1654.
1643(53) 0.000356 1614. 1653.
1632(53) 0.000356 1614. 1654.
1648(53) 0.000356 1614. 1657.
1633(53) 0.000356 1613. 1665.
1572(52) 0.000370 1613. 1684.
1723(55) 0.0003306 1613. 1725.
1882(57) 0.0003078 1613. 1807.
1972(58) 0.0002973 1613. 1951.
2198(62) 0.0002601 1612. 2176.
2479(65) 0.0002367 1612. 2470.
2829(70) 0.0002041 1612. 2777.
3013(72) 0.0001929 1612. 2997.
3000(72) 0.0001929 1612. 3027.
2680(68) 0.0002163 1611. 2837.
2448(65) 0.0002367 1611. 2515.
2133(61) 0.0002687 1611. 2190.
1920(58) 0.0002973 1611. 1946.
1801(56) 0.0003189 1611. 1805.
1672(54) 0.0003429 1610. 1753.
1712(54) 0.0003429 1610. 1762.
1736(55) 0.0003306 1610. 1818.
1771(55) 0.0003306 1610. 1906.
1825(56) 0.0003189 1610. 2006.
1914(58) 0.0002973 1609. 2083.
1920(58) 0.0002973 1609. 2102.
1894(57) 0.0003078 1609. 2048.
1758(55) 0.0003306 1609. 1944.
1757(55) 0.0003306 1608. 1833.
1749(55) 0.0003306 1608. 1745.
1695(54) 0.0003429 1608. 1689.
1669(54) 0.0003429 1608. 1661.
1660(54) 0.0003429 1608. 1648.
1714(54) 0.0003429 1607. 1643.
1667(54) 0.0003429 1607. 1643.
1674(54) 0.0003429 1607. 1644.
1655(53) 0.000356 1607. 1646.
1683(54) 0.0003429 1606. 1649.
1682(54) 0.0003429 1606. 1655.
1647(53) 0.000356 1606. 1664.
1712(54) 0.0003429 1606. 1682.
1802(56) 0.0003189 1606. 1718.
1815(56) 0.0003189 1605. 1797.
1892(57) 0.0003078 1605. 1952.
2197(62) 0.0002601 1605. 2228.
2742(69) 0.0002100 1605. 2655.
3292(76) 0.0001731 1604. 3209.
4015(83) 0.0001452 1604. 3779.
4404(87) 0.0001321 1604. 4175.
4471(88) 0.0001291 1604. 4211.
3995(83) 0.0001452 1604. 3844.
3144(74) 0.0001826 1603. 3247.
2600(67) 0.0002228 1603. 2651.
2312(63) 0.0002520 1603. 2204.
2014(46) 0.000473 1603. 1941.
1709(50) 0.000400 1602. 1826.
1750(51) 0.000384 1602. 1810.
1898(53) 0.000356 1602. 1853.
1969(54) 0.0003429 1602. 1925.
1982(54) 0.0003429 1601. 1997.
2043(55) 0.0003306 1601. 2036.
2035(55) 0.0003306 1601. 2019.
1958(54) 0.0003429 1601. 1954.
1855(53) 0.000356 1600. 1873.
1855(53) 0.000356 1600. 1814.
1859(53) 0.000356 1600. 1807.
1843(52) 0.000370 1600. 1875.
2036(55) 0.0003306 1599. 2044.
2330(59) 0.0002873 1599. 2330.
2706(63) 0.0002520 1599. 2718.
3165(69) 0.0002100 1599. 3132.
3515(72) 0.0001929 1598. 3440.
3546(73) 0.0001877 1598. 3502.
3214(69) 0.0002100 1598. 3272.
2832(65) 0.0002367 1598. 2856.
2496(61) 0.0002687 1597. 2423.
2173(57) 0.0003078 1597. 2091.
1915(53) 0.000356 1597. 1896.
1860(53) 0.000356 1597. 1825.
1826(52) 0.000370 1596. 1845.
1976(54) 0.0003429 1596. 1927.
2176(57) 0.0003078 1596. 2039.
2242(58) 0.0002973 1596. 2138.
2308(59) 0.0002873 1595. 2181.
2166(57) 0.0003078 1595. 2139.
2094(56) 0.0003189 1595. 2029.
1936(54) 0.0003429 1595. 1899.
1842(52) 0.000370 1594. 1792.
1755(51) 0.000384 1594. 1728.
1717(51) 0.000384 1594. 1709.
1786(52) 0.000370 1594. 1731.
1883(53) 0.000356 1593. 1785.
1899(53) 0.000356 1593. 1859.
2007(55) 0.0003306 1593. 1928.
2024(55) 0.0003306 1593. 1966.
1991(54) 0.0003429 1592. 1950.
1866(53) 0.000356 1592. 1886.
1828(52) 0.000370 1592. 1802.
1762(51) 0.000384 1592. 1726.
1690(50) 0.000400 1591. 1674.
1682(50) 0.000400 1591. 1646.
1597(49) 0.000416 1591. 1638.
1587(49) 0.000416 1590. 1641.
1530(48) 0.000434 1590. 1653.
1621(49) 0.000416 1590. 1665.
1688(50) 0.000400 1590. 1673.
1724(51) 0.000384 1589. 1670.
1640(49) 0.000416 1589. 1658.
1588(49) 0.000416 1589. 1644.
1551(48) 0.000434 1589. 1633.
1604(49) 0.000416 1588. 1631.
1662(50) 0.000400 1588. 1642.
1663(50) 0.000400 1588. 1670.
1695(50) 0.000400 1587. 1714.
1782(52) 0.000370 1587. 1770.
1771(51) 0.000384 1587. 1821.
1904(53) 0.000356 1587. 1849.
1794(52) 0.000370 1586. 1839.
1772(51) 0.000384 1586. 1793.
1708(50) 0.000400 1586. 1733.
1701(50) 0.000400 1585. 1678.
1604(49) 0.000416 1585. 1639.
1599(49) 0.000416 1585. 1615.
1604(49) 0.000416 1585. 1603.
1595(49) 0.000416 1584. 1598.
1708(50) 0.000400 1584. 1594.
1545(48) 0.000434 1584. 1593.
1552(48) 0.000434 1583. 1592.
1632(49) 0.000416 1583. 1592.
1620(49) 0.000416 1583. 1592.
1568(48) 0.000434 1583. 1592.
1563(48) 0.000434 1582. 1594.
1613(49) 0.000416 1582. 1597.
1592(49) 0.000416 1582. 1603.
1611(49) 0.000416 1581. 1612.
1628(49) 0.000416 1581. 1624.
1616(49) 0.000416 1581. 1637.
1614(49) 0.000416 1581. 1648.
1704(50) 0.000400 1580. 1651.
1624(49) 0.000416 1580. 1647.
1588(49) 0.000416 1580. 1640.
1651(50) 0.000400 1579. 1638.
1621(49) 0.000416 1579. 1650.
1651(50) 0.000400 1579. 1686.
1619(49) 0.000416 1578. 1757.
1745(51) 0.000384 1578. 1865.
1970(54) 0.0003429 1578. 1999.
2069(56) 0.0003189 1578. 2125.
2039(55) 0.0003306 1577. 2198.
2058(55) 0.0003306 1577. 2181.
2012(55) 0.0003306 1577. 2081.
1958(54) 0.0003429 1576. 1944.
1804(52) 0.000370 1576. 1821.
1742(51) 0.000384 1576. 1740.
1674(47) 0.000453 1575. 1711.
1719(47) 0.000453 1575. 1727.
1809(49) 0.000416 1575. 1775.
1850(49) 0.000416 1574. 1836.
1895(50) 0.000400 1574. 1885.
1878(50) 0.000400 1574. 1897.
1901(50) 0.000400 1574. 1864.
1830(49) 0.000416 1573. 1800.
1732(48) 0.000434 1573. 1734.
1692(47) 0.000453 1573. 1685.
1694(47) 0.000453 1572. 1665.
1731(48) 0.000434 1572. 1674.
1680(47) 0.000453 1572. 1707.
1739(48) 0.000434 1571. 1754.
1779(48) 0.000434 1571. 1797.
1829(49) 0.000416 1571. 1818.
1816(49) 0.000416 1570. 1804.
1722(47) 0.000453 1570. 1761.
1680(47) 0.000453 1570. 1706.
1649(46) 0.000473 1570. 1657.
1630(46) 0.000473 1569. 1623.
1645(46) 0.000473 1569. 1602.
1609(46) 0.000473 1569. 1591.
1576(45) 0.000494 1568. 1587.
1580(45) 0.000494 1568. 1586.
1610(46) 0.000473 1568. 1586.
1657(47) 0.000453 1567. 1587.
1633(46) 0.000473 1567. 1591.
1554(45) 0.000494 1567. 1599.
1647(46) 0.000473 1566. 1617.
1732(48) 0.000434 1566. 1653.
1774(48) 0.000434 1566. 1716.
1906(50) 0.000400 1565. 1813.
1981(51) 0.000384 1565. 1936.
2195(54) 0.0003429 1565. 2059.
2329(55) 0.0003306 1564. 2141.
2337(55) 0.0003306 1564. 2144.
2142(53) 0.000356 1564. 2064.
2003(51) 0.000384 1563. 1937.
1852(49) 0.000416 1563. 1809.
1738(48) 0.000434 1563. 1709.
1657(47) 0.000453 1562. 1644.
1667(47) 0.000453 1562. 1609.
1657(47) 0.000453 1562. 1592.
1605(46) 0.000473 1561. 1583.
1646(46) 0.000473 1561. 1580.
1610(46) 0.000473 1561. 1577.
1597(46) 0.000473 1560. 1576.
1607(46) 0.000473 1560. 1574.
1691(47) 0.000453 1560. 1573.
1664(47) 0.000453 1559. 1573.
1626(46) 0.000473 1559. 1572.
1584(45) 0.000494 1559. 1572.
1620(46) 0.000473 1558. 1572.
1557(45) 0.000494 1558. 1572.
1536(45) 0.000494 1558. 1573.
1591(46) 0.000473 1557. 1574.
1647(46) 0.000473 1557. 1577.
1641(46) 0.000473 1557. 1582.
1628(46) 0.000473 1556. 1594.
1640(46) 0.000473 1556. 1615.
1637(46) 0.000473 1556. 1653.
1669(47) 0.000453 1555. 1708.
1792(48) 0.000434 1555. 1777.
1836(49) 0.000416 1555. 1844.
1926(50) 0.000400 1554. 1888.
1953(51) 0.000384 1554. 1888.
1805(49) 0.000416 1554. 1846.
1823(49) 0.000416 1553. 1784.
1763(48) 0.000434 1553. 1730.
1710(47) 0.000453 1553. 1704.
1753(48) 0.000434 1552. 1714.
1749(48) 0.000434 1552. 1760.
1843(49) 0.000416 1552. 1827.
1929(50) 0.000400 1551. 1893.
1925(50) 0.000400 1551. 1933.
1942(50) 0.000400 1551. 1928.
1841(49) 0.000416 1550. 1886.
1873(50) 0.000400 1550. 1841.
1865(49) 0.000416 1550. 1832.
1910(50) 0.000400 1549. 1893.
2035(52) 0.000370 1549. 2041.
2215(54) 0.0003429 1549. 2271.
2538(58) 0.0002973 1548. 2538.
2810(61) 0.0002687 1548. 2762.
2823(61) 0.0002687 1547. 2851.
2730(60) 0.0002778 1547. 2758.
2434(57) 0.0003078 1547. 2529.
2274(55) 0.0003306 1546. 2263.
2086(52) 0.000370 1546. 2048.
1939(50) 0.000400 1546. 1929.
1901(50) 0.000400 1545. 1909.
1961(51) 0.000384 1545. 1964.
2092(52) 0.000370 1545. 2050.
2064(52) 0.000370 1544. 2117.
2011(51) 0.000384 1544. 2124.
1948(50) 0.000400 1544. 2061.
1884(50) 0.000400 1543. 1961.
1822(49) 0.000416 1543. 1871.
1804(49) 0.000416 1543. 1828.
1887(47) 0.000453 1542. 1851.
2051(49) 0.000416 1542. 1937.
2178(50) 0.000400 1541. 2061.
2285(52) 0.000370 1541. 2178.
2422(53) 0.000356 1541. 2238.
2430(53) 0.000356 1540. 2205.
2264(51) 0.000384 1540. 2095.
2030(49) 0.000416 1540. 1955.
1945(48) 0.000434 1539. 1833.
1771(45) 0.000494 1539. 1757.
1706(45) 0.000494 1539. 1731.
1796(46) 0.000473 1538. 1745.
1800(46) 0.000473 1538. 1777.
1825(46) 0.000473 1537. 1804.
1833(46) 0.000473 1537. 1804.
1839(46) 0.000473 1537. 1772.
1746(45) 0.000494 1536. 1722.
1669(44) 0.000517 1536. 1671.
1584(43) 0.000541 1536. 1634.
1612(43) 0.000541 1535. 1614.
1642(44) 0.000517 1535. 1611.
1668(44) 0.000517 1535. 1618.
1647(44) 0.000517 1534. 1627.
1719(45) 0.000494 1534. 1630.
1637(44) 0.000517 1533. 1623.
1651(44) 0.000517 1533. 1607.
1597(43) 0.000541 1533. 1589.
1583(43) 0.000541 1532. 1572.
1595(43) 0.000541 1532. 1560.
1570(43) 0.000541 1532. 1552.
1537(42) 0.000567 1531. 1548.
1540(42) 0.000567 1531. 1546.
1555(42) 0.000567 1531. 1545.
1511(42) 0.000567 1530. 1545.
1550(42) 0.000567 1530. 1546.
1504(42) 0.000567 1529. 1548.
1547(42) 0.000567 1529. 1553.
1612(43) 0.000541 1529. 1563.
1598(43) 0.000541 1528. 1577.
1565(43) 0.000541 1528. 1595.
1600(43) 0.000541 1528. 1614.
1640(44) 0.000517 1527. 1628.
1567(43) 0.000541 1527. 1634.
1549(42) 0.000567 1526. 1631.
1622(43) 0.000541 1526. 1628.
1585(43) 0.000541 1526. 1637.
1637(44) 0.000517 1525. 1670.
1770(45) 0.000494 1525. 1734.
1796(46) 0.000473 1525. 1825.
1854(46) 0.000473 1524. 1926.
2008(48) 0.000434 1524. 2006.
2029(49) 0.000416 1523. 2031.
1961(48) 0.000434 1523. 1989.
1889(47) 0.000453 1523. 1898.
1764(45) 0.000494 1522. 1793.
1710(45) 0.000494 1522. 1702.
1697(44) 0.000517 1522. 1638.
1662(44) 0.000517 1521. 1602.
1658(44) 0.000517 1521. 1586.
1671(44) 0.000517 1520. 1581.
1614(43) 0.000541 1520. 1581.
1589(43) 0.000541 1520. 1582.
1581(43) 0.000541 1519. 1589.
1639(44) 0.000517 1519. 1608.
1660(44) 0.000517 1519. 1647.
1731(45) 0.000494 1518. 1714.
1791(46) 0.000473 1518. 1809.
1854(46) 0.000473 1517. 1916.
1942(48) 0.000434 1517. 2008.
1942(48) 0.000434 1517. 2051.
1926(47) 0.000453 1516. 2023.
1793(46) 0.000473 1516. 1936.
1749(45) 0.000494 1516. 1826.
1663(44) 0.000517 1515. 1723.
1679(44) 0.000517 1515. 1645.
1629(43) 0.000541 1514. 1594.
1567(43) 0.000541 1514. 1566.
1573(43) 0.000541 1514. 1553.
1524(42) 0.000567 1513. 1549.
1520(42) 0.000567 1513. 1552.
1549(42) 0.000567 1513. 1563.
1692(44) 0.000517 1512. 1587.
1670(44) 0.000517 1512. 1631.
1683(44) 0.000517 1511. 1701.
1801(46) 0.000473 1511. 1794.
1945(48) 0.000434 1511. 1898.
2020(48) 0.000434 1510. 1987.
2168(50) 0.000400 1510. 2029.
2101(49) 0.000416 1509. 2006.
1991(48) 0.000434 1509. 1930.
1860(46) 0.000473 1509. 1838.
1741(45) 0.000494 1508. 1763.
1828(46) 0.000473 1508. 1723.
1747(45) 0.000494 1508. 1720.
1769(45) 0.000494 1507. 1743.
1823(46) 0.000473 1507. 1771.
1801(46) 0.000473 1506. 1781.
1816(46) 0.000473 1506. 1760.
1726(45) 0.000494 1506. 1715.
1654(44) 0.000517 1505. 1661.
1649(42) 0.000567 1505. 1611.
1659(42) 0.000567 1504. 1574.
1549(40) 0.000625 1504. 1549.
1496(40) 0.000625 1504. 1535.
1500(40) 0.000625 1503. 1528.
1544(40) 0.000625 1503. 1525.
1510(40) 0.000625 1503. 1524.
1586(41) 0.000595 1502. 1527.
1547(40) 0.000625 1502. 1533.
1567(41) 0.000595 1501. 1544.
1494(40) 0.000625 1501. 1559.
1587(41) 0.000595 1501. 1579.
1603(41) 0.000595 1500. 1600.
1623(41) 0.000595 1500. 1616.
1721(42) 0.000567 1500. 1623.
1678(42) 0.000567 1499. 1622.
1650(42) 0.000567 1499. 1622.
1627(41) 0.000595 1498. 1634.
1667(42) 0.000567 1498. 1667.
1689(42) 0.000567 1498. 1725.
1841(44) 0.000517 1497. 1801.
1894(44) 0.000517 1497. 1875.
1933(45) 0.000494 1496. 1923.
1895(45) 0.000494 1496. 1924.
1856(44) 0.000517 1496. 1883.
1785(43) 0.000541 1495. 1825.
1785(43) 0.000541 1495. 1781.
1746(43) 0.000541 1494. 1771.
1761(43) 0.000541 1494. 1800.
1810(44) 0.000517 1494. 1852.
1897(45) 0.000494 1493. 1904.
1954(45) 0.000494 1493. 1923.
1901(45) 0.000494 1493. 1895.
1795(43) 0.000541 1492. 1826.
1640(41) 0.000595 1492. 1741.
1591(41) 0.000595 1491. 1662.
1565(41) 0.000595 1491. 1601.
1552(40) 0.000625 1491. 1561.
1558(40) 0.000625 1490. 1537.
1496(40) 0.000625 1490. 1525.
1439(39) 0.000657 1489. 1520.
1551(40) 0.000625 1489. 1520.
1510(40) 0.000625 1489. 1524.
1506(40) 0.000625 1488. 1534.
1512(40) 0.000625 1488. 1552.
1553(40) 0.000625 1488. 1577.
1574(41) 0.000595 1487. 1606.
1579(41) 0.000595 1487. 1631.
1620(41) 0.000595 1486. 1646.
1605(41) 0.000595 1486. 1642.
1590(41) 0.000595 1486. 1623.
1567(41) 0.000595 1485. 1597.
1536(40) 0.000625 1485. 1574.
1552(40) 0.000625 1484. 1560.
1538(40) 0.000625 1484. 1555.
1586(41) 0.000595 1484. 1556.
1493(40) 0.000625 1483. 1560.
1536(40) 0.000625 1483. 1560.
1548(40) 0.000625 1483. 1553.
1489(40) 0.000625 1482. 1543.
1512(40) 0.000625 1482. 1531.
1473(39) 0.000657 1481. 1522.
1473(39) 0.000657 1481. 1517.
1494(40) 0.000625 1481. 1516.
1464(39) 0.000657 1480. 1517.
1441(39) 0.000657 1480. 1517.
1493(40) 0.000625 1480. 1516.
1532(40) 0.000625 1479. 1512.
1547(40) 0.000625 1479. 1507.
1554(40) 0.000625 1478. 1502.
1528(40) 0.000625 1478. 1499.
1458(39) 0.000657 1478. 1496.
1498(40) 0.000625 1477. 1495.
1470(39) 0.000657 1477. 1495.
1503(40) 0.000625 1476. 1496.
1502(40) 0.000625 1476. 1498.
1501(40) 0.000625 1476. 1501.
1480(39) 0.000657 1475. 1506.
1547(40) 0.000625 1475. 1513.
1512(40) 0.000625 1475. 1524.
1534(40) 0.000625 1474. 1535.
1521(40) 0.000625 1474. 1548.
1490(40) 0.000625 1473. 1563.
1545(40) 0.000625 1473. 1582.
1609(41) 0.000595 1473. 1613.
1568(41) 0.000595 1472. 1668.
1715(42) 0.000567 1472. 1758.
1887(44) 0.000517 1472. 1887.
2090(47) 0.000453 1471. 2042.
2282(49) 0.000416 1471. 2195.
2380(50) 0.000400 1470. 2306.
2355(50) 0.000400 1470. 2338.
2319(49) 0.000416 1470. 2293.
2323(49) 0.000416 1469. 2213.
2135(47) 0.000453 1469. 2158.
2170(48) 0.000434 1469. 2167.
2262(49) 0.000416 1468. 2247.
2353(50) 0.000400 1468. 2372.
2467(51) 0.000384 1467. 2484.
2433(50) 0.000400 1467. 2523.
2360(48) 0.000434 1467. 2456.
2166(46) 0.000473 1466. 2306.
2118(46) 0.000473 1466. 2130.
1940(44) 0.000517 1466. 1977.
1866(43) 0.000541 1465. 1873.
1736(41) 0.000595 1465. 1819.
1752(41) 0.000595 1464. 1798.
1741(41) 0.000595 1464. 1785.
1727(41) 0.000595 1464. 1760.
1656(40) 0.000625 1463. 1716.
1617(40) 0.000625 1463. 1664.
1610(40) 0.000625 1463. 1613.
1585(39) 0.000657 1462. 1573.
1497(38) 0.000693 1462. 1545.
1534(39) 0.000657 1461. 1528.
1535(39) 0.000657 1461. 1519.
1546(39) 0.000657 1461. 1515.
1479(38) 0.000693 1460. 1514.
1524(39) 0.000657 1460. 1517.
1489(38) 0.000693 1460. 1526.
1494(38) 0.000693 1459. 1541.
1533(39) 0.000657 1459. 1560.
1589(39) 0.000657 1458. 1581.
1612(40) 0.000625 1458. 1596.
1550(39) 0.000657 1458. 1599.
1569(39) 0.000657 1457. 1590.
1556(39) 0.000657 1457. 1573.
1582(39) 0.000657 1457. 1554.
1514(38) 0.000693 1456. 1541.
1604(40) 0.000625 1456. 1534.
1496(38) 0.000693 1456. 1533.
1559(39) 0.000657 1455. 1534.
1588(39) 0.000657 1455. 1533.
1672(40) 0.000625 1454. 1527.
1644(40) 0.000625 1454. 1518.
1676(40) 0.000625 1454. 1506.
1563(39) 0.000657 1453. 1496.
1577(39) 0.000657 1453. 1488.
1508(38) 0.000693 1453. 1484.
1469(38) 0.000693 1452. 1483.
1537(39) 0.000657 1452. 1487.
1519(39) 0.000657 1452. 1497.
1534(39) 0.000657 1451. 1515.
1535(39) 0.000657 1451. 1544.
1579(39) 0.000657 1450. 1587.
1679(41) 0.000595 1450. 1641.
1742(41) 0.000595 1450. 1700.
1693(41) 0.000595 1449. 1753.
1769(42) 0.000567 1449. 1787.
1817(42) 0.000567 1449. 1797.
1773(42) 0.000567 1448. 1794.
1850(43) 0.000541 1448. 1797.
1841(42) 0.000567 1448. 1826.
1985(44) 0.000517 1447. 1885.
2076(45) 0.000494 1447. 1965.
2140(46) 0.000473 1447. 2042.
2156(46) 0.000473 1446. 2083.
2063(45) 0.000494 1446. 2064.
1989(44) 0.000517 1445. 1990.
1836(42) 0.000567 1445. 1889.
1805(42) 0.000567 1445. 1789.
1656(40) 0.000625 1444. 1709.
1627(40) 0.000625 1444. 1656.
1574(39) 0.000657 1444. 1626.
1511(38) 0.000693 1443. 1607.
1523(39) 0.000657 1443. 1589.
1604(40) 0.000625 1443. 1568.
1522(39) 0.000657 1442. 1545.
1505(38) 0.000693 1442. 1523.
1479(38) 0.000693 1442. 1506.
1485(38) 0.000693 1441. 1495.
1489(38) 0.000693 1441. 1488.
1461(38) 0.000693 1441. 1486.
1508(38) 0.000693 1440. 1487.
1479(38) 0.000693 1440. 1492.
1504(38) 0.000693 1440. 1503.
1528(39) 0.000657 1439. 1520.
1602(40) 0.000625 1439. 1543.
1636(40) 0.000625 1439. 1569.
1700(41) 0.000595 1438. 1592.
1629(40) 0.000625 1438. 1605.
1749(41) 0.000595 1437. 1605.
1581(39) 0.000657 1437. 1591.
1631(40) 0.000625 1437. 1571.
1640(40) 0.000625 1436. 1553.
1586(39) 0.000657 1436. 1541.
1519(39) 0.000657 1436. 1537.
1549(39) 0.000657 1435. 1540.
1589(39) 0.000657 1435. 1548.
1576(39) 0.000657 1435. 1561.
1580(39) 0.000657 1434. 1584.
1590(39) 0.000657 1434. 1623.
1603(40) 0.000625 1434. 1682.
1697(41) 0.000595 1433. 1758.
1843(42) 0.000567 1433. 1840.
1889(43) 0.000541 1433. 1911.
1959(44) 0.000517 1432. 1944.
1875(43) 0.000541 1432. 1925.
1815(42) 0.000567 1432. 1862.
1764(42) 0.000567 1431. 1774.
1677(39) 0.000657 1431. 1684.
1618(38) 0.000693 1431. 1608.
1516(37) 0.000730 1430. 1551.
1475(37) 0.000730 1430. 1516.
1436(36) 0.000772 1430. 1498.
1450(36) 0.000772 1429. 1496.
1508(37) 0.000730 1429. 1505.
1534(37) 0.000730 1429. 1526.
1533(37) 0.000730 1428. 1556.
1598(38) 0.000693 1428. 1592.
1646(39) 0.000657 1428. 1626.
1659(39) 0.000657 1428. 1650.
1659(39) 0.000657 1427. 1659.
1675(39) 0.000657 1427. 1651.
1652(39) 0.000657 1427. 1637.
1609(38) 0.000693 1426. 1627.
1612(38) 0.000693 1426. 1627.
1587(38) 0.000693 1426. 1638.
1608(38) 0.000693 1425. 1657.
1593(38) 0.000693 1425. 1678.
1635(38) 0.000693 1425. 1699.
1665(39) 0.000657 1424. 1724.
1737(40) 0.000625 1424. 1766.
1860(41) 0.000595 1424. 1835.
2030(43) 0.000541 1423. 1931.
2058(43) 0.000541 1423. 2040.
2188(45) 0.000494 1423. 2137.
2262(45) 0.000494 1422. 2187.
2233(45) 0.000494 1422. 2168.
2139(44) 0.000517 1422. 2089.
2035(43) 0.000541 1422. 1979.
1949(42) 0.000567 1421. 1872.
1824(41) 0.000595 1421. 1786.
1759(40) 0.000625 1421. 1727.
1643(39) 0.000657 1420. 1689.
1621(38) 0.000693 1420. 1660.
1564(38) 0.000693 1420. 1629.
1580(38) 0.000693 1419. 1594.
1507(37) 0.000730 1419. 1557.
1449(36) 0.000772 1419. 1523.
1454(36) 0.000772 1418. 1495.
1453(36) 0.000772 1418. 1474.
1425(36) 0.000772 1418. 1459.
1426(36) 0.000772 1418. 1450.
1452(36) 0.000772 1417. 1444.
1428(36) 0.000772 1417. 1441.
1420(36) 0.000772 1417. 1439.
1456(36) 0.000772 1416. 1438.
1488(37) 0.000730 1416. 1438.
1471(36) 0.000772 1416. 1440.
1460(36) 0.000772 1415. 1444.
1502(37) 0.000730 1415. 1451.
1436(36) 0.000772 1415. 1464.
1487(37) 0.000730 1415. 1484.
1500(37) 0.000730 1414. 1511.
1507(37) 0.000730 1414. 1543.
1515(37) 0.000730 1414. 1577.
1571(38) 0.000693 1413. 1605.
1566(38) 0.000693 1413. 1619.
1576(38) 0.000693 1413. 1613.
1521(37) 0.000730 1413. 1590.
1529(37) 0.000730 1412. 1558.
1508(37) 0.000730 1412. 1524.
1511(37) 0.000730 1412. 1495.
1493(37) 0.000730 1411. 1473.
1475(37) 0.000730 1411. 1458.
1406(36) 0.000772 1411. 1451.
1452(36) 0.000772 1411. 1450.
1431(36) 0.000772 1410. 1454.
1475(37) 0.000730 1410. 1463.
1491(37) 0.000730 1410. 1476.
1486(37) 0.000730 1409. 1492.
1518(37) 0.000730 1409. 1510.
1553(37) 0.000730 1409. 1531.
1599(38) 0.000693 1409. 1556.
1600(38) 0.000693 1408. 1589.
1610(38) 0.000693 1408. 1637.
1682(39) 0.000657 1408. 1702.
1722(39) 0.000657 1407. 1782.
1744(40) 0.000625 1407. 1866.
1799(40) 0.000625 1407. 1936.
1849(41) 0.000595 1407. 1970.
1804(40) 0.000625 1406. 1955.
1811(40) 0.000625 1406. 1898.
1726(40) 0.000625 1406. 1818.
1655(39) 0.000657 1406. 1738.
1632(38) 0.000693 1405. 1670.
1624(38) 0.000693 1405. 1620.
1572(38) 0.000693 1405. 1588.
1565(38) 0.000693 1404. 1568.
1588(38) 0.000693 1404. 1556.
1595(38) 0.000693 1404. 1552.
1599(38) 0.000693 1404. 1556.
1542(37) 0.000730 1403. 1567.
1598(38) 0.000693 1403. 1584.
1623(38) 0.000693 1403. 1601.
1610(38) 0.000693 1403. 1612.
1634(38) 0.000693 1402. 1613.
1585(38) 0.000693 1402. 1604.
1580(38) 0.000693 1402. 1593.
1618(53) 0.000356 1402. 1584.
1562(36) 0.000772 1401. 1582.
1529(36) 0.000772 1401. 1586.
1551(36) 0.000772 1401. 1595.
1554(36) 0.000772 1401. 1605.
1538(36) 0.000772 1400. 1615.
1576(36) 0.000772 1400. 1629.
1638(37) 0.000730 1400. 1651.
1625(37) 0.000730 1399. 1684.
1709(38) 0.000693 1399. 1724.
1720(38) 0.000693 1399. 1761.
1737(38) 0.000693 1399. 1782.
1708(38) 0.000693 1398. 1774.
1713(38) 0.000693 1398. 1738.
1698(38) 0.000693 1398. 1683.
1637(37) 0.000730 1398. 1622.
1603(37) 0.000730 1397. 1566.
1557(36) 0.000772 1397. 1520.
1488(35) 0.000816 1397.0 1485.9
1441(35) 0.000816 1396.8 1462.3
1420(35) 0.000816 1396.5 1446.8
1384(34) 0.000865 1396.3 1436.6
1416(34) 0.000865 1396.0 1430.0
1452(35) 0.000816 1395.8 1425.7
1442(35) 0.000816 1395.5 1423.2
1440(35) 0.000816 1395.3 1422.6
1431(35) 0.000816 1395.1 1424.2
1453(35) 0.000816 1394.8 1428.5
1428(35) 0.000816 1394.6 1436.0
1452(35) 0.000816 1394.4 1447.2
1438(35) 0.000816 1394.1 1461.9
1465(35) 0.000816 1393.9 1479.4
1540(36) 0.000772 1394. 1498.
1505(36) 0.000772 1393. 1516.
1509(36) 0.000772 1393. 1531.
1554(36) 0.000772 1393. 1543.
1544(36) 0.000772 1393. 1555.
1563(36) 0.000772 1392. 1572.
1614(37) 0.000730 1392. 1595.
1673(37) 0.000730 1392. 1621.
1745(38) 0.000693 1392. 1647.
1748(38) 0.000693 1392. 1664.
1728(38) 0.000693 1391. 1667.
1737(38) 0.000693 1391. 1656.
1683(38) 0.000693 1391. 1639.
1665(37) 0.000730 1391. 1623.
1687(38) 0.000693 1390. 1613.
1638(37) 0.000730 1390. 1608.
1582(36) 0.000772 1390. 1606.
1583(36) 0.000772 1390. 1602.
1576(36) 0.000772 1390. 1594.
1587(36) 0.000772 1389. 1583.
1573(36) 0.000772 1389. 1574.
1586(36) 0.000772 1389. 1569.
1564(36) 0.000772 1389. 1570.
1574(36) 0.000772 1388. 1574.
1565(36) 0.000772 1388. 1577.
1638(37) 0.000730 1388. 1579.
1569(36) 0.000772 1388. 1578.
1594(37) 0.000730 1388. 1580.
1611(37) 0.000730 1387. 1585.
1626(37) 0.000730 1387. 1595.
1613(37) 0.000730 1387. 1606.
1594(37) 0.000730 1387. 1614.
1610(37) 0.000730 1387. 1610.
1581(36) 0.000772 1386. 1594.
1541(36) 0.000772 1386. 1569.
1493(35) 0.000816 1385.9 1540.8
1479(35) 0.000816 1385.7 1514.8
1501(35) 0.000816 1385.5 1493.7
1462(35) 0.000816 1385.2 1478.9
1466(35) 0.000816 1385.0 1469.9
1460(35) 0.000816 1384.8 1465.9
1478(35) 0.000816 1384.6 1466.6
1537(36) 0.000772 1384. 1472.
1548(36) 0.000772 1384. 1480.
1564(36) 0.000772 1384. 1490.
1550(36) 0.000772 1384. 1500.
1498(35) 0.000816 1383.6 1504.2
1528(36) 0.000772 1383. 1501.
1553(36) 0.000772 1383. 1491.
1546(36) 0.000772 1383. 1476.
1471(35) 0.000816 1382.8 1458.5
1493(35) 0.000816 1382.6 1442.0
1450(35) 0.000816 1382.4 1428.1
1423(35) 0.000816 1382.2 1417.5
1401(34) 0.000865 1382.0 1410.2
1425(35) 0.000816 1381.8 1405.7
1389(34) 0.000865 1381.6 1403.4
1383(34) 0.000865 1381.4 1402.9
1397(34) 0.000865 1381.2 1404.0
1390(34) 0.000865 1381.0 1407.1
1403(34) 0.000865 1380.9 1412.8
1399(34) 0.000865 1380.7 1422.3
1459(35) 0.000816 1380.5 1436.8
1499(35) 0.000816 1380.3 1457.1
1480(35) 0.000816 1380.1 1483.3
1548(36) 0.000772 1380. 1515.
1598(37) 0.000730 1380. 1548.
1619(37) 0.000730 1380. 1581.
1628(37) 0.000730 1379. 1608.
1630(37) 0.000730 1379. 1627.
1652(37) 0.000730 1379. 1639.
1664(37) 0.000730 1379. 1650.
1621(37) 0.000730 1379. 1663.
1645(37) 0.000730 1378. 1680.
1702(38) 0.000693 1378. 1697.
1706(38) 0.000693 1378. 1707.
1670(38) 0.000693 1378. 1703.
1581(37) 0.000730 1378. 1682.
1606(37) 0.000730 1377. 1648.
1644(37) 0.000730 1377. 1609.
1573(36) 0.000772 1377. 1570.
1498(36) 0.000772 1377. 1537.
1555(36) 0.000772 1377. 1510.
1511(36) 0.000772 1377. 1489.
1477(35) 0.000816 1376.4 1471.3
1485(35) 0.000816 1376.2 1456.8
1439(35) 0.000816 1376.1 1444.7
1449(35) 0.000816 1375.9 1435.0
1434(35) 0.000816 1375.7 1427.6
1390(34) 0.000865 1375.5 1422.4
1430(35) 0.000816 1375.4 1418.9
1411(35) 0.000816 1375.2 1416.8
1396(34) 0.000865 1375.0 1415.9
1403(34) 0.000865 1374.9 1416.3
1408(35) 0.000816 1374.7 1417.9
1400(34) 0.000865 1374.5 1420.4
1473(35) 0.000816 1374.3 1423.5
1474(35) 0.000816 1374.2 1426.7
1443(35) 0.000816 1374.0 1429.6
1508(36) 0.000772 1374. 1432.
1475(35) 0.000816 1373.7 1435.0
1478(35) 0.000816 1373.5 1438.4
1504(36) 0.000772 1373. 1443.
1521(36) 0.000772 1373. 1447.
1512(36) 0.000772 1373. 1449.
1472(35) 0.000816 1372.8 1449.0
1503(36) 0.000772 1373. 1445.
1461(35) 0.000816 1372.5 1439.1
1441(35) 0.000816 1372.3 1431.5
1388(34) 0.000865 1372.2 1424.1
1388(34) 0.000865 1372.0 1417.7
1400(34) 0.000865 1371.8 1413.2
1372(34) 0.000865 1371.7 1410.9
1415(35) 0.000816 1371.5 1411.0
1384(34) 0.000865 1371.4 1414.0
1406(34) 0.000865 1371.2 1420.7
1420(35) 0.000816 1371.0 1433.0
1427(35) 0.000816 1370.9 1453.9
1471(35) 0.000816 1370.7 1487.5
1499(36) 0.000772 1371. 1539.
1549(36) 0.000772 1370. 1614.
1705(38) 0.000693 1370. 1714.
1828(39) 0.000657 1370. 1838.
1989(41) 0.000595 1370. 1978.
2088(42) 0.000567 1370. 2120.
2254(44) 0.000517 1370. 2242.
2354(44) 0.000517 1369. 2319.
2292(44) 0.000517 1369. 2332.
2244(43) 0.000541 1369. 2281.
2209(43) 0.000541 1369. 2184.
2069(42) 0.000567 1369. 2067.
2012(41) 0.000595 1369. 1951.
1898(40) 0.000625 1369. 1849.
1770(39) 0.000657 1368. 1766.
1730(38) 0.000693 1368. 1704.
1688(38) 0.000693 1368. 1658.
1670(38) 0.000693 1368. 1626.
1628(37) 0.000730 1368. 1606.
1677(38) 0.000693 1368. 1595.
1611(37) 0.000730 1367. 1589.
1600(37) 0.000730 1367. 1583.
1598(37) 0.000730 1367. 1573.
1561(36) 0.000772 1367. 1557.
1588(37) 0.000730 1367. 1535.
1536(36) 0.000772 1367. 1511.
1536(36) 0.000772 1367. 1488.
1507(36) 0.000772 1366. 1470.
1481(35) 0.000816 1366.3 1459.9
1485(35) 0.000816 1366.1 1458.2
1450(35) 0.000816 1366.0 1465.9
1498(36) 0.000772 1366. 1482.
1513(36) 0.000772 1366. 1506.
1528(36) 0.000772 1366. 1535.
1573(36) 0.000772 1365. 1563.
1581(37) 0.000730 1365. 1587.
1591(37) 0.000730 1365. 1599.
1606(37) 0.000730 1365. 1599.
1580(37) 0.000730 1365. 1585.
1537(36) 0.000772 1365. 1564.
1536(36) 0.000772 1365. 1539.
1519(36) 0.000772 1364. 1515.
1510(36) 0.000772 1364. 1494.
1499(36) 0.000772 1364. 1475.
1462(35) 0.000816 1364.0 1458.4
1433(35) 0.000816 1363.9 1443.4
1486(35) 0.000816 1363.7 1430.0
1437(35) 0.000816 1363.6 1418.4
1342(34) 0.000865 1363.4 1408.7
1418(28) 0.001276 1363.3 1401.0
1354(34) 0.000865 1363.2 1395.4
1353(34) 0.000865 1363.0 1391.7
1327(34) 0.000865 1362.9 1389.9
1365(34) 0.000865 1362.7 1389.7
1394(34) 0.000865 1362.6 1391.4
1410(35) 0.000816 1362.5 1395.3
1438(35) 0.000816 1362.3 1401.3
1414(35) 0.000816 1362.2 1410.2
1448(35) 0.000816 1362.0 1422.6
1427(35) 0.000816 1361.9 1438.9
1480(35) 0.000816 1361.8 1458.9
1452(35) 0.000816 1361.6 1482.1
1509(36) 0.000772 1361. 1507.
1528(36) 0.000772 1361. 1530.
1574(36) 0.000772 1361. 1550.
1553(36) 0.000772 1361. 1562.
1544(36) 0.000772 1361. 1567.
1515(36) 0.000772 1361. 1567.
1511(36) 0.000772 1361. 1565.
1537(36) 0.000772 1361. 1564.
1596(37) 0.000730 1360. 1563.
1542(36) 0.000772 1360. 1562.
1531(36) 0.000772 1360. 1561.
1582(36) 0.000772 1360. 1557.
1532(36) 0.000772 1360. 1552.
1501(36) 0.000772 1360. 1549.
1529(36) 0.000772 1360. 1546.
1553(36) 0.000772 1359. 1545.
1576(36) 0.000772 1359. 1543.
1653(37) 0.000730 1359. 1539.
1585(37) 0.000730 1359. 1532.
1580(36) 0.000772 1359. 1522.
1585(37) 0.000730 1359. 1511.
1542(36) 0.000772 1359. 1501.
1526(36) 0.000772 1359. 1491.
1542(36) 0.000772 1358. 1482.
1520(36) 0.000772 1358. 1472.
1489(35) 0.000816 1358.1 1461.5
1460(35) 0.000816 1358.0 1449.7
1454(35) 0.000816 1357.9 1438.0
1447(35) 0.000816 1357.7 1427.3
1439(35) 0.000816 1357.6 1418.5
1410(35) 0.000816 1357.5 1412.5
1417(35) 0.000816 1357.3 1409.4
1469(35) 0.000816 1357.2 1409.4
1436(35) 0.000816 1357.1 1412.1
1424(35) 0.000816 1356.9 1417.1
1432(35) 0.000816 1356.8 1423.4
1417(35) 0.000816 1356.7 1429.9
1416(35) 0.000816 1356.6 1435.0
1419(35) 0.000816 1356.4 1437.6
1456(35) 0.000816 1356.3 1436.7
1378(34) 0.000865 1356.2 1433.0
1389(34) 0.000865 1356.0 1427.7
1393(34) 0.000865 1355.9 1422.7
1417(35) 0.000816 1355.8 1419.6
1393(34) 0.000865 1355.6 1419.8
1404(34) 0.000865 1355.5 1424.4
1388(34) 0.000865 1355.4 1434.2
1409(34) 0.000865 1355.2 1449.2
1423(35) 0.000816 1355.1 1469.1
1478(35) 0.000816 1355.0 1492.6
1507(36) 0.000772 1355. 1518.
1534(36) 0.000772 1355. 1544.
1495(36) 0.000772 1355. 1568.
1532(36) 0.000772 1354. 1589.
1537(36) 0.000772 1354. 1607.
1587(37) 0.000730 1354. 1626.
1581(36) 0.000772 1354. 1648.
1565(36) 0.000772 1354. 1673.
1598(37) 0.000730 1354. 1701.
1644(37) 0.000730 1354. 1731.
1701(38) 0.000693 1354. 1762.
1702(38) 0.000693 1353. 1793.
1759(38) 0.000693 1353. 1826.
1840(39) 0.000657 1353. 1859.
1863(40) 0.000625 1353. 1890.
1906(40) 0.000625 1353. 1912.
1848(39) 0.000657 1353. 1915.
1846(39) 0.000657 1353. 1895.
1871(40) 0.000625 1352. 1850.
1760(38) 0.000693 1352. 1790.
1748(38) 0.000693 1352. 1721.
1691(38) 0.000693 1352. 1653.
1647(37) 0.000730 1352. 1591.
1550(36) 0.000772 1352. 1538.
1522(36) 0.000772 1352. 1495.
1497(36) 0.000772 1352. 1463.
1445(35) 0.000816 1351.4 1438.6
1437(35) 0.000816 1351.3 1421.8
1384(34) 0.000865 1351.1 1410.5
1398(34) 0.000865 1351.0 1403.5
1425(35) 0.000816 1350.9 1399.6
1392(34) 0.000865 1350.7 1398.4
1434(35) 0.000816 1350.6 1399.3
1410(35) 0.000816 1350.5 1402.3
1401(34) 0.000865 1350.3 1407.2
1445(35) 0.000816 1350.2 1414.1
1425(35) 0.000816 1350.1 1422.9
1434(48) 0.000434 1350. 1434.
1474(34) 0.000865 1349.8 1446.2
1468(34) 0.000865 1349.7 1460.5
1535(35) 0.000816 1349.5 1476.3
1495(34) 0.000865 1349.4 1492.8
1486(34) 0.000865 1349.3 1508.4
1539(35) 0.000816 1349.1 1521.3
1565(35) 0.000816 1349.0 1528.9
1491(34) 0.000865 1348.8 1530.0
1534(35) 0.000816 1348.7 1525.5
1503(34) 0.000865 1348.6 1518.4
1452(34) 0.000865 1348.4 1512.9
1483(34) 0.000865 1348.3 1513.4
1473(34) 0.000865 1348.2 1523.9
1544(35) 0.000816 1348.0 1547.6
1559(35) 0.000816 1347.9 1586.1
1640(36) 0.000772 1348. 1639.
1716(37) 0.000730 1348. 1704.
1805(38) 0.000693 1347. 1776.
1795(38) 0.000693 1347. 1846.
1890(39) 0.000657 1347. 1906.
1942(39) 0.000657 1347. 1945.
1943(39) 0.000657 1347. 1956.
1934(39) 0.000657 1347. 1939.
1897(39) 0.000657 1347. 1901.
1826(38) 0.000693 1346. 1852.
1797(38) 0.000693 1346. 1801.
1740(37) 0.000730 1346. 1753.
1642(36) 0.000772 1346. 1714.
1591(35) 0.000816 1345.9 1682.9
1602(35) 0.000816 1345.8 1661.6
1639(36) 0.000772 1346. 1650.
1606(36) 0.000772 1345. 1648.
1649(36) 0.000772 1345. 1653.
1648(36) 0.000772 1345. 1664.
1708(37) 0.000730 1345. 1677.
1675(36) 0.000772 1345. 1690.
1754(37) 0.000730 1345. 1702.
1752(37) 0.000730 1345. 1713.
1744(37) 0.000730 1344. 1724.
1638(36) 0.000772 1344. 1733.
1656(36) 0.000772 1344. 1738.
1645(36) 0.000772 1344. 1734.
1714(37) 0.000730 1344. 1719.
1704(37) 0.000730 1344. 1693.
1669(36) 0.000772 1344. 1659.
1623(36) 0.000772 1343. 1621.
1564(35) 0.000816 1343.3 1584.3
1550(35) 0.000816 1343.2 1550.2
1514(35) 0.000816 1343.0 1520.3
1505(34) 0.000865 1342.9 1495.3
1496(34) 0.000865 1342.7 1475.2
1527(35) 0.000816 1342.6 1459.7
1493(34) 0.000865 1342.4 1448.3
1433(34) 0.000865 1342.3 1440.1
1434(34) 0.000865 1342.1 1434.3
1397(33) 0.000918 1341.9 1429.7
1447(34) 0.000865 1341.8 1425.5
1494(34) 0.000865 1341.6 1421.5
1468(34) 0.000865 1341.5 1417.6
1450(34) 0.000865 1341.3 1414.0
1399(33) 0.000918 1341.2 1410.5
1439(34) 0.000865 1341.0 1407.1
1439(34) 0.000865 1340.9 1403.4
1430(34) 0.000865 1340.7 1399.3
1433(34) 0.000865 1340.6 1394.8
1439(34) 0.000865 1340.4 1390.2
1465(34) 0.000865 1340.2 1385.9
1357(33) 0.000918 1340.1 1382.3
1417(33) 0.000918 1339.9 1379.6
1381(33) 0.000918 1339.8 1378.2
1430(34) 0.000865 1339.6 1378.5
1456(34) 0.000865 1339.5 1380.6
1359(33) 0.000918 1339.3 1385.0
1391(33) 0.000918 1339.1 1392.1
1422(33) 0.000918 1339.0 1402.6
1425(33) 0.000918 1338.8 1416.8
1454(34) 0.000865 1338.7 1435.4
1478(34) 0.000865 1338.5 1458.6
1610(36) 0.000772 1338. 1486.
1576(35) 0.000816 1338.2 1518.4
1617(36) 0.000772 1338. 1554.
1664(36) 0.000772 1338. 1590.
1650(36) 0.000772 1338. 1626.
1718(37) 0.000730 1338. 1659.
1822(38) 0.000693 1337. 1687.
1793(38) 0.000693 1337. 1711.
1800(38) 0.000693 1337. 1731.
1784(37) 0.000730 1337. 1748.
1839(38) 0.000693 1337. 1763.
1784(37) 0.000730 1337. 1772.
1780(37) 0.000730 1336. 1773.
1701(37) 0.000730 1336. 1764.
1732(37) 0.000730 1336. 1748.
1775(37) 0.000730 1336. 1725.
1748(37) 0.000730 1336. 1699.
1732(37) 0.000730 1335. 1672.
1658(36) 0.000772 1335. 1644.
1656(36) 0.000772 1335. 1616.
1620(36) 0.000772 1335. 1586.
1546(35) 0.000816 1334.8 1555.2
1536(35) 0.000816 1334.6 1526.2
1459(34) 0.000865 1334.5 1500.4
1457(34) 0.000865 1334.3 1479.2
1461(34) 0.000865 1334.1 1463.9
1503(34) 0.000865 1333.9 1454.7
1465(34) 0.000865 1333.7 1451.8
1475(34) 0.000865 1333.6 1454.2
1494(34) 0.000865 1333.4 1460.7
1510(34) 0.000865 1333.2 1469.5
1441(34) 0.000865 1333.0 1478.3
1456(34) 0.000865 1332.9 1484.6
1460(34) 0.000865 1332.7 1486.3
1465(34) 0.000865 1332.5 1482.5
1412(33) 0.000918 1332.3 1473.6
1410(33) 0.000918 1332.1 1460.9
1440(34) 0.000865 1332.0 1446.4
1464(34) 0.000865 1331.8 1431.7
1407(33) 0.000918 1331.6 1418.0
1419(33) 0.000918 1331.4 1406.3
1360(33) 0.000918 1331.2 1397.3
1399(33) 0.000918 1331.0 1391.4
1381(33) 0.000918 1330.8 1388.9
1411(33) 0.000918 1330.7 1390.2
1365(33) 0.000918 1330.5 1395.3
1381(33) 0.000918 1330.3 1404.4
1374(33) 0.000918 1330.1 1417.7
1414(33) 0.000918 1329.9 1434.6
1443(34) 0.000865 1329.7 1454.6
1460(34) 0.000865 1329.5 1476.9
1514(34) 0.000865 1329.3 1500.1
1580(35) 0.000816 1329.1 1522.4
1606(35) 0.000816 1328.9 1542.0
1591(35) 0.000816 1328.8 1557.6
1664(36) 0.000772 1329. 1569.
1586(35) 0.000816 1328.4 1576.5
1632(36) 0.000772 1328. 1583.
1714(37) 0.000730 1328. 1591.
1673(36) 0.000772 1328. 1601.
1674(36) 0.000772 1328. 1614.
1635(36) 0.000772 1327. 1629.
1639(36) 0.000772 1327. 1648.
1716(37) 0.000730 1327. 1668.
1737(37) 0.000730 1327. 1689.
1636(36) 0.000772 1327. 1708.
1658(36) 0.000772 1326. 1723.
1663(36) 0.000772 1326. 1729.
1752(37) 0.000730 1326. 1725.
1614(36) 0.000772 1326. 1710.
1662(36) 0.000772 1326. 1687.
1631(36) 0.000772 1325. 1661.
1590(35) 0.000816 1325.2 1636.7
1618(36) 0.000772 1325. 1619.
1578(35) 0.000816 1324.8 1611.5
1583(35) 0.000816 1324.6 1615.1
1633(36) 0.000772 1324. 1630.
1600(35) 0.000816 1324.1 1654.4
1682(36) 0.000772 1324. 1685.
1693(36) 0.000772 1324. 1717.
1752(37) 0.000730 1324. 1743.
1659(36) 0.000772 1323. 1760.
1736(37) 0.000730 1323. 1761.
1777(37) 0.000730 1323. 1747.
1752(37) 0.000730 1323. 1719.
1730(37) 0.000730 1322. 1683.
1695(36) 0.000772 1322. 1642.
1597(35) 0.000816 1322.0 1601.3
1602(35) 0.000816 1321.8 1562.8
1565(35) 0.000816 1321.6 1528.6
1465(34) 0.000865 1321.4 1499.6
1472(34) 0.000865 1321.2 1476.0
1476(34) 0.000865 1320.9 1457.6
1412(33) 0.000918 1320.7 1443.5
1446(34) 0.000865 1320.5 1432.6
1467(34) 0.000865 1320.3 1423.9
1437(34) 0.000865 1320.1 1416.3
1436(34) 0.000865 1319.9 1409.6
1424(33) 0.000918 1319.6 1403.8
1384(33) 0.000918 1319.4 1399.3
1403(33) 0.000918 1319.2 1396.7
1421(33) 0.000918 1319.0 1396.4
1468(34) 0.000865 1318.7 1398.6
1405(33) 0.000918 1318.5 1403.6
1402(33) 0.000918 1318.3 1411.0
1452(34) 0.000865 1318.1 1420.5
1525(35) 0.000816 1317.8 1431.3
1512(34) 0.000865 1317.6 1442.5
1509(34) 0.000865 1317.4 1452.9
1444(34) 0.000865 1317.2 1461.4
1524(35) 0.000816 1316.9 1467.6
1489(34) 0.000865 1316.7 1471.5
1472(34) 0.000865 1316.5 1474.0
1544(35) 0.000816 1316.2 1476.2
1443(34) 0.000865 1316.0 1479.1
1501(34) 0.000865 1315.8 1483.6
1513(34) 0.000865 1315.5 1490.3
1547(35) 0.000816 1315.3 1499.7
1500(34) 0.000865 1315.1 1512.6
1535(35) 0.000816 1314.8 1529.5
1496(34) 0.000865 1314.6 1550.9
1541(35) 0.000816 1314.4 1576.6
1558(36) 0.000772 1314. 1606.
1690(38) 0.000693 1314. 1638.
1795(39) 0.000657 1314. 1672.
1739(38) 0.000693 1313. 1706.
1853(39) 0.000657 1313. 1739.
1884(40) 0.000625 1313. 1768.
1930(40) 0.000625 1313. 1792.
1890(40) 0.000625 1312. 1806.
1923(40) 0.000625 1312. 1807.
1886(40) 0.000625 1312. 1794.
1853(39) 0.000657 1312. 1769.
1827(39) 0.000657 1311. 1735.
1753(38) 0.000693 1311. 1698.
1706(38) 0.000693 1311. 1663.
1612(37) 0.000730 1311. 1632.
1551(36) 0.000772 1310. 1609.
1570(36) 0.000772 1310. 1595.
1595(37) 0.000730 1310. 1588.
1502(35) 0.000816 1309.7 1589.4
1518(36) 0.000772 1309. 1595.
1563(36) 0.000772 1309. 1602.
1606(37) 0.000730 1309. 1606.
1566(36) 0.000772 1309. 1605.
1583(36) 0.000772 1308. 1598.
1595(37) 0.000730 1308. 1583.
1491(35) 0.000816 1308.0 1562.3
1556(36) 0.000772 1308. 1538.
1556(36) 0.000772 1307. 1513.
1486(35) 0.000816 1307.2 1487.3
1471(35) 0.000816 1307.0 1463.1
1521(36) 0.000772 1307. 1441.
1458(35) 0.000816 1306.4 1421.4
1416(34) 0.000865 1306.2 1405.1
1406(34) 0.000865 1305.9 1392.1
1380(34) 0.000865 1305.7 1382.4
1295(33) 0.000918 1305.4 1376.0
1327(33) 0.000918 1305.2 1372.5
1365(34) 0.000865 1304.9 1371.6
1371(34) 0.000865 1304.6 1373.0
1319(33) 0.000918 1304.4 1376.2
1354(34) 0.000865 1304.1 1380.8
1357(34) 0.000865 1303.8 1386.2
1373(34) 0.000865 1303.6 1391.9
1415(34) 0.000865 1303.3 1397.4
1379(34) 0.000865 1303.1 1402.6
1346(34) 0.000865 1302.8 1407.3
1399(34) 0.000865 1302.5 1411.6
1392(34) 0.000865 1302.3 1415.8
1391(34) 0.000865 1302.0 1419.8
1365(34) 0.000865 1301.7 1423.6
1421(35) 0.000816 1301.5 1427.1
1383(34) 0.000865 1301.2 1430.7
1414(34) 0.000865 1300.9 1435.0
1459(35) 0.000816 1300.6 1440.6
1502(35) 0.000816 1300.4 1448.1
1480(35) 0.000816 1300.1 1458.1
1499(35) 0.000816 1299.8 1470.6
1514(36) 0.000772 1300. 1486.
1514(36) 0.000772 1299. 1503.
1556(36) 0.000772 1299. 1522.
1569(36) 0.000772 1299. 1543.
1583(36) 0.000772 1298. 1564.
1546(36) 0.000772 1298. 1584.
1608(37) 0.000730 1298. 1601.
1594(37) 0.000730 1298. 1614.
1641(37) 0.000730 1297. 1622.
1577(36) 0.000772 1297. 1626.
1626(37) 0.000730 1297. 1627.
1578(36) 0.000772 1297. 1626.
1521(36) 0.000772 1296. 1622.
1627(37) 0.000730 1296. 1617.
1531(36) 0.000772 1296. 1610.
1514(36) 0.000772 1295. 1600.
1527(36) 0.000772 1295. 1590.
1581(36) 0.000772 1295. 1579.
1528(36) 0.000772 1295. 1568.
1505(36) 0.000772 1294. 1557.
1500(35) 0.000816 1294.0 1546.7
1456(35) 0.000816 1293.7 1535.4
1568(36) 0.000772 1293. 1523.
1519(36) 0.000772 1293. 1511.
1519(36) 0.000772 1293. 1498.
1538(36) 0.000772 1293. 1485.
1510(36) 0.000772 1292. 1472.
1445(35) 0.000816 1292.0 1459.0
1425(35) 0.000816 1291.7 1444.9
1444(35) 0.000816 1291.5 1430.2
1425(35) 0.000816 1291.2 1415.2
1351(34) 0.000865 1290.9 1400.5
1344(34) 0.000865 1290.6 1386.6
1370(34) 0.000865 1290.3 1374.1
1334(33) 0.000918 1290.0 1363.4
1332(33) 0.000918 1289.7 1354.7
1371(34) 0.000865 1289.4 1348.1
1324(33) 0.000918 1289.2 1343.8
1342(34) 0.000865 1288.9 1341.8
1348(34) 0.000865 1288.6 1342.2
1267(33) 0.000918 1288.3 1345.0
1264(33) 0.000918 1288.0 1350.3
1257(33) 0.000918 1287.7 1358.0
1296(33) 0.000918 1287.4 1368.2
1378(34) 0.000865 1287.1 1380.8
1359(34) 0.000865 1286.8 1395.7
1409(35) 0.000816 1286.5 1412.9
1425(35) 0.000816 1286.2 1431.8
1469(35) 0.000816 1285.9 1452.1
1451(35) 0.000816 1285.6 1472.9
1470(35) 0.000816 1285.4 1493.8
1518(36) 0.000772 1285. 1514.
1534(36) 0.000772 1285. 1533.
1589(37) 0.000730 1284. 1550.
1535(36) 0.000772 1284. 1563.
1626(37) 0.000730 1284. 1570.
1559(36) 0.000772 1284. 1572.
1574(37) 0.000730 1283. 1567.
1558(36) 0.000772 1283. 1557.
1576(37) 0.000730 1283. 1543.
1505(36) 0.000772 1282. 1526.
1517(36) 0.000772 1282. 1507.
1452(35) 0.000816 1281.8 1487.4
1435(35) 0.000816 1281.5 1467.8
1382(34) 0.000865 1281.2 1448.7
1456(35) 0.000816 1280.9 1430.9
1405(35) 0.000816 1280.6 1415.3
1358(34) 0.000865 1280.3 1402.4
1386(34) 0.000865 1280.0 1392.6
1413(35) 0.000816 1279.7 1386.0
1337(34) 0.000865 1279.4 1382.7
1401(34) 0.000865 1279.1 1382.4
1442(35) 0.000816 1278.8 1384.6
1377(34) 0.000865 1278.5 1388.8
1387(34) 0.000865 1278.2 1394.3
1471(35) 0.000816 1277.9 1400.2
1448(35) 0.000816 1277.6 1405.8
1462(35) 0.000816 1277.3 1410.5
1429(35) 0.000816 1277.0 1413.8
1497(36) 0.000772 1277. 1416.
1493(36) 0.000772 1276. 1416.
1415(35) 0.000816 1276.1 1416.1
1424(35) 0.000816 1275.8 1414.7
1469(35) 0.000816 1275.5 1412.4
1375(34) 0.000865 1275.2 1409.5
1423(35) 0.000816 1274.9 1406.6
1414(35) 0.000816 1274.6 1404.4
1346(34) 0.000865 1274.3 1403.8
1369(34) 0.000865 1273.9 1405.7
1345(34) 0.000865 1273.6 1411.1
1352(34) 0.000865 1273.3 1420.4
1390(34) 0.000865 1273.0 1434.3
1429(35) 0.000816 1272.7 1452.8
1344(34) 0.000865 1272.4 1476.0
1360(34) 0.000865 1272.1 1503.4
1469(35) 0.000816 1271.8 1534.4
1474(35) 0.000816 1271.5 1567.9
1476(35) 0.000816 1271.2 1602.7
1550(36) 0.000772 1271. 1638.
1594(37) 0.000730 1271. 1672.
1615(37) 0.000730 1270. 1704.
1685(38) 0.000693 1270. 1734.
1745(38) 0.000693 1270. 1760.
1696(38) 0.000693 1269. 1781.
1747(39) 0.000657 1269. 1795.
1825(39) 0.000657 1269. 1800.
1844(40) 0.000625 1268. 1798.
1792(39) 0.000657 1268. 1787.
1764(39) 0.000657 1268. 1771.
1768(39) 0.000657 1268. 1750.
1758(39) 0.000657 1267. 1725.
1704(38) 0.000693 1267. 1698.
1660(38) 0.000693 1267. 1668.
1641(37) 0.000730 1266. 1638.
1664(38) 0.000693 1266. 1608.
1626(37) 0.000730 1266. 1579.
1600(37) 0.000730 1265. 1554.
1529(36) 0.000772 1265. 1532.
1559(36) 0.000772 1265. 1514.
1525(36) 0.000772 1264. 1501.
1524(36) 0.000772 1264. 1492.
1489(36) 0.000772 1264. 1486.
1425(35) 0.000816 1263.6 1483.8
1526(36) 0.000772 1263. 1484.
1456(35) 0.000816 1262.9 1485.0
1471(35) 0.000816 1262.6 1486.3
1501(36) 0.000772 1262. 1487.
1491(36) 0.000772 1262. 1486.
1435(35) 0.000816 1261.7 1483.4
1461(35) 0.000816 1261.4 1479.5
1482(35) 0.000816 1261.1 1474.3
1459(35) 0.000816 1260.8 1468.1
1471(35) 0.000816 1260.5 1460.7
1451(35) 0.000816 1260.2 1452.2
1378(34) 0.000865 1259.9 1442.8
1381(34) 0.000865 1259.6 1432.6
1432(35) 0.000816 1259.3 1422.2
1452(35) 0.000816 1259.0 1411.7
1419(35) 0.000816 1258.7 1401.4
1366(34) 0.000865 1258.4 1391.4
1389(34) 0.000865 1258.1 1381.7
1395(34) 0.000865 1257.8 1372.6
1397(34) 0.000865 1257.5 1364.1
1359(32) 0.000977 1257.2 1356.6
1329(32) 0.000977 1256.9 1350.5
1378(33) 0.000918 1256.6 1345.9
1355(32) 0.000977 1256.3 1343.1
1338(32) 0.000977 1256.0 1342.1
1325(32) 0.000977 1255.7 1342.9
1353(32) 0.000977 1255.4 1345.4
1376(33) 0.000918 1255.0 1349.4
1342(32) 0.000977 1254.7 1354.6
1419(33) 0.000918 1254.4 1360.7
1485(34) 0.000865 1254.1 1367.5
1473(34) 0.000865 1253.8 1374.5
1396(33) 0.000918 1253.5 1381.8
1464(34) 0.000865 1253.2 1389.3
1396(33) 0.000918 1252.9 1397.4
1539(35) 0.000816 1252.6 1406.1
1518(34) 0.000865 1252.3 1415.6
1518(34) 0.000865 1252.0 1426.0
1496(34) 0.000865 1251.8 1437.3
1528(34) 0.000865 1251.5 1449.1
1473(34) 0.000865 1251.2 1461.5
1534(35) 0.000816 1250.9 1474.1
1538(35) 0.000816 1250.6 1486.7
1563(35) 0.000816 1250.3 1498.7
1496(34) 0.000865 1250.0 1509.5
1521(34) 0.000865 1249.7 1518.5
1524(34) 0.000865 1249.4 1525.1
1531(34) 0.000865 1249.1 1529.5
1564(35) 0.000816 1248.8 1531.9
1489(34) 0.000865 1248.5 1532.8
1552(35) 0.000816 1248.2 1532.5
1502(34) 0.000865 1247.9 1531.3
1481(34) 0.000865 1247.6 1529.3
1499(34) 0.000865 1247.3 1526.5
1506(34) 0.000865 1247.0 1523.2
1486(34) 0.000865 1246.7 1519.6
1484(34) 0.000865 1246.4 1516.2
1491(34) 0.000865 1246.2 1513.0
1478(34) 0.000865 1245.9 1510.0
1471(34) 0.000865 1245.6 1507.1
1478(34) 0.000865 1245.3 1504.1
1483(34) 0.000865 1245.0 1501.0
1500(34) 0.000865 1244.7 1497.9
1481(34) 0.000865 1244.4 1494.9
1466(34) 0.000865 1244.1 1492.1
1489(34) 0.000865 1243.8 1489.5
1447(33) 0.000918 1243.6 1486.8
1513(34) 0.000865 1243.3 1483.8
1535(35) 0.000816 1243.0 1480.4
1522(34) 0.000865 1242.7 1476.7
1486(34) 0.000865 1242.4 1472.8
1462(34) 0.000865 1242.1 1468.7
1444(33) 0.000918 1241.9 1464.6
1437(33) 0.000918 1241.6 1460.6
1439(33) 0.000918 1241.3 1456.7
1388(33) 0.000918 1241.0 1453.6
1451(34) 0.000865 1240.7 1451.7
1457(34) 0.000865 1240.4 1452.2
1502(34) 0.000865 1240.2 1455.6
1413(33) 0.000918 1239.9 1462.7
1486(34) 0.000865 1239.6 1474.0
1478(34) 0.000865 1239.3 1489.7
1491(34) 0.000865 1239.1 1509.5
1524(34) 0.000865 1238.8 1532.8
1567(35) 0.000816 1238.5 1558.8
1525(34) 0.000865 1238.2 1586.0
1571(35) 0.000816 1237.9 1612.9
1567(35) 0.000816 1237.7 1637.6
1602(35) 0.000816 1237.4 1658.7
1603(35) 0.000816 1237.1 1675.0
1625(36) 0.000772 1237. 1686.
1608(35) 0.000816 1236.6 1691.9
1634(36) 0.000772 1236. 1693.
1683(36) 0.000772 1236. 1689.
1633(36) 0.000772 1236. 1681.
1586(35) 0.000816 1235.5 1668.6
1587(35) 0.000816 1235.2 1652.2
1599(35) 0.000816 1235.0 1632.7
1592(35) 0.000816 1234.7 1611.1
1535(35) 0.000816 1234.4 1588.4
1564(35) 0.000816 1234.2 1565.9
1560(35) 0.000816 1233.9 1544.0
1432(33) 0.000918 1233.6 1523.5
1476(34) 0.000865 1233.4 1504.6
1490(34) 0.000865 1233.1 1487.6
1442(33) 0.000918 1232.9 1472.6
1467(34) 0.000865 1232.6 1459.9
1483(34) 0.000865 1232.3 1449.1
1416(33) 0.000918 1232.1 1440.2
1417(33) 0.000918 1231.8 1432.8
1490(34) 0.000865 1231.6 1426.5
1448(34) 0.000865 1231.3 1420.9
1447(33) 0.000918 1231.1 1415.7
1401(33) 0.000918 1230.8 1410.6
1451(34) 0.000865 1230.6 1405.5
1452(34) 0.000865 1230.3 1399.9
1421(33) 0.000918 1230.1 1393.7
1447(34) 0.000865 1229.8 1386.6
1424(33) 0.000918 1229.5 1378.5
1397(45) 0.000494 1229. 1370.
1371(32) 0.000977 1229.1 1360.3
1381(32) 0.000977 1228.8 1350.8
1359(32) 0.000977 1228.6 1341.6
1342(32) 0.000977 1228.3 1332.8
1346(32) 0.000977 1228.1 1324.8
1324(32) 0.000977 1227.8 1317.6
1319(32) 0.000977 1227.6 1311.4
1303(31) 0.001041 1227.3 1306.0
1320(32) 0.000977 1227.1 1301.7
1304(31) 0.001041 1226.9 1298.1
1331(32) 0.000977 1226.6 1295.4
1314(32) 0.000977 1226.4 1293.4
1288(31) 0.001041 1226.1 1292.0
1273(31) 0.001041 1225.9 1291.3
1298(31) 0.001041 1225.7 1291.2
1270(31) 0.001041 1225.4 1292.0
1289(31) 0.001041 1225.2 1293.8
1308(32) 0.000977 1225.0 1296.7
1274(31) 0.001041 1224.7 1300.8
1266(31) 0.001041 1224.5 1306.2
1310(32) 0.000977 1224.3 1313.1
1349(32) 0.000977 1224.1 1321.3
1320(32) 0.000977 1223.8 1330.8
1308(32) 0.000977 1223.6 1341.5
1396(33) 0.000918 1223.4 1353.2
1386(33) 0.000918 1223.2 1365.6
1385(32) 0.000977 1222.9 1378.5
1358(32) 0.000977 1222.7 1391.8
1390(33) 0.000918 1222.5 1405.3
1415(33) 0.000918 1222.3 1418.8
1394(33) 0.000918 1222.1 1432.3
1455(33) 0.000918 1221.8 1445.5
1458(33) 0.000918 1221.6 1458.3
1425(33) 0.000918 1221.4 1470.6
1470(33) 0.000918 1221.2 1482.3
1460(33) 0.000918 1221.0 1493.7
1481(34) 0.000865 1220.8 1504.9
1510(34) 0.000865 1220.6 1516.2
1573(35) 0.000816 1220.3 1527.7
1548(34) 0.000865 1220.1 1539.5
1569(35) 0.000816 1219.9 1551.3
1601(35) 0.000816 1219.7 1562.7
1596(35) 0.000816 1219.5 1573.4
1630(35) 0.000816 1219.3 1582.8
1678(36) 0.000772 1219. 1591.
1637(35) 0.000816 1218.9 1595.7
1659(36) 0.000772 1219. 1598.
1664(36) 0.000772 1219. 1596.
1650(36) 0.000772 1218. 1589.
1644(35) 0.000816 1218.1 1578.6
1615(35) 0.000816 1217.9 1564.1
1616(35) 0.000816 1217.7 1546.9
1576(35) 0.000816 1217.5 1528.0
1622(35) 0.000816 1217.3 1508.8
1612(35) 0.000816 1217.1 1490.4
1561(35) 0.000816 1216.9 1473.3
1508(34) 0.000865 1216.8 1458.3
1503(34) 0.000865 1216.6 1445.5
1516(34) 0.000865 1216.4 1434.8
1466(33) 0.000918 1216.2 1426.0
1441(33) 0.000918 1216.0 1418.4
1375(32) 0.000977 1215.8 1411.4
1371(32) 0.000977 1215.7 1404.4
1381(32) 0.000977 1215.5 1396.9
1373(32) 0.000977 1215.3 1388.4
1392(33) 0.000918 1215.1 1379.0
1422(33) 0.000918 1214.9 1368.7
1359(32) 0.000977 1214.8 1357.8
1376(32) 0.000977 1214.6 1346.7
1319(32) 0.000977 1214.4 1335.7
1248(31) 0.001041 1214.2 1325.1
1286(31) 0.001041 1214.1 1315.1
1322(32) 0.000977 1213.9 1306.1
1292(31) 0.001041 1213.7 1298.2
1275(31) 0.001041 1213.6 1291.8
1272(31) 0.001041 1213.4 1287.0
1307(32) 0.000977 1213.2 1284.0
1271(31) 0.001041 1213.1 1282.8
1275(31) 0.001041 1212.9 1283.5
1280(31) 0.001041 1212.8 1286.2
1326(32) 0.000977 1212.6 1290.9
1265(31) 0.001041 1212.4 1297.7
1296(31) 0.001041 1212.3 1306.4
1332(32) 0.000977 1212.1 1317.0
1309(32) 0.000977 1212.0 1329.4
1304(31) 0.001041 1211.8 1343.4
1352(32) 0.000977 1211.7 1358.6
1373(32) 0.000977 1211.5 1374.8
1372(32) 0.000977 1211.4 1391.5
1391(33) 0.000918 1211.2 1408.2
1382(32) 0.000977 1211.1 1424.4
1383(32) 0.000977 1210.9 1439.5
1427(33) 0.000918 1210.8 1453.0
1453(33) 0.000918 1210.7 1464.6
1468(33) 0.000918 1210.5 1474.1
1478(34) 0.000865 1210.4 1481.6
1506(34) 0.000865 1210.2 1487.1
1478(34) 0.000865 1210.1 1490.9
1446(33) 0.000918 1210.0 1493.0
1439(33) 0.000918 1209.8 1493.5
1441(33) 0.000918 1209.7 1492.6
1443(33) 0.000918 1209.6 1490.3
1397(32) 0.000977 1209.4 1487.2
1393(32) 0.000977 1209.3 1483.4
1411(33) 0.000918 1209.2 1479.3
1451(33) 0.000918 1209.1 1475.1
1445(33) 0.000918 1208.9 1471.0
1398(32) 0.000977 1208.8 1467.0
1419(33) 0.000918 1208.7 1463.3
1468(33) 0.000918 1208.6 1460.0
1404(33) 0.000918 1208.5 1457.1
1415(33) 0.000918 1208.4 1454.8
1447(33) 0.000918 1208.2 1453.0
1453(33) 0.000918 1208.1 1451.5
1384(32) 0.000977 1208.0 1450.3
1378(32) 0.000977 1207.9 1449.1
1410(33) 0.000918 1207.8 1447.7
1399(32) 0.000977 1207.7 1445.9
1389(32) 0.000977 1207.6 1443.5
1428(33) 0.000918 1207.5 1440.3
1404(33) 0.000918 1207.4 1436.0
1410(33) 0.000918 1207.3 1430.4
1377(32) 0.000977 1207.2 1423.2
1363(32) 0.000977 1207.1 1414.4
1412(33) 0.000918 1207.0 1404.1
1430(33) 0.000918 1206.9 1392.7
1361(32) 0.000977 1206.8 1380.3
1336(32) 0.000977 1206.7 1367.4
1365(32) 0.000977 1206.6 1354.4
1374(32) 0.000977 1206.5 1341.6
1403(32) 0.000977 1206.4 1329.3
1318(31) 0.001041 1206.3 1317.7
1312(31) 0.001041 1206.2 1307.1
1294(31) 0.001041 1206.1 1297.7
1282(31) 0.001041 1206.1 1289.6
1279(31) 0.001041 1206.0 1283.0
1305(31) 0.001041 1205.9 1278.0
1294(31) 0.001041 1205.8 1274.6
1252(31) 0.001041 1205.7 1272.9
1279(31) 0.001041 1205.7 1272.9
1294(31) 0.001041 1205.6 1274.5
1278(31) 0.001041 1205.5 1277.7
1270(31) 0.001041 1205.4 1282.5
1287(31) 0.001041 1205.4 1288.7
1308(31) 0.001041 1205.3 1296.2
1351(32) 0.000977 1205.2 1304.7
1358(32) 0.000977 1205.2 1314.2
1324(32) 0.000977 1205.1 1324.2
1318(31) 0.001041 1205.0 1334.5
1347(32) 0.000977 1205.0 1344.7
1372(32) 0.000977 1204.9 1354.4
1352(32) 0.000977 1204.9 1363.1
1379(32) 0.000977 1204.8 1370.7
1393(32) 0.000977 1204.8 1376.8
1406(33) 0.000918 1204.7 1381.4
1389(32) 0.000977 1204.6 1384.5
1407(33) 0.000918 1204.6 1386.1
1411(33) 0.000918 1204.5 1386.4
1409(33) 0.000918 1204.5 1385.6
1406(33) 0.000918 1204.4 1383.8
1408(33) 0.000918 1204.4 1381.2
1430(33) 0.000918 1204.4 1377.9
1367(32) 0.000977 1204.3 1374.2
1442(33) 0.000918 1204.3 1370.3
1424(33) 0.000918 1204.2 1366.4
1384(32) 0.000977 1204.2 1362.8
1361(32) 0.000977 1204.2 1359.6
1347(32) 0.000977 1204.1 1356.8
1340(32) 0.000977 1204.1 1354.6
1350(32) 0.000977 1204.0 1353.0
1356(32) 0.000977 1204.0 1352.1
1339(32) 0.000977 1204.0 1351.7
1370(32) 0.000977 1204.0 1351.8
1334(32) 0.000977 1203.9 1352.4
1351(32) 0.000977 1203.9 1353.3
1354(32) 0.000977 1203.9 1354.2
1364(32) 0.000977 1203.9 1355.1
1336(32) 0.000977 1203.8 1355.9
1330(32) 0.000977 1203.8 1356.2
1363(32) 0.000977 1203.8 1356.1
1366(32) 0.000977 1203.8 1355.3
1368(32) 0.000977 1203.8 1353.7
1351(32) 0.000977 1203.7 1351.3
1258(31) 0.001041 1203.7 1347.8
1295(31) 0.001041 1203.7 1343.3
1302(31) 0.001041 1203.7 1337.8
1256(31) 0.001041 1203.7 1331.5
1269(31) 0.001041 1203.7 1324.7
1283(31) 0.001041 1203.7 1317.5
1285(31) 0.001041 1203.7 1310.2
1278(31) 0.001041 1203.7 1302.9
1280(31) 0.001041 1203.7 1296.0
1263(31) 0.001041 1203.7 1289.4
1266(31) 0.001041 1203.7 1283.4
1288(31) 0.001041 1203.7 1278.0
1291(31) 0.001041 1203.7 1273.5
1283(31) 0.001041 1203.7 1270.0
1287(31) 0.001041 1203.7 1267.5
1253(31) 0.001041 1203.7 1266.2
1235(30) 0.001111 1203.7 1266.1
1256(32) 0.000977 1203.7 1267.4
1216(31) 0.001041 1203.7 1270.2
1265(32) 0.000977 1203.7 1274.4
1291(32) 0.000977 1203.8 1280.2
1284(32) 0.000977 1203.8 1287.7
1295(32) 0.000977 1203.8 1296.9
1305(32) 0.000977 1203.8 1307.8
1351(33) 0.000918 1203.8 1320.6
1364(33) 0.000918 1203.9 1335.2
1346(33) 0.000918 1203.9 1351.4
1389(33) 0.000918 1203.9 1369.3
1485(34) 0.000865 1203.9 1388.7
1463(34) 0.000865 1203.9 1409.3
1458(34) 0.000865 1204.0 1430.8
1471(34) 0.000865 1204.0 1452.9
1460(34) 0.000865 1204.0 1475.3
1497(35) 0.000816 1204.1 1497.6
1507(35) 0.000816 1204.1 1519.4
1552(35) 0.000816 1204.1 1540.3
1557(35) 0.000816 1204.2 1559.8
1669(37) 0.000730 1204. 1577.
1585(36) 0.000772 1204. 1593.
1622(36) 0.000772 1204. 1605.
1599(36) 0.000772 1204. 1615.
1678(37) 0.000730 1204. 1622.
1658(36) 0.000772 1204. 1626.
1653(36) 0.000772 1204. 1628.
1660(36) 0.000772 1204. 1627.
1649(36) 0.000772 1205. 1625.
1619(36) 0.000772 1205. 1621.
1626(36) 0.000772 1205. 1615.
1662(36) 0.000772 1205. 1608.
1632(36) 0.000772 1205. 1600.
1607(36) 0.000772 1205. 1591.
1561(35) 0.000816 1204.8 1581.0
1612(36) 0.000772 1205. 1570.
1616(36) 0.000772 1205. 1559.
1637(36) 0.000772 1205. 1547.
1599(36) 0.000772 1205. 1535.
1570(35) 0.000816 1205.1 1522.4
1584(36) 0.000772 1205. 1510.
1572(35) 0.000816 1205.3 1496.8
1550(35) 0.000816 1205.3 1484.1
1510(35) 0.000816 1205.4 1471.8
1487(34) 0.000865 1205.5 1459.9
1433(34) 0.000865 1205.5 1448.5
1443(34) 0.000865 1205.6 1437.7
1470(34) 0.000865 1205.7 1427.5
1423(34) 0.000865 1205.7 1417.9
1412(34) 0.000865 1205.8 1408.9
1380(33) 0.000918 1205.9 1400.5
1332(33) 0.000918 1205.9 1392.7
1342(33) 0.000918 1206.0 1385.5
1355(33) 0.000918 1206.1 1378.8
1337(33) 0.000918 1206.2 1372.7
1333(33) 0.000918 1206.2 1367.4
1342(33) 0.000918 1206.3 1362.9
1381(33) 0.000918 1206.4 1359.4
1382(33) 0.000918 1206.5 1357.1
1404(33) 0.000918 1206.6 1356.3
1379(33) 0.000918 1206.7 1357.0
1393(33) 0.000918 1206.7 1359.4
1363(33) 0.000918 1206.8 1363.7
1322(32) 0.000977 1206.9 1369.7
1373(33) 0.000918 1207.0 1377.5
1382(33) 0.000918 1207.1 1387.0
1381(33) 0.000918 1207.2 1398.0
1386(33) 0.000918 1207.3 1410.2
1430(34) 0.000865 1207.4 1423.3
1421(34) 0.000865 1207.4 1437.0
1487(34) 0.000865 1207.5 1450.8
1433(34) 0.000865 1207.6 1464.4
1463(34) 0.000865 1207.7 1477.3
1450(34) 0.000865 1207.8 1488.9
1503(35) 0.000816 1207.9 1498.9
1515(35) 0.000816 1208.0 1506.6
1504(35) 0.000816 1208.1 1511.7
1509(35) 0.000816 1208.2 1513.9
1504(35) 0.000816 1208.3 1512.9
1525(35) 0.000816 1208.4 1508.9
1529(35) 0.000816 1208.5 1502.0
1493(35) 0.000816 1208.6 1492.6
1535(35) 0.000816 1208.7 1481.2
1477(34) 0.000865 1208.8 1468.1
1438(34) 0.000865 1208.9 1453.9
1457(34) 0.000865 1209.0 1438.9
1461(34) 0.000865 1209.1 1423.5
1441(34) 0.000865 1209.3 1408.1
1433(34) 0.000865 1209.4 1393.1
1369(33) 0.000918 1209.5 1378.6
1332(33) 0.000918 1209.6 1364.9
1372(33) 0.000918 1209.7 1352.3
1392(33) 0.000918 1209.8 1340.9
1375(33) 0.000918 1209.9 1330.7
1331(33) 0.000918 1210.0 1321.9
1292(32) 0.000977 1210.1 1314.4
1379(33) 0.000918 1210.3 1308.4
1350(33) 0.000918 1210.4 1303.6
1314(32) 0.000977 1210.5 1300.2
1316(26) 0.001479 1210.6 1298.1
1299(33) 0.000918 1210.7 1297.2
1275(33) 0.000918 1210.8 1297.4
1339(34) 0.000865 1211.0 1298.8
1358(34) 0.000865 1211.1 1301.0
1330(33) 0.000918 1211.2 1304.1
1324(33) 0.000918 1211.3 1307.9
1346(34) 0.000865 1211.4 1312.2
1420(35) 0.000816 1211.6 1316.9
1384(34) 0.000865 1211.7 1321.7
1380(34) 0.000865 1211.8 1326.6
1316(33) 0.000918 1211.9 1331.2
1387(34) 0.000865 1212.1 1335.5
1403(34) 0.000865 1212.2 1339.3
1373(34) 0.000865 1212.3 1342.6
1420(35) 0.000816 1212.4 1345.1
1427(35) 0.000816 1212.6 1346.9
1420(35) 0.000816 1212.7 1347.7
1390(34) 0.000865 1212.8 1347.6
1418(35) 0.000816 1213.0 1346.6
1453(35) 0.000816 1213.1 1344.7
1400(34) 0.000865 1213.2 1342.0
1367(34) 0.000865 1213.3 1338.7
1393(34) 0.000865 1213.5 1335.1
1416(35) 0.000816 1213.6 1331.2
1405(34) 0.000865 1213.7 1327.3
1354(34) 0.000865 1213.9 1323.7
1375(34) 0.000865 1214.0 1320.5
1342(34) 0.000865 1214.1 1317.9
1338(34) 0.000865 1214.3 1315.8
1358(34) 0.000865 1214.4 1314.5
1380(34) 0.000865 1214.5 1314.0
1283(33) 0.000918 1214.7 1314.2
1318(33) 0.000918 1214.8 1315.3
1248(32) 0.000977 1214.9 1317.0
1325(33) 0.000918 1215.1 1319.4
1286(33) 0.000918 1215.2 1322.5
1323(33) 0.000918 1215.3 1326.0
1301(33) 0.000918 1215.5 1329.9
1351(34) 0.000865 1215.6 1334.1
1344(34) 0.000865 1215.8 1338.5
1311(33) 0.000918 1215.9 1343.0
1279(33) 0.000918 1216.0 1347.5
1366(34) 0.000865 1216.2 1352.0
1352(34) 0.000865 1216.3 1356.3
1363(34) 0.000865 1216.4 1360.4
1325(33) 0.000918 1216.6 1364.3
1315(33) 0.000918 1216.7 1368.1
1380(34) 0.000865 1216.9 1371.8
1354(34) 0.000865 1217.0 1375.4
1422(35) 0.000816 1217.1 1378.9
1377(34) 0.000865 1217.3 1382.4
1380(34) 0.000865 1217.4 1385.9
1429(35) 0.000816 1217.5 1389.3
1342(34) 0.000865 1217.7 1392.8
1377(34) 0.000865 1217.8 1396.3
1413(35) 0.000816 1218.0 1399.7
1418(35) 0.000816 1218.1 1403.2
1432(35) 0.000816 1218.2 1406.6
1381(34) 0.000865 1218.4 1410.1
1498(36) 0.000772 1219. 1413.
1439(35) 0.000816 1218.7 1416.4
1431(35) 0.000816 1218.8 1419.3
1433(35) 0.000816 1218.9 1422.1
1458(35) 0.000816 1219.1 1424.7
1444(35) 0.000816 1219.2 1427.1
1480(35) 0.000816 1219.4 1429.4
1487(35) 0.000816 1219.5 1431.5
1454(35) 0.000816 1219.6 1433.4
1448(35) 0.000816 1219.8 1435.0
1472(35) 0.000816 1219.9 1436.3
1432(35) 0.000816 1220.1 1437.1
1456(35) 0.000816 1220.2 1437.6
1388(34) 0.000865 1220.3 1437.3
1391(34) 0.000865 1220.5 1436.5
1391(34) 0.000865 1220.6 1434.9
1384(34) 0.000865 1220.8 1432.4
1385(34) 0.000865 1220.9 1429.1
1393(34) 0.000865 1221.0 1424.8
1398(34) 0.000865 1221.2 1419.7
1373(34) 0.000865 1221.3 1413.7
1292(33) 0.000918 1221.5 1407.2
1359(34) 0.000865 1221.6 1400.1
1383(34) 0.000865 1221.7 1392.6
1384(34) 0.000865 1221.9 1384.9
1341(34) 0.000865 1222.0 1377.3
1306(33) 0.000918 1222.2 1369.6
1357(34) 0.000865 1222.3 1362.2
1286(33) 0.000918 1222.4 1355.2
1321(33) 0.000918 1222.6 1348.7
1288(33) 0.000918 1222.7 1342.7
1309(33) 0.000918 1222.8 1337.3
1276(33) 0.000918 1223.0 1332.6
1271(33) 0.000918 1223.1 1328.7
1290(33) 0.000918 1223.2 1325.5
1299(33) 0.000918 1223.4 1323.1
1255(33) 0.000918 1223.5 1321.5
1340(34) 0.000865 1223.6 1320.5
1305(33) 0.000918 1223.8 1320.2
1299(33) 0.000918 1223.9 1320.5
1318(33) 0.000918 1224.0 1321.2
1241(31) 0.001041 1224.2 1322.4
1312(32) 0.000977 1224.3 1323.9
1305(32) 0.000977 1224.4 1325.6
1306(32) 0.000977 1224.6 1327.5
1283(32) 0.000977 1224.7 1329.6
1379(33) 0.000918 1224.8 1331.9
1306(32) 0.000977 1225.0 1334.2
1367(33) 0.000918 1225.1 1336.6
1286(32) 0.000977 1225.2 1339.2
1336(33) 0.000918 1225.3 1341.8
1349(33) 0.000918 1225.5 1344.4
1357(33) 0.000918 1225.6 1347.1
1363(33) 0.000918 1225.7 1349.8
1398(33) 0.000918 1225.8 1352.6
1342(33) 0.000918 1226.0 1355.3
1394(33) 0.000918 1226.1 1358.1
1360(33) 0.000918 1226.2 1360.8
1431(34) 0.000865 1226.3 1363.4
1350(33) 0.000918 1226.5 1366.1
1413(34) 0.000865 1226.6 1368.7
1410(34) 0.000865 1226.7 1371.3
1398(33) 0.000918 1226.8 1374.0
1382(33) 0.000918 1226.9 1376.8
1438(34) 0.000865 1227.1 1380.0
1403(33) 0.000918 1227.2 1383.5
1376(33) 0.000918 1227.3 1387.5
1402(33) 0.000918 1227.4 1392.2
1395(33) 0.000918 1227.5 1397.5
1399(33) 0.000918 1227.7 1403.6
1443(34) 0.000865 1227.8 1410.4
1405(33) 0.000918 1227.9 1418.1
1386(33) 0.000918 1228.0 1426.4
1424(34) 0.000865 1228.1 1435.5
1463(34) 0.000865 1228.2 1445.2
1421(34) 0.000865 1228.3 1455.4
1464(34) 0.000865 1228.4 1466.0
1494(35) 0.000816 1228.5 1476.8
1472(34) 0.000865 1228.7 1487.7
1518(35) 0.000816 1228.8 1498.5
1528(35) 0.000816 1228.9 1509.2
1562(35) 0.000816 1229.0 1519.5
1566(35) 0.000816 1229.1 1529.4
1536(35) 0.000816 1229.2 1538.7
1538(35) 0.000816 1229.3 1547.3
1550(35) 0.000816 1229.4 1555.1
1572(35) 0.000816 1229.5 1561.8
1596(36) 0.000772 1230. 1567.
1594(36) 0.000772 1230. 1572.
1621(36) 0.000772 1230. 1575.
1593(36) 0.000772 1230. 1577.
1655(36) 0.000772 1230. 1577.
1576(35) 0.000816 1230.1 1576.2
1587(36) 0.000772 1230. 1574.
1600(36) 0.000772 1230. 1570.
1584(36) 0.000772 1230. 1565.
1597(36) 0.000772 1230. 1558.
1581(36) 0.000772 1231. 1550.
1540(35) 0.000816 1230.6 1541.2
1509(35) 0.000816 1230.7 1531.6
1460(34) 0.000865 1230.8 1521.3
1516(35) 0.000816 1230.9 1510.7
1551(35) 0.000816 1231.0 1500.0
1511(35) 0.000816 1231.1 1489.5
1489(34) 0.000865 1231.1 1479.4
1477(34) 0.000865 1231.2 1469.7
1420(34) 0.000865 1231.3 1460.7
1490(34) 0.000865 1231.4 1452.4
1425(34) 0.000865 1231.5 1444.9
1451(34) 0.000865 1231.5 1438.0
1441(34) 0.000865 1231.6 1431.9
1444(34) 0.000865 1231.7 1426.5
1384(33) 0.000918 1231.8 1421.7
1391(33) 0.000918 1231.8 1417.4
1381(33) 0.000918 1231.9 1413.6
1455(34) 0.000865 1232.0 1410.2
1407(34) 0.000865 1232.0 1407.2
1424(34) 0.000865 1232.1 1404.5
1396(33) 0.000918 1232.2 1402.1
1388(33) 0.000918 1232.2 1400.1
1396(33) 0.000918 1232.3 1398.3
1385(33) 0.000918 1232.4 1396.8
1364(33) 0.000918 1232.4 1395.6
1410(34) 0.000865 1232.5 1394.7
1380(33) 0.000918 1232.5 1394.1
1359(33) 0.000918 1232.6 1393.7
1366(33) 0.000918 1232.7 1393.6
1333(33) 0.000918 1232.7 1393.8
1381(33) 0.000918 1232.8 1394.3
1380(33) 0.000918 1232.8 1395.0
1382(33) 0.000918 1232.9 1396.0
1389(33) 0.000918 1232.9 1397.2
1374(33) 0.000918 1233.0 1398.7
1400(33) 0.000918 1233.0 1400.4
1361(33) 0.000918 1233.1 1402.4
1362(33) 0.000918 1233.1 1404.7
1432(34) 0.000865 1233.1 1407.2
1418(34) 0.000865 1233.2 1410.0
1444(34) 0.000865 1233.2 1413.0
1423(34) 0.000865 1233.3 1416.3
1481(49) 0.000416 1233. 1420.
1428(33) 0.000918 1233.3 1423.5
1396(33) 0.000918 1233.4 1427.2
1473(34) 0.000865 1233.4 1430.9
1396(33) 0.000918 1233.4 1434.4
1402(33) 0.000918 1233.5 1437.7
1416(33) 0.000918 1233.5 1440.6
1389(33) 0.000918 1233.5 1442.9
1349(32) 0.000977 1233.5 1444.6
1356(32) 0.000977 1233.6 1445.5
1445(33) 0.000918 1233.6 1445.5
1453(33) 0.000918 1233.6 1444.5
1387(33) 0.000918 1233.6 1442.5
1385(33) 0.000918 1233.7 1439.5
1396(33) 0.000918 1233.7 1435.7
1415(33) 0.000918 1233.7 1430.9
1390(33) 0.000918 1233.7 1425.5
1360(32) 0.000977 1233.7 1419.4
1337(32) 0.000977 1233.7 1412.7
1331(32) 0.000977 1233.7 1405.7
1378(32) 0.000977 1233.7 1398.4
1373(32) 0.000977 1233.8 1390.8
1378(32) 0.000977 1233.8 1383.2
1386(33) 0.000918 1233.8 1375.6
1337(32) 0.000977 1233.8 1368.1
1342(32) 0.000977 1233.8 1360.7
1363(32) 0.000977 1233.8 1353.6
1341(32) 0.000977 1233.8 1346.8
1298(31) 0.001041 1233.8 1340.3
1291(31) 0.001041 1233.8 1334.3
1316(32) 0.000977 1233.8 1328.7
1323(32) 0.000977 1233.7 1323.5
1313(32) 0.000977 1233.7 1318.8
1312(32) 0.000977 1233.7 1314.7
1305(32) 0.000977 1233.7 1311.1
1318(32) 0.000977 1233.7 1308.0
1265(31) 0.001041 1233.7 1305.5
1304(32) 0.000977 1233.7 1303.5
1295(31) 0.001041 1233.7 1302.0
1290(31) 0.001041 1233.6 1301.2
1314(32) 0.000977 1233.6 1300.8
1333(32) 0.000977 1233.6 1301.0
1317(32) 0.000977 1233.6 1301.7
1305(32) 0.000977 1233.5 1302.9
1315(32) 0.000977 1233.5 1304.5
1340(32) 0.000977 1233.5 1306.5
1303(32) 0.000977 1233.5 1309.0
1318(32) 0.000977 1233.4 1311.8
1307(32) 0.000977 1233.4 1314.9
1330(32) 0.000977 1233.4 1318.3
1334(32) 0.000977 1233.3 1321.9
1341(32) 0.000977 1233.3 1325.7
1334(32) 0.000977 1233.2 1329.6
1322(32) 0.000977 1233.2 1333.5
1343(32) 0.000977 1233.2 1337.4
1335(32) 0.000977 1233.1 1341.2
1377(32) 0.000977 1233.1 1344.9
1373(32) 0.000977 1233.0 1348.4
1360(32) 0.000977 1233.0 1351.7
1348(32) 0.000977 1232.9 1354.8
1353(32) 0.000977 1232.9 1357.6
1376(32) 0.000977 1232.8 1360.1
1405(33) 0.000918 1232.8 1362.4
1411(33) 0.000918 1232.7 1364.5
1384(33) 0.000918 1232.7 1366.3
1397(33) 0.000918 1232.6 1368.0
1432(33) 0.000918 1232.6 1369.4
1423(33) 0.000918 1232.5 1370.7
1375(32) 0.000977 1232.4 1371.8
1393(33) 0.000918 1232.4 1372.8
1399(33) 0.000918 1232.3 1373.5
1400(33) 0.000918 1232.2 1374.1
1397(33) 0.000918 1232.2 1374.4
1389(33) 0.000918 1232.1 1374.6
1370(32) 0.000977 1232.0 1374.4
1371(32) 0.000977 1232.0 1374.0
1374(32) 0.000977 1231.9 1373.3
1380(32) 0.000977 1231.8 1372.3
1331(32) 0.000977 1231.7 1371.0
1298(31) 0.001041 1231.7 1369.4
1343(32) 0.000977 1231.6 1367.6
1384(32) 0.000977 1231.5 1365.5
1442(33) 0.000918 1231.4 1363.4
1377(32) 0.000977 1231.3 1361.1
1402(33) 0.000918 1231.3 1358.9
1383(32) 0.000977 1231.2 1356.7
1345(32) 0.000977 1231.1 1354.6
1377(32) 0.000977 1231.0 1352.8
1364(32) 0.000977 1230.9 1351.1
1367(32) 0.000977 1230.8 1349.7
1371(32) 0.000977 1230.7 1348.6
1409(33) 0.000918 1230.6 1347.8
1349(32) 0.000977 1230.5 1347.4
1343(32) 0.000977 1230.4 1347.2
1333(32) 0.000977 1230.4 1347.3
1342(32) 0.000977 1230.3 1347.7
1360(32) 0.000977 1230.2 1348.3
1404(33) 0.000918 1230.1 1349.1
1345(32) 0.000977 1230.0 1350.0
1319(32) 0.000977 1229.9 1351.1
1343(26) 0.001479 1229.8 1352.2
1303(31) 0.001041 1229.6 1353.2
1361(32) 0.000977 1229.5 1354.2
1305(32) 0.000977 1229.4 1355.1
1375(32) 0.000977 1229.3 1355.8
1318(32) 0.000977 1229.2 1356.2
1350(32) 0.000977 1229.1 1356.3
1351(32) 0.000977 1229.0 1356.1
1352(32) 0.000977 1228.9 1355.6
1392(33) 0.000918 1228.8 1354.8
1370(32) 0.000977 1228.7 1353.6
1317(32) 0.000977 1228.5 1352.2
1324(32) 0.000977 1228.4 1350.5
1336(32) 0.000977 1228.3 1348.7
1336(32) 0.000977 1228.2 1346.7
1310(32) 0.000977 1228.1 1344.8
1295(31) 0.001041 1228.0 1342.9
1376(32) 0.000977 1227.8 1341.1
1337(32) 0.000977 1227.7 1339.5
1347(32) 0.000977 1227.6 1338.2
1358(32) 0.000977 1227.5 1337.2
1361(32) 0.000977 1227.4 1336.6
1312(32) 0.000977 1227.2 1336.5
1346(32) 0.000977 1227.1 1336.8
1346(32) 0.000977 1227.0 1337.7
1315(32) 0.000977 1226.8 1339.2
1306(32) 0.000977 1226.7 1341.3
1325(32) 0.000977 1226.6 1344.0
1308(32) 0.000977 1226.5 1347.3
1299(31) 0.001041 1226.3 1351.3
1327(32) 0.000977 1226.2 1356.0
1304(32) 0.000977 1226.1 1361.4
1354(32) 0.000977 1225.9 1367.4
1378(32) 0.000977 1225.8 1374.0
1356(32) 0.000977 1225.7 1381.3
1391(33) 0.000918 1225.5 1389.1
1369(32) 0.000977 1225.4 1397.5
1365(32) 0.000977 1225.3 1406.3
1432(33) 0.000918 1225.1 1415.5
1436(33) 0.000918 1225.0 1425.1
1426(33) 0.000918 1224.9 1434.9
1473(34) 0.000865 1224.7 1444.9
1470(33) 0.000918 1224.6 1455.0
1453(33) 0.000918 1224.5 1464.9
1459(33) 0.000918 1224.3 1474.8
1518(34) 0.000865 1224.2 1484.3
1497(34) 0.000865 1224.1 1493.4
1483(34) 0.000865 1223.9 1502.0
1456(33) 0.000918 1223.8 1510.0
1469(33) 0.000918 1223.6 1517.3
1491(34) 0.000865 1223.5 1523.7
1503(34) 0.000865 1223.4 1529.4
1533(34) 0.000865 1223.2 1534.1
1574(35) 0.000816 1223.1 1537.9
1548(34) 0.000865 1222.9 1540.8
1517(34) 0.000865 1222.8 1542.8
1513(34) 0.000865 1222.7 1543.8
1531(34) 0.000865 1222.5 1543.9
1579(35) 0.000816 1222.4 1543.1
1607(35) 0.000816 1222.2 1541.5
1513(34) 0.000865 1222.1 1539.1
1493(34) 0.000865 1222.0 1535.8
1527(34) 0.000865 1221.8 1531.9
1494(34) 0.000865 1221.7 1527.4
1505(34) 0.000865 1221.6 1522.3
1482(34) 0.000865 1221.4 1516.8
1536(34) 0.000865 1221.3 1510.8
1514(34) 0.000865 1221.1 1504.6
1501(34) 0.000865 1221.0 1498.2
1502(34) 0.000865 1220.9 1491.6
1495(34) 0.000865 1220.7 1484.9
1475(34) 0.000865 1220.6 1478.2
1486(34) 0.000865 1220.5 1471.6
1449(33) 0.000918 1220.3 1465.1
1475(34) 0.000865 1220.2 1458.7
1450(33) 0.000918 1220.0 1452.5
1423(33) 0.000918 1219.9 1446.6
1369(32) 0.000977 1219.8 1440.9
1394(33) 0.000918 1219.6 1435.5
1461(33) 0.000918 1219.5 1430.4
1439(33) 0.000918 1219.4 1425.6
1428(33) 0.000918 1219.3 1421.1
1429(33) 0.000918 1219.1 1417.0
1392(33) 0.000918 1219.0 1413.1
1422(33) 0.000918 1218.9 1409.6
1384(32) 0.000977 1218.7 1406.3
1374(32) 0.000977 1218.6 1403.3
1370(32) 0.000977 1218.5 1400.6
1375(32) 0.000977 1218.4 1398.2
1414(33) 0.000918 1218.2 1396.0
1383(32) 0.000977 1218.1 1394.0
1402(33) 0.000918 1218.0 1392.3
1442(33) 0.000918 1217.9 1390.8
1433(33) 0.000918 1217.8 1389.6
1433(33) 0.000918 1217.6 1388.7
1450(33) 0.000918 1217.5 1388.1
1380(32) 0.000977 1217.4 1387.7
1347(32) 0.000977 1217.3 1387.8
1339(32) 0.000977 1217.2 1388.3
1371(32) 0.000977 1217.1 1389.2
1371(32) 0.000977 1217.0 1390.5
1429(33) 0.000918 1216.8 1392.4
1380(33) 0.000918 1216.7 1394.9
1407(33) 0.000918 1216.6 1397.9
1404(33) 0.000918 1216.5 1401.5
1423(33) 0.000918 1216.4 1405.7
1448(34) 0.000865 1216.3 1410.5
1431(33) 0.000918 1216.2 1415.9
1440(34) 0.000865 1216.1 1421.9
1448(34) 0.000865 1216.0 1428.5
1447(34) 0.000865 1215.9 1435.5
1475(34) 0.000865 1215.9 1443.1
1462(34) 0.000865 1215.8 1451.0
1469(34) 0.000865 1215.7 1459.4
1498(34) 0.000865 1215.6 1468.0
1466(34) 0.000865 1215.5 1476.9
1484(34) 0.000865 1215.4 1485.9
1518(34) 0.000865 1215.3 1494.9
1482(34) 0.000865 1215.3 1503.9
1510(34) 0.000865 1215.2 1512.8
1532(35) 0.000816 1215.1 1521.3
1528(35) 0.000816 1215.0 1529.5
1522(34) 0.000865 1215.0 1537.3
1533(35) 0.000816 1214.9 1544.5
1565(35) 0.000816 1214.8 1551.0
1590(35) 0.000816 1214.8 1556.9
1610(35) 0.000816 1214.7 1561.9
1597(35) 0.000816 1214.7 1566.2
1584(35) 0.000816 1214.6 1569.7
1600(35) 0.000816 1214.6 1572.5
1585(35) 0.000816 1214.5 1574.4
1584(35) 0.000816 1214.5 1575.7
1586(35) 0.000816 1214.4 1576.4
1587(35) 0.000816 1214.4 1576.4
1599(35) 0.000816 1214.4 1575.9
1607(35) 0.000816 1214.3 1575.0
1552(35) 0.000816 1214.3 1573.7
1567(35) 0.000816 1214.3 1572.1
1609(35) 0.000816 1214.3 1570.1
1602(35) 0.000816 1214.2 1567.9
1549(35) 0.000816 1214.2 1565.4
1550(35) 0.000816 1214.2 1562.8
1563(35) 0.000816 1214.2 1559.9
1534(35) 0.000816 1214.2 1556.8
1526(35) 0.000816 1214.2 1553.5
1527(35) 0.000816 1214.2 1550.0
1564(35) 0.000816 1214.2 1546.3
1524(34) 0.000865 1214.2 1542.3
1555(35) 0.000816 1214.2 1538.1
1540(35) 0.000816 1214.2 1533.6
1494(34) 0.000865 1214.2 1528.8
1488(34) 0.000865 1214.3 1523.8
1504(34) 0.000865 1214.3 1518.5
1462(34) 0.000865 1214.3 1513.0
1508(34) 0.000865 1214.3 1507.2
1517(34) 0.000865 1214.4 1501.2
1488(34) 0.000865 1214.4 1495.1
1482(34) 0.000865 1214.5 1488.9
1461(34) 0.000865 1214.5 1482.5
1459(34) 0.000865 1214.6 1476.1
1414(33) 0.000918 1214.6 1469.6
1508(34) 0.000865 1214.7 1463.1
1450(34) 0.000865 1214.8 1456.5
1415(33) 0.000918 1214.8 1450.0
1440(34) 0.000865 1214.9 1443.6
1378(33) 0.000918 1215.0 1437.2
1422(33) 0.000918 1215.1 1430.9
1395(33) 0.000918 1215.2 1424.8
1444(34) 0.000865 1215.3 1418.7
1386(33) 0.000918 1215.4 1412.8
1384(33) 0.000918 1215.5 1407.1
1418(33) 0.000918 1215.6 1401.5
1437(33) 0.000918 1215.7 1396.1
1415(33) 0.000918 1215.8 1390.9
1394(33) 0.000918 1215.9 1385.9
1394(33) 0.000918 1216.1 1381.1
1376(33) 0.000918 1216.2 1376.5
1384(33) 0.000918 1216.3 1372.1
1362(33) 0.000918 1216.5 1368.0
1367(33) 0.000918 1216.6 1364.1
1343(32) 0.000977 1216.8 1360.5
1301(32) 0.000977 1217.0 1357.1
1293(32) 0.000977 1217.1 1354.0
1328(32) 0.000977 1217.3 1351.2
1320(32) 0.000977 1217.5 1348.7
1318(32) 0.000977 1217.7 1346.4
1347(32) 0.000977 1217.9 1344.5
1341(32) 0.000977 1218.1 1342.8
1355(32) 0.000977 1218.3 1341.5
1315(32) 0.000977 1218.5 1340.5
1320(32) 0.000977 1218.7 1339.9
1316(32) 0.000977 1218.9 1339.6
1383(33) 0.000918 1219.1 1339.7
1346(32) 0.000977 1219.4 1340.2
1379(33) 0.000918 1219.6 1341.1
1367(33) 0.000918 1219.9 1342.3
1379(33) 0.000918 1220.1 1344.0
1329(32) 0.000977 1220.4 1346.2
1361(33) 0.000918 1220.7 1348.7
1355(33) 0.000918 1220.9 1351.7
1384(33) 0.000918 1221.2 1355.1
1378(33) 0.000918 1221.5 1359.0
1351(33) 0.000918 1221.8 1363.3
1354(33) 0.000918 1222.1 1368.0
1358(33) 0.000918 1222.4 1373.1
1400(33) 0.000918 1222.7 1378.7
1425(33) 0.000918 1223.0 1384.6
1425(33) 0.000918 1223.4 1391.0
1404(33) 0.000918 1223.7 1397.7
1432(33) 0.000918 1224.0 1404.7
1428(33) 0.000918 1224.4 1412.0
1438(34) 0.000865 1224.8 1419.7
1405(33) 0.000918 1225.1 1427.6
1437(34) 0.000865 1225.5 1435.7
1467(34) 0.000865 1225.9 1444.0
1433(33) 0.000918 1226.3 1452.5
1422(33) 0.000918 1226.7 1461.1
1485(34) 0.000865 1227.1 1469.7
1524(35) 0.000816 1227.5 1478.4
1529(35) 0.000816 1227.9 1487.0
1503(34) 0.000865 1228.3 1495.6
1474(34) 0.000865 1228.8 1504.1
1517(34) 0.000865 1229.2 1512.4
1544(35) 0.000816 1229.7 1520.6
1565(35) 0.000816 1230.1 1528.5
1556(35) 0.000816 1230.6 1536.3
1572(35) 0.000816 1231.1 1543.7
1562(35) 0.000816 1231.6 1550.8
1567(35) 0.000816 1232.1 1557.7
1547(35) 0.000816 1232.6 1564.2
1579(35) 0.000816 1233.1 1570.3
1589(35) 0.000816 1233.6 1576.1
1606(35) 0.000816 1234.1 1581.5
1622(36) 0.000772 1235. 1587.
1635(36) 0.000772 1235. 1591.
1613(36) 0.000772 1236. 1595.
1571(35) 0.000816 1236.3 1599.2
1606(35) 0.000816 1236.9 1602.7
1622(36) 0.000772 1237. 1606.
1652(36) 0.000772 1238. 1609.
1640(36) 0.000772 1239. 1611.
1635(36) 0.000772 1239. 1613.
1646(36) 0.000772 1240. 1615.
1668(36) 0.000772 1241. 1616.
1678(36) 0.000772 1241. 1617.
1723(37) 0.000730 1242. 1618.
1635(36) 0.000772 1243. 1619.
1666(36) 0.000772 1243. 1620.
1642(36) 0.000772 1244. 1620.
1623(36) 0.000772 1245. 1620.
1595(35) 0.000816 1245.3 1619.9
1621(36) 0.000772 1246. 1620.
1669(36) 0.000772 1247. 1619.
1654(36) 0.000772 1247. 1618.
1675(36) 0.000772 1248. 1617.
1651(36) 0.000772 1249. 1616.
1608(35) 0.000816 1249.7 1614.6
1584(35) 0.000816 1250.5 1612.8
1639(36) 0.000772 1251. 1611.
1598(35) 0.000816 1252.0 1608.3
1607(35) 0.000816 1252.8 1605.6
1616(36) 0.000772 1254. 1603.
1590(35) 0.000816 1254.5 1599.2
1613(36) 0.000772 1255. 1595.
1635(36) 0.000772 1256. 1591.
1667(36) 0.000772 1257. 1587.
1639(36) 0.000772 1258. 1582.
1569(35) 0.000816 1258.8 1577.1
1568(35) 0.000816 1259.7 1571.7
1557(35) 0.000816 1260.6 1566.1
1544(35) 0.000816 1261.5 1560.3
1536(35) 0.000816 1262.4 1554.3
1544(35) 0.000816 1263.4 1548.2
1570(35) 0.000816 1264.3 1542.0
1577(35) 0.000816 1265.3 1535.7
1565(35) 0.000816 1266.2 1529.3
1526(35) 0.000816 1267.2 1523.0
1531(35) 0.000816 1268.2 1516.7
1575(35) 0.000816 1269.2 1510.4
1504(34) 0.000865 1270.2 1504.3
1531(35) 0.000816 1271.3 1498.2
1586(35) 0.000816 1272.3 1492.4
1547(35) 0.000816 1273.4 1486.6
1486(34) 0.000865 1274.4 1481.1
1491(34) 0.000865 1275.5 1475.7
1492(34) 0.000865 1276.6 1470.5
1455(34) 0.000865 1277.7 1465.6
1464(34) 0.000865 1278.8 1460.9
1460(34) 0.000865 1280.0 1456.4
1489(34) 0.000865 1281.1 1452.2
1433(33) 0.000918 1282.3 1448.2
1433(33) 0.000918 1283.4 1444.5
1429(33) 0.000918 1284.6 1441.0
1442(34) 0.000865 1285.8 1437.8
1464(34) 0.000865 1287.0 1434.9
1448(34) 0.000865 1288.2 1432.3
1449(34) 0.000865 1289.5 1430.0
1422(33) 0.000918 1290.7 1427.9
1447(34) 0.000865 1292.0 1426.2
1423(33) 0.000918 1293.2 1424.7
1416(27) 0.001372 1294.5 1423.6
1425(34) 0.000865 1295.8 1422.8
1421(34) 0.000865 1297.1 1422.4
1422(34) 0.000865 1298.5 1422.2
1416(34) 0.000865 1299.8 1422.4
1407(33) 0.000918 1301.1 1422.9
1424(34) 0.000865 1302.5 1423.8
1407(33) 0.000918 1303.9 1425.0
1392(33) 0.000918 1305.3 1426.5
1390(33) 0.000918 1306.7 1428.4
1402(33) 0.000918 1308.1 1430.6
1433(34) 0.000865 1309.5 1433.2
1423(34) 0.000865 1311.0 1436.1
1440(34) 0.000865 1312.4 1439.3
1475(34) 0.000865 1313.9 1442.9
1435(34) 0.000865 1315.4 1446.8
1447(34) 0.000865 1316.9 1451.0
1428(34) 0.000865 1318.4 1455.5
1453(34) 0.000865 1319.9 1460.3
1477(34) 0.000865 1321.5 1465.4
1487(34) 0.000865 1323.0 1470.8
1460(34) 0.000865 1324.6 1476.5
1459(34) 0.000865 1326.2 1482.4
1487(34) 0.000865 1327.8 1488.6
1503(35) 0.000816 1329.4 1495.0
1535(35) 0.000816 1331.0 1501.6
1528(35) 0.000816 1332.7 1508.4
1518(35) 0.000816 1334.3 1515.4
1519(35) 0.000816 1336.0 1522.6
1532(35) 0.000816 1337.7 1529.9
1502(35) 0.000816 1339.4 1537.3
1465(34) 0.000865 1341.1 1544.8
1513(35) 0.000816 1342.8 1552.4
1542(35) 0.000816 1344.6 1560.0
1528(35) 0.000816 1346.3 1567.6
1571(35) 0.000816 1348.1 1575.2
1578(35) 0.000816 1349.9 1582.7
1554(35) 0.000816 1351.7 1590.2
1538(35) 0.000816 1353.5 1597.5
1574(35) 0.000816 1355.3 1604.7
1566(35) 0.000816 1357.2 1611.7
1554(35) 0.000816 1359.0 1618.6
1527(35) 0.000816 1360.9 1625.1
1557(35) 0.000816 1362.8 1631.4
1520(35) 0.000816 1364.7 1637.4
1568(35) 0.000816 1366.6 1643.1
1635(36) 0.000772 1369. 1648.
1646(36) 0.000772 1370. 1653.
1619(36) 0.000772 1372. 1658.
1607(36) 0.000772 1374. 1662.
1643(36) 0.000772 1376. 1666.
1629(36) 0.000772 1378. 1669.
1646(36) 0.000772 1380. 1672.
1650(36) 0.000772 1383. 1674.
1643(36) 0.000772 1385. 1676.
1640(36) 0.000772 1387. 1677.
1637(36) 0.000772 1389. 1679.
1674(36) 0.000772 1391. 1679.
1667(36) 0.000772 1393. 1680.
1667(36) 0.000772 1395. 1680.
1674(36) 0.000772 1397. 1679.
1668(36) 0.000772 1399. 1679.
1669(36) 0.000772 1402. 1678.
1669(36) 0.000772 1404. 1677.
1692(37) 0.000730 1406. 1675.
1690(37) 0.000730 1408. 1674.
1646(36) 0.000772 1410. 1672.
1618(36) 0.000772 1413. 1671.
1616(36) 0.000772 1415. 1669.
1653(36) 0.000772 1417. 1667.
1692(37) 0.000730 1419. 1665.
1646(36) 0.000772 1422. 1664.
1659(36) 0.000772 1424. 1662.
1643(36) 0.000772 1426. 1660.
1634(36) 0.000772 1429. 1659.
1657(36) 0.000772 1431. 1657.
1666(36) 0.000772 1434. 1656.
1643(36) 0.000772 1436. 1654.
1630(36) 0.000772 1438. 1653.
1660(36) 0.000772 1441. 1652.
1681(36) 0.000772 1443. 1651.
1636(36) 0.000772 1446. 1650.
1615(36) 0.000772 1448. 1650.
1603(36) 0.000772 1451. 1649.
1651(36) 0.000772 1453. 1649.
1694(37) 0.000730 1456. 1649.
1638(36) 0.000772 1458. 1649.
1656(36) 0.000772 1461. 1649.
1683(37) 0.000730 1463. 1650.
1662(36) 0.000772 1466. 1650.
1648(36) 0.000772 1469. 1651.
1644(36) 0.000772 1471. 1652.
1676(36) 0.000772 1474. 1652.
1640(36) 0.000772 1476. 1653.
1614(36) 0.000772 1479. 1654.
1637(36) 0.000772 1482. 1655.
1619(36) 0.000772 1484. 1657.
1637(36) 0.000772 1487. 1658.
1676(36) 0.000772 1490. 1659.
1660(36) 0.000772 1493. 1660.
1652(37) 0.000730 1495. 1662.
1693(37) 0.000730 1498. 1663.
1677(37) 0.000730 1501. 1664.
1678(37) 0.000730 1504. 1666.
1645(37) 0.000730 1506. 1667.
1670(37) 0.000730 1509. 1668.
1693(37) 0.000730 1512. 1670.
1682(37) 0.000730 1515. 1671.
1669(37) 0.000730 1518. 1672.
1664(37) 0.000730 1521. 1674.
1693(37) 0.000730 1523. 1675.
1688(37) 0.000730 1526. 1676.
1675(37) 0.000730 1529. 1677.
1709(37) 0.000730 1532. 1679.
1686(37) 0.000730 1535. 1680.
1700(37) 0.000730 1538. 1681.
1681(37) 0.000730 1541. 1683.
1705(37) 0.000730 1544. 1684.
1677(37) 0.000730 1547. 1685.
1737(38) 0.000693 1550. 1687.
1782(38) 0.000693 1553. 1688.
1728(38) 0.000693 1556. 1690.
1698(37) 0.000730 1559. 1692.
1692(37) 0.000730 1562. 1693.
1703(37) 0.000730 1565. 1695.
1713(37) 0.000730 1568. 1697.
1729(38) 0.000693 1571. 1699.
1713(37) 0.000730 1574. 1701.
1684(37) 0.000730 1578. 1703.
1699(37) 0.000730 1581. 1706.
1721(38) 0.000693 1584. 1708.
1693(37) 0.000730 1587. 1710.
1709(37) 0.000730 1590. 1713.
1746(38) 0.000693 1593. 1716.
1720(38) 0.000693 1596. 1719.
1728(38) 0.000693 1600. 1722.
1750(38) 0.000693 1603. 1725.
1750(38) 0.000693 1606. 1728.
1709(37) 0.000730 1609. 1732.
1787(38) 0.000693 1613. 1735.
1788(38) 0.000693 1616. 1739.
1737(38) 0.000693 1619. 1743.
1738(38) 0.000693 1622. 1747.
1752(38) 0.000693 1626. 1751.
1763(38) 0.000693 1629. 1756.
1738(38) 0.000693 1632. 1760.
1801(38) 0.000693 1635. 1765.
1794(38) 0.000693 1639. 1769.
1748(38) 0.000693 1642. 1774.
1723(38) 0.000693 1645. 1779.
1729(38) 0.000693 1649. 1784.
1812(38) 0.000693 1652. 1789.
1775(38) 0.000693 1655. 1795.
1789(38) 0.000693 1659. 1800.
1816(39) 0.000657 1662. 1806.
1828(39) 0.000657 1666. 1811.
1824(39) 0.000657 1669. 1817.
1892(39) 0.000657 1672. 1823.
1836(39) 0.000657 1676. 1829.
1862(39) 0.000657 1679. 1834.
1833(39) 0.000657 1683. 1840.
1809(38) 0.000693 1686. 1846.
1824(39) 0.000657 1689. 1852.
1847(39) 0.000657 1693. 1858.
1848(39) 0.000657 1696. 1865.
1910(39) 0.000657 1700. 1871.
1871(39) 0.000657 1703. 1877.
1888(39) 0.000657 1707. 1883.
1847(39) 0.000657 1710. 1889.
1917(40) 0.000625 1714. 1895.
1929(40) 0.000625 1717. 1901.
1876(39) 0.000657 1721. 1907.
1939(40) 0.000625 1724. 1913.
1883(39) 0.000657 1728. 1919.
1880(39) . . .
1968(40) . . .
1947(40) . . .
1903(39) . . .
1934(40) . . .
1935(40) . . .
2038(41) . . .
2029(41) . . .
2037(41) . . .
2043(41) . . .
2042(41) . . .
2014(40) . . .
2048(41) . . .
2058(41) . . .
2040(41) . . .
2067(41) . . .
2083(41) . . .
2164(42) . . .
2148(42) . . .
2109(41) . . .
2088(41) . . .
2126(42) . . .
2181(42) . . .
2174(42) . . .
2168(42) . . .
2156(42) . . .
2138(60) . . .
2115(60) . . .
2164(60) . . .
2214(61) . . .
2130(60) . . .
2128(60) . . .
2193(61) . . .
2223(61) . . .
2223(61) . . .
2180(60) . . .
2204(61) . . .
2235(61) . . .
2274(62) . . .
2332(62) . . .
2385(63) . . .
2292(62) . . .
2419(63) . . .
2400(63) . . .
2300(62) . . .
2383(63) . . .
2444(64) . . .
2389(63) . . .
2432(64) . . .
2379(63) . . .
2449(64) . . .
2440(64) . . .
2413(63) . . .
2460(64) . . .
2409(63) . . .
2401(63) . . .
2479(64) . . .
2449(64) . . .
2476(64) . . .
2487(64) . . .
2449(64) . . .
2580(65) . . .
2454(64) . . .
2476(64) . . .
2507(64) . . .
2499(64) . . .
2572(65) . . .
2559(65) . . .
2556(65) . . .
2471(64) . . .
2528(65) . . .
2699(67) . . .
2636(66) . . .
2652(66) . . .
2610(66) . . .
2644(66) . . .
2569(65) . . .
2568(65) . . .
2637(66) . . .
2624(66) . . .
2676(66) . . .
2707(67) . . .
2696(67) . . .
2757(67) . . .
2652(66) . . .
2654(66) . . .
2639(66) . . .
2747(67) . . .
2739(67) . . .
2823(68) . . .
2697(67) . . .
2766(68) . . .
2771(68) . . .
2730(67) . . .
2669(66) . . .
2703(67) . . .
2774(68) . . .
2667(66) . . .
2667(66) . . .
2734(67) . . .
2844(68) . . .
2779(68) . . .
2700(67) . . .
2767(68) . . .
2709(67) . . .
2717(67) . . .
2731(67) . . .
2757(67) . . .
2749(67) . . .
2757(67) . . .
2760(67) . . .
2791(68) . . .
2808(68) . . .
2810(68) . . .
2839(68) . . .
2736(67) . . .
2764(68) . . .
2755(67) . . .
2798(68) . . .
2800(68) . . .
2829(68) . . .
2848(68) . . .
2751(67) . . .
2901(69) . . .
2827(68) . . .
2801(68) . . .
loop_
_gsas_i100_meas
100.00
6.26
25.49
0.57
0.29
0.50
2.66
1.33
3.21
0.01
4.67
2.00
0.05
0.05
3.22
2.30
0.38
1.34
1.14
2.33
0.05
0.06
0.05
0.04
0.30
0.24
0.25
0.63
3.44
1.23
0.78
1.44
0.51
4.56
0.18
0.46
3.07
0.12
1.06
0.63
0.05
0.06
0.29
0.11
0.08
0.10
0.11
0.65
0.55
0.41
0.00
0.55
0.78
0.00
0.62
0.22
0.41
1.52
0.71
0.00
0.51
0.37
1.43
0.10
0.38
0.00
0.18
0.01
0.12
0.07
0.82
0.07
0.35
0.49
0.29
0.76
0.22
0.32
0.22
0.32
0.11
0.32
0.17
0.48
0.04
0.00
0.15
0.06
0.03
0.04
0.03
0.00
0.06
0.15
1.45
0.38
0.21
1.26
0.01
0.42
0.03
0.00
0.23
0.22
0.64
0.54
0.63
0.06
0.07
0.04
0.14
0.01
0.01
0.41
0.11
0.02
0.10
0.84
0.02
0.06
0.14
0.12
0.02
0.40
1.31
0.00
0.31
0.31
0.00
0.35
0.01
0.15
0.01
0.99
0.02
0.15
0.00
0.30
0.04
0.03
0.00
0.25
0.45
0.23
0.01
0.06
0.00
0.02
0.22
0.01
0.30
0.07
0.52
0.12
0.04
0.28
0.31
0.14
0.07
0.01
0.30
0.00
0.04
0.18
0.00
0.30
0.14
0.52
0.00
0.13
0.01
0.02
0.02
0.06
0.02
0.01
0.18
0.00
0.09
2.11
0.15
0.12
0.32
0.20
0.03
0.14
0.03
0.33
0.02
0.17
0.01
0.03
0.08
0.01
0.10
0.10
0.10
0.09
0.31
0.02
0.31
0.08
0.00
0.17
0.07
0.02
0.13
0.00
0.01
0.01
0.25
0.05
0.02
0.47
0.01
0.00
1.30
0.01
0.05
0.01
0.07
0.01
0.40
1.22
0.32
0.26
0.05
0.01
0.00
0.23
0.00
0.08
0.22
0.13
0.72
0.14
0.04
0.01
0.01
0.08
0.00
0.12
0.00
0.00
0.03
0.14
0.34
0.00
0.20
0.09
0.51
0.52
0.49
0.01
0.00
0.37
0.00
0.02
0.55
0.35
0.00
0.00
0.02
0.92
0.04
0.04
0.01
0.02
1.11
0.03
0.13
0.00
0.14
0.14
0.03
0.00
0.38
0.01
0.00
0.18
0.00
0.58
0.84
0.14
0.08
0.17
0.17
0.04
0.06
0.35
0.07
0.27
0.09
0.08
0.04
0.00
0.11
0.18
0.00
0.07
0.07
0.02
0.03
0.29
0.37
0.06
0.45
0.02
0.00
0.37
0.00
0.24
0.03
0.14
0.02
0.00
0.02
0.01
0.00
0.51
0.25
0.00
0.17
0.10
0.26
0.00
0.01
0.03
0.25
0.46
0.24
1.03
0.47
0.21
0.00
0.01
0.07
0.00
0.11
0.02
0.44
0.05
0.02
0.02
0.01
0.15
0.10
0.23
0.00
0.20
0.01
0.08
0.15
0.00
0.10
0.02
0.01
0.68
0.46
0.01
0.41
0.02
0.13
0.01
0.25
0.01
0.03
0.09
0.11
0.18
1.05
0.37
0.08
0.00
0.11
0.00
0.32
0.23
0.07
0.00
0.31
0.02
0.40
0.02
0.02
0.00
0.10
0.12
0.05
0.05
0.44
0.10
0.05
0.38
0.04
0.03
0.56
0.84
0.00
0.05
0.00
0.02
0.07
0.22
0.06
0.23
0.02
0.01
0.05
0.00
0.00
0.54
0.03
0.21
0.28
0.04
0.32
0.01
0.17
0.17
0.00
0.46
0.13
0.00
0.04
0.02
0.03
0.01
0.00
0.40
0.00
0.01
0.15
0.25
0.10
0.01
0.00
0.03
0.20
0.03
0.21
0.11
0.21
0.05
0.03
0.04
0.05
0.03
0.19
0.04
0.29
0.20
0.78
0.06
0.36
0.01
0.09
0.42
0.34
0.51
0.04
0.01
0.01
0.25
0.00
0.35
0.03
0.01
0.24
0.02
0.05
0.00
0.03
0.22
0.51
0.10
0.09
0.67
0.00
0.02
0.08
0.00
0.30
0.32
0.14
0.14
0.11
0.11
0.12
0.02
0.11
0.08
0.04
0.14
0.09
0.02
0.07
0.43
0.04
0.06
0.25
0.05
0.00
0.04
0.39
0.16
0.15
0.00
0.07
0.00
0.05
0.00
0.00
0.22
0.01
0.00
0.03
0.44
0.00
0.01
0.00
0.65
0.29
0.04
0.02
0.04
0.27
0.24
0.13
0.00
0.81
0.40
0.32
0.20
0.14
0.04
0.15
0.03
0.14
0.08
0.96
0.01
0.08
0.00
0.00
0.18
0.00
0.04
0.01
0.00
0.07
0.05
0.06
0.16
0.06
0.10
0.14
0.00
0.10
0.02
0.52
0.23
0.31
0.11
0.26
0.00
0.00
0.10
0.02
0.10
0.00
0.01
0.00
0.40
0.55
0.31
0.02
0.00
0.06
0.01
0.00
1.15
0.00
0.03
0.17
0.35
0.09
0.19
0.42
0.00
0.01
0.01
0.07
0.10
0.07
0.03
0.00
0.46
1.97
0.03
0.00
0.02
0.02
0.05
0.02
0.15
0.03
0.00
0.45
0.50
0.51
0.19
0.46
0.24
0.14
0.00
1.05
0.01
0.00
0.25
0.00
0.27
0.01
0.14
0.37
0.02
0.11
0.08
0.09
0.07
0.17
0.01
0.04
0.00
0.00
0.00
0.10
0.00
0.05
0.27
1.03
0.50
0.01
0.32
0.73
0.91
0.81
0.10
0.21
0.13
0.93
0.72
0.02
0.53
2.27
0.00
0.00
0.17
0.21
0.40
